data_PCOD9182568
_publ_section_title
;
Structure prediction by ZEFSAII (Michael W. Deem and Ramdas Pophale) SiO2 
 PCOD9182568
Probable space group: C 2/M
;
_chemical_formula_sum "Si O2"
_cell_formula_units_Z 48
_cell_length_a 14.611433
_cell_length_b 8.532689
_cell_length_c 22.911949
_cell_angle_alpha 90.000000
_cell_angle_beta 72.427406
_cell_angle_gamma 90.000000
_cell_volume 2723.242936
_symmetry_space_group_name_H-M "C 2/M"
_symmetry_group_IT_number 12
_symmetry_cell_setting 'monoclinic'
loop_
_space_group_symop_operation_xyz
x,y,z
-x,y,-z
-x,-y,-z
x,-y,z
1/2+x,1/2+y,z
1/2-x,1/2+y,-z
1/2-x,1/2-y,-z
1/2+x,1/2-y,z
loop_
_atom_site_type_symbol
_atom_site_label
_atom_site_fract_x
_atom_site_fract_y
_atom_site_fract_z
Si Si1 0.871070 0.687889 0.765159
Si Si2 0.224004 0.188245 0.332717
Si Si3 0.963425 0.310297 0.570306
Si Si4 0.796136 0.187526 0.902113
Si Si5 0.392659 0.689406 0.004798
Si Si6 0.566522 0.809510 0.668161
O O1 0.868523 0.500000 0.764307
O O2 0.804199 0.750899 0.725938
O O3 0.837176 0.746777 0.834208
O O4 0.979624 0.738749 0.727568
O O5 0.140915 0.246938 0.392175
O O6 0.328977 0.244897 0.332334
O O7 0.223664 0.000000 0.332051
O O8 0.958860 0.500000 0.571461
O O9 0.034902 0.262026 0.609023
O O10 0.000000 0.258933 0.500000
O O11 0.688629 0.246070 0.936312
O O12 0.796221 0.000000 0.899811
O O13 0.860195 0.237115 0.945779
O O14 0.390122 0.500000 0.007845
O O15 0.500000 0.741122 0.000000
O O16 0.568665 0.000000 0.668184
#
# Coordination Sequence:
#
# PCOD9182568 Si02
#       6
#     8   8   8   8   8   8
#     4  10  20  36  54  72 100 136 170 203 249 304
#     4  10  19  33  52  75 102 129 166 213 254 292
#     4   9  18  34  53  73 101 136 169 200 244 304
#     4  10  20  34  53  78 105 132 167 209 251 293
#     4   9  19  36  55  76 104 136 169 205 246 296
#     4   8  17  33  51  72 100 133 165 203 250 297
#
# _framework density 17.626045000000001
#
# number of rings (size 3 to 8) (size 9 to 14) (size 15 to 20)
#    0.000    2.667    0.000    2.500    0.000    3.333 
#    0.000   11.667    0.000    0.000    0.000    0.000 
#    0.000    0.000    0.000    0.000    0.000    0.000 
#
# Total GULP energy -133859.449659 kJ/mol
# GULP energy per Si atom -5577.477069 kJ/mol
# Density = 1.758593 g / cm^3
# Si number density = 17.626045 Si / 1000 Ang^3
#
#
#
# Elastic Constant Matrix: (Units=GPa)
#
#
# Indices 1 2 3 4 5 6 
#
# 1 190.5439 29.2149 97.8936 0.0000 -9.3278 0.0000
# 2 29.2149 23.9666 32.0901 0.0000 -1.7822 0.0000
# 3 97.8936 32.0901 187.4426 0.0000 -10.1567 0.0000
# 4 0.0000 0.0000 0.0000 19.0972 0.0000 -5.9805
# 5 -9.3278 -1.7822 -10.1567 0.0000 6.3982 0.0000
# 6 0.0000 0.0000 0.0000 -5.9805 0.0000 23.4871
#
#
#
# Elastic Compliance Matrix: (Units=1/GPa)
#
#
# Indices 1 2 3 4 5 6 
#
# 1 0.007795 -0.005243 -0.002885 0.000000 0.005324 0.000000
# 2 -0.005243 0.057662 -0.007306 0.000000 -0.003179 0.000000
# 3 -0.002885 -0.007306 0.008484 0.000000 0.007227 0.000000
# 4 0.000000 0.000000 0.000000 0.056901 0.000000 0.014489
# 5 0.005324 -0.003179 0.007227 0.000000 0.174641 0.000000
# 6 0.000000 0.000000 0.000000 0.014489 0.000000 0.046266
#
#
# Mechanical properties :
#
#
# Convention : Reuss Voigt Hill
#
# Bulk Modulus (GPa) = 23.21638 80.03894 51.62766
# Shear Modulus (GPa) = 12.59532 25.98014 19.28773
#
# Velocity S-wave (km/s) = 2.67607 3.84339 3.31157
# Velocity P-wave (km/s) = 4.76956 8.07487 6.63145
#
# Compressibility (1/GPa) = 0.04307304
#
# Stress axis : x y z
#
# Youngs Moduli (GPa) = 128.29180 17.34258 117.87072
#
# Poissons Ratio (x) = 0.09093 0.34003
# Poissons Ratio (y) = 0.67266 0.86112
# Poissons Ratio (z) = 0.37009 0.12670
#
# Static dielectric constant tensor:
#      x y z
#    x 1.593490 0.000000 0.006770 
#    y 0.000000 1.598720 0.000000 
#    z 0.006770 0.000000 1.574530 
# 
# From -- ./inp_files/308277.got.cif
#   From: 2010.05.17/outbox.cif.g08.bks.cpg/sg12_155_cif.got.tgz:308277.got - 2010.06.03 13:09:07.
