data_PCOD9182174
_publ_section_title
;
Structure prediction by ZEFSAII (Michael W. Deem and Ramdas Pophale) SiO2 
 PCOD9182174
Probable space group: C 2/M
;
_chemical_formula_sum "Si O2"
_cell_formula_units_Z 64
_cell_length_a 33.463718
_cell_length_b 9.106719
_cell_length_c 20.891046
_cell_angle_alpha 90.000000
_cell_angle_beta 33.028100
_cell_angle_gamma 90.000000
_cell_volume 3470.027241
_symmetry_space_group_name_H-M "C 2/M"
_symmetry_group_IT_number 12
_symmetry_cell_setting 'monoclinic'
loop_
_space_group_symop_operation_xyz
x,y,z
-x,y,-z
-x,-y,-z
x,-y,z
1/2+x,1/2+y,z
1/2-x,1/2+y,-z
1/2-x,1/2-y,-z
1/2+x,1/2-y,z
loop_
_atom_site_type_symbol
_atom_site_label
_atom_site_fract_x
_atom_site_fract_y
_atom_site_fract_z
Si Si1 0.172186 0.825046 0.422562
Si Si2 0.135201 0.327154 0.180362
Si Si3 0.504718 0.325098 0.667507
Si Si4 0.455756 0.323213 0.995316
Si Si5 0.705808 0.674527 0.820844
Si Si6 0.694127 0.172146 0.527740
Si Si7 0.714860 0.673226 0.956559
Si Si8 0.977878 0.672611 0.219448
O O1 0.224620 0.762191 0.297812
O O2 0.196836 0.749559 0.455433
O O3 0.085722 0.790693 0.531896
O O4 0.179386 0.000000 0.417714
O O5 0.120430 0.500000 0.196867
O O6 0.060071 0.239524 0.288481
O O7 0.198465 0.301586 0.148002
O O8 0.171425 0.270626 0.065584
O O9 0.497788 0.500000 0.683117
O O10 0.499002 0.252772 0.745814
O O11 0.461814 0.500000 0.979040
O O12 0.487752 0.245834 0.889387
O O13 0.500000 0.282202 0.000000
O O14 0.369212 0.288127 0.115487
O O15 0.719252 0.500000 0.795626
O O16 0.693488 0.703201 0.912561
O O17 0.750000 0.250000 0.500000
O O18 0.610513 0.185977 0.664576
O O19 0.711221 0.000000 0.498512
O O20 0.700881 0.500000 0.989056
O O21 0.996522 0.500000 0.198121
#
# Coordination Sequence:
#
# PCOD9182174 Si02
#       8
#     8   8   8   8   8   8   8   8
#     4  10  22  38  56  80 107 143 188 230 277 330
#     4  10  19  32  56  87 115 143 184 234 275 323
#     4  10  20  36  57  80 109 145 180 225 280 333
#     4  10  22  37  54  80 111 147 184 220 274 338
#     4  10  21  38  57  77 109 151 187 224 274 334
#     4  10  21  36  56  81 108 140 180 227 277 325
#     4   9  19  35  55  83 116 151 187 224 276 334
#     4  10  21  36  55  81 108 138 180 228 273 320
#
# _framework density 18.443660000000001
#
# number of rings (size 3 to 8) (size 9 to 14) (size 15 to 20)
#    0.000    2.125    0.000    2.625    1.750    5.750 
#    0.000    0.625    0.000    3.750    0.000    0.000 
#    0.000    0.000    0.000    0.000    0.000    0.000 
#
# Total GULP energy -178699.227645 kJ/mol
# GULP energy per Si atom -5584.350864 kJ/mol
# Density = 1.840168 g / cm^3
# Si number density = 18.443660 Si / 1000 Ang^3
#
#
#
# Elastic Constant Matrix: (Units=GPa)
#
#
# Indices 1 2 3 4 5 6 
#
# 1 83.3980 29.4495 15.4450 -0.0019 -23.9449 0.0001
# 2 29.4495 49.9713 24.4664 -0.0110 -9.6873 0.0035
# 3 15.4450 24.4664 45.8639 -0.0074 -0.4581 0.0021
# 4 -0.0019 -0.0110 -0.0074 35.0548 0.0001 -2.0134
# 5 -23.9449 -9.6873 -0.4581 0.0001 18.1157 0.0010
# 6 0.0001 0.0035 0.0021 -2.0134 0.0010 27.8807
#
#
#
# Elastic Compliance Matrix: (Units=1/GPa)
#
#
# Indices 1 2 3 4 5 6 
#
# 1 0.022461 -0.006182 -0.004004 -0.000002 0.026281 0.000000
# 2 -0.006182 0.032955 -0.015408 0.000007 0.009062 -0.000003
# 3 -0.004004 -0.015408 0.031244 0.000002 -0.012741 0.000000
# 4 -0.000002 0.000007 0.000002 0.028646 0.000001 0.002069
# 5 0.026281 0.009062 -0.012741 0.000001 0.094462 -0.000004
# 6 0.000000 -0.000003 0.000000 0.002069 -0.000004 0.036017
#
#
# Mechanical properties :
#
#
# Convention : Reuss Voigt Hill
#
# Bulk Modulus (GPa) = 28.19009 35.32835 31.75922
# Shear Modulus (GPa) = 16.19195 23.53506 19.86351
#
# Velocity S-wave (km/s) = 2.96618 3.57606 3.28530
# Velocity P-wave (km/s) = 5.20082 6.02057 5.62565
#
# Compressibility (1/GPa) = 0.03547346
#
# Stress axis : x y z
#
# Youngs Moduli (GPa) = 44.52209 30.34423 32.00602
#
# Poissons Ratio (x) = 0.18758 0.12814
# Poissons Ratio (y) = 0.27522 0.49315
# Poissons Ratio (z) = 0.17825 0.46754
#
# Static dielectric constant tensor:
#      x y z
#    x 1.628130 0.000000 -0.030570 
#    y 0.000000 1.630600 0.000000 
#    z -0.030570 0.000000 1.624270 
# 
# From -- ./inp_files/295459.got.cif
#   From: 2010.05.17/outbox.cif.g08.bks.cpg/sg12_148_cif.got.tgz:295459.got - 2010.06.03 13:09:07.
