data_PCOD9182381
_publ_section_title
;
Structure prediction by ZEFSAII (Michael W. Deem and Ramdas Pophale) SiO2 
 PCOD9182381
Probable space group: C 2/M
;
_chemical_formula_sum "Si O2"
_cell_formula_units_Z 56
_cell_length_a 26.867840
_cell_length_b 22.199144
_cell_length_c 7.141222
_cell_angle_alpha 90.000000
_cell_angle_beta 43.751441
_cell_angle_gamma 90.000000
_cell_volume 2945.461223
_symmetry_space_group_name_H-M "C 2/M"
_symmetry_group_IT_number 12
_symmetry_cell_setting 'monoclinic'
loop_
_space_group_symop_operation_xyz
x,y,z
-x,y,-z
-x,-y,-z
x,-y,z
1/2+x,1/2+y,z
1/2-x,1/2+y,-z
1/2-x,1/2-y,-z
1/2+x,1/2-y,z
loop_
_atom_site_type_symbol
_atom_site_label
_atom_site_fract_x
_atom_site_fract_y
_atom_site_fract_z
Si Si1 0.181974 0.696333 0.948888
Si Si2 0.598456 0.693491 0.059893
Si Si3 0.440083 0.323891 0.393026
Si Si4 0.826254 0.735421 0.592671
Si Si5 0.237520 0.879380 0.729710
Si Si6 0.836577 0.931959 0.697532
Si Si7 0.205483 0.435257 0.774504
O O1 0.265444 0.715706 0.699054
O O2 0.168424 0.626518 0.943871
O O3 0.131585 0.739300 0.959840
O O4 0.173281 0.715452 0.189272
O O5 0.578676 0.687149 0.335055
O O6 0.525822 0.678334 0.148452
O O7 0.664571 0.648820 0.841883
O O8 0.400772 0.271669 0.379968
O O9 0.401795 0.388012 0.465976
O O10 0.796034 0.674421 0.583549
O O11 0.273561 0.927992 0.498902
O O12 0.210119 0.903851 0.003831
O O13 0.780458 0.935348 0.681895
O O14 0.860096 0.000000 0.682754
O O15 0.169224 0.500000 0.908436
#
# Coordination Sequence:
#
# PCOD9182381 Si02
#       7
#     8   8   8   8   8   8   8
#     4   9  15  31  49  76  98 128 165 209 253 294
#     4   8  17  28  52  74 102 129 165 211 254 287
#     4   9  15  31  49  77 101 131 168 205 247 303
#     4   9  15  28  53  72  97 128 163 215 253 287
#     4  10  19  33  50  74  99 132 171 211 244 290
#     4  10  19  33  51  71 104 140 167 199 241 296
#     4  11  21  32  51  76 102 134 169 205 245 297
#
# _framework density 19.012301999999998
#
# number of rings (size 3 to 8) (size 9 to 14) (size 15 to 20)
#    0.000    2.571    2.857    2.143    0.000    2.286 
#    0.000    7.143    0.000    1.714    0.000   11.000 
#    0.000    0.000    0.000    0.000    0.000    0.000 
#
# Total GULP energy -155982.704387 kJ/mol
# GULP energy per Si atom -5570.810871 kJ/mol
# Density = 1.896903 g / cm^3
# Si number density = 19.012302 Si / 1000 Ang^3
#
#
#
# Elastic Constant Matrix: (Units=GPa)
#
#
# Indices 1 2 3 4 5 6 
#
# 1 41.2660 20.3962 12.0527 0.0000 -7.5677 0.0000
# 2 20.3962 126.1704 7.9837 0.0000 -6.8741 0.0000
# 3 12.0527 7.9837 35.2371 0.0000 7.3702 0.0000
# 4 0.0000 0.0000 0.0000 21.5363 0.0000 0.9223
# 5 -7.5677 -6.8741 7.3702 0.0000 23.9384 0.0000
# 6 0.0000 0.0000 0.0000 0.9223 0.0000 18.1875
#
#
#
# Elastic Compliance Matrix: (Units=1/GPa)
#
#
# Indices 1 2 3 4 5 6 
#
# 1 0.032235 -0.003678 -0.012936 0.000000 0.013117 0.000000
# 2 -0.003678 0.008677 -0.001054 0.000000 0.001654 0.000000
# 3 -0.012936 -0.001054 0.036299 0.000000 -0.015568 0.000000
# 4 0.000000 0.000000 0.000000 0.046534 0.000000 -0.002360
# 5 0.013117 0.001654 -0.015568 0.000000 0.051188 0.000000
# 6 0.000000 0.000000 0.000000 -0.002360 0.000000 0.055102
#
#
# Mechanical properties :
#
#
# Convention : Reuss Voigt Hill
#
# Bulk Modulus (GPa) = 23.88044 31.50431 27.69237
# Shear Modulus (GPa) = 17.90001 23.54852 20.72427
#
# Velocity S-wave (km/s) = 3.07171 3.52318 3.30516
# Velocity P-wave (km/s) = 5.01680 5.75820 5.40024
#
# Compressibility (1/GPa) = 0.04187528
#
# Stress axis : x y z
#
# Youngs Moduli (GPa) = 31.02260 115.24602 27.54903
#
# Poissons Ratio (x) = 0.42384 0.35638
# Poissons Ratio (y) = 0.11409 0.02903
# Poissons Ratio (z) = 0.40131 0.12146
#
# Static dielectric constant tensor:
#      x y z
#    x 1.690280 0.000000 0.063270 
#    y 0.000000 1.689700 0.000000 
#    z 0.063270 0.000000 1.687760 
# 
# From -- ./inp_files/112583.got.cif
#   From: 2010.05.17/outbox.cif.g08.bks.cpg/sg12_57_cif.got.tgz:112583.got - 2010.06.03 13:09:07.
