data_PCOD9182179
_publ_section_title
;
Structure prediction by ZEFSAII (Michael W. Deem and Ramdas Pophale) SiO2 
 PCOD9182179
Probable space group: C 2/M
;
_chemical_formula_sum "Si O2"
_cell_formula_units_Z 48
_cell_length_a 29.256862
_cell_length_b 13.670518
_cell_length_c 10.029547
_cell_angle_alpha 90.000000
_cell_angle_beta 145.480222
_cell_angle_gamma 90.000000
_cell_volume 2273.212867
_symmetry_space_group_name_H-M "C 2/M"
_symmetry_group_IT_number 12
_symmetry_cell_setting 'monoclinic'
loop_
_space_group_symop_operation_xyz
x,y,z
-x,y,-z
-x,-y,-z
x,-y,z
1/2+x,1/2+y,z
1/2-x,1/2+y,-z
1/2-x,1/2-y,-z
1/2+x,1/2-y,z
loop_
_atom_site_type_symbol
_atom_site_label
_atom_site_fract_x
_atom_site_fract_y
_atom_site_fract_z
Si Si1 0.770876 0.382079 0.561939
Si Si2 0.242072 0.881616 0.065125
Si Si3 0.973680 0.803525 0.789373
Si Si4 0.389898 0.115895 0.620836
Si Si5 0.293418 0.381709 0.313813
Si Si6 0.874805 0.881985 0.988483
O O1 0.775788 0.500000 0.575811
O O2 0.847615 0.352079 0.658338
O O3 0.758049 0.348048 0.681803
O O4 0.690527 0.358893 0.284255
O O5 0.322068 0.864895 0.344586
O O6 0.165307 0.850279 0.968759
O O7 0.236196 0.000000 0.044487
O O8 0.241046 0.847132 0.910668
O O9 0.963578 0.686410 0.768228
O O10 0.885469 0.847195 0.548768
O O11 0.000000 0.837568 0.000000
O O12 0.040189 0.836394 0.844272
O O13 0.407479 0.000000 0.666187
O O14 0.293101 0.500000 0.315644
O O15 0.882975 0.000000 0.009906
#
# Coordination Sequence:
#
# PCOD9182179 Si02
#       6
#     8   8   8   8   8   8
#     4   8  15  32  57  80 104 137 175 225 273 312
#     4   8  17  36  60  81 105 141 180 224 272 318
#     4  12  23  32  51  84 113 148 178 214 273 325
#     4   9  20  39  58  75 103 144 192 232 260 303
#     4  10  19  32  56  88 114 134 171 222 279 334
#     4   9  17  33  55  82 115 142 169 213 276 338
#
# _framework density 21.115489
#
# number of rings (size 3 to 8) (size 9 to 14) (size 15 to 20)
#    0.000    2.667    1.667    2.500    0.000    3.000 
#    0.000    2.500    3.667    0.000    0.000    2.333 
#    0.000    0.000    0.000    0.000    0.000    0.000 
#
# Total GULP energy -134143.834019 kJ/mol
# GULP energy per Si atom -5589.326417 kJ/mol
# Density = 2.106743 g / cm^3
# Si number density = 21.115489 Si / 1000 Ang^3
#
#
#
# Elastic Constant Matrix: (Units=GPa)
#
#
# Indices 1 2 3 4 5 6 
#
# 1 134.7476 46.9160 57.2473 0.0000 -25.5650 0.0000
# 2 46.9160 96.7368 18.7212 0.0000 2.2919 0.0000
# 3 57.2473 18.7212 70.3773 0.0000 -19.4943 0.0000
# 4 0.0000 0.0000 0.0000 25.7497 0.0000 6.8412
# 5 -25.5650 2.2919 -19.4943 0.0000 33.4159 0.0000
# 6 0.0000 0.0000 0.0000 6.8412 0.0000 29.6039
#
#
#
# Elastic Compliance Matrix: (Units=1/GPa)
#
#
# Indices 1 2 3 4 5 6 
#
# 1 0.013942 -0.005324 -0.008193 0.000000 0.006252 0.000000
# 2 -0.005324 0.013174 -0.000659 0.000000 -0.005361 0.000000
# 3 -0.008193 -0.000659 0.023050 0.000000 0.007224 0.000000
# 4 0.000000 0.000000 0.000000 0.041376 0.000000 -0.009562
# 5 0.006252 -0.005361 0.007224 0.000000 0.039291 0.000000
# 6 0.000000 0.000000 0.000000 -0.009562 0.000000 0.035989
#
#
# Mechanical properties :
#
#
# Convention : Reuss Voigt Hill
#
# Bulk Modulus (GPa) = 45.84107 60.84785 53.34446
# Shear Modulus (GPa) = 24.69827 29.68573 27.19200
#
# Velocity S-wave (km/s) = 3.42376 3.75357 3.59245
# Velocity P-wave (km/s) = 6.11444 6.90398 6.52117
#
# Compressibility (1/GPa) = 0.02181450
#
# Stress axis : x y z
#
# Youngs Moduli (GPa) = 71.72648 75.90736 43.38481
#
# Poissons Ratio (x) = 0.40415 0.35544
# Poissons Ratio (y) = 0.38189 0.02857
# Poissons Ratio (z) = 0.58763 0.04999
#
# Static dielectric constant tensor:
#      x y z
#    x 1.731770 0.000000 -0.036200 
#    y 0.000000 1.812870 0.000000 
#    z -0.036200 0.000000 1.739260 
# 
# From -- ./inp_files/104921.got.cif
#   From: 2010.05.17/outbox.cif.g08.bks.cpg/sg12_53_cif.got.tgz:104921.got - 2010.06.03 13:09:07.
