data_PCOD9182698
_publ_section_title
;
Structure prediction by ZEFSAII (Michael W. Deem and Ramdas Pophale) SiO2 
 PCOD9182698
Probable space group: C 2/M
;
_chemical_formula_sum "Si O2"
_cell_formula_units_Z 64
_cell_length_a 15.819911
_cell_length_b 28.790502
_cell_length_c 12.737916
_cell_angle_alpha 90.000000
_cell_angle_beta 40.001064
_cell_angle_gamma 90.000000
_cell_volume 3729.312372
_symmetry_space_group_name_H-M "C 2/M"
_symmetry_group_IT_number 12
_symmetry_cell_setting 'monoclinic'
loop_
_space_group_symop_operation_xyz
x,y,z
-x,y,-z
-x,-y,-z
x,-y,z
1/2+x,1/2+y,z
1/2-x,1/2+y,-z
1/2-x,1/2-y,-z
1/2+x,1/2-y,z
loop_
_atom_site_type_symbol
_atom_site_label
_atom_site_fract_x
_atom_site_fract_y
_atom_site_fract_z
Si Si1 0.324743 0.808695 0.762698
Si Si2 0.872729 0.949309 0.546197
Si Si3 0.128894 0.301208 0.510071
Si Si4 0.738967 0.300230 0.413304
Si Si5 0.004277 0.139587 0.623157
Si Si6 0.142800 0.718689 0.909943
Si Si7 0.364476 0.054509 0.066811
Si Si8 0.712685 0.139757 0.994563
O O1 0.473874 0.791756 0.645946
O O2 0.329435 0.826217 0.637367
O O3 0.227060 0.764317 0.860014
O O4 0.289999 0.848055 0.879983
O O5 0.913515 0.907422 0.432587
O O6 0.752121 0.937615 0.737588
O O7 0.000000 0.953386 0.500000
O O8 0.848563 0.000000 0.520722
O O9 0.162962 0.320208 0.592566
O O10 0.219582 0.255133 0.424952
O O11 0.594857 0.318897 0.575321
O O12 0.786752 0.310620 0.250433
O O13 0.000000 0.143848 0.500000
O O14 0.862160 0.139961 0.809354
O O15 0.138740 0.683141 0.009952
O O16 0.000000 0.731557 0.000000
O O17 0.348118 0.091401 0.988686
O O18 0.356023 0.000000 0.042246
O O19 0.500000 0.061382 0.000000
#
# Coordination Sequence:
#
# PCOD9182698 Si02
#       8
#     8   8   8   8   8   8   8   8
#     4  10  22  35  50  70 102 139 177 216 252 312
#     4   9  16  30  49  71 103 136 163 196 254 323
#     4   9  20  37  51  68  96 137 177 216 263 298
#     4  10  19  33  53  71  96 134 173 216 259 311
#     4  11  19  31  50  77 103 136 170 209 259 318
#     4  11  21  32  50  75 106 135 173 216 265 315
#     4  10  20  33  51  78 111 141 172 221 275 324
#     4  12  21  32  51  78 106 138 174 211 266 322
#
# _framework density 17.161341
#
# number of rings (size 3 to 8) (size 9 to 14) (size 15 to 20)
#    0.000    1.750    3.750    2.250    1.750    4.000 
#    0.000    0.000    0.000    0.000    0.000    2.625 
#    0.000    2.500    0.000    0.000    0.000    0.000 
#
# Total GULP energy -178204.636323 kJ/mol
# GULP energy per Si atom -5568.894885 kJ/mol
# Density = 1.712228 g / cm^3
# Si number density = 17.161341 Si / 1000 Ang^3
#
#
#
# Elastic Constant Matrix: (Units=GPa)
#
#
# Indices 1 2 3 4 5 6 
#
# 1 78.4748 33.5227 46.6512 0.0000 -0.3687 0.0000
# 2 33.5227 59.5001 28.9339 0.0000 6.3761 0.0000
# 3 46.6512 28.9339 88.4914 0.0000 -1.7199 0.0000
# 4 0.0000 0.0000 0.0000 20.5247 0.0000 -2.7705
# 5 -0.3687 6.3761 -1.7199 0.0000 31.0192 0.0000
# 6 0.0000 0.0000 0.0000 -2.7705 0.0000 11.8307
#
#
#
# Elastic Compliance Matrix: (Units=1/GPa)
#
#
# Indices 1 2 3 4 5 6 
#
# 1 0.021241 -0.007951 -0.008571 0.000000 0.001412 0.000000
# 2 -0.007951 0.023601 -0.003625 0.000000 -0.005147 0.000000
# 3 -0.008571 -0.003625 0.017035 0.000000 0.001588 0.000000
# 4 0.000000 0.000000 0.000000 0.050312 0.000000 0.011782
# 5 0.001412 -0.005147 0.001588 0.000000 0.033401 0.000000
# 6 0.000000 0.000000 0.000000 0.011782 0.000000 0.087285
#
#
# Mechanical properties :
#
#
# Convention : Reuss Voigt Hill
#
# Bulk Modulus (GPa) = 46.33230 49.40911 47.87071
# Shear Modulus (GPa) = 17.83400 20.49881 19.16641
#
# Velocity S-wave (km/s) = 3.22715 3.45987 3.34554
# Velocity P-wave (km/s) = 6.39865 6.69435 6.54817
#
# Compressibility (1/GPa) = 0.02158321
#
# Stress axis : x y z
#
# Youngs Moduli (GPa) = 47.07838 42.37179 58.70211
#
# Poissons Ratio (x) = 0.33689 0.50313
# Poissons Ratio (y) = 0.37431 0.21280
# Poissons Ratio (z) = 0.40350 0.15360
#
# Static dielectric constant tensor:
#      x y z
#    x 1.621800 0.000000 0.016120 
#    y 0.000000 1.637600 0.000000 
#    z 0.016120 0.000000 1.609310 
# 
# From -- ./inp_files/150250.got.cif
#   From: 2010.05.17/outbox.cif.g08.bks.cpg/sg12_76_cif.got.tgz:150250.got - 2010.06.03 13:09:07.
