data_PCOD9182203
_publ_section_title
;
Structure prediction by ZEFSAII (Michael W. Deem and Ramdas Pophale) SiO2 
 PCOD9182203
Probable space group: C 2/M
;
_chemical_formula_sum "Si O2"
_cell_formula_units_Z 56
_cell_length_a 26.982821
_cell_length_b 13.696530
_cell_length_c 9.227615
_cell_angle_alpha 90.000000
_cell_angle_beta 134.866737
_cell_angle_gamma 90.000000
_cell_volume 2417.019444
_symmetry_space_group_name_H-M "C 2/M"
_symmetry_group_IT_number 12
_symmetry_cell_setting 'monoclinic'
loop_
_space_group_symop_operation_xyz
x,y,z
-x,y,-z
-x,-y,-z
x,-y,z
1/2+x,1/2+y,z
1/2-x,1/2+y,-z
1/2-x,1/2-y,-z
1/2+x,1/2-y,z
loop_
_atom_site_type_symbol
_atom_site_label
_atom_site_fract_x
_atom_site_fract_y
_atom_site_fract_z
Si Si1 0.148040 0.316297 0.140749
Si Si2 0.123734 0.888872 0.053254
Si Si3 0.037120 0.112655 0.262505
Si Si4 0.401113 0.389941 0.321436
Si Si5 0.272975 0.699625 0.197322
Si Si6 0.117107 0.307460 0.388807
Si Si7 0.489618 0.115536 0.310997
O O1 0.210951 0.345726 0.164714
O O2 0.137503 0.358051 0.280035
O O3 0.163676 0.201011 0.205311
O O4 0.074938 0.333994 0.905844
O O5 0.118126 0.851075 0.875096
O O6 0.043987 0.891879 0.944577
O O7 0.151469 0.000000 0.119164
O O8 0.040826 0.140786 0.442655
O O9 0.078435 0.202744 0.280188
O O10 0.063912 0.000000 0.302559
O O11 0.419052 0.500000 0.321822
O O12 0.331093 0.379190 0.271998
O O13 0.315399 0.780046 0.377578
O O14 0.250000 0.750000 0.000000
O O15 0.060518 0.365351 0.367519
O O16 0.500000 0.147882 0.500000
O O17 0.474561 0.000000 0.283256
#
# Coordination Sequence:
#
# PCOD9182203 Si02
#       7
#     8   8   8   8   8   8   8
#     4  12  24  40  64  97 131 171 211 267 335 385
#     4  10  19  32  56  93 131 161 198 245 304 373
#     4   9  18  32  57  91 127 162 196 242 306 377
#     4   9  18  33  55  86 119 160 208 254 303 361
#     4  11  22  40  63  89 125 172 220 269 316 379
#     4  11  24  41  65  95 132 168 211 268 328 394
#     4  11  26  47  71  96 124 169 228 282 331 392
#
# _framework density 23.169032000000001
#
# number of rings (size 3 to 8) (size 9 to 14) (size 15 to 20)
#    0.000    1.571    2.857    2.143    2.000    4.000 
#    0.000    2.857    0.000    3.429    0.000    0.000 
#    0.000    0.000    0.000    0.000    0.000    0.000 
#
# Total GULP energy -156240.311710 kJ/mol
# GULP energy per Si atom -5580.011132 kJ/mol
# Density = 2.311630 g / cm^3
# Si number density = 23.169032 Si / 1000 Ang^3
#
#
#
# Elastic Constant Matrix: (Units=GPa)
#
#
# Indices 1 2 3 4 5 6 
#
# 1 141.4550 -3.8498 39.2616 0.0000 -11.4854 0.0000
# 2 -3.8498 65.2250 -3.8544 0.0000 -5.3517 0.0000
# 3 39.2616 -3.8544 92.6248 0.0000 -18.0645 0.0000
# 4 0.0000 0.0000 0.0000 16.0012 0.0000 0.1420
# 5 -11.4854 -5.3517 -18.0645 0.0000 41.7841 0.0000
# 6 0.0000 0.0000 0.0000 0.1420 0.0000 21.6514
#
#
#
# Elastic Compliance Matrix: (Units=1/GPa)
#
#
# Indices 1 2 3 4 5 6 
#
# 1 0.008045 0.000355 -0.003227 0.000000 0.000862 0.000000
# 2 0.000355 0.015618 0.000992 0.000000 0.002527 0.000000
# 3 -0.003227 0.000992 0.013167 0.000000 0.004933 0.000000
# 4 0.000000 0.000000 0.000000 0.062499 0.000000 -0.000410
# 5 0.000862 0.002527 0.004933 0.000000 0.026626 0.000000
# 6 0.000000 0.000000 0.000000 -0.000410 0.000000 0.046189
#
#
# Mechanical properties :
#
#
# Convention : Reuss Voigt Hill
#
# Bulk Modulus (GPa) = 30.23828 40.26883 35.25355
# Shear Modulus (GPa) = 26.74828 33.73717 30.24273
#
# Velocity S-wave (km/s) = 3.40146 3.82007 3.61682
# Velocity P-wave (km/s) = 5.33910 6.07251 5.71758
#
# Compressibility (1/GPa) = 0.03307067
#
# Stress axis : x y z
#
# Youngs Moduli (GPa) = 124.30524 64.02674 75.94463
#
# Poissons Ratio (x) = -0.02272 0.24509
# Poissons Ratio (y) = -0.04410 -0.07537
# Poissons Ratio (z) = 0.40116 -0.06354
#
# Static dielectric constant tensor:
#      x y z
#    x 1.934630 0.000000 -0.063520 
#    y 0.000000 1.852800 0.000000 
#    z -0.063520 0.000000 1.953730 
# 
# From -- ./inp_files/96970.got.cif
#   From: 2010.05.17/outbox.cif.g08.bks.cpg/sg12_49_cif.got.tgz:96970.got - 2010.06.03 13:09:07.
