data_PCOD9182999
_publ_section_title
;
Structure prediction by ZEFSAII (Michael W. Deem and Ramdas Pophale) SiO2 
 PCOD9182999
Probable space group: C 2/M
;
_chemical_formula_sum "Si O2"
_cell_formula_units_Z 42
_cell_length_a 14.207149
_cell_length_b 7.503429
_cell_length_c 24.412112
_cell_angle_alpha 90.000000
_cell_angle_beta 137.362621
_cell_angle_gamma 90.000000
_cell_volume 1762.743321
_symmetry_space_group_name_H-M "C 2/M"
_symmetry_group_IT_number 12
_symmetry_cell_setting 'monoclinic'
loop_
_space_group_symop_operation_xyz
x,y,z
-x,y,-z
-x,-y,-z
x,-y,z
1/2+x,1/2+y,z
1/2-x,1/2+y,-z
1/2-x,1/2-y,-z
1/2+x,1/2-y,z
loop_
_atom_site_type_symbol
_atom_site_label
_atom_site_fract_x
_atom_site_fract_y
_atom_site_fract_z
Si Si1 0.418027 0.787959 0.519056
Si Si2 0.837530 0.282675 0.198374
Si Si3 0.336517 0.288152 0.982369
Si Si4 0.820065 0.284225 0.309535
Si Si5 0.647443 0.796316 0.344040
Si Si6 0.500000 0.000000 0.000000
O O1 0.500000 0.720826 0.500000
O O2 0.518792 0.726629 0.611007
O O3 0.256387 0.755596 0.438295
O O4 0.429324 0.000000 0.524335
O O5 0.836819 0.500000 0.195577
O O6 0.757635 0.226422 0.109980
O O7 0.773583 0.228906 0.229419
O O8 0.996312 0.214961 0.269375
O O9 0.367686 0.500000 0.992385
O O10 0.250000 0.250000 0.000000
O O11 0.466565 0.158678 0.031449
O O12 0.815262 0.500000 0.309330
O O13 0.729478 0.220587 0.321758
O O14 0.618022 0.000000 0.344367
#
# Coordination Sequence:
#
# PCOD9182999 Si02
#       6
#     8   8   8   8   8   2
#     4   8  15  29  50  75 110 160 212 253 304 381
#     4   9  21  40  61  88 127 162 206 270 328 400
#     4  11  24  49  76 107 148 186 235 296 357 438
#     4   9  18  36  55  77 116 164 212 257 311 383
#     4  10  19  33  53  82 118 159 203 261 326 370
#     4  12  26  48  80 112 140 192 234 288 366 436
#
# _framework density 23.826495999999999
#
# number of rings (size 3 to 8) (size 9 to 14) (size 15 to 20)
#    0.000    2.476    0.952    2.000    0.000    5.714 
#    8.571    1.905    0.000    0.000    0.000    0.000 
#    0.000    0.000    0.000    0.000    0.000    0.000 
#
# Total GULP energy -116939.734110 kJ/mol
# GULP energy per Si atom -5568.558767 kJ/mol
# Density = 2.377227 g / cm^3
# Si number density = 23.826496 Si / 1000 Ang^3
#
#
#
# Elastic Constant Matrix: (Units=GPa)
#
#
# Indices 1 2 3 4 5 6 
#
# 1 86.5341 4.2489 24.9675 0.0000 -12.2401 0.0000
# 2 4.2489 105.6440 3.8622 0.0000 -1.2980 0.0000
# 3 24.9675 3.8622 129.6110 0.0000 -27.0337 0.0000
# 4 0.0000 0.0000 0.0000 -0.6687 0.0000 -16.5777
# 5 -12.2401 -1.2980 -27.0337 0.0000 41.1297 0.0000
# 6 0.0000 0.0000 0.0000 -16.5777 0.0000 5.1479
#
#
#
# Elastic Compliance Matrix: (Units=1/GPa)
#
#
# Indices 1 2 3 4 5 6 
#
# 1 0.012466 -0.000403 -0.001875 0.000000 0.002464 0.000000
# 2 -0.000403 0.009490 -0.000194 0.000000 0.000052 0.000000
# 3 -0.001875 -0.000194 0.009230 0.000000 0.005503 0.000000
# 4 0.000000 0.000000 0.000000 -0.018500 0.000000 -0.059576
# 5 0.002464 0.000052 0.005503 0.000000 0.028665 0.000000
# 6 0.000000 0.000000 0.000000 -0.059576 0.000000 0.002403
#
#
# Mechanical properties :
#
#
# Convention : Reuss Voigt Hill
#
# Bulk Modulus (GPa) = 38.10836 43.10517 40.60677
# Shear Modulus (GPa) = 87.04016 28.36915 57.70465
#
# Velocity S-wave (km/s) = 6.05063 3.45433 4.92659
# Velocity P-wave (km/s) = 8.05247 5.83442 7.03146
#
# Compressibility (1/GPa) = 0.02624096
#
# Stress axis : x y z
#
# Youngs Moduli (GPa) = 80.22103 105.37759 108.34092
#
# Poissons Ratio (x) = 0.04242 0.20317
# Poissons Ratio (y) = 0.03229 0.02106
# Poissons Ratio (z) = 0.15044 0.02049
#
# Static dielectric constant tensor:
#      x y z
#    x 1.938790 0.000000 0.057040 
#    y 0.000000 1.885000 0.000000 
#    z 0.057040 0.000000 2.006140 
# 
# From -- ./inp_files/360132.got.cif
#   From: 2010.05.17/outbox.cif.g08.bks.cpg/sg12_181_cif.got.tgz:360132.got - 2010.06.03 13:09:07.
