data_PCOD9182031
_publ_section_title
;
Structure prediction by ZEFSAII (Michael W. Deem and Ramdas Pophale) SiO2 
 PCOD9182031
Probable space group: C 2/M
;
_chemical_formula_sum "Si O2"
_cell_formula_units_Z 58
_cell_length_a 30.744463
_cell_length_b 7.855348
_cell_length_c 12.356432
_cell_angle_alpha 90.000000
_cell_angle_beta 99.626653
_cell_angle_gamma 90.000000
_cell_volume 2942.160603
_symmetry_space_group_name_H-M "C 2/M"
_symmetry_group_IT_number 12
_symmetry_cell_setting 'monoclinic'
loop_
_space_group_symop_operation_xyz
x,y,z
-x,y,-z
-x,-y,-z
x,-y,z
1/2+x,1/2+y,z
1/2-x,1/2+y,-z
1/2-x,1/2-y,-z
1/2+x,1/2-y,z
loop_
_atom_site_type_symbol
_atom_site_label
_atom_site_fract_x
_atom_site_fract_y
_atom_site_fract_z
Si Si1 0.432395 0.301754 0.167317
Si Si2 0.500000 0.500000 0.500000
Si Si3 0.134383 0.797242 0.674040
Si Si4 0.564611 0.194611 0.494892
Si Si5 0.093498 0.300814 0.078934
Si Si6 0.530939 0.201790 0.240582
Si Si7 0.311594 0.203334 0.937806
Si Si8 0.217183 0.297028 0.837244
O O1 0.422174 0.500000 0.146462
O O2 0.398132 0.234537 0.242438
O O3 0.482882 0.284437 0.225163
O O4 0.426267 0.212797 0.049377
O O5 0.536831 0.347339 0.536767
O O6 0.114347 0.716683 0.557515
O O7 0.183823 0.753696 0.729300
O O8 0.130838 0.000000 0.665344
O O9 0.556601 0.222526 0.364029
O O10 0.550618 0.000000 0.515190
O O11 0.097641 0.500000 0.110154
O O12 0.060137 0.227904 0.153940
O O13 0.142932 0.227317 0.092102
O O14 0.523089 0.000000 0.221436
O O15 0.267463 0.235879 0.851626
O O16 0.317354 0.000000 0.950625
O O17 0.302163 0.270505 0.055579
O O18 0.218288 0.500000 0.844515
#
# Coordination Sequence:
#
# PCOD9182031 Si02
#       8
#     8   2   8   8   8   8   8   8
#     4  11  23  34  52  82 114 149 190 236 283 336
#     4  12  22  40  60  86 114 152 202 248 288 348
#     4  11  22  37  57  84 118 151 192 244 292 347
#     4  11  24  40  60  85 116 155 200 247 297 342
#     4  10  20  38  58  79 112 152 194 232 282 346
#     4  10  23  39  57  79 110 154 197 240 280 338
#     4   9  18  33  54  81 112 147 183 228 290 353
#     4  10  19  32  55  83 114 144 182 234 293 351
#
# _framework density 19.713405999999999
#
# number of rings (size 3 to 8) (size 9 to 14) (size 15 to 20)
#    0.000    1.655    2.069    2.690    2.897    6.069 
#    0.000    0.000    0.000    0.828    0.000    0.000 
#    0.000    0.000    0.000    0.000    0.000    0.000 
#
# Total GULP energy -161681.483388 kJ/mol
# GULP energy per Si atom -5575.223565 kJ/mol
# Density = 1.966854 g / cm^3
# Si number density = 19.713406 Si / 1000 Ang^3
#
#
#
# Elastic Constant Matrix: (Units=GPa)
#
#
# Indices 1 2 3 4 5 6 
#
# 1 48.7121 4.2494 26.9214 0.0000 13.6249 0.0000
# 2 4.2494 53.6983 4.6198 0.0000 -6.6629 0.0000
# 3 26.9214 4.6198 51.3903 0.0000 14.7083 0.0000
# 4 0.0000 0.0000 0.0000 10.1113 0.0000 7.7155
# 5 13.6249 -6.6629 14.7083 0.0000 33.6017 0.0000
# 6 0.0000 0.0000 0.0000 7.7155 0.0000 21.4008
#
#
#
# Elastic Compliance Matrix: (Units=1/GPa)
#
#
# Indices 1 2 3 4 5 6 
#
# 1 0.030134 -0.002027 -0.013709 0.000000 -0.006620 0.000000
# 2 -0.002027 0.019701 -0.002358 0.000000 0.005760 0.000000
# 3 -0.013709 -0.002358 0.029033 0.000000 -0.007617 0.000000
# 4 0.000000 0.000000 0.000000 0.136430 0.000000 -0.049186
# 5 -0.006620 0.005760 -0.007617 0.000000 0.036921 0.000000
# 6 0.000000 0.000000 0.000000 -0.049186 0.000000 0.064460
#
#
# Mechanical properties :
#
#
# Convention : Reuss Voigt Hill
#
# Bulk Modulus (GPa) = 23.43047 25.04245 24.23646
# Shear Modulus (GPa) = 13.62058 20.89010 17.25534
#
# Velocity S-wave (km/s) = 2.63141 3.25882 2.96177
# Velocity P-wave (km/s) = 4.59823 5.18563 4.90074
#
# Compressibility (1/GPa) = 0.04267947
#
# Stress axis : x y z
#
# Youngs Moduli (GPa) = 33.18562 50.76003 34.44411
#
# Poissons Ratio (x) = 0.10287 0.47219
# Poissons Ratio (y) = 0.06725 0.08122
# Poissons Ratio (z) = 0.45494 0.11969
#
# Static dielectric constant tensor:
#      x y z
#    x 1.719590 0.000000 0.003050 
#    y 0.000000 1.716320 0.000000 
#    z 0.003050 0.000000 1.710990 
# 
# From -- ./inp_files/186741.got.cif
#   From: 2010.05.17/outbox.cif.g08.bks.cpg/sg12_94_cif.got.tgz:186741.got - 2010.06.03 13:09:07.
