data_PCOD9182301
_publ_section_title
;
Structure prediction by ZEFSAII (Michael W. Deem and Ramdas Pophale) SiO2 
 PCOD9182301
Probable space group: C 2/M
;
_chemical_formula_sum "Si O2"
_cell_formula_units_Z 64
_cell_length_a 18.472947
_cell_length_b 27.992962
_cell_length_c 8.970793
_cell_angle_alpha 90.000000
_cell_angle_beta 119.357561
_cell_angle_gamma 90.000000
_cell_volume 4043.167443
_symmetry_space_group_name_H-M "C 2/M"
_symmetry_group_IT_number 12
_symmetry_cell_setting 'monoclinic'
loop_
_space_group_symop_operation_xyz
x,y,z
-x,y,-z
-x,-y,-z
x,-y,z
1/2+x,1/2+y,z
1/2-x,1/2+y,-z
1/2-x,1/2-y,-z
1/2+x,1/2-y,z
loop_
_atom_site_type_symbol
_atom_site_label
_atom_site_fract_x
_atom_site_fract_y
_atom_site_fract_z
Si Si1 0.958528 0.251177 0.304886
Si Si2 0.553432 0.643499 0.766437
Si Si3 0.138899 0.108374 0.412096
Si Si4 0.207368 0.301673 0.947855
Si Si5 0.254495 0.688036 0.329490
Si Si6 0.132727 0.755874 0.350254
Si Si7 0.333064 0.343025 0.843622
Si Si8 0.597745 0.551371 0.630985
O O1 0.931313 0.195193 0.294169
O O2 0.887147 0.287186 0.181833
O O3 0.000000 0.267273 0.500000
O O4 0.034770 0.248081 0.266761
O O5 0.455065 0.630837 0.668875
O O6 0.601449 0.599447 0.735245
O O7 0.590080 0.650588 0.967296
O O8 0.204406 0.141480 0.562469
O O9 0.165247 0.112080 0.266888
O O10 0.136738 0.060870 0.507804
O O11 0.227572 0.320478 0.133217
O O12 0.174678 0.292542 0.337450
O O13 0.250000 0.250000 0.000000
O O14 0.253194 0.332482 0.866576
O O15 0.323287 0.728506 0.448753
O O16 0.154619 0.796800 0.250812
O O17 0.500000 0.548109 0.500000
O O18 0.625128 0.500000 0.722360
#
# Coordination Sequence:
#
# PCOD9182301 Si02
#       8
#     8   8   8   8   8   8   8   8
#     4  12  23  31  47  68  95 133 171 202 235 281
#     4  11  19  30  50  70  91 122 169 200 238 283
#     4  10  20  31  52  66  91 127 162 206 238 287
#     4  12  22  30  44  66  97 126 163 209 239 273
#     4  10  19  33  48  65  92 124 170 205 242 266
#     4  10  21  33  47  64  95 128 168 211 229 271
#     4  11  21  30  46  70  94 122 167 205 239 277
#     4   9  19  34  50  69  91 121 160 205 252 295
#
# _framework density 15.829173000000001
#
# number of rings (size 3 to 8) (size 9 to 14) (size 15 to 20)
#    0.000    1.375    5.000    3.000    3.500    1.500 
#    0.000    0.625    0.000    3.000    0.000    0.000 
#    0.000    0.000    0.000   11.250    0.000    0.500 
#
# Total GULP energy -178249.514744 kJ/mol
# GULP energy per Si atom -5570.297336 kJ/mol
# Density = 1.579314 g / cm^3
# Si number density = 15.829173 Si / 1000 Ang^3
#
#
#
# Elastic Constant Matrix: (Units=GPa)
#
#
# Indices 1 2 3 4 5 6 
#
# 1 79.2667 30.6646 35.3231 0.0000 -6.8687 0.0000
# 2 30.6646 52.9318 24.3179 0.0000 -2.0641 0.0000
# 3 35.3231 24.3179 113.5633 0.0000 -0.6544 0.0000
# 4 0.0000 0.0000 0.0000 11.2348 0.0000 -2.4652
# 5 -6.8687 -2.0641 -0.6544 0.0000 25.6845 0.0000
# 6 0.0000 0.0000 0.0000 -2.4652 0.0000 -0.9594
#
#
#
# Elastic Compliance Matrix: (Units=1/GPa)
#
#
# Indices 1 2 3 4 5 6 
#
# 1 0.017917 -0.008511 -0.003727 0.000000 0.004012 0.000000
# 2 -0.008511 0.025060 -0.002721 0.000000 -0.000331 0.000000
# 3 -0.003727 -0.002721 0.010542 0.000000 -0.000947 0.000000
# 4 0.000000 0.000000 0.000000 0.056917 0.000000 -0.146251
# 5 0.004012 -0.000331 -0.000947 0.000000 0.039956 0.000000
# 6 0.000000 0.000000 0.000000 -0.146251 0.000000 -0.666506
#
#
# Mechanical properties :
#
#
# Convention : Reuss Voigt Hill
#
# Bulk Modulus (GPa) = 42.37128 47.37478 44.87303
# Shear Modulus (GPa) = -10.45306 17.55573 3.55134
#
# Velocity S-wave (km/s) = -2.57255 3.33389 1.49947
# Velocity P-wave (km/s) = 4.24287 6.69429 5.60426
#
# Compressibility (1/GPa) = 0.02360089
#
# Stress axis : x y z
#
# Youngs Moduli (GPa) = 55.81380 39.90456 94.85689
#
# Poissons Ratio (x) = 0.33962 0.35356
# Poissons Ratio (y) = 0.47501 0.25809
# Poissons Ratio (z) = 0.20804 0.10858
#
# Static dielectric constant tensor:
#      x y z
#    x 1.602800 0.000000 -0.056260 
#    y 0.000000 1.554040 0.000000 
#    z -0.056260 0.000000 1.607270 
# 
# From -- ./inp_files/80248.got.cif
#   From: 2010.05.17/outbox.cif.g08.bks.cpg/sg12_41_cif.got.tgz:80248.got - 2010.06.03 13:09:07.
