data_PCOD9182351
_publ_section_title
;
Structure prediction by ZEFSAII (Michael W. Deem and Ramdas Pophale) SiO2 
 PCOD9182351
Probable space group: C 2/M
;
_chemical_formula_sum "Si O2"
_cell_formula_units_Z 64
_cell_length_a 18.275544
_cell_length_b 12.042124
_cell_length_c 22.352151
_cell_angle_alpha 90.000000
_cell_angle_beta 30.683003
_cell_angle_gamma 90.000000
_cell_volume 2510.197720
_symmetry_space_group_name_H-M "C 2/M"
_symmetry_group_IT_number 12
_symmetry_cell_setting 'monoclinic'
loop_
_space_group_symop_operation_xyz
x,y,z
-x,y,-z
-x,-y,-z
x,-y,z
1/2+x,1/2+y,z
1/2-x,1/2+y,-z
1/2-x,1/2-y,-z
1/2+x,1/2-y,z
loop_
_atom_site_type_symbol
_atom_site_label
_atom_site_fract_x
_atom_site_fract_y
_atom_site_fract_z
Si Si1 0.871028 0.125252 0.503583
Si Si2 0.634406 0.873101 0.037169
Si Si3 0.270736 0.872942 0.579498
Si Si4 0.266215 0.351619 0.259886
Si Si5 0.048599 0.206957 0.200872
Si Si6 0.203348 0.115559 0.304952
Si Si7 0.132221 0.384655 0.226857
Si Si8 0.939997 0.832698 0.977181
O O1 0.826971 0.251961 0.514538
O O2 0.805998 0.117453 0.616437
O O3 0.042019 0.125617 0.393686
O O4 0.838301 0.000000 0.498762
O O5 0.559623 0.806968 0.144514
O O6 0.589439 0.796518 0.013451
O O7 0.592288 0.000000 0.065737
O O8 0.808095 0.862149 0.915193
O O9 0.308869 0.868721 0.623958
O O10 0.098975 0.858999 0.695080
O O11 0.310666 0.000000 0.531487
O O12 0.286270 0.223255 0.229364
O O13 0.175499 0.388679 0.266371
O O14 0.432332 0.383984 0.151567
O O15 0.060140 0.272228 0.255710
O O16 0.265393 0.000000 0.240237
O O17 0.055073 0.500000 0.265831
O O18 0.282635 0.383623 0.084766
O O19 0.000000 0.855914 0.000000
#
# Coordination Sequence:
#
# PCOD9182351 Si02
#       8
#     8   8   8   8   8   8   8   8
#     4   8  16  32  54  81 112 143 178 221 271 334
#     4  10  19  33  50  69  99 139 183 228 271 316
#     4  11  21  34  56  85 114 142 178 229 283 331
#     4  10  19  34  52  83 109 138 183 227 272 324
#     4  10  21  36  49  74 101 141 185 227 267 326
#     4   8  15  31  54  78 109 145 176 216 275 335
#     4  10  21  36  53  72 105 151 191 227 268 319
#     4   9  19  33  48  75 107 138 179 224 271 319
#
# _framework density 25.495999999999999
#
# number of rings (size 3 to 8) (size 9 to 14) (size 15 to 20)
#    0.000    2.500    1.250    1.875    0.000    4.500 
#    0.000   11.250    0.000    0.750    0.000    0.000 
#    0.000    0.000    0.000    0.000    0.000    0.000 
#
# Total GULP energy -178435.001044 kJ/mol
# GULP energy per Si atom -5576.093783 kJ/mol
# Density = 2.543797 g / cm^3
# Si number density = 25.496000 Si / 1000 Ang^3
#
#
#
# Elastic Constant Matrix: (Units=GPa)
#
#
# Indices 1 2 3 4 5 6 
#
# 1 60.6714 11.7725 12.5982 0.0000 1.3195 -0.0001
# 2 11.7725 243.7118 26.3615 -0.0039 -9.5687 -0.0017
# 3 12.5982 26.3615 67.1813 -0.0020 -4.6318 -0.0009
# 4 0.0000 -0.0039 -0.0020 0.6064 -0.0005 -28.4327
# 5 1.3195 -9.5687 -4.6318 -0.0005 23.3526 0.0000
# 6 -0.0001 -0.0017 -0.0009 -28.4327 0.0000 4.2715
#
#
#
# Elastic Compliance Matrix: (Units=1/GPa)
#
#
# Indices 1 2 3 4 5 6 
#
# 1 0.017285 -0.000567 -0.003145 0.000000 -0.001833 0.000000
# 2 -0.000567 0.004352 -0.001497 0.000000 0.001518 -0.000001
# 3 -0.003145 -0.001497 0.016255 -0.000001 0.002788 -0.000001
# 4 0.000000 0.000000 -0.000001 -0.005301 0.000000 -0.035284
# 5 -0.001833 0.001518 0.002788 0.000000 0.044101 -0.000001
# 6 0.000000 -0.000001 -0.000001 -0.035284 -0.000001 -0.000752
#
#
# Mechanical properties :
#
#
# Convention : Reuss Voigt Hill
#
# Bulk Modulus (GPa) = 36.39798 52.55877 44.47838
# Shear Modulus (GPa) = 52.34788 27.03491 39.69139
#
# Velocity S-wave (km/s) = 4.53612 3.25985 3.94987
# Velocity P-wave (km/s) = 6.46081 5.90153 6.18750
#
# Compressibility (1/GPa) = 0.02747405
#
# Stress axis : x y z
#
# Youngs Moduli (GPa) = 57.85302 229.77415 61.52140
#
# Poissons Ratio (x) = 0.13021 0.19351
# Poissons Ratio (y) = 0.03278 0.09208
# Poissons Ratio (z) = 0.18197 0.34392
#
# Static dielectric constant tensor:
#      x y z
#    x 2.038360 0.000000 0.026320 
#    y 0.000000 2.449260 0.000010 
#    z 0.026320 0.000010 2.052690 
# 
# From -- ./inp_files/366026.got.cif
#   From: 2010.05.17/outbox.cif.g08.bks.cpg/sg12_184_cif.got.tgz:366026.got - 2010.06.03 13:09:07.
