data_PCOD9182095
_publ_section_title
;
Structure prediction by ZEFSAII (Michael W. Deem and Ramdas Pophale) SiO2 
 PCOD9182095
Probable space group: C 2/M
;
_chemical_formula_sum "Si O2"
_cell_formula_units_Z 64
_cell_length_a 8.821759
_cell_length_b 14.380691
_cell_length_c 24.375886
_cell_angle_alpha 90.000000
_cell_angle_beta 109.450201
_cell_angle_gamma 90.000000
_cell_volume 2915.918559
_symmetry_space_group_name_H-M "C 2/M"
_symmetry_group_IT_number 12
_symmetry_cell_setting 'monoclinic'
loop_
_space_group_symop_operation_xyz
x,y,z
-x,y,-z
-x,-y,-z
x,-y,z
1/2+x,1/2+y,z
1/2-x,1/2+y,-z
1/2-x,1/2-y,-z
1/2+x,1/2-y,z
loop_
_atom_site_type_symbol
_atom_site_label
_atom_site_fract_x
_atom_site_fract_y
_atom_site_fract_z
Si Si1 0.155773 0.889914 0.645686
Si Si2 0.307212 0.897591 0.256234
Si Si3 0.839877 0.204474 0.959108
Si Si4 0.539738 0.598512 0.834978
Si Si5 0.480766 0.209150 0.116014
Si Si6 0.837135 0.774602 0.454791
Si Si7 0.730047 0.309762 0.766062
Si Si8 0.220940 0.107063 0.375072
O O1 0.220072 0.849581 0.596284
O O2 0.250518 0.843143 0.706850
O O3 0.964972 0.866871 0.632530
O O4 0.169916 0.000000 0.649481
O O5 0.356255 0.791883 0.246085
O O6 0.254326 0.890138 0.313880
O O7 0.148730 0.905164 0.199637
O O8 0.392253 0.000000 0.260923
O O9 0.689001 0.155771 0.909921
O O10 0.917251 0.281294 0.927415
O O11 0.750000 0.250000 0.000000
O O12 0.000000 0.151916 0.000000
O O13 0.598297 0.500000 0.863591
O O14 0.572489 0.685147 0.877218
O O15 0.616872 0.619865 0.785296
O O16 0.604629 0.186910 0.179502
O O17 0.750000 0.750000 0.500000
O O18 0.837632 0.679209 0.419702
O O19 0.000000 0.812492 0.500000
O O20 0.244092 0.000000 0.395541
#
# Coordination Sequence:
#
# PCOD9182095 Si02
#       8
#     8   8   8   8   8   8   8   8
#     4  11  23  40  64  91 123 167 211 257 319 394
#     4   9  18  32  55  86 117 156 199 246 307 379
#     4   9  18  34  59  90 124 166 221 264 306 370
#     4  10  19  32  55  87 124 163 204 249 305 378
#     4  10  19  34  57  96 120 164 209 269 315 368
#     4  12  25  42  64  90 121 159 212 264 318 372
#     4  11  19  32  61  91 128 155 212 253 323 377
#     4  10  20  38  62  86 116 157 205 249 310 380
#
# _framework density 21.948487
#
# number of rings (size 3 to 8) (size 9 to 14) (size 15 to 20)
#    0.000    1.750    5.000    0.375    0.000    1.000 
#    0.000    0.000    0.000   18.000    0.000    0.000 
#    0.000    0.000    0.000    0.000    0.000    0.000 
#
# Total GULP energy -178251.682977 kJ/mol
# GULP energy per Si atom -5570.365093 kJ/mol
# Density = 2.189853 g / cm^3
# Si number density = 21.948487 Si / 1000 Ang^3
#
#
#
# Elastic Constant Matrix: (Units=GPa)
#
#
# Indices 1 2 3 4 5 6 
#
# 1 46.1057 -7.0693 27.1234 0.0000 -8.5350 0.0000
# 2 -7.0693 70.7693 16.8876 0.0000 9.5914 0.0000
# 3 27.1234 16.8876 124.6133 0.0000 0.2256 0.0000
# 4 0.0000 0.0000 0.0000 -5.0636 0.0000 2.0528
# 5 -8.5350 9.5914 0.2256 0.0000 23.1175 0.0000
# 6 0.0000 0.0000 0.0000 2.0528 0.0000 12.7619
#
#
#
# Elastic Compliance Matrix: (Units=1/GPa)
#
#
# Indices 1 2 3 4 5 6 
#
# 1 0.027615 0.003079 -0.006444 0.000000 0.008981 0.000000
# 2 0.003079 0.015841 -0.002807 0.000000 -0.005408 0.000000
# 3 -0.006444 -0.002807 0.009810 0.000000 -0.001310 0.000000
# 4 0.000000 0.000000 0.000000 -0.185397 0.000000 0.029822
# 5 0.008981 -0.005408 -0.001310 0.000000 0.048830 0.000000
# 6 0.000000 0.000000 0.000000 0.029822 0.000000 0.073561
#
#
# Mechanical properties :
#
#
# Convention : Reuss Voigt Hill
#
# Bulk Modulus (GPa) = 24.43702 35.04132 29.73917
# Shear Modulus (GPa) = 307.78753 19.79960 163.79357
#
# Velocity S-wave (km/s) = 11.85480 3.00675 8.64803
# Velocity P-wave (km/s) = 14.09041 5.29660 10.64410
#
# Compressibility (1/GPa) = 0.04092153
#
# Stress axis : x y z
#
# Youngs Moduli (GPa) = 36.21227 63.12801 101.93389
#
# Poissons Ratio (x) = -0.19438 0.65689
# Poissons Ratio (y) = -0.11150 0.28615
# Poissons Ratio (z) = 0.23336 0.17721
#
# Static dielectric constant tensor:
#      x y z
#    x 1.890790 0.000000 0.019530 
#    y 0.000000 2.388270 0.000000 
#    z 0.019530 0.000000 1.853100 
# 
# From -- ./inp_files/356186.got.cif
#   From: 2010.05.17/outbox.cif.g08.bks.cpg/sg12_179_cif.got.tgz:356186.got - 2010.06.03 13:09:07.
