data_PCOD9182424
_publ_section_title
;
Structure prediction by ZEFSAII (Michael W. Deem and Ramdas Pophale) SiO2 
 PCOD9182424
Probable space group: C 2/M
;
_chemical_formula_sum "Si O2"
_cell_formula_units_Z 48
_cell_length_a 29.428198
_cell_length_b 7.788811
_cell_length_c 7.852678
_cell_angle_alpha 90.000000
_cell_angle_beta 76.379301
_cell_angle_gamma 90.000000
_cell_volume 1749.296700
_symmetry_space_group_name_H-M "C 2/M"
_symmetry_group_IT_number 12
_symmetry_cell_setting 'monoclinic'
loop_
_space_group_symop_operation_xyz
x,y,z
-x,y,-z
-x,-y,-z
x,-y,z
1/2+x,1/2+y,z
1/2-x,1/2+y,-z
1/2-x,1/2-y,-z
1/2+x,1/2-y,z
loop_
_atom_site_type_symbol
_atom_site_label
_atom_site_fract_x
_atom_site_fract_y
_atom_site_fract_z
Si Si1 0.845440 0.710919 0.393922
Si Si2 0.318473 0.293013 0.893541
Si Si3 0.994540 0.190377 0.769589
Si Si4 0.929082 0.302604 0.528690
Si Si5 0.595054 0.202653 0.981514
Si Si6 0.757573 0.297372 0.282301
O O1 0.844822 0.500000 0.396878
O O2 0.878813 0.768155 0.517498
O O3 0.792506 0.771515 0.400045
O O4 0.875712 0.770450 0.203699
O O5 0.315167 0.500000 0.895528
O O6 0.371491 0.242113 0.886755
O O7 0.291267 0.223963 0.749244
O O8 0.289872 0.222910 0.082720
O O9 0.958676 0.200592 0.640092
O O10 0.957490 0.232519 0.950004
O O11 0.037682 0.305242 0.669931
O O12 0.013028 0.000000 0.771178
O O13 0.925343 0.500000 0.590265
O O14 0.592237 0.000000 0.967535
O O15 0.752449 0.500000 0.315258
#
# Coordination Sequence:
#
# PCOD9182424 Si02
#       6
#     8   8   8   8   8   8
#     4   8  16  30  51  76  99 125 161 201 237 280
#     4   9  15  24  42  69  99 129 160 195 235 279
#     4  11  22  36  51  71  98 127 161 200 243 289
#     4  10  19  35  56  74  93 125 165 198 237 290
#     4  10  19  33  51  73 100 129 162 200 242 285
#     4   8  14  26  43  66  98 132 161 191 232 282
#
# _framework density 27.439596999999999
#
# number of rings (size 3 to 8) (size 9 to 14) (size 15 to 20)
#    0.000    2.667    0.000    5.000    0.000    1.333 
#    0.000   11.667    0.000    1.000    0.000    0.000 
#    0.000    0.000    0.000    0.000    0.000    0.000 
#
# Total GULP energy -134289.046329 kJ/mol
# GULP energy per Si atom -5595.376930 kJ/mol
# Density = 2.737714 g / cm^3
# Si number density = 27.439597 Si / 1000 Ang^3
#
#
#
# Elastic Constant Matrix: (Units=GPa)
#
#
# Indices 1 2 3 4 5 6 
#
# 1 233.6293 -0.3134 18.5920 0.0000 9.6727 0.0000
# 2 -0.3134 105.4484 9.3441 0.0000 -2.4944 0.0000
# 3 18.5920 9.3441 61.4657 0.0000 22.3709 0.0000
# 4 0.0000 0.0000 0.0000 28.1200 0.0000 -2.7426
# 5 9.6727 -2.4944 22.3709 0.0000 65.1182 0.0000
# 6 0.0000 0.0000 0.0000 -2.7426 0.0000 32.4431
#
#
#
# Elastic Compliance Matrix: (Units=1/GPa)
#
#
# Indices 1 2 3 4 5 6 
#
# 1 0.004390 0.000121 -0.001269 0.000000 -0.000211 0.000000
# 2 0.000121 0.009673 -0.001869 0.000000 0.000995 0.000000
# 3 -0.001269 -0.001869 0.019309 0.000000 -0.006517 0.000000
# 4 0.000000 0.000000 0.000000 0.035858 0.000000 0.003031
# 5 -0.000211 0.000995 -0.006517 0.000000 0.017665 0.000000
# 6 0.000000 0.000000 0.000000 0.003031 0.000000 0.031079
#
#
# Mechanical properties :
#
#
# Convention : Reuss Voigt Hill
#
# Bulk Modulus (GPa) = 36.58104 50.64322 43.61213
# Shear Modulus (GPa) = 37.55964 49.99764 43.77864
#
# Velocity S-wave (km/s) = 3.70376 4.27324 3.99865
# Velocity P-wave (km/s) = 5.62591 6.54551 6.10306
#
# Compressibility (1/GPa) = 0.02733657
#
# Stress axis : x y z
#
# Youngs Moduli (GPa) = 227.77949 103.38258 51.78923
#
# Poissons Ratio (x) = -0.01246 0.06574
# Poissons Ratio (y) = -0.02745 0.09679
# Poissons Ratio (z) = 0.28912 0.19322
#
# Static dielectric constant tensor:
#      x y z
#    x 2.137940 0.000000 -0.012820 
#    y 0.000000 1.914950 0.000000 
#    z -0.012820 0.000000 2.380550 
# 
# From -- ./inp_files/185499.got.cif
#   From: 2010.05.17/outbox.cif.g08.bks.cpg/sg12_93_cif.got.tgz:185499.got - 2010.06.03 13:09:07.
