data_PCOD9182339
_publ_section_title
;
Structure prediction by ZEFSAII (Michael W. Deem and Ramdas Pophale) SiO2 
 PCOD9182339
Probable space group: C 2/M
;
_chemical_formula_sum "Si O2"
_cell_formula_units_Z 56
_cell_length_a 35.290078
_cell_length_b 7.198006
_cell_length_c 30.960760
_cell_angle_alpha 90.000000
_cell_angle_beta 163.825754
_cell_angle_gamma 90.000000
_cell_volume 2190.757494
_symmetry_space_group_name_H-M "C 2/M"
_symmetry_group_IT_number 12
_symmetry_cell_setting 'monoclinic'
loop_
_space_group_symop_operation_xyz
x,y,z
-x,y,-z
-x,-y,-z
x,-y,z
1/2+x,1/2+y,z
1/2-x,1/2+y,-z
1/2-x,1/2-y,-z
1/2+x,1/2-y,z
loop_
_atom_site_type_symbol
_atom_site_label
_atom_site_fract_x
_atom_site_fract_y
_atom_site_fract_z
Si Si1 0.900492 0.273253 0.254583
Si Si2 0.922762 0.274320 0.372410
Si Si3 0.592071 0.710059 0.918186
Si Si4 0.536569 0.224667 0.313820
Si Si5 0.341235 0.724849 0.871884
Si Si6 0.814023 0.226630 0.652579
Si Si7 0.156615 0.774796 0.221054
O O1 0.903503 0.500000 0.256933
O O2 0.966949 0.216732 0.372969
O O3 0.968106 0.216170 0.283876
O O4 0.743252 0.211813 0.084059
O O5 0.931611 0.500000 0.382236
O O6 0.765899 0.220267 0.209328
O O7 0.000000 0.212227 0.500000
O O8 0.607334 0.500000 0.952210
O O9 0.541340 0.705205 0.813239
O O10 0.463916 0.791861 0.803511
O O11 0.693998 0.283118 0.489212
O O12 0.531880 0.000000 0.306567
O O13 0.342252 0.500000 0.872789
O O14 0.294017 0.784227 0.772162
O O15 0.497112 0.779211 0.048772
O O16 0.778879 0.282266 0.663151
O O17 0.817337 0.000000 0.655229
O O18 0.163657 0.000000 0.228187
#
# Coordination Sequence:
#
# PCOD9182339 Si02
#       7
#     8   8   8   8   8   8   8
#     4   9  18  30  44  63  90 124 155 182 224 276
#     4   9  16  23  35  56  85 118 146 173 213 268
#     4  10  19  33  50  66  89 124 158 187 223 273
#     4  10  20  32  47  69  94 119 151 194 233 264
#     4   8  13  20  31  50  77 111 148 176 203 255
#     4   9  17  27  43  63  88 120 151 184 227 270
#     4   8  13  21  34  52  77 112 147 175 209 261
#
# _framework density 25.561933
#
# number of rings (size 3 to 8) (size 9 to 14) (size 15 to 20)
#    0.000    3.000    0.000    2.571    2.000    3.429 
#    0.000    0.000    0.000    0.000    0.000    0.000 
#    0.000    2.286    0.000    7.571    0.000    7.714 
#
# Total GULP energy -156547.990682 kJ/mol
# GULP energy per Si atom -5590.999667 kJ/mol
# Density = 2.550375 g / cm^3
# Si number density = 25.561933 Si / 1000 Ang^3
#
#
#
# Elastic Constant Matrix: (Units=GPa)
#
#
# Indices 1 2 3 4 5 6 
#
# 1 147.8680 -9.5546 10.0978 -0.0002 -10.3296 0.0004
# 2 -9.5546 128.0108 -6.7569 -0.0116 3.6573 0.0118
# 3 10.0978 -6.7569 57.1475 0.0021 -9.2181 0.0037
# 4 -0.0002 -0.0116 0.0021 -21.0537 0.0013 -12.8766
# 5 -10.3296 3.6573 -9.2181 0.0013 46.0282 0.0014
# 6 0.0004 0.0118 0.0037 -12.8766 0.0014 -13.3041
#
#
#
# Elastic Compliance Matrix: (Units=1/GPa)
#
#
# Indices 1 2 3 4 5 6 
#
# 1 0.006949 0.000430 -0.000962 -0.000001 0.001333 0.000002
# 2 0.000430 0.007897 0.000798 -0.000021 -0.000371 0.000028
# 3 -0.000962 0.000798 0.018309 -0.000005 0.003388 0.000011
# 4 -0.000001 -0.000021 -0.000005 -0.116404 0.000000 0.112665
# 5 0.001333 -0.000371 0.003388 0.000000 0.022733 0.000003
# 6 0.000002 0.000028 0.000011 0.112665 0.000003 -0.184210
#
#
# Mechanical properties :
#
#
# Convention : Reuss Voigt Hill
#
# Bulk Modulus (GPa) = 29.68555 35.62209 32.65382
# Shear Modulus (GPa) = -21.36494 24.95008 1.79257
#
# Velocity S-wave (km/s) = -2.89418 3.12759 0.83832
# Velocity P-wave (km/s) = 0.68561 5.19695 3.70664
#
# Compressibility (1/GPa) = 0.03368642
#
# Stress axis : x y z
#
# Youngs Moduli (GPa) = 143.89797 126.63618 54.61696
#
# Poissons Ratio (x) = -0.05443 0.05255
# Poissons Ratio (y) = -0.06185 -0.04358
# Poissons Ratio (z) = 0.13845 -0.10104
#
# Static dielectric constant tensor:
#      x y z
#    x 1.952730 0.000000 -0.002290 
#    y 0.000000 2.112540 0.000000 
#    z -0.002290 0.000000 1.971200 
# 
# From -- ./inp_files/370782.got.cif
#   From: 2010.05.17/outbox.cif.g08.bks.cpg/sg12_186_cif.got.tgz:370782.got - 2010.06.03 13:09:07.
