data_PCOD9182750
_publ_section_title
;
Structure prediction by ZEFSAII (Michael W. Deem and Ramdas Pophale) SiO2 
 PCOD9182750
Probable space group: C 2/M
;
_chemical_formula_sum "Si O2"
_cell_formula_units_Z 56
_cell_length_a 9.956839
_cell_length_b 19.114011
_cell_length_c 17.755321
_cell_angle_alpha 90.000000
_cell_angle_beta 109.506250
_cell_angle_gamma 90.000000
_cell_volume 3185.162671
_symmetry_space_group_name_H-M "C 2/M"
_symmetry_group_IT_number 12
_symmetry_cell_setting 'monoclinic'
loop_
_space_group_symop_operation_xyz
x,y,z
-x,y,-z
-x,-y,-z
x,-y,z
1/2+x,1/2+y,z
1/2-x,1/2+y,-z
1/2-x,1/2-y,-z
1/2+x,1/2-y,z
loop_
_atom_site_type_symbol
_atom_site_label
_atom_site_fract_x
_atom_site_fract_y
_atom_site_fract_z
Si Si1 0.097352 0.798952 0.091416
Si Si2 0.436969 0.919360 0.268671
Si Si3 0.254934 0.917159 0.614159
Si Si4 0.086457 0.719271 0.823315
Si Si5 0.135482 0.189132 0.475948
Si Si6 0.558279 0.660567 0.698365
Si Si7 0.885649 0.080841 0.788680
O O1 0.260425 0.778378 0.107855
O O2 0.100983 0.874099 0.133125
O O3 0.031765 0.748797 0.143084
O O4 0.000000 0.797992 0.000000
O O5 0.574015 0.910094 0.347582
O O6 0.447934 0.859487 0.208013
O O7 0.277469 0.909517 0.271620
O O8 0.443495 0.000000 0.242100
O O9 0.196438 0.880253 0.527970
O O10 0.180415 0.874837 0.669466
O O11 0.219637 0.000000 0.611019
O O12 0.097086 0.768489 0.750687
O O13 0.250000 0.250000 0.500000
O O14 0.000000 0.211791 0.500000
O O15 0.073462 0.175836 0.381983
O O16 0.500166 0.608014 0.750591
O O17 0.906462 0.000000 0.807876
#
# Coordination Sequence:
#
# PCOD9182750 Si02
#       7
#     8   8   8   8   8   8   8
#     4  10  20  33  52  76 101 129 159 202 253 300
#     4   9  18  33  52  73 100 133 169 207 245 291
#     4  10  20  34  52  75 103 135 170 208 251 292
#     4  10  19  33  53  75 100 129 168 204 244 298
#     4  10  22  35  51  74 102 135 171 211 254 294
#     4  10  20  33  53  75  99 134 169 209 248 291
#     4   9  19  34  52  75 100 130 167 204 247 299
#
# _framework density 17.581520000000001
#
# number of rings (size 3 to 8) (size 9 to 14) (size 15 to 20)
#    0.000    2.286    0.000    2.571    0.000   10.286 
#    0.000    0.000    0.000    3.429    0.000    0.000 
#    0.000    0.000    0.000    0.000    0.000    0.000 
#
# Total GULP energy -156088.944742 kJ/mol
# GULP energy per Si atom -5574.605169 kJ/mol
# Density = 1.754150 g / cm^3
# Si number density = 17.581520 Si / 1000 Ang^3
#
#
#
# Elastic Constant Matrix: (Units=GPa)
#
#
# Indices 1 2 3 4 5 6 
#
# 1 33.8323 23.2606 10.1768 0.0000 17.8273 0.0000
# 2 23.2606 80.2420 23.1393 0.0000 9.7051 0.0000
# 3 10.1768 23.1393 73.5602 0.0000 17.8676 0.0000
# 4 0.0000 0.0000 0.0000 9.8708 0.0000 8.8511
# 5 17.8273 9.7051 17.8676 0.0000 25.4589 0.0000
# 6 0.0000 0.0000 0.0000 8.8511 0.0000 23.6277
#
#
#
# Elastic Compliance Matrix: (Units=1/GPa)
#
#
# Indices 1 2 3 4 5 6 
#
# 1 0.058096 -0.013756 0.005904 0.000000 -0.039580 0.000000
# 2 -0.013756 0.017113 -0.005105 0.000000 0.006692 0.000000
# 3 0.005904 -0.005105 0.017980 0.000000 -0.014807 0.000000
# 4 0.000000 0.000000 0.000000 0.152552 0.000000 -0.057147
# 5 -0.039580 0.006692 -0.014807 0.000000 0.074835 0.000000
# 6 0.000000 0.000000 0.000000 -0.057147 0.000000 0.063731
#
#
# Mechanical properties :
#
#
# Convention : Reuss Voigt Hill
#
# Bulk Modulus (GPa) = 14.86482 33.42089 24.14286
# Shear Modulus (GPa) = 11.55678 20.52866 16.04272
#
# Velocity S-wave (km/s) = 2.56662 3.42076 3.02400
# Velocity P-wave (km/s) = 4.15410 5.88664 5.09456
#
# Compressibility (1/GPa) = 0.06727293
#
# Stress axis : x y z
#
# Youngs Moduli (GPa) = 17.21302 58.43587 55.61723
#
# Poissons Ratio (x) = 0.80385 -0.32835
# Poissons Ratio (y) = 0.23678 0.28395
# Poissons Ratio (z) = -0.10162 0.29834
#
# Static dielectric constant tensor:
#      x y z
#    x 1.609520 0.000000 0.009700 
#    y 0.000000 1.594690 0.000000 
#    z 0.009700 0.000000 1.584600 
# 
# From -- ./inp_files/257167.got.cif
#   From: 2010.05.17/outbox.cif.g08.bks.cpg/sg12_129_cif.got.tgz:257167.got - 2010.06.03 13:09:07.
