data_PCOD9182633
_publ_section_title
;
Structure prediction by ZEFSAII (Michael W. Deem and Ramdas Pophale) SiO2 
 PCOD9182633
Probable space group: C 2/M
;
_chemical_formula_sum "Si O2"
_cell_formula_units_Z 58
_cell_length_a 19.407831
_cell_length_b 7.261092
_cell_length_c 24.835052
_cell_angle_alpha 90.000000
_cell_angle_beta 142.629788
_cell_angle_gamma 90.000000
_cell_volume 2124.252061
_symmetry_space_group_name_H-M "C 2/M"
_symmetry_group_IT_number 12
_symmetry_cell_setting 'monoclinic'
loop_
_space_group_symop_operation_xyz
x,y,z
-x,y,-z
-x,-y,-z
x,-y,z
1/2+x,1/2+y,z
1/2-x,1/2+y,-z
1/2-x,1/2-y,-z
1/2+x,1/2-y,z
loop_
_atom_site_type_symbol
_atom_site_label
_atom_site_fract_x
_atom_site_fract_y
_atom_site_fract_z
Si Si1 0.769928 0.224850 0.397491
Si Si2 0.222801 0.776017 0.767925
Si Si3 0.997370 0.790593 0.423365
Si Si4 0.385631 0.212038 0.011216
Si Si5 0.418952 0.223501 0.643875
Si Si6 0.905035 0.721658 0.801681
Si Si7 0.000000 0.000000 0.000000
Si Si8 0.358835 0.794293 0.163142
O O1 0.900009 0.289043 0.477671
O O2 0.704109 0.276898 0.411149
O O3 0.681891 0.286786 0.297467
O O4 0.775839 0.000000 0.399562
O O5 0.344096 0.721936 0.819809
O O6 0.188267 0.703259 0.804261
O O7 0.126886 0.713476 0.665578
O O8 0.219173 0.000000 0.769060
O O9 0.050069 0.793727 0.395622
O O10 0.977123 0.000000 0.428206
O O11 0.463397 0.270941 0.110827
O O12 0.414754 0.000000 0.016790
O O13 0.427442 0.341016 0.989079
O O14 0.250327 0.216960 0.935037
O O15 0.515845 0.284693 0.747240
O O16 0.425513 0.000000 0.646334
O O17 0.900102 0.500000 0.793853
O O18 0.376679 0.000000 0.153450
#
# Coordination Sequence:
#
# PCOD9182633 Si02
#       8
#     8   8   8   8   8   8   2   8
#     4   9  17  32  52  77 105 145 187 229 276 338
#     4   9  17  30  48  76 106 138 176 227 280 340
#     4   9  17  29  52  79 106 135 180 233 282 331
#     4  11  22  36  56  84 115 153 192 232 279 333
#     4   9  18  32  54  77 106 140 182 233 288 331
#     4   9  19  33  51  74 109 148 187 221 274 342
#     4  12  22  36  60  86 116 150 190 232 280 330
#     4  10  19  33  52  78 107 143 184 236 286 334
#
# _framework density 27.303728
#
# number of rings (size 3 to 8) (size 9 to 14) (size 15 to 20)
#    0.000    2.483    0.690    1.862    0.000    2.207 
#    0.000    3.448    3.034    0.000    0.000    3.862 
#    0.000    0.000    0.000    0.000    0.000    0.000 
#
# Total GULP energy -161935.110092 kJ/mol
# GULP energy per Si atom -5583.969314 kJ/mol
# Density = 2.724158 g / cm^3
# Si number density = 27.303728 Si / 1000 Ang^3
#
#
#
# Elastic Constant Matrix: (Units=GPa)
#
#
# Indices 1 2 3 4 5 6 
#
# 1 96.8995 -2.5348 29.4398 -0.0003 23.3371 0.0004
# 2 -2.5348 143.7969 -5.4094 -0.0009 2.9101 0.0015
# 3 29.4398 -5.4094 198.4751 0.0000 33.6573 0.0000
# 4 -0.0003 -0.0009 0.0000 19.1332 -0.0001 0.4779
# 5 23.3371 2.9101 33.6573 -0.0001 54.7187 0.0000
# 6 0.0004 0.0015 0.0000 0.4779 0.0000 5.6925
#
#
#
# Elastic Compliance Matrix: (Units=1/GPa)
#
#
# Indices 1 2 3 4 5 6 
#
# 1 0.011683 0.000258 -0.000981 0.000000 -0.004393 -0.000001
# 2 0.000258 0.006982 0.000261 0.000000 -0.000642 -0.000002
# 3 -0.000981 0.000261 0.005719 0.000000 -0.003113 0.000000
# 4 0.000000 0.000000 0.000000 0.052375 0.000000 -0.004397
# 5 -0.004393 -0.000642 -0.003113 0.000000 0.022098 0.000000
# 6 -0.000001 -0.000002 0.000000 -0.004397 0.000000 0.176038
#
#
# Mechanical properties :
#
#
# Convention : Reuss Voigt Hill
#
# Bulk Modulus (GPa) = 42.62750 53.57365 48.10058
# Shear Modulus (GPa) = 17.62810 43.75395 30.69103
#
# Velocity S-wave (km/s) = 2.54368 4.00745 3.35634
# Velocity P-wave (km/s) = 4.92680 6.40913 5.71621
#
# Compressibility (1/GPa) = 0.02345903
#
# Stress axis : x y z
#
# Youngs Moduli (GPa) = 85.59646 143.23364 174.85688
#
# Poissons Ratio (x) = -0.03695 0.17152
# Poissons Ratio (y) = -0.02208 -0.04561
# Poissons Ratio (z) = 0.08396 -0.03736
#
# Static dielectric constant tensor:
#      x y z
#    x 2.069870 0.000000 -0.039740 
#    y 0.000000 2.039200 0.000000 
#    z -0.039740 0.000000 2.208600 
# 
# From -- ./inp_files/346521.got.cif
#   From: 2010.05.17/outbox.cif.g08.bks.cpg/sg12_174_cif.got.tgz:346521.got - 2010.06.03 13:09:07.
