data_PCOD9182511
_publ_section_title
;
Structure prediction by ZEFSAII (Michael W. Deem and Ramdas Pophale) SiO2 
 PCOD9182511
Probable space group: C 2/M
;
_chemical_formula_sum "Si O2"
_cell_formula_units_Z 48
_cell_length_a 16.487333
_cell_length_b 7.524772
_cell_length_c 30.554809
_cell_angle_alpha 90.000000
_cell_angle_beta 145.189078
_cell_angle_gamma 90.000000
_cell_volume 2164.016743
_symmetry_space_group_name_H-M "C 2/M"
_symmetry_group_IT_number 12
_symmetry_cell_setting 'monoclinic'
loop_
_space_group_symop_operation_xyz
x,y,z
-x,y,-z
-x,-y,-z
x,-y,z
1/2+x,1/2+y,z
1/2-x,1/2+y,-z
1/2-x,1/2-y,-z
1/2+x,1/2-y,z
loop_
_atom_site_type_symbol
_atom_site_label
_atom_site_fract_x
_atom_site_fract_y
_atom_site_fract_z
Si Si1 0.898651 0.786107 0.161431
Si Si2 0.870051 0.282368 0.411560
Si Si3 0.068858 0.787359 0.317619
Si Si4 0.912261 0.782908 0.835109
Si Si5 0.603944 0.787447 0.677133
Si Si6 0.580436 0.710580 0.993629
O O1 0.944462 0.721144 0.229703
O O2 0.019334 0.730309 0.180651
O O3 0.896462 0.000000 0.161573
O O4 0.746927 0.732233 0.075309
O O5 0.866856 0.500000 0.409404
O O6 0.720240 0.223338 0.366189
O O7 0.895314 0.222986 0.372672
O O8 0.000000 0.228918 0.500000
O O9 0.027661 0.750433 0.349362
O O10 0.072879 0.000000 0.315242
O O11 0.749487 0.723098 0.764680
O O12 0.012349 0.718925 0.918793
O O13 0.912599 0.000000 0.835821
O O14 0.613731 0.000000 0.678657
O O15 0.552295 0.500000 0.980038
O O16 0.500000 0.786789 0.000000
#
# Coordination Sequence:
#
# PCOD9182511 Si02
#       6
#     8   8   8   8   8   8
#     4  10  19  33  52  72  99 139 180 217 260 312
#     4   9  18  35  59  83 108 142 181 216 259 325
#     4  10  20  35  55  81 111 141 177 223 269 312
#     4   9  17  32  52  72 100 139 180 216 257 314
#     4  10  19  35  59  82 106 143 184 217 261 322
#     4  10  20  32  47  72 103 134 173 222 266 306
#
# _framework density 22.180973000000002
#
# number of rings (size 3 to 8) (size 9 to 14) (size 15 to 20)
#    0.000    2.333    1.667    1.500    0.000    3.000 
#    0.000    2.500    0.000    1.000    0.000    0.000 
#    0.000    0.000    0.000    0.000    0.000    0.000 
#
# Total GULP energy -134014.211328 kJ/mol
# GULP energy per Si atom -5583.925472 kJ/mol
# Density = 2.213049 g / cm^3
# Si number density = 22.180973 Si / 1000 Ang^3
#
#
#
# Elastic Constant Matrix: (Units=GPa)
#
#
# Indices 1 2 3 4 5 6 
#
# 1 168.7866 -1.9925 75.7703 -0.0002 -20.8569 0.0001
# 2 -1.9925 50.5698 1.3478 -0.0003 -4.1395 0.0002
# 3 75.7703 1.3478 149.5884 0.0000 -12.6726 0.0000
# 4 -0.0002 -0.0003 0.0000 -29.3224 0.0000 0.3177
# 5 -20.8569 -4.1395 -12.6726 0.0000 16.9292 0.0000
# 6 0.0001 0.0002 0.0000 0.3177 0.0000 7.2025
#
#
#
# Elastic Compliance Matrix: (Units=1/GPa)
#
#
# Indices 1 2 3 4 5 6 
#
# 1 0.008587 0.001099 -0.003674 0.000000 0.008099 0.000000
# 2 0.001099 0.020328 -0.000218 0.000000 0.006162 0.000000
# 3 -0.003674 -0.000218 0.008712 0.000000 0.001943 0.000000
# 4 0.000000 0.000000 0.000000 -0.034087 0.000000 0.001504
# 5 0.008099 0.006162 0.001943 0.000000 0.072008 0.000000
# 6 0.000000 0.000000 0.000000 0.001504 0.000000 0.138774
#
#
# Mechanical properties :
#
#
# Convention : Reuss Voigt Hill
#
# Bulk Modulus (GPa) = 31.20781 57.68845 44.44813
# Shear Modulus (GPa) = 21.68371 18.54982 20.11677
#
# Velocity S-wave (km/s) = 3.13002 2.89501 3.01481
# Velocity P-wave (km/s) = 5.21180 6.10240 5.67460
#
# Compressibility (1/GPa) = 0.03204326
#
# Stress axis : x y z
#
# Youngs Moduli (GPa) = 116.44855 49.19288 114.78013
#
# Poissons Ratio (x) = -0.05407 0.42166
# Poissons Ratio (y) = -0.12800 0.02501
# Poissons Ratio (z) = 0.42778 0.01072
#
# Static dielectric constant tensor:
#      x y z
#    x 1.805900 0.000000 -0.009180 
#    y 0.000000 1.860890 0.000000 
#    z -0.009180 0.000000 1.810510 
# 
# From -- ./inp_files/212829.got.cif
#   From: 2010.05.17/outbox.cif.g08.bks.cpg/sg12_107_cif.got.tgz:212829.got - 2010.06.03 13:09:07.
