data_PCOD9182975
_publ_section_title
;
Structure prediction by ZEFSAII (Michael W. Deem and Ramdas Pophale) SiO2 
 PCOD9182975
Probable space group: C 2/M
;
_chemical_formula_sum "Si O2"
_cell_formula_units_Z 56
_cell_length_a 8.044438
_cell_length_b 22.709541
_cell_length_c 15.419635
_cell_angle_alpha 90.000000
_cell_angle_beta 89.038885
_cell_angle_gamma 90.000000
_cell_volume 2816.547329
_symmetry_space_group_name_H-M "C 2/M"
_symmetry_group_IT_number 12
_symmetry_cell_setting 'monoclinic'
loop_
_space_group_symop_operation_xyz
x,y,z
-x,y,-z
-x,-y,-z
x,-y,z
1/2+x,1/2+y,z
1/2-x,1/2+y,-z
1/2-x,1/2-y,-z
1/2+x,1/2-y,z
loop_
_atom_site_type_symbol
_atom_site_label
_atom_site_fract_x
_atom_site_fract_y
_atom_site_fract_z
Si Si1 0.302462 0.317370 0.517167
Si Si2 0.869476 0.000000 0.879229
Si Si3 0.768910 0.126514 0.847132
Si Si4 0.803326 0.684017 0.981954
Si Si5 0.599841 0.295956 0.304101
Si Si6 0.122140 0.613650 0.171218
Si Si7 0.719976 0.166299 0.338034
Si Si8 0.745925 0.000000 0.069603
O O1 0.500000 0.324128 0.500000
O O2 0.250000 0.250000 0.500000
O O3 0.286101 0.325303 0.620477
O O4 0.206813 0.350081 0.440088
O O5 0.838354 0.938773 0.830187
O O6 0.060056 0.000000 0.907152
O O7 0.747121 0.000000 0.964897
O O8 0.846848 0.177434 0.787763
O O9 0.573319 0.125236 0.829719
O O10 0.790377 0.142505 0.948440
O O11 0.781661 0.664644 0.883160
O O12 0.750000 0.750000 0.000000
O O13 0.000000 0.678261 0.000000
O O14 0.616816 0.225516 0.315050
O O15 0.410255 0.313975 0.321908
O O16 0.178649 0.615786 0.269819
O O17 0.161367 0.556212 0.114531
#
# Coordination Sequence:
#
# PCOD9182975 Si02
#       8
#     8   4   8   8   8   8   8   4
#     4   8  16  30  50  75 108 143 176 216 264 316
#     4  11  23  39  59  80 101 136 183 227 266 314
#     4  11  22  37  55  77 106 143 179 221 267 315
#     4  10  22  35  50  73 105 140 172 208 259 312
#     4  10  19  33  53  81 112 144 180 220 267 321
#     4  11  22  37  55  77 106 143 179 221 267 315
#     4  10  19  33  53  81 112 144 180 220 267 321
#     4  11  23  39  59  80 101 136 183 227 266 314
#
# _framework density 19.882498999999999
#
# number of rings (size 3 to 8) (size 9 to 14) (size 15 to 20)
#    0.000    1.857    1.429    3.000    0.000    6.286 
#    0.000    0.000    0.000    0.857    0.000    6.000 
#    0.000    0.000    0.000    0.000    0.000    0.000 
#
# Total GULP energy -156251.948287 kJ/mol
# GULP energy per Si atom -5580.426725 kJ/mol
# Density = 1.983725 g / cm^3
# Si number density = 19.882499 Si / 1000 Ang^3
#
#
#
# Elastic Constant Matrix: (Units=GPa)
#
#
# Indices 1 2 3 4 5 6 
#
# 1 31.0438 -9.9285 -4.3723 0.0000 -2.4702 0.0000
# 2 -9.9285 41.6600 -17.9621 0.0000 -2.7429 0.0000
# 3 -4.3723 -17.9621 65.4441 0.0000 8.8137 0.0000
# 4 0.0000 0.0000 0.0000 18.3985 0.0000 0.5607
# 5 -2.4702 -2.7429 8.8137 0.0000 22.9955 0.0000
# 6 0.0000 0.0000 0.0000 0.5607 0.0000 20.4159
#
#
#
# Elastic Compliance Matrix: (Units=1/GPa)
#
#
# Indices 1 2 3 4 5 6 
#
# 1 0.036764 0.011168 0.005072 0.000000 0.003337 0.000000
# 2 0.011168 0.030622 0.008960 0.000000 0.001418 0.000000
# 3 0.005072 0.008960 0.018833 0.000000 -0.005605 0.000000
# 4 0.000000 0.000000 0.000000 0.054398 0.000000 -0.001494
# 5 0.003337 0.001418 -0.005605 0.000000 0.046163 0.000000
# 6 0.000000 0.000000 0.000000 -0.001494 0.000000 0.049023
#
#
# Mechanical properties :
#
#
# Convention : Reuss Voigt Hill
#
# Bulk Modulus (GPa) = 7.31958 8.18024 7.74991
# Shear Modulus (GPa) = 21.65049 23.72271 22.68660
#
# Velocity S-wave (km/s) = 3.30346 3.45794 3.38158
# Velocity P-wave (km/s) = 4.27082 4.47955 4.37643
#
# Compressibility (1/GPa) = 0.13661982
#
# Stress axis : x y z
#
# Youngs Moduli (GPa) = 27.20029 32.65628 53.09811
#
# Poissons Ratio (x) = -0.36472 -0.26932
# Poissons Ratio (y) = -0.30378 -0.47575
# Poissons Ratio (z) = -0.13796 -0.29259
#
# Static dielectric constant tensor:
#      x y z
#    x 1.717250 0.000000 0.002700 
#    y 0.000000 1.681050 0.000000 
#    z 0.002700 0.000000 1.764180 
# 
# From -- ./inp_files/197574.got.cif
#   From: 2010.05.17/outbox.cif.g08.bks.cpg/sg12_99_cif.got.tgz:197574.got - 2010.06.03 13:09:07.
