data_PCOD9182297
_publ_section_title
;
Structure prediction by ZEFSAII (Michael W. Deem and Ramdas Pophale) SiO2 
 PCOD9182297
Probable space group: C 2/M
;
_chemical_formula_sum "Si O2"
_cell_formula_units_Z 58
_cell_length_a 8.392255
_cell_length_b 20.472041
_cell_length_c 28.879720
_cell_angle_alpha 90.000000
_cell_angle_beta 138.428033
_cell_angle_gamma 90.000000
_cell_volume 3292.404303
_symmetry_space_group_name_H-M "C 2/M"
_symmetry_group_IT_number 12
_symmetry_cell_setting 'monoclinic'
loop_
_space_group_symop_operation_xyz
x,y,z
-x,y,-z
-x,-y,-z
x,-y,z
1/2+x,1/2+y,z
1/2-x,1/2+y,-z
1/2-x,1/2-y,-z
1/2+x,1/2-y,z
loop_
_atom_site_type_symbol
_atom_site_label
_atom_site_fract_x
_atom_site_fract_y
_atom_site_fract_z
Si Si1 0.035149 0.660747 0.442143
Si Si2 0.510387 0.393664 0.586066
Si Si3 0.321108 0.221338 0.623252
Si Si4 0.000000 0.000000 0.500000
Si Si5 0.096161 0.072869 0.333974
Si Si6 0.228730 0.714382 0.852436
Si Si7 0.744191 0.292458 0.951497
Si Si8 0.295610 0.693848 0.241001
O O1 0.252280 0.640461 0.521786
O O2 0.139594 0.688315 0.417284
O O3 0.865122 0.719394 0.421371
O O4 0.870626 0.597691 0.396347
O O5 0.706482 0.336095 0.628948
O O6 0.537887 0.442973 0.549003
O O7 0.499925 0.425675 0.634171
O O8 0.561832 0.253209 0.696472
O O9 0.950708 0.128063 0.274809
O O10 0.079650 0.000000 0.311510
O O11 0.477098 0.675981 0.895409
O O12 0.243629 0.744854 0.906991
O O13 0.219331 0.772728 0.812653
O O14 0.969211 0.680481 0.796259
O O15 0.750000 0.250000 0.000000
O O16 0.000000 0.329485 0.000000
#
# Coordination Sequence:
#
# PCOD9182297 Si02
#       8
#     8   8   8   2   8   8   8   8
#     4  11  23  36  54  76  93 122 165 222 284 331
#     4  12  23  39  54  71  94 124 167 224 283 332
#     4  11  21  36  54  73  99 125 168 216 262 328
#     4  12  24  40  54  72  96 124 168 216 296 344
#     4  11  24  37  53  69  98 130 173 218 264 324
#     4   9  16  28  49  71 110 136 163 197 231 285
#     4   8  14  25  45  78 112 139 158 188 236 287
#     4  10  19  33  47  74  97 136 169 200 252 300
#
# _framework density 17.616305000000001
#
# number of rings (size 3 to 8) (size 9 to 14) (size 15 to 20)
#    0.000    1.655    2.069    4.966    0.966    2.759 
#    0.000    0.000    0.000    0.000    0.000    0.000 
#    0.000   69.517    0.000    0.000    0.000    0.000 
#
# Total GULP energy -161440.169444 kJ/mol
# GULP energy per Si atom -5566.902395 kJ/mol
# Density = 1.757621 g / cm^3
# Si number density = 17.616305 Si / 1000 Ang^3
#
#
#
# Elastic Constant Matrix: (Units=GPa)
#
#
# Indices 1 2 3 4 5 6 
#
# 1 61.1707 6.6372 20.6175 -0.0003 11.9215 -0.0004
# 2 6.6372 70.3113 9.1589 -0.0004 -0.4562 -0.0004
# 3 20.6175 9.1589 55.8597 -0.0004 5.4963 -0.0010
# 4 -0.0003 -0.0004 -0.0004 3.8025 -0.0005 -2.5478
# 5 11.9215 -0.4562 5.4963 -0.0005 43.0441 -0.0006
# 6 -0.0004 -0.0004 -0.0010 -2.5478 -0.0006 7.1713
#
#
#
# Elastic Compliance Matrix: (Units=1/GPa)
#
#
# Indices 1 2 3 4 5 6 
#
# 1 0.019580 -0.001017 -0.006608 0.000000 -0.004590 0.000000
# 2 -0.001017 0.014595 -0.002087 0.000002 0.000703 0.000001
# 3 -0.006608 -0.002087 0.020766 0.000004 -0.000843 0.000004
# 4 0.000000 0.000002 0.000004 0.345141 0.000005 0.122621
# 5 -0.004590 0.000703 -0.000843 0.000005 0.024618 0.000004
# 6 0.000000 0.000001 0.000004 0.122621 0.000004 0.183009
#
#
# Mechanical properties :
#
#
# Convention : Reuss Voigt Hill
#
# Bulk Modulus (GPa) = 28.15607 28.90764 28.53186
# Shear Modulus (GPa) = 7.82506 20.86546 14.34526
#
# Velocity S-wave (km/s) = 2.10988 3.44530 2.85672
# Velocity P-wave (km/s) = 4.68541 5.68085 5.20697
#
# Compressibility (1/GPa) = 0.03551631
#
# Stress axis : x y z
#
# Youngs Moduli (GPa) = 51.07264 68.51720 48.15498
#
# Poissons Ratio (x) = 0.06970 0.31823
# Poissons Ratio (y) = 0.05195 0.10049
# Poissons Ratio (z) = 0.33751 0.14298
#
# Static dielectric constant tensor:
#      x y z
#    x 1.674700 0.000000 0.032380 
#    y 0.000000 1.606900 0.000000 
#    z 0.032380 0.000000 1.650300 
# 
# From -- ./inp_files/373091.got.cif
#   From: 2010.05.17/outbox.cif.g08.bks.cpg/sg12_187_cif.got.tgz:373091.got - 2010.06.03 13:09:07.
