data_PCOD9182185
_publ_section_title
;
Structure prediction by ZEFSAII (Michael W. Deem and Ramdas Pophale) SiO2 
 PCOD9182185
Probable space group: C 2/M
;
_chemical_formula_sum "Si O2"
_cell_formula_units_Z 64
_cell_length_a 20.451491
_cell_length_b 8.820607
_cell_length_c 37.006739
_cell_angle_alpha 90.000000
_cell_angle_beta 148.805257
_cell_angle_gamma 90.000000
_cell_volume 3457.728316
_symmetry_space_group_name_H-M "C 2/M"
_symmetry_group_IT_number 12
_symmetry_cell_setting 'monoclinic'
loop_
_space_group_symop_operation_xyz
x,y,z
-x,y,-z
-x,-y,-z
x,-y,z
1/2+x,1/2+y,z
1/2-x,1/2+y,-z
1/2-x,1/2-y,-z
1/2+x,1/2-y,z
loop_
_atom_site_type_symbol
_atom_site_label
_atom_site_fract_x
_atom_site_fract_y
_atom_site_fract_z
Si Si1 0.833701 0.320729 0.707525
Si Si2 0.559820 0.680760 0.911973
Si Si3 0.645290 0.180959 0.560792
Si Si4 0.094750 0.819883 0.804543
Si Si5 0.444192 0.818178 0.292157
Si Si6 0.789762 0.819142 0.556943
Si Si7 0.777963 0.181117 0.757429
Si Si8 0.262476 0.179877 0.065013
O O1 0.855567 0.500000 0.717133
O O2 0.736999 0.271228 0.630687
O O3 0.779851 0.268557 0.720591
O O4 0.965307 0.235788 0.762256
O O5 0.577851 0.500000 0.913885
O O6 0.411580 0.712296 0.840198
O O7 0.632482 0.769778 0.914757
O O8 0.629881 0.715931 0.982713
O O9 0.500000 0.217006 0.500000
O O10 0.685980 0.212215 0.538895
O O11 0.663576 0.000000 0.575754
O O12 0.096124 0.746048 0.765709
O O13 0.207036 0.764592 0.883571
O O14 0.093403 0.000000 0.800955
O O15 0.578399 0.749553 0.367020
O O16 0.338999 0.779840 0.272344
O O17 0.454537 0.000000 0.294825
O O18 0.750000 0.750000 0.500000
O O19 0.802172 0.000000 0.559535
O O20 0.772944 0.000000 0.747699
O O21 0.270588 0.000000 0.074669
#
# Coordination Sequence:
#
# PCOD9182185 Si02
#       8
#     8   8   8   8   8   8   8   8
#     4  12  24  38  62  93 122 154 200 254 300 348
#     4   9  18  34  56  85 121 158 196 244 301 359
#     4  10  23  43  65  89 120 160 200 241 295 354
#     4  12  23  39  61  86 119 162 204 247 304 359
#     4  11  24  42  64  89 120 159 204 249 297 357
#     4  11  24  42  64  89 122 162 199 244 298 357
#     4  10  22  40  62  88 122 162 199 243 301 360
#     4  10  19  32  56  89 119 153 200 250 300 354
#
# _framework density 18.509262
#
# number of rings (size 3 to 8) (size 9 to 14) (size 15 to 20)
#    0.000    1.375    2.500    3.375    1.750    2.250 
#    0.000    0.625    0.000    3.750    0.000    0.000 
#    0.000    0.000    0.000    0.000    0.000    0.000 
#
# Total GULP energy -178866.970629 kJ/mol
# GULP energy per Si atom -5589.592832 kJ/mol
# Density = 1.846713 g / cm^3
# Si number density = 18.509262 Si / 1000 Ang^3
#
#
#
# Elastic Constant Matrix: (Units=GPa)
#
#
# Indices 1 2 3 4 5 6 
#
# 1 111.5952 54.0140 46.1788 0.0000 -15.6194 0.0001
# 2 54.0140 71.6513 44.6641 -0.0002 -12.2859 0.0002
# 3 46.1788 44.6641 96.9872 0.0000 -24.0596 0.0001
# 4 0.0000 -0.0002 0.0000 33.8864 0.0000 -6.6906
# 5 -15.6194 -12.2859 -24.0596 0.0000 32.1372 -0.0001
# 6 0.0001 0.0002 0.0001 -6.6906 -0.0001 25.7408
#
#
#
# Elastic Compliance Matrix: (Units=1/GPa)
#
#
# Indices 1 2 3 4 5 6 
#
# 1 0.014668 -0.009359 -0.002202 0.000000 0.001903 0.000000
# 2 -0.009359 0.025568 -0.007396 0.000000 -0.000311 0.000000
# 3 -0.002202 -0.007396 0.016945 0.000000 0.008788 0.000000
# 4 0.000000 0.000000 0.000000 0.031107 0.000000 0.008085
# 5 0.001903 -0.000311 0.008788 0.000000 0.038502 0.000000
# 6 0.000000 0.000000 0.000000 0.008085 0.000000 0.040950
#
#
# Mechanical properties :
#
#
# Convention : Reuss Voigt Hill
#
# Bulk Modulus (GPa) = 51.89806 63.32750 57.61278
# Shear Modulus (GPa) = 23.57636 27.37800 25.47718
#
# Velocity S-wave (km/s) = 3.57285 3.85015 3.71409
# Velocity P-wave (km/s) = 6.71716 7.35208 7.04178
#
# Compressibility (1/GPa) = 0.01926854
#
# Stress axis : x y z
#
# Youngs Moduli (GPa) = 68.17425 39.11100 59.01377
#
# Poissons Ratio (x) = 0.36602 0.12997
# Poissons Ratio (y) = 0.63801 0.43645
# Poissons Ratio (z) = 0.15014 0.28925
#
# Static dielectric constant tensor:
#      x y z
#    x 1.611490 0.000000 0.000120 
#    y 0.000000 1.621700 0.000000 
#    z 0.000120 0.000000 1.634390 
# 
# From -- ./inp_files/378485.got.cif
#   From: 2010.05.17/outbox.cif.g08.bks.cpg/sg12_190_cif.got.tgz:378485.got - 2010.06.03 13:09:07.
