data_PCOD9182259
_publ_section_title
;
Structure prediction by ZEFSAII (Michael W. Deem and Ramdas Pophale) SiO2 
 PCOD9182259
Probable space group: C 2/M
;
_chemical_formula_sum "Si O2"
_cell_formula_units_Z 52
_cell_length_a 12.659387
_cell_length_b 31.199323
_cell_length_c 6.963177
_cell_angle_alpha 90.000000
_cell_angle_beta 127.408863
_cell_angle_gamma 90.000000
_cell_volume 2184.545721
_symmetry_space_group_name_H-M "C 2/M"
_symmetry_group_IT_number 12
_symmetry_cell_setting 'monoclinic'
loop_
_space_group_symop_operation_xyz
x,y,z
-x,y,-z
-x,-y,-z
x,-y,z
1/2+x,1/2+y,z
1/2-x,1/2+y,-z
1/2-x,1/2-y,-z
1/2+x,1/2-y,z
loop_
_atom_site_type_symbol
_atom_site_label
_atom_site_fract_x
_atom_site_fract_y
_atom_site_fract_z
Si Si1 0.178949 0.885554 0.925503
Si Si2 0.500000 0.765849 0.000000
Si Si3 0.959328 0.950995 0.731775
Si Si4 0.846371 0.571789 0.663168
Si Si5 0.382321 0.952519 0.154879
Si Si6 0.707284 0.838367 0.323768
Si Si7 0.990217 0.188079 0.721427
O O1 0.068475 0.921132 0.751705
O O2 0.242404 0.861325 0.814782
O O3 0.090194 0.847633 0.915955
O O4 0.296588 0.913605 0.149470
O O5 0.377931 0.796923 0.818125
O O6 0.523090 0.733729 0.848480
O O7 0.807884 0.935566 0.551004
O O8 0.966963 0.000000 0.676655
O O9 0.000000 0.948942 0.000000
O O10 0.875732 0.622667 0.677768
O O11 0.957828 0.549489 0.655871
O O12 0.861946 0.554965 0.900539
O O13 0.332074 0.000000 0.149724
O O14 0.837287 0.825180 0.585932
O O15 0.000000 0.189379 0.500000
#
# Coordination Sequence:
#
# PCOD9182259 Si02
#       7
#     8   4   8   8   8   8   8
#     4  10  21  38  60  87 129 167 213 278 325 386
#     4  12  24  42  72  94 132 178 214 286 354 402
#     4  11  23  38  60  92 130 179 230 267 322 400
#     4  10  19  37  60  88 129 164 210 270 328 391
#     4  10  19  32  58  92 122 162 212 266 329 386
#     4  10  21  40  62  96 126 165 220 276 340 409
#     4  10  23  41  63  95 132 170 225 279 335 414
#
# _framework density 23.803576
#
# number of rings (size 3 to 8) (size 9 to 14) (size 15 to 20)
#    0.000    1.692    1.538    4.615    3.231    2.462 
#    0.000    4.615    0.000    4.615    0.000    0.000 
#    0.000    0.000    0.000    0.000    0.000    0.000 
#
# Total GULP energy -145399.059011 kJ/mol
# GULP energy per Si atom -5592.271500 kJ/mol
# Density = 2.374940 g / cm^3
# Si number density = 23.803576 Si / 1000 Ang^3
#
#
#
# Elastic Constant Matrix: (Units=GPa)
#
#
# Indices 1 2 3 4 5 6 
#
# 1 75.2568 41.3877 28.1644 0.0000 19.4131 0.0000
# 2 41.3877 221.4729 47.2379 0.0000 25.1848 0.0000
# 3 28.1644 47.2379 112.2955 0.0000 23.2026 0.0000
# 4 0.0000 0.0000 0.0000 2.9363 0.0000 14.8166
# 5 19.4131 25.1848 23.2026 0.0000 43.7281 0.0000
# 6 0.0000 0.0000 0.0000 14.8166 0.0000 8.6393
#
#
#
# Elastic Compliance Matrix: (Units=1/GPa)
#
#
# Indices 1 2 3 4 5 6 
#
# 1 0.016539 -0.002044 -0.002263 0.000000 -0.004965 0.000000
# 2 -0.002044 0.005368 -0.001454 0.000000 -0.001413 0.000000
# 3 -0.002263 -0.001454 0.010898 0.000000 -0.003941 0.000000
# 4 0.000000 0.000000 0.000000 -0.044495 0.000000 0.076309
# 5 -0.004965 -0.001413 -0.003941 0.000000 0.027978 0.000000
# 6 0.000000 0.000000 0.000000 0.076309 0.000000 -0.015123
#
#
# Mechanical properties :
#
#
# Convention : Reuss Voigt Hill
#
# Bulk Modulus (GPa) = 46.97929 71.40059 59.18994
# Shear Modulus (GPa) = 252.77235 30.54307 141.65771
#
# Velocity S-wave (km/s) = 10.31608 3.58597 7.72271
# Velocity P-wave (km/s) = 12.71512 6.87069 10.21961
#
# Compressibility (1/GPa) = 0.02128598
#
# Stress axis : x y z
#
# Youngs Moduli (GPa) = 60.46219 186.29536 91.75734
#
# Poissons Ratio (x) = 0.38071 0.20761
# Poissons Ratio (y) = 0.12356 0.13337
# Poissons Ratio (z) = 0.13680 0.27078
#
# Static dielectric constant tensor:
#      x y z
#    x 2.005730 0.000000 -0.048640 
#    y 0.000000 1.859430 0.000000 
#    z -0.048640 0.000000 1.948020 
# 
# From -- ./inp_files/68677.got.cif
#   From: 2010.05.17/outbox.cif.g08.bks.cpg/sg12_35_cif.got.tgz:68677.got - 2010.06.03 13:09:07.
