data_PCOD9182070
_publ_section_title
;
Structure prediction by ZEFSAII (Michael W. Deem and Ramdas Pophale) SiO2 
 PCOD9182070
Probable space group: C 2/M
;
_chemical_formula_sum "Si O2"
_cell_formula_units_Z 56
_cell_length_a 24.243031
_cell_length_b 19.403917
_cell_length_c 7.061660
_cell_angle_alpha 90.000000
_cell_angle_beta 136.842668
_cell_angle_gamma 90.000000
_cell_volume 2272.175147
_symmetry_space_group_name_H-M "C 2/M"
_symmetry_group_IT_number 12
_symmetry_cell_setting 'monoclinic'
loop_
_space_group_symop_operation_xyz
x,y,z
-x,y,-z
-x,-y,-z
x,-y,z
1/2+x,1/2+y,z
1/2-x,1/2+y,-z
1/2-x,1/2-y,-z
1/2+x,1/2-y,z
loop_
_atom_site_type_symbol
_atom_site_label
_atom_site_fract_x
_atom_site_fract_y
_atom_site_fract_z
Si Si1 0.106414 0.221657 0.441136
Si Si2 0.477745 0.077678 0.165307
Si Si3 0.566338 0.227248 0.912696
Si Si4 0.803824 0.919283 0.308733
Si Si5 0.274383 0.722657 0.772336
Si Si6 0.239090 0.925248 0.364233
Si Si7 0.152415 0.420623 0.689532
O O1 0.127861 0.140376 0.522501
O O2 0.192492 0.261534 0.682196
O O3 0.025792 0.247349 0.347558
O O4 0.085947 0.239478 0.168973
O O5 0.424859 0.144887 0.053362
O O6 0.560571 0.099428 0.480317
O O7 0.452123 0.000000 0.156639
O O8 0.500000 0.073587 0.000000
O O9 0.639990 0.245778 0.959561
O O10 0.766951 0.921411 0.427435
O O11 0.827185 0.000000 0.323471
O O12 0.729976 0.893631 0.993648
O O13 0.250000 0.750000 0.500000
O O14 0.299476 0.643136 0.812051
O O15 0.325753 0.920821 0.479872
O O16 0.205216 0.000000 0.221264
O O17 0.153002 0.500000 0.750186
#
# Coordination Sequence:
#
# PCOD9182070 Si02
#       7
#     8   8   8   8   8   8   8
#     4  10  19  35  58  85 119 166 202 250 323 359
#     4  10  19  32  55  85 117 161 204 246 310 374
#     4  10  19  34  56  86 125 160 205 261 306 368
#     4  10  20  37  60  90 124 160 208 259 305 369
#     4  10  19  34  56  86 121 155 203 259 301 363
#     4  10  19  34  60  87 113 158 204 249 309 364
#     4   9  20  36  59  93 123 154 209 260 304 374
#
# _framework density 24.645986000000001
#
# number of rings (size 3 to 8) (size 9 to 14) (size 15 to 20)
#    0.000    2.143    4.286    0.857    2.000    0.000 
#    0.000    5.714    0.000    6.000    0.000   18.000 
#    0.000    0.000    0.000    0.000    0.000    0.000 
#
# Total GULP energy -156213.771018 kJ/mol
# GULP energy per Si atom -5579.063251 kJ/mol
# Density = 2.458989 g / cm^3
# Si number density = 24.645986 Si / 1000 Ang^3
#
#
#
# Elastic Constant Matrix: (Units=GPa)
#
#
# Indices 1 2 3 4 5 6 
#
# 1 130.4589 31.9264 46.0560 0.0000 18.2915 0.0000
# 2 31.9264 229.4303 64.7979 0.0000 20.5951 0.0000
# 3 46.0560 64.7979 130.3735 0.0000 21.7007 0.0000
# 4 0.0000 0.0000 0.0000 28.0244 0.0000 4.2327
# 5 18.2915 20.5951 21.7007 0.0000 42.3345 0.0000
# 6 0.0000 0.0000 0.0000 4.2327 0.0000 1.8217
#
#
#
# Elastic Compliance Matrix: (Units=1/GPa)
#
#
# Indices 1 2 3 4 5 6 
#
# 1 0.009004 -0.000293 -0.002636 0.000000 -0.002396 0.000000
# 2 -0.000293 0.005145 -0.002250 0.000000 -0.001223 0.000000
# 3 -0.002636 -0.002250 0.010220 0.000000 -0.003005 0.000000
# 4 0.000000 0.000000 0.000000 0.054976 0.000000 -0.127738
# 5 -0.002396 -0.001223 -0.003005 0.000000 0.026792 0.000000
# 6 0.000000 0.000000 0.000000 -0.127738 0.000000 0.845740
#
#
# Mechanical properties :
#
#
# Convention : Reuss Voigt Hill
#
# Bulk Modulus (GPa) = 71.37816 86.20257 78.79037
# Shear Modulus (GPa) = 5.17114 37.60160 21.38637
#
# Velocity S-wave (km/s) = 1.45008 3.91022 2.94894
# Velocity P-wave (km/s) = 5.64162 7.44571 6.60555
#
# Compressibility (1/GPa) = 0.01400989
#
# Stress axis : x y z
#
# Youngs Moduli (GPa) = 111.06682 194.37788 97.84845
#
# Poissons Ratio (x) = 0.05701 0.25793
# Poissons Ratio (y) = 0.03258 0.22014
# Poissons Ratio (z) = 0.29277 0.43731
#
# Static dielectric constant tensor:
#      x y z
#    x 2.026630 0.000000 -0.044650 
#    y 0.000000 2.060750 0.000000 
#    z -0.044650 0.000000 2.076010 
# 
# From -- ./inp_files/113411.got.cif
#   From: 2010.05.17/outbox.cif.g08.bks.cpg/sg12_57_cif.got.tgz:113411.got - 2010.06.03 13:09:07.
