data_PCOD9182635
_publ_section_title
;
Structure prediction by ZEFSAII (Michael W. Deem and Ramdas Pophale) SiO2 
 PCOD9182635
Probable space group: C 2/M
;
_chemical_formula_sum "Si O2"
_cell_formula_units_Z 64
_cell_length_a 27.042644
_cell_length_b 7.422033
_cell_length_c 15.305412
_cell_angle_alpha 90.000000
_cell_angle_beta 64.663857
_cell_angle_gamma 90.000000
_cell_volume 2776.486318
_symmetry_space_group_name_H-M "C 2/M"
_symmetry_group_IT_number 12
_symmetry_cell_setting 'monoclinic'
loop_
_space_group_symop_operation_xyz
x,y,z
-x,y,-z
-x,-y,-z
x,-y,z
1/2+x,1/2+y,z
1/2-x,1/2+y,-z
1/2-x,1/2-y,-z
1/2+x,1/2-y,z
loop_
_atom_site_type_symbol
_atom_site_label
_atom_site_fract_x
_atom_site_fract_y
_atom_site_fract_z
Si Si1 0.697557 0.212181 0.483460
Si Si2 0.762785 0.793176 0.738202
Si Si3 0.360772 0.219666 0.152768
Si Si4 0.406174 0.780250 0.932609
Si Si5 0.865496 0.288886 0.775596
Si Si6 0.413421 0.782871 0.389283
Si Si7 0.562202 0.219541 0.437719
Si Si8 0.030891 0.279703 0.821416
O O1 0.750000 0.250000 0.500000
O O2 0.707602 0.284684 0.378431
O O3 0.648343 0.267085 0.585969
O O4 0.689301 0.000000 0.475087
O O5 0.700851 0.717704 0.777052
O O6 0.804808 0.721527 0.779918
O O7 0.755499 0.000000 0.768360
O O8 0.415072 0.277665 0.165675
O O9 0.360899 0.000000 0.161544
O O10 0.372456 0.270725 0.043673
O O11 0.378685 0.717928 0.862421
O O12 0.469865 0.722837 0.893724
O O13 0.406876 0.000000 0.931823
O O14 0.878627 0.500000 0.772008
O O15 0.906705 0.212626 0.670789
O O16 0.412684 0.723064 0.489710
O O17 0.457603 0.719889 0.287060
O O18 0.420789 0.000000 0.384213
O O19 0.500000 0.271899 0.500000
O O20 0.564018 0.000000 0.432442
O O21 0.030365 0.500000 0.825811
#
# Coordination Sequence:
#
# PCOD9182635 Si02
#       8
#     8   8   8   8   8   8   8   8
#     4  11  21  35  54  79 111 143 177 219 263 314
#     4  11  22  36  53  75 109 151 187 219 262 317
#     4   9  18  31  47  72 106 140 178 228 279 323
#     4   9  17  29  49  76 104 135 174 226 286 332
#     4  10  19  33  52  78 108 138 177 227 272 324
#     4   9  16  26  43  71 103 132 163 202 255 313
#     4   9  15  25  44  72 102 128 161 212 268 315
#     4   9  15  26  46  75 107 134 166 218 283 337
#
# _framework density 23.050718
#
# number of rings (size 3 to 8) (size 9 to 14) (size 15 to 20)
#    0.000    2.375    1.250    2.625    0.000    7.000 
#    0.000    0.000    0.000    1.125    0.000    1.750 
#    0.000   10.000    0.000    0.000    0.000    0.000 
#
# Total GULP energy -178414.281290 kJ/mol
# GULP energy per Si atom -5575.446290 kJ/mol
# Density = 2.299825 g / cm^3
# Si number density = 23.050718 Si / 1000 Ang^3
#
#
#
# Elastic Constant Matrix: (Units=GPa)
#
#
# Indices 1 2 3 4 5 6 
#
# 1 88.0718 -7.6120 31.0119 0.0000 -1.9822 0.0000
# 2 -7.6120 64.4680 -2.0544 0.0000 -0.9084 0.0001
# 3 31.0119 -2.0544 101.4217 0.0000 -5.1778 0.0000
# 4 0.0000 0.0000 0.0000 -0.3465 0.0000 -0.7877
# 5 -1.9822 -0.9084 -5.1778 0.0000 41.4667 0.0000
# 6 0.0000 0.0001 0.0000 -0.7877 0.0000 10.7915
#
#
#
# Elastic Compliance Matrix: (Units=1/GPa)
#
#
# Indices 1 2 3 4 5 6 
#
# 1 0.012849 0.001395 -0.003893 0.000000 0.000159 0.000000
# 2 0.001395 0.015679 -0.000089 0.000002 0.000399 0.000000
# 3 -0.003893 -0.000089 0.011109 0.000000 0.001199 0.000000
# 4 0.000000 0.000002 0.000000 -2.475394 0.000000 -0.180683
# 5 0.000159 0.000399 0.001199 0.000000 0.024282 0.000000
# 6 0.000000 0.000000 0.000000 -0.180683 0.000000 0.079477
#
#
# Mechanical properties :
#
#
# Convention : Reuss Voigt Hill
#
# Bulk Modulus (GPa) = 29.01407 32.96138 30.98773
# Shear Modulus (GPa) = -2.15951 25.89007 11.86528
#
# Velocity S-wave (km/s) = -0.96896 3.35502 2.27126
# Velocity P-wave (km/s) = 3.37084 5.41653 4.51117
#
# Compressibility (1/GPa) = 0.03446604
#
# Stress axis : x y z
#
# Youngs Moduli (GPa) = 77.82587 63.77903 90.01317
#
# Poissons Ratio (x) = -0.08899 0.35038
# Poissons Ratio (y) = -0.10860 0.00798
# Poissons Ratio (z) = 0.30294 0.00566
#
# Static dielectric constant tensor:
#      x y z
#    x 3.068170 0.000000 -0.092530 
#    y 0.000000 1.890330 0.000000 
#    z -0.092530 0.000000 1.851990 
# 
# From -- ./inp_files/249020.got.cif
#   From: 2010.05.17/outbox.cif.g08.bks.cpg/sg12_125_cif.got.tgz:249020.got - 2010.06.03 13:09:07.
