data_PCOD9182867
_publ_section_title
;
Structure prediction by ZEFSAII (Michael W. Deem and Ramdas Pophale) SiO2 
 PCOD9182867
Probable space group: C 2/M
;
_chemical_formula_sum "Si O2"
_cell_formula_units_Z 40
_cell_length_a 18.933049
_cell_length_b 15.363941
_cell_length_c 13.455445
_cell_angle_alpha 90.000000
_cell_angle_beta 31.774485
_cell_angle_gamma 90.000000
_cell_volume 2061.025487
_symmetry_space_group_name_H-M "C 2/M"
_symmetry_group_IT_number 12
_symmetry_cell_setting 'monoclinic'
loop_
_space_group_symop_operation_xyz
x,y,z
-x,y,-z
-x,-y,-z
x,-y,z
1/2+x,1/2+y,z
1/2-x,1/2+y,-z
1/2-x,1/2-y,-z
1/2+x,1/2-y,z
loop_
_atom_site_type_symbol
_atom_site_label
_atom_site_fract_x
_atom_site_fract_y
_atom_site_fract_z
Si Si1 0.707567 0.851007 0.055598
Si Si2 0.104920 0.395308 0.597125
Si Si3 0.152912 0.134149 0.309325
Si Si4 0.654049 0.156225 0.328643
Si Si5 0.128494 0.601374 0.788776
O O1 0.548329 0.861300 0.228603
O O2 0.733126 0.880978 0.138717
O O3 0.750000 0.750000 0.000000
O O4 0.783380 0.893374 0.872152
O O5 0.102364 0.500000 0.594683
O O6 0.188466 0.364168 0.401153
O O7 0.153718 0.364572 0.647403
O O8 0.153631 0.239642 0.315486
O O9 0.245633 0.105247 0.289135
O O10 0.000000 0.105300 0.500000
O O11 0.500000 0.124778 0.500000
O O12 0.093792 0.500000 0.813758
O O13 0.000000 0.641616 0.000000
#
# Coordination Sequence:
#
# PCOD9182867 Si02
#       5
#     8   8   8   8   8
#     4   9  17  31  50  74 108 140 171 215 265 310
#     4  10  19  33  55  79 105 138 181 227 264 305
#     4  10  19  33  53  77 109 143 171 216 266 321
#     4   8  17  31  49  77 105 135 174 220 262 309
#     4  10  20  34  52  77 107 139 179 222 261 308
#
# _framework density 19.407814999999999
#
# number of rings (size 3 to 8) (size 9 to 14) (size 15 to 20)
#    0.000    2.600    2.000    1.200    0.000    4.800 
#    0.000    0.000    0.000    0.000    0.000    2.800 
#    0.000    0.000    0.000    0.000    0.000    0.000 
#
# Total GULP energy -111348.252586 kJ/mol
# GULP energy per Si atom -5567.412629 kJ/mol
# Density = 1.936364 g / cm^3
# Si number density = 19.407815 Si / 1000 Ang^3
#
#
#
# Elastic Constant Matrix: (Units=GPa)
#
#
# Indices 1 2 3 4 5 6 
#
# 1 110.4829 3.8762 91.2468 0.0000 50.6417 0.0000
# 2 3.8762 38.4896 12.4440 0.0000 9.7647 0.0000
# 3 91.2468 12.4440 140.6372 0.0000 54.1012 0.0000
# 4 0.0000 0.0000 0.0000 11.9372 0.0000 6.2004
# 5 50.6417 9.7647 54.1012 0.0000 49.4479 0.0000
# 6 0.0000 0.0000 0.0000 6.2004 0.0000 17.5577
#
#
#
# Elastic Compliance Matrix: (Units=1/GPa)
#
#
# Indices 1 2 3 4 5 6 
#
# 1 0.024071 0.004547 -0.010690 0.000000 -0.013853 0.000000
# 2 0.004547 0.028239 -0.002611 0.000000 -0.007376 0.000000
# 3 -0.010690 -0.002611 0.017039 0.000000 -0.007178 0.000000
# 4 0.000000 0.000000 0.000000 0.102590 0.000000 -0.036229
# 5 -0.013853 -0.007376 -0.007178 0.000000 0.043721 0.000000
# 6 0.000000 0.000000 0.000000 -0.036229 0.000000 0.069749
#
#
# Mechanical properties :
#
#
# Convention : Reuss Voigt Hill
#
# Bulk Modulus (GPa) = 19.29065 56.08263 37.68664
# Shear Modulus (GPa) = 15.61534 27.92473 21.77004
#
# Velocity S-wave (km/s) = 2.83961 3.79732 3.35283
# Velocity P-wave (km/s) = 4.55108 6.94160 5.86934
#
# Compressibility (1/GPa) = 0.05183857
#
# Stress axis : x y z
#
# Youngs Moduli (GPa) = 41.54430 35.41245 58.68894
#
# Poissons Ratio (x) = -0.16101 0.62741
# Poissons Ratio (y) = -0.18889 0.15325
# Poissons Ratio (z) = 0.44413 0.09247
#
# Static dielectric constant tensor:
#      x y z
#    x 1.695140 0.000000 0.036330 
#    y 0.000000 1.708400 0.000000 
#    z 0.036330 0.000000 2.068960 
# 
# From -- ./inp_files/60865.got.cif
#   From: 2010.05.17/outbox.cif.g08.bks.cpg/sg12_31_cif.got.tgz:60865.got - 2010.06.03 13:09:07.
