data_PCOD9182175
_publ_section_title
;
Structure prediction by ZEFSAII (Michael W. Deem and Ramdas Pophale) SiO2 
 PCOD9182175
Probable space group: C 2/M
;
_chemical_formula_sum "Si O2"
_cell_formula_units_Z 58
_cell_length_a 27.402180
_cell_length_b 20.516131
_cell_length_c 5.164072
_cell_angle_alpha 90.000000
_cell_angle_beta 93.414291
_cell_angle_gamma 90.000000
_cell_volume 2898.019553
_symmetry_space_group_name_H-M "C 2/M"
_symmetry_group_IT_number 12
_symmetry_cell_setting 'monoclinic'
loop_
_space_group_symop_operation_xyz
x,y,z
-x,y,-z
-x,-y,-z
x,-y,z
1/2+x,1/2+y,z
1/2-x,1/2+y,-z
1/2-x,1/2-y,-z
1/2+x,1/2-y,z
loop_
_atom_site_type_symbol
_atom_site_label
_atom_site_fract_x
_atom_site_fract_y
_atom_site_fract_z
Si Si1 0.866706 0.578209 0.121645
Si Si2 0.058517 0.243431 0.510573
Si Si3 0.193789 0.578963 0.396234
Si Si4 0.454509 0.620169 0.819228
Si Si5 0.940991 0.683077 0.989362
Si Si6 0.197844 0.920553 0.425933
Si Si7 0.860446 0.921237 0.094457
Si Si8 0.500000 0.500000 0.500000
O O1 0.873694 0.500000 0.115416
O O2 0.844460 0.596429 0.391950
O O3 0.915809 0.616472 0.069350
O O4 0.826763 0.596650 0.890540
O O5 0.065103 0.171987 0.394279
O O6 0.074970 0.263066 0.801546
O O7 0.000000 0.251252 0.500000
O O8 0.076519 0.293552 0.297319
O O9 0.196818 0.500000 0.399171
O O10 0.248085 0.602658 0.482614
O O11 0.412592 0.602256 0.010155
O O12 0.474035 0.557122 0.673149
O O13 0.500000 0.648170 0.000000
O O14 0.000000 0.677552 0.000000
O O15 0.179024 0.902130 0.136789
O O16 0.198786 0.000000 0.428568
O O17 0.159141 0.900242 0.633011
O O18 0.863642 0.000000 0.102724
#
# Coordination Sequence:
#
# PCOD9182175 Si02
#       8
#     8   8   8   8   8   8   8   2
#     4  10  19  32  56  87 116 143 178 229 287 336
#     4  10  21  38  57  74 106 152 199 230 258 317
#     4   9  17  31  52  80 113 143 180 224 282 338
#     4  12  25  38  56  83 116 154 188 230 284 335
#     4  10  21  37  56  82 112 149 190 228 265 325
#     4   9  18  32  49  74 108 145 178 223 276 337
#     4  10  21  32  50  76 109 142 181 222 281 336
#     4  12  26  36  60  82 124 148 184 232 302 324
#
# _framework density 20.013669
#
# number of rings (size 3 to 8) (size 9 to 14) (size 15 to 20)
#    0.000    1.931    1.379    3.103    1.931    3.586 
#    0.000    0.000    0.000    4.966    0.000   19.310 
#    0.000    0.000    0.000    0.000    0.000    0.000 
#
# Total GULP energy -161692.252851 kJ/mol
# GULP energy per Si atom -5575.594926 kJ/mol
# Density = 1.996812 g / cm^3
# Si number density = 20.013669 Si / 1000 Ang^3
#
#
#
# Elastic Constant Matrix: (Units=GPa)
#
#
# Indices 1 2 3 4 5 6 
#
# 1 55.4910 22.9776 4.3508 0.0000 -1.1014 0.0000
# 2 22.9776 50.5326 14.9816 0.0000 -5.9333 0.0000
# 3 4.3508 14.9816 68.5192 0.0000 -4.8318 0.0000
# 4 0.0000 0.0000 0.0000 0.3087 0.0000 5.2862
# 5 -1.1014 -5.9333 -4.8318 0.0000 28.3519 0.0000
# 6 0.0000 0.0000 0.0000 5.2862 0.0000 0.0894
#
#
#
# Elastic Compliance Matrix: (Units=1/GPa)
#
#
# Indices 1 2 3 4 5 6 
#
# 1 0.022287 -0.010512 0.000799 0.000000 -0.001198 0.000000
# 2 -0.010512 0.026506 -0.004824 0.000000 0.004317 0.000000
# 3 0.000799 -0.004824 0.015718 0.000000 0.001700 0.000000
# 4 0.000000 0.000000 0.000000 -0.003203 0.000000 0.189359
# 5 -0.001198 0.004317 0.001700 0.000000 0.036418 0.000000
# 6 0.000000 0.000000 0.000000 0.189359 0.000000 -0.011060
#
#
# Mechanical properties :
#
#
# Convention : Reuss Voigt Hill
#
# Bulk Modulus (GPa) = 28.21808 28.79588 28.50698
# Shear Modulus (GPa) = 39.19981 14.56555 26.88268
#
# Velocity S-wave (km/s) = 4.43047 2.70067 3.66897
# Velocity P-wave (km/s) = 6.34839 4.91367 5.67654
#
# Compressibility (1/GPa) = 0.03543827
#
# Stress axis : x y z
#
# Youngs Moduli (GPa) = 44.86888 37.72756 63.62010
#
# Poissons Ratio (x) = 0.39658 -0.05081
# Poissons Ratio (y) = 0.47164 0.30688
# Poissons Ratio (z) = -0.03584 0.18198
#
# Static dielectric constant tensor:
#      x y z
#    x 1.709230 0.000000 0.019480 
#    y 0.000000 1.700870 0.000000 
#    z 0.019480 0.000000 1.734270 
# 
# From -- ./inp_files/28815.got.cif
#   From: 2010.05.17/outbox.cif.g08.bks.cpg/sg12_15_cif.got.tgz:28815.got - 2010.06.03 13:09:07.
