data_PCOD9182375
_publ_section_title
;
Structure prediction by ZEFSAII (Michael W. Deem and Ramdas Pophale) SiO2 
 PCOD9182375
Probable space group: C 2/M
;
_chemical_formula_sum "Si O2"
_cell_formula_units_Z 64
_cell_length_a 8.306934
_cell_length_b 14.274408
_cell_length_c 23.257985
_cell_angle_alpha 90.000000
_cell_angle_beta 81.635965
_cell_angle_gamma 90.000000
_cell_volume 2728.519006
_symmetry_space_group_name_H-M "C 2/M"
_symmetry_group_IT_number 12
_symmetry_cell_setting 'monoclinic'
loop_
_space_group_symop_operation_xyz
x,y,z
-x,y,-z
-x,-y,-z
x,-y,z
1/2+x,1/2+y,z
1/2-x,1/2+y,-z
1/2-x,1/2-y,-z
1/2+x,1/2-y,z
loop_
_atom_site_type_symbol
_atom_site_label
_atom_site_fract_x
_atom_site_fract_y
_atom_site_fract_z
Si Si1 0.345174 0.389781 0.336885
Si Si2 0.536988 0.113977 0.064554
Si Si3 0.909856 0.885921 0.064557
Si Si4 0.571129 0.852751 0.552483
Si Si5 0.813035 0.115098 0.729537
Si Si6 0.614258 0.649971 0.535505
Si Si7 0.992326 0.606846 0.684382
Si Si8 0.806708 0.885726 0.862755
O O1 0.347818 0.500000 0.322749
O O2 0.523558 0.353268 0.311677
O O3 0.319407 0.383915 0.406975
O O4 0.188619 0.350345 0.311111
O O5 0.719529 0.145724 0.074036
O O6 0.373437 0.144540 0.106629
O O7 0.541689 0.000000 0.068159
O O8 0.500000 0.137252 0.000000
O O9 0.037624 0.855074 0.107235
O O10 0.902735 0.000000 0.067794
O O11 0.000000 0.862419 0.000000
O O12 0.500000 0.901738 0.500000
O O13 0.516358 0.744368 0.558892
O O14 0.748249 0.837395 0.519031
O O15 0.551913 0.896572 0.615044
O O16 0.641739 0.148903 0.712079
O O17 0.827633 0.140418 0.795389
O O18 0.808849 0.000000 0.725279
O O19 0.500000 0.590957 0.500000
O O20 0.972158 0.500000 0.706930
O O21 0.805725 0.000000 0.866404
#
# Coordination Sequence:
#
# PCOD9182375 Si02
#       8
#     8   8   8   8   8   8   8   8
#     4  10  20  34  51  70  95 128 163 200 239 288
#     4   9  14  20  32  51  76 106 144 189 233 272
#     4   9  14  20  32  51  76 106 142 190 237 270
#     4  10  19  33  50  73  98 120 153 197 246 299
#     4   9  19  33  45  62  89 123 165 201 233 279
#     4  10  20  32  50  73  99 124 150 196 244 295
#     4  10  20  34  52  70  94 126 161 204 245 288
#     4   9  16  25  37  53  77 112 153 194 229 270
#
# _framework density 23.455946999999998
#
# number of rings (size 3 to 8) (size 9 to 14) (size 15 to 20)
#    0.000    2.500    2.500    0.750    0.000    2.000 
#    0.000    5.000    0.000    0.000    0.000    0.000 
#    0.000    0.000    0.000    0.000    0.000    3.750 
#
# Total GULP energy -178234.179993 kJ/mol
# GULP energy per Si atom -5569.818125 kJ/mol
# Density = 2.340256 g / cm^3
# Si number density = 23.455947 Si / 1000 Ang^3
#
#
#
# Elastic Constant Matrix: (Units=GPa)
#
#
# Indices 1 2 3 4 5 6 
#
# 1 231.7056 18.2343 70.9106 0.0000 31.9931 0.0000
# 2 18.2343 66.6013 -12.1068 0.0000 5.1607 0.0000
# 3 70.9106 -12.1068 99.0554 0.0000 21.7571 0.0000
# 4 0.0000 0.0000 0.0000 6.4096 0.0000 3.9441
# 5 31.9931 5.1607 21.7571 0.0000 44.0693 0.0000
# 6 0.0000 0.0000 0.0000 3.9441 0.0000 9.3499
#
#
#
# Elastic Compliance Matrix: (Units=1/GPa)
#
#
# Indices 1 2 3 4 5 6 
#
# 1 0.006050 -0.002249 -0.004149 0.000000 -0.002080 0.000000
# 2 -0.002249 0.016568 0.004153 0.000000 -0.002358 0.000000
# 3 -0.004149 0.004153 0.014602 0.000000 -0.004683 0.000000
# 4 0.000000 0.000000 0.000000 0.210709 0.000000 -0.088885
# 5 -0.002080 -0.002358 -0.004683 0.000000 0.026790 0.000000
# 6 0.000000 0.000000 0.000000 -0.088885 0.000000 0.144448
#
#
# Mechanical properties :
#
#
# Convention : Reuss Voigt Hill
#
# Bulk Modulus (GPa) = 30.55352 61.27092 45.91222
# Shear Modulus (GPa) = 11.50570 33.32070 22.41320
#
# Velocity S-wave (km/s) = 2.21718 3.77313 3.09454
# Velocity P-wave (km/s) = 4.42817 6.72015 5.69074
#
# Compressibility (1/GPa) = 0.03272945
#
# Stress axis : x y z
#
# Youngs Moduli (GPa) = 165.29564 60.35664 68.48549
#
# Poissons Ratio (x) = 0.13576 0.28413
# Poissons Ratio (y) = 0.37180 -0.28442
# Poissons Ratio (z) = 0.68578 -0.25067
#
# Static dielectric constant tensor:
#      x y z
#    x 1.905260 0.000000 0.038180 
#    y 0.000000 1.988200 0.000000 
#    z 0.038180 0.000000 1.823600 
# 
# From -- ./inp_files/301423.got.cif
#   From: 2010.05.17/outbox.cif.g08.bks.cpg/sg12_151_cif.got.tgz:301423.got - 2010.06.03 13:09:07.
