data_PCOD9182581
_publ_section_title
;
Structure prediction by ZEFSAII (Michael W. Deem and Ramdas Pophale) SiO2 
 PCOD9182581
Probable space group: C 2/M
;
_chemical_formula_sum "Si O2"
_cell_formula_units_Z 56
_cell_length_a 24.344533
_cell_length_b 14.300178
_cell_length_c 9.113564
_cell_angle_alpha 90.000000
_cell_angle_beta 104.585360
_cell_angle_gamma 90.000000
_cell_volume 3070.470194
_symmetry_space_group_name_H-M "C 2/M"
_symmetry_group_IT_number 12
_symmetry_cell_setting 'monoclinic'
loop_
_space_group_symop_operation_xyz
x,y,z
-x,y,-z
-x,-y,-z
x,-y,z
1/2+x,1/2+y,z
1/2-x,1/2+y,-z
1/2-x,1/2-y,-z
1/2+x,1/2-y,z
loop_
_atom_site_type_symbol
_atom_site_label
_atom_site_fract_x
_atom_site_fract_y
_atom_site_fract_z
Si Si1 0.107124 0.723430 0.972744
Si Si2 0.756720 0.269450 0.335156
Si Si3 0.360657 0.104138 0.439613
Si Si4 0.428130 0.105694 0.777239
Si Si5 0.721112 0.890925 0.086700
Si Si6 0.033143 0.669212 0.660467
Si Si7 0.317792 0.606791 0.901567
O O1 0.076249 0.679091 0.094181
O O2 0.162043 0.654717 0.992043
O O3 0.131456 0.825503 0.020059
O O4 0.067497 0.727102 0.804211
O O5 0.750000 0.250000 0.500000
O O6 0.818284 0.316333 0.355805
O O7 0.743751 0.177513 0.230103
O O8 0.710880 0.347014 0.258759
O O9 0.378576 0.119480 0.621990
O O10 0.418648 0.107702 0.385851
O O11 0.335362 0.000000 0.408456
O O12 0.485990 0.115644 0.723959
O O13 0.423937 0.000000 0.832799
O O14 0.713290 0.000000 0.123668
O O15 0.768305 0.887391 0.991340
O O16 0.000000 0.715827 0.500000
O O17 0.334195 0.500000 0.893239
#
# Coordination Sequence:
#
# PCOD9182581 Si02
#       7
#     8   8   8   8   8   8   8
#     4  11  20  34  55  77 104 137 173 214 265 315
#     4  11  21  33  53  83 115 142 175 217 264 315
#     4  10  19  33  52  75 108 145 175 208 255 311
#     4  10  21  34  50  77 109 139 173 213 260 315
#     4  10  21  36  54  78 108 144 182 216 257 317
#     4  10  21  35  53  77 104 135 172 215 264 317
#     4  10  21  37  56  78 106 142 184 221 256 310
#
# _framework density 18.238250000000001
#
# number of rings (size 3 to 8) (size 9 to 14) (size 15 to 20)
#    0.000    1.714    0.000    6.857    0.000    8.000 
#    0.000    0.000    0.000    2.143    0.000    2.000 
#    0.000    0.000    0.000    0.000    0.000    0.000 
#
# Total GULP energy -156277.193324 kJ/mol
# GULP energy per Si atom -5581.328333 kJ/mol
# Density = 1.819674 g / cm^3
# Si number density = 18.238250 Si / 1000 Ang^3
#
#
#
# Elastic Constant Matrix: (Units=GPa)
#
#
# Indices 1 2 3 4 5 6 
#
# 1 66.4999 40.2355 41.6726 0.0000 6.4473 0.0000
# 2 40.2355 140.8860 67.5975 0.0000 12.9800 0.0000
# 3 41.6726 67.5975 130.4073 0.0000 10.9295 0.0000
# 4 0.0000 0.0000 0.0000 10.3204 0.0000 -0.2855
# 5 6.4473 12.9800 10.9295 0.0000 33.8079 0.0000
# 6 0.0000 0.0000 0.0000 -0.2855 0.0000 6.8497
#
#
#
# Elastic Compliance Matrix: (Units=1/GPa)
#
#
# Indices 1 2 3 4 5 6 
#
# 1 0.020074 -0.003463 -0.004533 0.000000 -0.001033 0.000000
# 2 -0.003463 0.010192 -0.004013 0.000000 -0.001956 0.000000
# 3 -0.004533 -0.004013 0.011302 0.000000 -0.001248 0.000000
# 4 0.000000 0.000000 0.000000 0.097007 0.000000 0.004043
# 5 -0.001033 -0.001956 -0.001248 0.000000 0.030930 0.000000
# 6 0.000000 0.000000 0.000000 0.004043 0.000000 0.146161
#
#
# Mechanical properties :
#
#
# Convention : Reuss Voigt Hill
#
# Bulk Modulus (GPa) = 56.97932 70.75608 63.86770
# Shear Modulus (GPa) = 14.47040 22.74811 18.60925
#
# Velocity S-wave (km/s) = 2.81981 3.53551 3.19774
# Velocity P-wave (km/s) = 6.47389 7.45292 6.98059
#
# Compressibility (1/GPa) = 0.01755023
#
# Stress axis : x y z
#
# Youngs Moduli (GPa) = 49.81674 98.11255 88.48259
#
# Poissons Ratio (x) = 0.33972 0.40111
# Poissons Ratio (y) = 0.17249 0.35507
# Poissons Ratio (z) = 0.22583 0.39372
#
# Static dielectric constant tensor:
#      x y z
#    x 1.659360 0.000000 0.001820 
#    y 0.000000 1.603780 0.000000 
#    z 0.001820 0.000000 1.653800 
# 
# From -- ./inp_files/96468.got.cif
#   From: 2010.05.17/outbox.cif.g08.bks.cpg/sg12_49_cif.got.tgz:96468.got - 2010.06.03 13:09:07.
