data_PCOD9182886
_publ_section_title
;
Structure prediction by ZEFSAII (Michael W. Deem and Ramdas Pophale) SiO2 
 PCOD9182886
Probable space group: C 2/M
;
_chemical_formula_sum "Si O2"
_cell_formula_units_Z 56
_cell_length_a 15.578747
_cell_length_b 7.450111
_cell_length_c 24.236298
_cell_angle_alpha 90.000000
_cell_angle_beta 65.139826
_cell_angle_gamma 90.000000
_cell_volume 2552.289371
_symmetry_space_group_name_H-M "C 2/M"
_symmetry_group_IT_number 12
_symmetry_cell_setting 'monoclinic'
loop_
_space_group_symop_operation_xyz
x,y,z
-x,y,-z
-x,-y,-z
x,-y,z
1/2+x,1/2+y,z
1/2-x,1/2+y,-z
1/2-x,1/2-y,-z
1/2+x,1/2-y,z
loop_
_atom_site_type_symbol
_atom_site_label
_atom_site_fract_x
_atom_site_fract_y
_atom_site_fract_z
Si Si1 0.678795 0.213161 0.569624
Si Si2 0.720862 0.207081 0.344201
Si Si3 0.014871 0.719872 0.432307
Si Si4 0.068863 0.784494 0.140765
Si Si5 0.905945 0.218207 0.991033
Si Si6 0.358810 0.720558 0.212159
Si Si7 0.271712 0.712245 0.120824
O O1 0.750000 0.250000 0.500000
O O2 0.722289 0.289663 0.613727
O O3 0.574723 0.277449 0.579904
O O4 0.673314 0.000000 0.578835
O O5 0.616384 0.283806 0.382912
O O6 0.787203 0.284570 0.278567
O O7 0.704479 0.000000 0.332930
O O8 0.015484 0.500000 0.432547
O O9 0.000000 0.774428 0.500000
O O10 0.087202 0.716580 0.073420
O O11 0.160011 0.739352 0.152019
O O12 0.967408 0.722065 0.190003
O O13 0.063684 0.000000 0.139072
O O14 0.902907 0.000000 0.988655
O O15 0.817447 0.282422 0.051557
O O16 0.000000 0.264331 0.000000
O O17 0.358436 0.500000 0.213268
O O18 0.323143 0.780085 0.161611
O O19 0.290356 0.500000 0.115263
#
# Coordination Sequence:
#
# PCOD9182886 Si02
#       7
#     8   8   8   8   8   8   8
#     4  11  21  35  57  84 110 138 172 214 263 314
#     4  10  20  37  57  77 104 139 179 219 258 311
#     4   9  17  32  54  77 102 134 167 203 254 309
#     4  10  19  33  53  78 106 138 175 221 273 315
#     4   9  15  28  53  77 101 136 180 223 262 316
#     4   9  19  35  55  75 101 142 183 212 254 323
#     4  10  19  33  54  79 103 137 183 222 261 317
#
# _framework density 21.941085000000001
#
# number of rings (size 3 to 8) (size 9 to 14) (size 15 to 20)
#    0.000    2.286    2.857    0.857    0.000    1.143 
#    0.000    5.714    0.000    0.857    0.000    0.000 
#    0.000    0.000    0.000    0.000    0.000    0.000 
#
# Total GULP energy -156426.562753 kJ/mol
# GULP energy per Si atom -5586.662955 kJ/mol
# Density = 2.189115 g / cm^3
# Si number density = 21.941085 Si / 1000 Ang^3
#
#
#
# Elastic Constant Matrix: (Units=GPa)
#
#
# Indices 1 2 3 4 5 6 
#
# 1 120.4992 -10.5699 33.4360 0.0001 -41.1504 0.0000
# 2 -10.5699 64.3118 1.0106 0.0002 -2.9049 0.0001
# 3 33.4360 1.0106 125.1355 0.0000 -39.4881 0.0000
# 4 0.0001 0.0002 0.0000 -5.8508 0.0000 1.8632
# 5 -41.1504 -2.9049 -39.4881 0.0000 33.1267 0.0001
# 6 0.0000 0.0001 0.0000 1.8632 0.0001 15.8386
#
#
#
# Elastic Compliance Matrix: (Units=1/GPa)
#
#
# Indices 1 2 3 4 5 6 
#
# 1 0.015900 0.003645 0.003295 0.000000 0.023999 0.000000
# 2 0.003645 0.016466 0.001246 0.000001 0.007458 0.000000
# 3 0.003295 0.001246 0.013508 0.000000 0.020305 0.000000
# 4 0.000000 0.000001 0.000000 -0.164745 0.000001 0.019380
# 5 0.023999 0.007458 0.020305 0.000001 0.084857 -0.000001
# 6 0.000000 0.000000 0.000000 0.019380 -0.000001 0.060857
#
#
# Mechanical properties :
#
#
# Convention : Reuss Voigt Hill
#
# Bulk Modulus (GPa) = 16.06481 39.74444 27.90462
# Shear Modulus (GPa) = 160.16490 27.69422 93.92956
#
# Velocity S-wave (km/s) = 8.55314 3.55661 6.55003
# Velocity P-wave (km/s) = 10.24106 5.91772 8.36357
#
# Compressibility (1/GPa) = 0.06224787
#
# Stress axis : x y z
#
# Youngs Moduli (GPa) = 62.89424 60.73244 74.02856
#
# Poissons Ratio (x) = -0.22139 -0.24394
# Poissons Ratio (y) = -0.22927 -0.09228
# Poissons Ratio (z) = -0.20725 -0.07570
#
# Static dielectric constant tensor:
#      x y z
#    x 1.763920 0.000000 -0.027170 
#    y 0.000000 1.844840 0.000000 
#    z -0.027170 0.000000 1.773650 
# 
# From -- ./inp_files/308984.got.cif
#   From: 2010.05.17/outbox.cif.g08.bks.cpg/sg12_155_cif.got.tgz:308984.got - 2010.06.03 13:09:07.
