data_PCOD9182430
_publ_section_title
;
Structure prediction by ZEFSAII (Michael W. Deem and Ramdas Pophale) SiO2 
 PCOD9182430
Probable space group: C 2/M
;
_chemical_formula_sum "Si O2"
_cell_formula_units_Z 64
_cell_length_a 14.039166
_cell_length_b 30.328338
_cell_length_c 9.877930
_cell_angle_alpha 90.000000
_cell_angle_beta 47.668019
_cell_angle_gamma 90.000000
_cell_volume 3109.211924
_symmetry_space_group_name_H-M "C 2/M"
_symmetry_group_IT_number 12
_symmetry_cell_setting 'monoclinic'
loop_
_space_group_symop_operation_xyz
x,y,z
-x,y,-z
-x,-y,-z
x,-y,z
1/2+x,1/2+y,z
1/2-x,1/2+y,-z
1/2-x,1/2-y,-z
1/2+x,1/2-y,z
loop_
_atom_site_type_symbol
_atom_site_label
_atom_site_fract_x
_atom_site_fract_y
_atom_site_fract_z
Si Si1 0.149405 0.950374 0.152582
Si Si2 0.064752 0.449011 0.086208
Si Si3 0.857010 0.917883 0.130613
Si Si4 0.619474 0.245501 0.463450
Si Si5 0.353441 0.883952 0.335068
Si Si6 0.362888 0.552155 0.432130
Si Si7 0.851231 0.648101 0.628041
Si Si8 0.102369 0.288215 0.786930
O O1 0.008613 0.932528 0.325319
O O2 0.150676 0.000000 0.205997
O O3 0.289069 0.932020 0.055739
O O4 0.143921 0.950866 0.994265
O O5 0.064059 0.500000 0.136333
O O6 0.972653 0.416072 0.254423
O O7 0.000000 0.449073 0.000000
O O8 0.837644 0.941057 0.294497
O O9 0.749209 0.881860 0.197367
O O10 0.000000 0.897330 0.000000
O O11 0.500000 0.267169 0.500000
O O12 0.650553 0.200272 0.351979
O O13 0.749797 0.273272 0.334057
O O14 0.577977 0.230822 0.656807
O O15 0.239729 0.916377 0.397349
O O16 0.307081 0.860789 0.516846
O O17 0.397315 0.841686 0.208983
O O18 0.347953 0.500000 0.475413
O O19 0.000000 0.634649 0.500000
O O20 0.000000 0.272899 0.000000
#
# Coordination Sequence:
#
# PCOD9182430 Si02
#       8
#     8   8   8   8   8   8   8   8
#     4   9  17  30  47  69 100 136 174 217 263 311
#     4  10  20  33  48  66  92 130 176 220 255 295
#     4   9  16  26  45  75 106 134 167 209 259 317
#     4   9  20  39  60  85 114 143 181 224 270 332
#     4  10  19  33  51  73 103 135 172 217 263 314
#     4   9  17  30  49  73 102 137 173 212 263 316
#     4   9  17  30  50  75 104 136 167 207 260 317
#     4  10  21  38  60  84 113 147 180 223 277 329
#
# _framework density 20.583994000000001
#
# number of rings (size 3 to 8) (size 9 to 14) (size 15 to 20)
#    0.000    2.625    0.000    1.875    0.000    2.500 
#    0.000    4.375    0.000    9.000    0.000    0.000 
#    0.000    0.000    0.000    0.000    0.000    0.000 
#
# Total GULP energy -178150.593703 kJ/mol
# GULP energy per Si atom -5567.206053 kJ/mol
# Density = 2.053714 g / cm^3
# Si number density = 20.583994 Si / 1000 Ang^3
#
#
#
# Elastic Constant Matrix: (Units=GPa)
#
#
# Indices 1 2 3 4 5 6 
#
# 1 93.9829 19.0981 51.7869 0.0000 -31.6449 0.0000
# 2 19.0981 45.5051 27.6978 0.0000 -5.9829 0.0000
# 3 51.7869 27.6978 95.1743 0.0000 -9.5216 0.0000
# 4 0.0000 0.0000 0.0000 6.1809 0.0000 13.5181
# 5 -31.6449 -5.9829 -9.5216 0.0000 42.1762 0.0000
# 6 0.0000 0.0000 0.0000 13.5181 0.0000 -15.6459
#
#
#
# Elastic Compliance Matrix: (Units=1/GPa)
#
#
# Indices 1 2 3 4 5 6 
#
# 1 0.020529 -0.001085 -0.009545 0.000000 0.013094 0.000000
# 2 -0.001085 0.026943 -0.007111 0.000000 0.001403 0.000000
# 3 -0.009545 -0.007111 0.017344 0.000000 -0.004254 0.000000
# 4 0.000000 0.000000 0.000000 0.055989 0.000000 0.048375
# 5 0.013094 0.001403 -0.004254 0.000000 0.032773 0.000000
# 6 0.000000 0.000000 0.000000 0.048375 0.000000 -0.022119
#
#
# Mechanical properties :
#
#
# Convention : Reuss Voigt Hill
#
# Bulk Modulus (GPa) = 34.08695 47.98088 41.03391
# Shear Modulus (GPa) = 28.29350 15.61422 21.95386
#
# Velocity S-wave (km/s) = 3.71150 2.75719 3.26935
# Velocity P-wave (km/s) = 5.91294 5.78762 5.85061
#
# Compressibility (1/GPa) = 0.02933674
#
# Stress axis : x y z
#
# Youngs Moduli (GPa) = 48.71168 37.11507 57.65588
#
# Poissons Ratio (x) = 0.04025 0.55031
# Poissons Ratio (y) = 0.05283 0.40997
# Poissons Ratio (z) = 0.46494 0.26391
#
# Static dielectric constant tensor:
#      x y z
#    x 1.770620 0.000000 0.003470 
#    y 0.000000 1.739790 0.000000 
#    z 0.003470 0.000000 1.785990 
# 
# From -- ./inp_files/150259.got.cif
#   From: 2010.05.17/outbox.cif.g08.bks.cpg/sg12_76_cif.got.tgz:150259.got - 2010.06.03 13:09:07.
