data_PCOD9182551
_publ_section_title
;
Structure prediction by ZEFSAII (Michael W. Deem and Ramdas Pophale) SiO2 
 PCOD9182551
Probable space group: C 2/M
;
_chemical_formula_sum "Si O2"
_cell_formula_units_Z 64
_cell_length_a 26.140783
_cell_length_b 14.100722
_cell_length_c 9.277334
_cell_angle_alpha 90.000000
_cell_angle_beta 83.884230
_cell_angle_gamma 90.000000
_cell_volume 3400.199161
_symmetry_space_group_name_H-M "C 2/M"
_symmetry_group_IT_number 12
_symmetry_cell_setting 'monoclinic'
loop_
_space_group_symop_operation_xyz
x,y,z
-x,y,-z
-x,-y,-z
x,-y,z
1/2+x,1/2+y,z
1/2-x,1/2+y,-z
1/2-x,1/2-y,-z
1/2+x,1/2-y,z
loop_
_atom_site_type_symbol
_atom_site_label
_atom_site_fract_x
_atom_site_fract_y
_atom_site_fract_z
Si Si1 0.218796 0.324059 0.812236
Si Si2 0.766595 0.897324 0.524039
Si Si3 0.355247 0.737245 0.384151
Si Si4 0.069249 0.112573 0.820501
Si Si5 0.024594 0.885475 0.340033
Si Si6 0.846326 0.607888 0.590802
Si Si7 0.881555 0.114352 0.880310
Si Si8 0.809438 0.704496 0.875177
O O1 0.251398 0.389927 0.696510
O O2 0.168262 0.296196 0.740801
O O3 0.254334 0.231321 0.823689
O O4 0.202359 0.352634 0.976011
O O5 0.807268 0.817259 0.472001
O O6 0.712372 0.889433 0.455968
O O7 0.789395 0.000000 0.484126
O O8 0.393505 0.662807 0.304383
O O9 0.376625 0.813794 0.489801
O O10 0.012637 0.140986 0.782602
O O11 0.072878 0.000000 0.800949
O O12 0.086711 0.130037 0.979786
O O13 0.082364 0.862868 0.269389
O O14 0.000000 0.851476 0.500000
O O15 0.024522 0.000000 0.349547
O O16 0.864364 0.500000 0.572090
O O17 0.842092 0.643783 0.754441
O O18 0.836226 0.192780 0.896114
O O19 0.868078 0.000000 0.879896
#
# Coordination Sequence:
#
# PCOD9182551 Si02
#       8
#     8   8   8   8   8   8   8   8
#     4  10  20  33  49  71 107 137 181 228 261 301
#     4  10  19  33  52  74 102 142 180 220 274 324
#     4  11  18  36  52  78 107 142 187 225 261 324
#     4  10  20  34  55  82 113 150 178 209 265 330
#     4   9  19  34  53  82 115 142 176 217 261 324
#     4  10  21  35  52  70 100 143 181 225 277 311
#     4  10  21  36  54  79 114 151 179 213 267 326
#     4  11  20  35  52  73 105 142 182 231 264 314
#
# _framework density 18.822427000000001
#
# number of rings (size 3 to 8) (size 9 to 14) (size 15 to 20)
#    0.000    1.875    3.750    1.500    1.750    2.500 
#    0.000    1.875    0.000    0.000    0.000    1.750 
#    0.000    2.000    0.000    0.000    0.000    0.000 
#
# Total GULP energy -178320.368527 kJ/mol
# GULP energy per Si atom -5572.511516 kJ/mol
# Density = 1.877959 g / cm^3
# Si number density = 18.822427 Si / 1000 Ang^3
#
#
#
# Elastic Constant Matrix: (Units=GPa)
#
#
# Indices 1 2 3 4 5 6 
#
# 1 21.1192 -4.0342 2.1299 0.0000 -9.3217 0.0000
# 2 -4.0342 50.5588 20.1585 0.0000 1.1278 0.0000
# 3 2.1299 20.1585 102.5912 0.0000 -7.4933 0.0000
# 4 0.0000 0.0000 0.0000 22.5557 0.0000 -6.9792
# 5 -9.3217 1.1278 -7.4933 0.0000 21.3178 0.0000
# 6 0.0000 0.0000 0.0000 -6.9792 0.0000 10.2745
#
#
#
# Elastic Compliance Matrix: (Units=1/GPa)
#
#
# Indices 1 2 3 4 5 6 
#
# 1 0.059546 0.004253 -0.000192 0.000000 0.025745 0.000000
# 2 0.004253 0.021915 -0.004458 0.000000 -0.000866 0.000000
# 3 -0.000192 -0.004458 0.010919 0.000000 0.003990 0.000000
# 4 0.000000 0.000000 0.000000 0.056133 0.000000 0.038129
# 5 0.025745 -0.000866 0.003990 0.000000 0.059615 0.000000
# 6 0.000000 0.000000 0.000000 0.038129 0.000000 0.123228
#
#
# Mechanical properties :
#
#
# Convention : Reuss Voigt Hill
#
# Bulk Modulus (GPa) = 10.91853 23.41974 17.16914
# Shear Modulus (GPa) = 13.78639 21.23061 17.50850
#
# Velocity S-wave (km/s) = 2.70931 3.36213 3.05322
# Velocity P-wave (km/s) = 3.94975 5.24799 4.64445
#
# Compressibility (1/GPa) = 0.09158740
#
# Stress axis : x y z
#
# Youngs Moduli (GPa) = 16.79388 45.63085 91.58557
#
# Poissons Ratio (x) = -0.19408 0.01754
# Poissons Ratio (y) = -0.07143 0.40826
# Poissons Ratio (z) = 0.00322 0.20341
#
# Static dielectric constant tensor:
#      x y z
#    x 1.679740 0.000000 0.019340 
#    y 0.000000 1.651920 0.000000 
#    z 0.019340 0.000000 1.698000 
# 
# From -- ./inp_files/104551.got.cif
#   From: 2010.05.17/outbox.cif.g08.bks.cpg/sg12_53_cif.got.tgz:104551.got - 2010.06.03 13:09:07.
