data_PCOD9182157
_publ_section_title
;
Structure prediction by ZEFSAII (Michael W. Deem and Ramdas Pophale) SiO2 
 PCOD9182157
Probable space group: C 2/M
;
_chemical_formula_sum "Si O2"
_cell_formula_units_Z 56
_cell_length_a 19.724461
_cell_length_b 9.247345
_cell_length_c 19.203326
_cell_angle_alpha 90.000000
_cell_angle_beta 66.567278
_cell_angle_gamma 90.000000
_cell_volume 3213.792449
_symmetry_space_group_name_H-M "C 2/M"
_symmetry_group_IT_number 12
_symmetry_cell_setting 'monoclinic'
loop_
_space_group_symop_operation_xyz
x,y,z
-x,y,-z
-x,-y,-z
x,-y,z
1/2+x,1/2+y,z
1/2-x,1/2+y,-z
1/2-x,1/2-y,-z
1/2+x,1/2-y,z
loop_
_atom_site_type_symbol
_atom_site_label
_atom_site_fract_x
_atom_site_fract_y
_atom_site_fract_z
Si Si1 0.219342 0.827736 0.372352
Si Si2 0.705501 0.171151 0.958269
Si Si3 0.935099 0.172529 0.202657
Si Si4 0.293551 0.827261 0.198372
Si Si5 0.056477 0.834201 0.041417
Si Si6 0.080008 0.673985 0.497347
Si Si7 0.382370 0.173530 0.359098
O O1 0.236723 0.796942 0.284058
O O2 0.148248 0.745078 0.428986
O O3 0.295582 0.789236 0.381997
O O4 0.208620 0.000000 0.384753
O O5 0.731810 0.208084 0.869116
O O6 0.711019 0.000000 0.964256
O O7 0.750000 0.250000 0.000000
O O8 0.621686 0.224526 0.999849
O O9 0.867869 0.240780 0.185984
O O10 0.928527 0.245428 0.280769
O O11 0.010416 0.199840 0.129876
O O12 0.925539 0.000000 0.211436
O O13 0.309569 0.000000 0.194657
O O14 0.084906 0.000000 0.035018
O O15 0.000000 0.830970 0.000000
O O16 0.085043 0.500000 0.488910
O O17 0.090492 0.709670 0.574721
O O18 0.000000 0.718521 0.500000
O O19 0.388229 0.000000 0.346468
#
# Coordination Sequence:
#
# PCOD9182157 Si02
#       7
#     8   8   8   8   8   8   8
#     4   9  18  34  57  81 103 135 177 221 267 316
#     4  11  23  38  57  80 112 152 190 229 275 330
#     4  10  19  32  56  86 110 139 181 231 274 317
#     4   9  19  36  56  80 111 144 179 225 276 324
#     4  10  20  36  57  82 114 145 182 233 279 321
#     4  10  21  37  55  78 110 143 173 215 270 322
#     4   9  19  36  56  78 110 142 176 223 267 320
#
# _framework density 17.424896
#
# number of rings (size 3 to 8) (size 9 to 14) (size 15 to 20)
#    0.000    2.286    1.429    2.143    0.000    5.143 
#    2.571    0.000    0.000    0.000    0.000    0.000 
#    0.000    0.000    0.000    0.000    0.000    0.000 
#
# Total GULP energy -156201.302053 kJ/mol
# GULP energy per Si atom -5578.617930 kJ/mol
# Density = 1.738524 g / cm^3
# Si number density = 17.424896 Si / 1000 Ang^3
#
#
#
# Elastic Constant Matrix: (Units=GPa)
#
#
# Indices 1 2 3 4 5 6 
#
# 1 83.7310 34.3452 77.3786 0.0000 16.7921 0.0000
# 2 34.3452 32.9418 55.0842 0.0000 9.0156 0.0000
# 3 77.3786 55.0842 150.6570 0.0000 16.6340 0.0000
# 4 0.0000 0.0000 0.0000 27.3793 0.0000 -2.3734
# 5 16.7921 9.0156 16.6340 0.0000 23.6331 0.0000
# 6 0.0000 0.0000 0.0000 -2.3734 0.0000 27.8774
#
#
#
# Elastic Compliance Matrix: (Units=1/GPa)
#
#
# Indices 1 2 3 4 5 6 
#
# 1 0.025709 -0.010243 -0.008537 0.000000 -0.008350 0.000000
# 2 -0.010243 0.084683 -0.024871 0.000000 -0.007522 0.000000
# 3 -0.008537 -0.024871 0.019949 0.000000 0.001513 0.000000
# 4 0.000000 0.000000 0.000000 0.036796 0.000000 0.003133
# 5 -0.008350 -0.007522 0.001513 0.000000 0.050051 0.000000
# 6 0.000000 0.000000 0.000000 0.003133 0.000000 0.036138
#
#
# Mechanical properties :
#
#
# Convention : Reuss Voigt Hill
#
# Bulk Modulus (GPa) = 23.23521 66.77177 45.00349
# Shear Modulus (GPa) = 14.08556 22.47942 18.28249
#
# Velocity S-wave (km/s) = 2.84625 3.59566 3.24268
# Velocity P-wave (km/s) = 4.91579 7.45931 6.31689
#
# Compressibility (1/GPa) = 0.04303812
#
# Stress axis : x y z
#
# Youngs Moduli (GPa) = 38.89754 11.80875 50.12869
#
# Poissons Ratio (x) = 0.12096 0.42795
# Poissons Ratio (y) = 0.39844 1.24674
# Poissons Ratio (z) = 0.33207 0.29369
#
# Static dielectric constant tensor:
#      x y z
#    x 1.586810 0.000000 0.017880 
#    y 0.000000 1.578920 0.000000 
#    z 0.017880 0.000000 1.597100 
# 
# From -- ./inp_files/275114.got.cif
#   From: 2010.05.17/outbox.cif.g08.bks.cpg/sg12_138_cif.got.tgz:275114.got - 2010.06.03 13:09:07.
