data_PCOD9182459
_publ_section_title
;
Structure prediction by ZEFSAII (Michael W. Deem and Ramdas Pophale) SiO2 
 PCOD9182459
Probable space group: C 2/M
;
_chemical_formula_sum "Si O2"
_cell_formula_units_Z 64
_cell_length_a 10.473163
_cell_length_b 14.622628
_cell_length_c 34.458060
_cell_angle_alpha 90.000000
_cell_angle_beta 146.684379
_cell_angle_gamma 90.000000
_cell_volume 2898.442659
_symmetry_space_group_name_H-M "C 2/M"
_symmetry_group_IT_number 12
_symmetry_cell_setting 'monoclinic'
loop_
_space_group_symop_operation_xyz
x,y,z
-x,y,-z
-x,-y,-z
x,-y,z
1/2+x,1/2+y,z
1/2-x,1/2+y,-z
1/2-x,1/2-y,-z
1/2+x,1/2-y,z
loop_
_atom_site_type_symbol
_atom_site_label
_atom_site_fract_x
_atom_site_fract_y
_atom_site_fract_z
Si Si1 0.440801 0.362258 0.709909
Si Si2 0.093304 0.360834 0.300475
Si Si3 0.245477 0.107038 0.945556
Si Si4 0.006019 0.638047 0.546283
Si Si5 0.108144 0.862377 0.213585
Si Si6 0.476868 0.360975 0.538225
Si Si7 0.052274 0.891661 0.056360
Si Si8 0.588607 0.857756 0.211258
O O1 0.422618 0.250736 0.704542
O O2 0.233623 0.390833 0.628226
O O3 0.412896 0.392723 0.747253
O O4 0.695523 0.389827 0.759734
O O5 0.852394 0.392407 0.257642
O O6 0.309727 0.390447 0.381085
O O7 0.122363 0.390075 0.263726
O O8 0.090956 0.111683 0.867427
O O9 0.099393 0.145964 0.945513
O O10 0.282267 0.000000 0.964077
O O11 0.500000 0.146137 0.000000
O O12 0.994902 0.749532 0.543057
O O13 0.000000 0.608738 0.500000
O O14 0.769810 0.610234 0.507462
O O15 0.104058 0.752214 0.214279
O O16 0.500000 0.390741 0.500000
O O17 0.327353 0.881521 0.133003
O O18 0.002561 0.000000 0.042644
O O19 0.000000 0.854754 0.000000
#
# Coordination Sequence:
#
# PCOD9182459 Si02
#       8
#     8   8   8   8   8   8   8   8
#     4   9  18  27  44  70 103 139 168 211 256 299
#     4   9  16  29  44  66 103 137 173 212 253 299
#     4  10  22  40  59  78 102 133 168 211 259 303
#     4   9  15  24  36  60  95 135 174 202 246 299
#     4  10  19  33  51  76 107 137 170 209 257 308
#     4   9  15  22  38  60  91 135 173 207 245 296
#     4  10  22  40  59  78 102 132 170 213 253 302
#     4  10  19  33  51  76 105 139 171 206 257 304
#
# _framework density 22.080822999999999
#
# number of rings (size 3 to 8) (size 9 to 14) (size 15 to 20)
#    0.000    2.500    1.250    1.500    1.750    6.500 
#    0.000    1.250    0.000    0.000    0.000    0.000 
#    0.000   20.000    0.000    0.000    0.000    0.000 
#
# Total GULP energy -178764.657083 kJ/mol
# GULP energy per Si atom -5586.395534 kJ/mol
# Density = 2.203057 g / cm^3
# Si number density = 22.080823 Si / 1000 Ang^3
#
#
#
# Elastic Constant Matrix: (Units=GPa)
#
#
# Indices 1 2 3 4 5 6 
#
# 1 138.7190 7.5041 33.4618 -0.0001 7.1789 0.0000
# 2 7.5041 79.2184 -3.2505 0.0000 -0.9668 0.0000
# 3 33.4618 -3.2505 120.6034 -0.0001 6.8863 0.0000
# 4 -0.0001 0.0000 -0.0001 40.3921 0.0000 10.4872
# 5 7.1789 -0.9668 6.8863 0.0000 43.0445 0.0000
# 6 0.0000 0.0000 0.0000 10.4872 0.0000 -10.7304
#
#
#
# Elastic Compliance Matrix: (Units=1/GPa)
#
#
# Indices 1 2 3 4 5 6 
#
# 1 0.007820 -0.000840 -0.002136 0.000000 -0.000981 0.000000
# 2 -0.000840 0.012730 0.000557 0.000000 0.000337 0.000000
# 3 -0.002136 0.000557 0.008960 0.000000 -0.001065 0.000000
# 4 0.000000 0.000000 0.000000 0.019747 0.000000 0.019299
# 5 -0.000981 0.000337 -0.001065 0.000000 0.023573 0.000000
# 6 0.000000 0.000000 0.000000 0.019299 0.000000 -0.074332
#
#
# Mechanical properties :
#
#
# Convention : Reuss Voigt Hill
#
# Bulk Modulus (GPa) = 40.53361 45.99685 43.26523
# Shear Modulus (GPa) = 432.44725 34.59626 233.52176
#
# Velocity S-wave (km/s) = 14.00973 3.96258 10.29501
# Velocity P-wave (km/s) = 16.73600 6.46625 12.68672
#
# Compressibility (1/GPa) = 0.02467089
#
# Stress axis : x y z
#
# Youngs Moduli (GPa) = 127.87045 78.55510 111.60463
#
# Poissons Ratio (x) = 0.06602 0.23843
# Poissons Ratio (y) = 0.10747 -0.06217
# Poissons Ratio (z) = 0.27318 -0.04376
#
# Static dielectric constant tensor:
#      x y z
#    x 1.782100 0.000000 0.000570 
#    y 0.000000 1.879550 0.000000 
#    z 0.000570 0.000000 1.746160 
# 
# From -- ./inp_files/373010.got.cif
#   From: 2010.05.17/outbox.cif.g08.bks.cpg/sg12_187_cif.got.tgz:373010.got - 2010.06.03 13:09:07.
