data_PCOD9182566
_publ_section_title
;
Structure prediction by ZEFSAII (Michael W. Deem and Ramdas Pophale) SiO2 
 PCOD9182566
Probable space group: C 2/M
;
_chemical_formula_sum "Si O2"
_cell_formula_units_Z 56
_cell_length_a 17.513873
_cell_length_b 11.522179
_cell_length_c 18.442727
_cell_angle_alpha 90.000000
_cell_angle_beta 128.755501
_cell_angle_gamma 90.000000
_cell_volume 2902.276348
_symmetry_space_group_name_H-M "C 2/M"
_symmetry_group_IT_number 12
_symmetry_cell_setting 'monoclinic'
loop_
_space_group_symop_operation_xyz
x,y,z
-x,y,-z
-x,-y,-z
x,-y,z
1/2+x,1/2+y,z
1/2-x,1/2+y,-z
1/2-x,1/2-y,-z
1/2+x,1/2-y,z
loop_
_atom_site_type_symbol
_atom_site_label
_atom_site_fract_x
_atom_site_fract_y
_atom_site_fract_z
Si Si1 0.753710 0.867770 0.095357
Si Si2 0.972805 0.131273 0.604466
Si Si3 0.090702 0.707200 0.891387
Si Si4 0.462303 0.873016 0.294331
Si Si5 0.663269 0.371754 0.611796
Si Si6 0.259011 0.202817 0.236678
Si Si7 0.956239 0.873815 0.893266
O O1 0.837186 0.806715 0.097117
O O2 0.748205 0.799202 0.167170
O O3 0.778491 0.000000 0.123995
O O4 0.653494 0.856488 0.990436
O O5 0.882348 0.142379 0.494942
O O6 0.982438 0.250631 0.655700
O O7 0.070312 0.129384 0.611895
O O8 0.968013 0.000000 0.635519
O O9 0.062966 0.631434 0.805747
O O10 0.998056 0.769992 0.870752
O O11 0.359257 0.863242 0.276647
O O12 0.507368 0.000000 0.338533
O O13 0.708918 0.500000 0.643952
O O14 0.730073 0.268737 0.680477
O O15 0.160558 0.130244 0.174285
O O16 0.989146 0.000000 0.884931
O O17 0.000000 0.861669 0.000000
#
# Coordination Sequence:
#
# PCOD9182566 Si02
#       7
#     8   8   8   8   8   8   8
#     4  10  19  33  52  75 100 133 178 225 264 313
#     4   8  15  29  52  79 108 139 178 219 265 323
#     4  10  21  35  51  74 101 139 181 217 264 316
#     4  10  20  34  54  81 113 142 175 224 275 317
#     4   8  14  28  50  78 108 139 171 219 270 317
#     4  10  19  33  53  79 107 139 179 216 267 324
#     4  11  22  37  53  72 104 144 185 224 262 314
#
# _framework density 19.295199
#
# number of rings (size 3 to 8) (size 9 to 14) (size 15 to 20)
#    0.000    2.429    1.429    2.571    0.000    4.000 
#    0.000   10.000    0.000    0.857    0.000    0.000 
#    0.000    0.000    0.000    0.000    0.000    0.000 
#
# Total GULP energy -156049.917017 kJ/mol
# GULP energy per Si atom -5573.211322 kJ/mol
# Density = 1.925128 g / cm^3
# Si number density = 19.295199 Si / 1000 Ang^3
#
#
#
# Elastic Constant Matrix: (Units=GPa)
#
#
# Indices 1 2 3 4 5 6 
#
# 1 23.7541 9.4526 -0.4322 0.0000 3.8935 0.0000
# 2 9.4526 139.9625 39.7713 0.0000 -4.3782 0.0000
# 3 -0.4322 39.7713 71.3782 0.0000 3.0047 0.0000
# 4 0.0000 0.0000 0.0000 -13.0315 0.0000 2.2686
# 5 3.8935 -4.3782 3.0047 0.0000 10.7305 0.0000
# 6 0.0000 0.0000 0.0000 2.2686 0.0000 -3.7869
#
#
#
# Elastic Compliance Matrix: (Units=1/GPa)
#
#
# Indices 1 2 3 4 5 6 
#
# 1 0.047473 -0.004951 0.003902 0.000000 -0.020339 0.000000
# 2 -0.004951 0.009262 -0.005490 0.000000 0.007113 0.000000
# 3 0.003902 -0.005490 0.017452 0.000000 -0.008543 0.000000
# 4 0.000000 0.000000 0.000000 -0.085671 0.000000 -0.051322
# 5 -0.020339 0.007113 -0.008543 0.000000 0.105867 0.000000
# 6 0.000000 0.000000 0.000000 -0.051322 0.000000 -0.294810
#
#
# Mechanical properties :
#
#
# Convention : Reuss Voigt Hill
#
# Bulk Modulus (GPa) = 16.36415 36.96426 26.66420
# Shear Modulus (GPa) = -29.94362 11.20261 -9.37050
#
# Velocity S-wave (km/s) = -3.94365 2.41216 -2.20611
# Velocity P-wave (km/s) = 3.49816 5.19200 2.71290
#
# Compressibility (1/GPa) = 0.06110919
#
# Stress axis : x y z
#
# Youngs Moduli (GPa) = 21.06459 107.97197 57.29981
#
# Poissons Ratio (x) = 0.53460 -0.22361
# Poissons Ratio (y) = 0.10430 0.31457
# Poissons Ratio (z) = -0.08220 0.59276
#
# Static dielectric constant tensor:
#      x y z
#    x 1.654160 0.000000 0.009920 
#    y 0.000000 1.699370 0.000000 
#    z 0.009920 0.000000 1.689110 
# 
# From -- ./inp_files/250519.got.cif
#   From: 2010.05.17/outbox.cif.g08.bks.cpg/sg12_126_cif.got.tgz:250519.got - 2010.06.03 13:09:07.
