data_PCOD9182202
_publ_section_title
;
Structure prediction by ZEFSAII (Michael W. Deem and Ramdas Pophale) SiO2 
 PCOD9182202
Probable space group: C 2/M
;
_chemical_formula_sum "Si O2"
_cell_formula_units_Z 64
_cell_length_a 22.180713
_cell_length_b 18.462425
_cell_length_c 19.256887
_cell_angle_alpha 90.000000
_cell_angle_beta 159.523026
_cell_angle_gamma 90.000000
_cell_volume 2758.725728
_symmetry_space_group_name_H-M "C 2/M"
_symmetry_group_IT_number 12
_symmetry_cell_setting 'monoclinic'
loop_
_space_group_symop_operation_xyz
x,y,z
-x,y,-z
-x,-y,-z
x,-y,z
1/2+x,1/2+y,z
1/2-x,1/2+y,-z
1/2-x,1/2-y,-z
1/2+x,1/2-y,z
loop_
_atom_site_type_symbol
_atom_site_label
_atom_site_fract_x
_atom_site_fract_y
_atom_site_fract_z
Si Si1 0.730426 0.671678 0.011927
Si Si2 0.876324 0.186944 0.620828
Si Si3 0.147107 0.080181 0.300666
Si Si4 0.717991 0.587457 0.855189
Si Si5 0.561013 0.918845 0.145267
Si Si6 0.795115 0.817340 0.764826
Si Si7 0.604669 0.677573 0.514813
Si Si8 0.734568 0.081758 0.828148
O O1 0.547396 0.689527 0.851303
O O2 0.717144 0.613306 0.934700
O O3 0.750000 0.750000 0.000000
O O4 0.838641 0.632370 0.188621
O O5 0.750000 0.250000 0.500000
O O6 0.808431 0.109244 0.573594
O O7 0.935742 0.201671 0.607182
O O8 0.211018 0.139687 0.314663
O O9 0.220974 0.000000 0.368975
O O10 0.940492 0.072026 0.065563
O O11 0.696432 0.500000 0.826683
O O12 0.563551 0.629848 0.648365
O O13 0.901119 0.608452 0.018804
O O14 0.731658 0.872500 0.325252
O O15 0.600974 0.000000 0.212460
O O16 0.500000 0.922246 0.000000
O O17 0.677383 0.745305 0.636044
O O18 0.728251 0.872879 0.750810
O O19 0.000000 0.800034 0.000000
O O20 0.662536 0.000000 0.747343
#
# Coordination Sequence:
#
# PCOD9182202 Si02
#       8
#     8   8   8   8   8   8   8   8
#     4  10  22  36  61  93 124 164 208 266 321 380
#     4  10  20  35  56  85 125 161 206 262 320 375
#     4   9  17  31  54  86 124 163 211 265 317 382
#     4  10  23  43  66  94 128 169 216 263 324 392
#     4  10  23  42  64  91 125 164 210 263 316 380
#     4  10  19  32  56  93 127 165 208 262 318 383
#     4  11  22  37  63  93 130 168 212 265 323 382
#     4   9  18  34  58  89 126 165 209 259 318 382
#
# _framework density 23.199117000000001
#
# number of rings (size 3 to 8) (size 9 to 14) (size 15 to 20)
#    0.000    2.125    1.250    1.500    1.750    6.500 
#    0.000    3.125    0.000    0.000    0.000    3.500 
#    0.000    2.000    0.000    0.000    0.000    0.000 
#
# Total GULP energy -178290.026871 kJ/mol
# GULP energy per Si atom -5571.563340 kJ/mol
# Density = 2.314631 g / cm^3
# Si number density = 23.199117 Si / 1000 Ang^3
#
#
#
# Elastic Constant Matrix: (Units=GPa)
#
#
# Indices 1 2 3 4 5 6 
#
# 1 63.8702 26.8600 5.3719 -0.0110 -6.6066 -0.0074
# 2 26.8600 135.8653 42.7672 0.0147 2.8867 0.0117
# 3 5.3719 42.7672 55.6942 -0.0080 9.7554 -0.0072
# 4 -0.0110 0.0147 -0.0080 87.5288 -0.0181 66.0917
# 5 -6.6066 2.8867 9.7554 -0.0181 30.1521 -0.0131
# 6 -0.0074 0.0117 -0.0072 66.0917 -0.0131 68.3597
#
#
#
# Elastic Compliance Matrix: (Units=1/GPa)
#
#
# Indices 1 2 3 4 5 6 
#
# 1 0.017598 -0.003702 0.000432 0.000004 0.004071 -0.000001
# 2 -0.003702 0.010556 -0.007876 -0.000002 0.000727 -0.000001
# 3 0.000432 -0.007876 0.025243 0.000001 -0.007319 0.000002
# 4 0.000004 -0.000002 0.000001 0.042320 0.000009 -0.040916
# 5 0.004071 0.000727 -0.007319 0.000009 0.036355 -0.000002
# 6 -0.000001 -0.000001 0.000002 -0.040916 -0.000002 0.054187
#
#
# Mechanical properties :
#
#
# Convention : Reuss Voigt Hill
#
# Bulk Modulus (GPa) = 32.14793 45.04755 38.59774
# Shear Modulus (GPa) = 22.83958 49.23682 36.03820
#
# Velocity S-wave (km/s) = 3.14108 4.61190 3.94563
# Velocity P-wave (km/s) = 5.20026 6.91516 6.11809
#
# Compressibility (1/GPa) = 0.03110620
#
# Stress axis : x y z
#
# Youngs Moduli (GPa) = 56.82429 94.73536 39.61452
#
# Poissons Ratio (x) = 0.35067 -0.01711
# Poissons Ratio (y) = 0.21034 0.31200
# Poissons Ratio (z) = -0.02455 0.74613
#
# Static dielectric constant tensor:
#      x y z
#    x 1.753210 0.000040 0.125870 
#    y 0.000040 1.653960 0.000010 
#    z 0.125870 0.000010 1.817090 
# 
# From -- ./inp_files/326133.got.cif
#   From: 2010.05.17/outbox.cif.g08.bks.cpg/sg12_164_cif.got.tgz:326133.got - 2010.06.03 13:09:07.
