data_PCOD9182273
_publ_section_title
;
Structure prediction by ZEFSAII (Michael W. Deem and Ramdas Pophale) SiO2 
 PCOD9182273
Probable space group: C 2/M
;
_chemical_formula_sum "Si O2"
_cell_formula_units_Z 50
_cell_length_a 26.285456
_cell_length_b 7.425700
_cell_length_c 12.616955
_cell_angle_alpha 90.000000
_cell_angle_beta 58.442745
_cell_angle_gamma 90.000000
_cell_volume 2098.490517
_symmetry_space_group_name_H-M "C 2/M"
_symmetry_group_IT_number 12
_symmetry_cell_setting 'monoclinic'
loop_
_space_group_symop_operation_xyz
x,y,z
-x,y,-z
-x,-y,-z
x,-y,z
1/2+x,1/2+y,z
1/2-x,1/2+y,-z
1/2-x,1/2-y,-z
1/2+x,1/2-y,z
loop_
_atom_site_type_symbol
_atom_site_label
_atom_site_fract_x
_atom_site_fract_y
_atom_site_fract_z
Si Si1 0.670546 0.786643 0.419013
Si Si2 0.124561 0.784065 0.696104
Si Si3 0.000000 0.000000 0.500000
Si Si4 0.629973 0.282390 0.083145
Si Si5 0.796287 0.220375 0.193071
Si Si6 0.004815 0.781074 0.118071
Si Si7 0.079967 0.706141 0.351568
O O1 0.663840 0.759539 0.550972
O O2 0.731760 0.716732 0.302630
O O3 0.612540 0.715818 0.420795
O O4 0.669596 0.000000 0.399606
O O5 0.155547 0.722758 0.770812
O O6 0.056523 0.719139 0.760452
O O7 0.121740 0.000000 0.705737
O O8 0.025997 0.841275 0.391851
O O9 0.631025 0.500000 0.084441
O O10 0.566601 0.221734 0.102370
O O11 0.628408 0.216160 0.204783
O O12 0.682032 0.223264 0.946702
O O13 0.795840 0.000000 0.194370
O O14 0.006432 0.000000 0.118529
O O15 0.000000 0.729590 0.000000
O O16 0.061729 0.500000 0.383254
#
# Coordination Sequence:
#
# PCOD9182273 Si02
#       7
#     8   8   2   8   8   8   8
#     4  10  23  40  57  85 129 170 215 270 328 380
#     4  10  19  32  59  91 121 163 217 267 322 389
#     4  12  26  48  72  90 130 172 214 262 326 388
#     4  10  19  36  63  92 127 171 217 262 323 383
#     4   9  18  36  61  89 124 172 220 268 319 385
#     4   9  16  29  54  89 119 151 206 264 316 385
#     4  11  26  44  66  99 132 170 216 267 322 383
#
# _framework density 23.826647999999999
#
# number of rings (size 3 to 8) (size 9 to 14) (size 15 to 20)
#    0.000    2.080    2.400    0.720    3.360    0.640 
#    0.000    1.600    0.000    0.960    0.000    0.000 
#    0.000    0.000    0.000    0.000    0.000    0.000 
#
# Total GULP energy -139541.788079 kJ/mol
# GULP energy per Si atom -5581.671523 kJ/mol
# Density = 2.377242 g / cm^3
# Si number density = 23.826648 Si / 1000 Ang^3
#
#
#
# Elastic Constant Matrix: (Units=GPa)
#
#
# Indices 1 2 3 4 5 6 
#
# 1 19.4716 5.7181 -0.4137 0.0000 -13.0803 0.0000
# 2 5.7181 111.4381 8.7453 0.0000 -6.8054 0.0000
# 3 -0.4137 8.7453 153.4369 0.0000 -19.7077 0.0000
# 4 0.0000 0.0000 0.0000 17.2226 0.0000 0.2381
# 5 -13.0803 -6.8054 -19.7077 0.0000 43.8448 0.0000
# 6 0.0000 0.0000 0.0000 0.2381 0.0000 -15.7741
#
#
#
# Elastic Compliance Matrix: (Units=1/GPa)
#
#
# Indices 1 2 3 4 5 6 
#
# 1 0.065986 -0.002357 0.002965 0.000000 0.020652 0.000000
# 2 -0.002357 0.009162 -0.000463 0.000000 0.000511 0.000000
# 3 0.002965 -0.000463 0.007064 0.000000 0.003988 0.000000
# 4 0.000000 0.000000 0.000000 0.058051 0.000000 0.000876
# 5 0.020652 0.000511 0.003988 0.000000 0.030841 0.000000
# 6 0.000000 0.000000 0.000000 0.000876 0.000000 -0.063382
#
#
# Mechanical properties :
#
#
# Convention : Reuss Voigt Hill
#
# Bulk Modulus (GPa) = 12.12106 34.71623 23.41865
# Shear Modulus (GPa) = 37.05545 27.07845 32.06695
#
# Velocity S-wave (km/s) = 3.94789 3.37483 3.67255
# Velocity P-wave (km/s) = 5.08718 5.45783 5.27576
#
# Compressibility (1/GPa) = 0.08250101
#
# Stress axis : x y z
#
# Youngs Moduli (GPa) = 15.15479 109.14564 141.56446
#
# Poissons Ratio (x) = 0.25729 -0.41972
# Poissons Ratio (y) = 0.03572 0.06554
# Poissons Ratio (z) = -0.04493 0.05053
#
# Static dielectric constant tensor:
#      x y z
#    x 1.956740 0.000000 -0.025250 
#    y 0.000000 1.901700 0.000000 
#    z -0.025250 0.000000 1.906680 
# 
# From -- ./inp_files/180565.got.cif
#   From: 2010.05.17/outbox.cif.g08.bks.cpg/sg12_91_cif.got.tgz:180565.got - 2010.06.03 13:09:07.
