data_PCOD9182557
_publ_section_title
;
Structure prediction by ZEFSAII (Michael W. Deem and Ramdas Pophale) SiO2 
 PCOD9182557
Probable space group: C 2/M
;
_chemical_formula_sum "Si O2"
_cell_formula_units_Z 56
_cell_length_a 32.510709
_cell_length_b 13.374289
_cell_length_c 12.728589
_cell_angle_alpha 90.000000
_cell_angle_beta 35.169912
_cell_angle_gamma 90.000000
_cell_volume 3187.882076
_symmetry_space_group_name_H-M "C 2/M"
_symmetry_group_IT_number 12
_symmetry_cell_setting 'monoclinic'
loop_
_space_group_symop_operation_xyz
x,y,z
-x,y,-z
-x,-y,-z
x,-y,z
1/2+x,1/2+y,z
1/2-x,1/2+y,-z
1/2-x,1/2-y,-z
1/2+x,1/2-y,z
loop_
_atom_site_type_symbol
_atom_site_label
_atom_site_fract_x
_atom_site_fract_y
_atom_site_fract_z
Si Si1 0.686706 0.183627 0.994803
Si Si2 0.282704 0.698127 0.602516
Si Si3 0.894053 0.675142 0.468179
Si Si4 0.767386 0.616381 0.497863
Si Si5 0.423554 0.112342 0.176915
Si Si6 0.738682 0.111960 0.110838
Si Si7 0.475491 0.882709 0.672186
O O1 0.715250 0.127138 0.038775
O O2 0.603892 0.160071 0.153212
O O3 0.730814 0.154917 0.798927
O O4 0.706178 0.300160 0.975285
O O5 0.358426 0.722986 0.498458
O O6 0.283482 0.633913 0.495048
O O7 0.253979 0.807073 0.620940
O O8 0.909477 0.612741 0.330853
O O9 0.832749 0.628637 0.670264
O O10 0.966857 0.677818 0.380428
O O11 0.768991 0.500000 0.524901
O O12 0.847614 0.648601 0.291489
O O13 0.430665 0.000000 0.119130
O O14 0.500000 0.164068 0.000000
O O15 0.765546 0.000000 0.071686
O O16 0.500000 0.878890 0.500000
O O17 0.476881 0.000000 0.701597
#
# Coordination Sequence:
#
# PCOD9182557 Si02
#       7
#     8   8   8   8   8   8   8
#     4  10  21  32  51  82 107 137 179 225 265 314
#     4   9  20  35  51  77 109 139 177 219 263 315
#     4  10  19  33  52  74 108 142 172 214 266 318
#     4   9  18  34  54  74 103 140 179 218 263 319
#     4   9  17  27  43  73 105 132 165 206 258 314
#     4  10  19  35  54  75 104 143 185 221 263 315
#     4  11  21  33  53  81 112 141 171 215 271 326
#
# _framework density 17.566521000000002
#
# number of rings (size 3 to 8) (size 9 to 14) (size 15 to 20)
#    0.000    2.286    1.429    1.714    2.000    5.143 
#    0.000    0.000    0.000    1.286    0.000    1.000 
#    0.000    0.000    0.000    0.000    0.000    0.000 
#
# Total GULP energy -155930.323426 kJ/mol
# GULP energy per Si atom -5568.940122 kJ/mol
# Density = 1.752654 g / cm^3
# Si number density = 17.566521 Si / 1000 Ang^3
#
#
#
# Elastic Constant Matrix: (Units=GPa)
#
#
# Indices 1 2 3 4 5 6 
#
# 1 95.0277 2.6731 24.4794 0.0000 -12.0099 0.0000
# 2 2.6731 33.9513 12.0378 0.0000 -4.7776 0.0000
# 3 24.4794 12.0378 76.8851 0.0000 -7.1659 0.0000
# 4 0.0000 0.0000 0.0000 8.1595 0.0000 0.0983
# 5 -12.0099 -4.7776 -7.1659 0.0000 32.4963 0.0000
# 6 0.0000 0.0000 0.0000 0.0983 0.0000 11.3965
#
#
#
# Elastic Compliance Matrix: (Units=1/GPa)
#
#
# Indices 1 2 3 4 5 6 
#
# 1 0.011891 0.000856 -0.003572 0.000000 0.003733 0.000000
# 2 0.000856 0.031660 -0.004866 0.000000 0.003898 0.000000
# 3 -0.003572 -0.004866 0.015025 0.000000 0.001278 0.000000
# 4 0.000000 0.000000 0.000000 0.122570 0.000000 -0.001058
# 5 0.003733 0.003898 0.001278 0.000000 0.033007 0.000000
# 6 0.000000 0.000000 0.000000 -0.001058 0.000000 0.087755
#
#
# Mechanical properties :
#
#
# Convention : Reuss Voigt Hill
#
# Bulk Modulus (GPa) = 23.03569 31.58278 27.30923
# Shear Modulus (GPa) = 15.08096 21.52204 18.30150
#
# Velocity S-wave (km/s) = 2.93321 3.50405 3.23126
# Velocity P-wave (km/s) = 4.96120 5.86422 5.43151
#
# Compressibility (1/GPa) = 0.04341090
#
# Stress axis : x y z
#
# Youngs Moduli (GPa) = 84.09640 31.58519 66.55713
#
# Poissons Ratio (x) = -0.02702 0.23775
# Poissons Ratio (y) = -0.07195 0.32388
# Poissons Ratio (z) = 0.30040 0.15370
#
# Static dielectric constant tensor:
#      x y z
#    x 1.653560 0.000000 -0.003850 
#    y 0.000000 1.606920 0.000000 
#    z -0.003850 0.000000 1.612020 
# 
# From -- ./inp_files/189192.got.cif
#   From: 2010.05.17/outbox.cif.g08.bks.cpg/sg12_95_cif.got.tgz:189192.got - 2010.06.03 13:09:07.
