data_PCOD9182060
_publ_section_title
;
Structure prediction by ZEFSAII (Michael W. Deem and Ramdas Pophale) SiO2 
 PCOD9182060
Probable space group: C 2/M
;
_chemical_formula_sum "Si O2"
_cell_formula_units_Z 64
_cell_length_a 24.382340
_cell_length_b 9.621029
_cell_length_c 21.321220
_cell_angle_alpha 90.000000
_cell_angle_beta 133.302889
_cell_angle_gamma 90.000000
_cell_volume 3639.855276
_symmetry_space_group_name_H-M "C 2/M"
_symmetry_group_IT_number 12
_symmetry_cell_setting 'monoclinic'
loop_
_space_group_symop_operation_xyz
x,y,z
-x,y,-z
-x,-y,-z
x,-y,z
1/2+x,1/2+y,z
1/2-x,1/2+y,-z
1/2-x,1/2-y,-z
1/2+x,1/2-y,z
loop_
_atom_site_type_symbol
_atom_site_label
_atom_site_fract_x
_atom_site_fract_y
_atom_site_fract_z
Si Si1 0.901244 0.841742 0.240974
Si Si2 0.189378 0.838542 0.266032
Si Si3 0.966688 0.335922 0.707388
Si Si4 0.687435 0.664761 0.413144
Si Si5 0.042637 0.342689 0.151228
Si Si6 0.118226 0.341022 0.014373
Si Si7 0.241486 0.162915 0.782397
Si Si8 0.820773 0.154499 0.044135
O O1 0.831760 0.803906 0.232489
O O2 0.866327 0.850367 0.144119
O O3 0.968131 0.731475 0.284434
O O4 0.926984 0.000000 0.277431
O O5 0.204416 0.826955 0.352027
O O6 0.108205 0.766831 0.191319
O O7 0.249662 0.757565 0.271380
O O8 0.186817 0.000000 0.246875
O O9 0.955611 0.500000 0.685287
O O10 0.891961 0.243530 0.639404
O O11 0.983592 0.327643 0.796165
O O12 0.683998 0.500000 0.426894
O O13 0.750000 0.750000 0.500000
O O14 0.073858 0.500000 0.169837
O O15 0.971785 0.332306 0.048913
O O16 0.131987 0.500000 0.001664
O O17 0.133986 0.225032 0.975588
O O18 0.180221 0.320566 0.117000
O O19 0.236107 0.000000 0.761947
O O20 0.796966 0.000000 0.008073
O O21 0.750000 0.250000 0.000000
#
# Coordination Sequence:
#
# PCOD9182060 Si02
#       8
#     8   8   8   8   8   8   8   8
#     4  10  20  33  50  74 107 146 185 227 272 316
#     4  10  22  38  55  78 109 139 175 221 268 320
#     4  10  19  32  55  85 113 141 176 219 269 321
#     4  10  21  39  64  91 115 136 165 210 265 325
#     4   9  18  32  52  74 102 141 184 228 274 319
#     4  10  19  33  49  72 102 140 192 237 275 315
#     4  10  21  36  52  71 105 151 193 227 266 319
#     4  11  20  30  46  69 101 140 187 239 282 315
#
# _framework density 17.583117000000001
#
# number of rings (size 3 to 8) (size 9 to 14) (size 15 to 20)
#    0.000    2.000    2.500    1.500    0.000    4.500 
#    0.000    2.500    0.000    0.750    0.000    5.250 
#    0.000    0.000    0.000    0.000    0.000    0.000 
#
# Total GULP energy -178377.823889 kJ/mol
# GULP energy per Si atom -5574.306997 kJ/mol
# Density = 1.754310 g / cm^3
# Si number density = 17.583117 Si / 1000 Ang^3
#
#
#
# Elastic Constant Matrix: (Units=GPa)
#
#
# Indices 1 2 3 4 5 6 
#
# 1 91.8001 77.6195 38.6434 0.0000 -4.2537 0.0000
# 2 77.6195 144.5796 56.1945 0.0000 2.8625 0.0000
# 3 38.6434 56.1945 54.1236 0.0000 16.9351 0.0000
# 4 0.0000 0.0000 0.0000 23.9998 0.0000 3.0322
# 5 -4.2537 2.8625 16.9351 0.0000 13.1661 0.0000
# 6 0.0000 0.0000 0.0000 3.0322 0.0000 33.9984
#
#
#
# Elastic Compliance Matrix: (Units=1/GPa)
#
#
# Indices 1 2 3 4 5 6 
#
# 1 0.033973 -0.004002 -0.039844 0.000000 0.063096 0.000000
# 2 -0.004002 0.017510 -0.022973 0.000000 0.024450 0.000000
# 3 -0.039844 -0.022973 0.122573 0.000000 -0.165541 0.000000
# 4 0.000000 0.000000 0.000000 0.042142 0.000000 -0.003759
# 5 0.063096 0.024450 -0.165541 0.000000 0.303952 0.000000
# 6 0.000000 0.000000 0.000000 -0.003759 0.000000 0.029748
#
#
# Mechanical properties :
#
#
# Convention : Reuss Voigt Hill
#
# Bulk Modulus (GPa) = 24.74082 70.60200 47.67141
# Shear Modulus (GPa) = 7.17352 22.10258 14.63805
#
# Velocity S-wave (km/s) = 2.02204 3.54931 2.88845
# Velocity P-wave (km/s) = 4.42186 7.55230 6.18830
#
# Compressibility (1/GPa) = 0.04041904
#
# Stress axis : x y z
#
# Youngs Moduli (GPa) = 29.43546 57.11043 8.15838
#
# Poissons Ratio (x) = 0.22853 0.32506
# Poissons Ratio (y) = 0.11779 0.18742
# Poissons Ratio (z) = 1.17282 1.31201
#
# Static dielectric constant tensor:
#      x y z
#    x 1.602650 0.000000 0.002000 
#    y 0.000000 1.586650 0.000000 
#    z 0.002000 0.000000 1.590910 
# 
# From -- ./inp_files/324357.got.cif
#   From: 2010.05.17/outbox.cif.g08.bks.cpg/sg12_163_cif.got.tgz:324357.got - 2010.06.03 13:09:07.
