data_PCOD9182391
_publ_section_title
;
Structure prediction by ZEFSAII (Michael W. Deem and Ramdas Pophale) SiO2 
 PCOD9182391
Probable space group: C 2/M
;
_chemical_formula_sum "Si O2"
_cell_formula_units_Z 58
_cell_length_a 19.092524
_cell_length_b 19.387492
_cell_length_c 23.690459
_cell_angle_alpha 90.000000
_cell_angle_beta 156.605379
_cell_angle_gamma 90.000000
_cell_volume 3481.901502
_symmetry_space_group_name_H-M "C 2/M"
_symmetry_group_IT_number 12
_symmetry_cell_setting 'monoclinic'
loop_
_space_group_symop_operation_xyz
x,y,z
-x,y,-z
-x,-y,-z
x,-y,z
1/2+x,1/2+y,z
1/2-x,1/2+y,-z
1/2-x,1/2-y,-z
1/2+x,1/2-y,z
loop_
_atom_site_type_symbol
_atom_site_label
_atom_site_fract_x
_atom_site_fract_y
_atom_site_fract_z
Si Si1 0.641839 0.923769 0.428609
Si Si2 0.218194 0.208638 0.919083
Si Si3 0.545688 0.129642 0.119458
Si Si4 0.549712 0.773745 0.366963
Si Si5 0.084087 0.152988 0.662242
Si Si6 0.000000 0.500000 0.000000
Si Si7 0.253739 0.920598 0.625753
Si Si8 0.451787 0.578509 0.243960
O O1 0.542611 0.854889 0.372766
O O2 0.675832 0.917235 0.386368
O O3 0.836223 0.920818 0.600121
O O4 0.566171 0.000000 0.383659
O O5 0.080804 0.252170 0.780023
O O6 0.128372 0.132947 0.858868
O O7 0.250000 0.250000 0.000000
O O8 0.394582 0.187409 0.014813
O O9 0.724871 0.156364 0.223277
O O10 0.605270 0.108754 0.226532
O O11 0.494385 0.061866 0.045269
O O12 0.750000 0.750000 0.500000
O O13 0.487366 0.727079 0.372513
O O14 0.933300 0.118011 0.513015
O O15 0.094190 0.106195 0.726918
O O16 0.220608 0.000000 0.615683
O O17 0.391479 0.500000 0.192681
#
# Coordination Sequence:
#
# PCOD9182391 Si02
#       8
#     8   8   8   8   8   2   8   8
#     4   9  17  32  57  80 104 133 187 233 274 321
#     4  11  24  36  53  75 110 150 188 231 269 331
#     4  12  25  35  48  78 114 150 186 220 279 337
#     4  11  18  36  56  77 103 147 182 228 277 328
#     4  10  21  32  56  77 109 145 186 225 277 339
#     4  12  24  36  50  76 120 156 182 222 272 366
#     4  10  19  33  50  78 110 148 183 227 268 321
#     4   9  18  32  52  80 107 145 178 223 277 333
#
# _framework density 16.657564000000001
#
# number of rings (size 3 to 8) (size 9 to 14) (size 15 to 20)
#    0.000    1.655    4.828    4.138    4.828    0.552 
#    0.000    0.690    0.000    0.000    0.000    2.897 
#    0.000    4.414    0.000    0.000    0.000    0.000 
#
# Total GULP energy -161449.787920 kJ/mol
# GULP energy per Si atom -5567.234066 kJ/mol
# Density = 1.661965 g / cm^3
# Si number density = 16.657564 Si / 1000 Ang^3
#
#
#
# Elastic Constant Matrix: (Units=GPa)
#
#
# Indices 1 2 3 4 5 6 
#
# 1 8.0306 10.3203 5.4946 0.0060 -6.4002 0.0015
# 2 10.3203 129.6258 29.1186 0.0104 3.5369 0.0014
# 3 5.4946 29.1186 79.5509 0.0144 -7.5689 0.0012
# 4 0.0060 0.0104 0.0144 29.5212 0.0042 -9.3892
# 5 -6.4002 3.5369 -7.5689 0.0042 24.1316 0.0001
# 6 0.0015 0.0014 0.0012 -9.3892 0.0001 16.4256
#
#
#
# Elastic Compliance Matrix: (Units=1/GPa)
#
#
# Indices 1 2 3 4 5 6 
#
# 1 0.187227 -0.015794 -0.002274 -0.000054 0.051258 -0.000046
# 2 -0.015794 0.009860 -0.003148 0.000003 -0.006621 0.000003
# 3 -0.002274 -0.003148 0.014293 -0.000008 0.004341 -0.000005
# 4 -0.000054 0.000003 -0.000008 0.041401 -0.000024 0.023666
# 5 0.051258 -0.006621 0.004341 -0.000024 0.057366 -0.000019
# 6 -0.000046 0.000003 -0.000005 0.023666 -0.000019 0.074408
#
#
# Mechanical properties :
#
#
# Convention : Reuss Voigt Hill
#
# Bulk Modulus (GPa) = 5.91897 34.11938 20.01917
# Shear Modulus (GPa) = 10.34547 25.50061 17.92304
#
# Velocity S-wave (km/s) = 2.49483 3.91688 3.28376
# Velocity P-wave (km/s) = 3.44382 6.40181 5.14019
#
# Compressibility (1/GPa) = 0.16894819
#
# Stress axis : x y z
#
# Youngs Moduli (GPa) = 5.34110 101.42161 69.96426
#
# Poissons Ratio (x) = 1.60186 0.15908
# Poissons Ratio (y) = 0.08436 0.22026
# Poissons Ratio (z) = 0.01214 0.31929
#
# Static dielectric constant tensor:
#      x y z
#    x 1.562390 0.000000 -0.006630 
#    y 0.000000 1.582990 -0.000010 
#    z -0.006630 -0.000010 1.608350 
# 
# From -- ./inp_files/366876.got.cif
#   From: 2010.05.17/outbox.cif.g08.bks.cpg/sg12_184_cif.got.tgz:366876.got - 2010.06.03 13:09:07.
