data_PCOD9182990
_publ_section_title
;
Structure prediction by ZEFSAII (Michael W. Deem and Ramdas Pophale) SiO2 
 PCOD9182990
Probable space group: C 2/M
;
_chemical_formula_sum "Si O2"
_cell_formula_units_Z 56
_cell_length_a 20.346484
_cell_length_b 8.389531
_cell_length_c 21.862091
_cell_angle_alpha 90.000000
_cell_angle_beta 54.485086
_cell_angle_gamma 90.000000
_cell_volume 3037.554844
_symmetry_space_group_name_H-M "C 2/M"
_symmetry_group_IT_number 12
_symmetry_cell_setting 'monoclinic'
loop_
_space_group_symop_operation_xyz
x,y,z
-x,y,-z
-x,-y,-z
x,-y,z
1/2+x,1/2+y,z
1/2-x,1/2+y,-z
1/2-x,1/2-y,-z
1/2+x,1/2-y,z
loop_
_atom_site_type_symbol
_atom_site_label
_atom_site_fract_x
_atom_site_fract_y
_atom_site_fract_z
Si Si1 0.156373 0.191481 0.870061
Si Si2 0.341286 0.309432 0.451891
Si Si3 0.891277 0.310066 0.296800
Si Si4 0.091417 0.194945 0.454081
Si Si5 0.005978 0.808322 0.869440
Si Si6 0.325562 0.693267 0.999890
Si Si7 0.761142 0.192017 0.703858
O O1 0.175366 0.246884 0.928450
O O2 0.227068 0.237691 0.784922
O O3 0.071538 0.249234 0.885136
O O4 0.150216 0.000000 0.875989
O O5 0.341858 0.500000 0.450559
O O6 0.250000 0.250000 0.500000
O O7 0.389673 0.249175 0.366820
O O8 0.376227 0.254883 0.497564
O O9 0.897936 0.500000 0.292325
O O10 0.805197 0.266966 0.312208
O O11 0.958402 0.239064 0.215555
O O12 0.152128 0.246627 0.367629
O O13 0.000000 0.249202 0.500000
O O14 0.092183 0.000000 0.452054
O O15 0.005094 0.000000 0.874608
O O16 0.914012 0.753605 0.927985
O O17 0.323962 0.500000 0.999951
O O18 0.250000 0.750000 0.000000
O O19 0.761896 0.000000 0.709152
#
# Coordination Sequence:
#
# PCOD9182990 Si02
#       7
#     8   8   8   8   8   8   8
#     4   9  18  34  57  81 103 134 175 222 267 308
#     4  11  20  33  55  80 107 141 181 222 266 315
#     4  10  19  33  53  82 111 136 172 224 273 312
#     4   9  18  34  53  74 103 140 179 219 260 307
#     4   9  18  35  58  81 103 137 181 220 260 314
#     4  10  21  37  56  79 111 143 175 213 263 321
#     4   9  17  32  53  78 105 135 175 218 261 313
#
# _framework density 18.435881999999999
#
# number of rings (size 3 to 8) (size 9 to 14) (size 15 to 20)
#    0.000    2.429    1.429    1.286    0.000    3.429 
#    2.571    0.000    0.000    7.286    0.000    0.000 
#    0.000    0.000    0.000    0.000    0.000    0.000 
#
# Total GULP energy -156136.126868 kJ/mol
# GULP energy per Si atom -5576.290245 kJ/mol
# Density = 1.839392 g / cm^3
# Si number density = 18.435882 Si / 1000 Ang^3
#
#
#
# Elastic Constant Matrix: (Units=GPa)
#
#
# Indices 1 2 3 4 5 6 
#
# 1 139.9085 17.2866 104.4002 0.0002 -11.6250 0.0003
# 2 17.2866 5.7799 18.8737 0.0005 -1.7060 0.0001
# 3 104.4002 18.8737 167.4762 0.0001 -9.7007 -0.0001
# 4 0.0002 0.0005 0.0001 28.4201 0.0000 -0.8087
# 5 -11.6250 -1.7060 -9.7007 0.0000 27.1120 0.0001
# 6 0.0003 0.0001 -0.0001 -0.8087 0.0001 20.2822
#
#
#
# Elastic Compliance Matrix: (Units=1/GPa)
#
#
# Indices 1 2 3 4 5 6 
#
# 1 0.015229 -0.022568 -0.006795 0.000000 0.002678 0.000000
# 2 -0.022568 0.308264 -0.020534 -0.000005 0.002374 -0.000002
# 3 -0.006795 -0.020534 0.012537 0.000000 0.000280 0.000000
# 4 0.000000 -0.000005 0.000000 0.035226 0.000000 0.001405
# 5 0.002678 0.002374 0.000280 0.000000 0.038282 0.000000
# 6 0.000000 -0.000002 0.000000 0.001405 0.000000 0.049360
#
#
# Mechanical properties :
#
#
# Convention : Reuss Voigt Hill
#
# Bulk Modulus (GPa) = 4.23306 66.03172 35.13239
# Shear Modulus (GPa) = 7.84391 26.66980 17.25686
#
# Velocity S-wave (km/s) = 2.06493 3.80758 3.06281
# Velocity P-wave (km/s) = 2.82601 7.43135 5.62189
#
# Compressibility (1/GPa) = 0.23623598
#
# Stress axis : x y z
#
# Youngs Moduli (GPa) = 65.66483 3.24397 79.76434
#
# Poissons Ratio (x) = 0.07321 0.54198
# Poissons Ratio (y) = 1.48196 1.63784
# Poissons Ratio (z) = 0.44618 0.06661
#
# Static dielectric constant tensor:
#      x y z
#    x 1.383060 0.000000 0.002540 
#    y 0.000000 1.642980 0.000000 
#    z 0.002540 0.000000 1.626550 
# 
# From -- ./inp_files/281718.got.cif
#   From: 2010.05.17/outbox.cif.g08.bks.cpg/sg12_141_cif.got.tgz:281718.got - 2010.06.03 13:09:07.
