data_PCOD9182373
_publ_section_title
;
Structure prediction by ZEFSAII (Michael W. Deem and Ramdas Pophale) SiO2 
 PCOD9182373
Probable space group: C 2/M
;
_chemical_formula_sum "Si O2"
_cell_formula_units_Z 64
_cell_length_a 32.000868
_cell_length_b 8.399090
_cell_length_c 28.172447
_cell_angle_alpha 90.000000
_cell_angle_beta 151.766268
_cell_angle_gamma 90.000000
_cell_volume 3582.148175
_symmetry_space_group_name_H-M "C 2/M"
_symmetry_group_IT_number 12
_symmetry_cell_setting 'monoclinic'
loop_
_space_group_symop_operation_xyz
x,y,z
-x,y,-z
-x,-y,-z
x,-y,z
1/2+x,1/2+y,z
1/2-x,1/2+y,-z
1/2-x,1/2-y,-z
1/2+x,1/2-y,z
loop_
_atom_site_type_symbol
_atom_site_label
_atom_site_fract_x
_atom_site_fract_y
_atom_site_fract_z
Si Si1 0.728353 0.809801 0.864256
Si Si2 0.098207 0.186161 0.276169
Si Si3 0.902400 0.306645 0.184279
Si Si4 0.729157 0.311640 0.592318
Si Si5 0.403725 0.693725 0.459601
Si Si6 0.603790 0.307403 0.657459
Si Si7 0.103216 0.311524 0.386500
Si Si8 0.592912 0.190068 0.919697
O O1 0.669150 0.749728 0.849576
O O2 0.676116 0.762765 0.764760
O O3 0.734521 0.000000 0.873640
O O4 0.825666 0.738516 0.966229
O O5 0.176541 0.229285 0.318934
O O6 0.114509 0.278852 0.341942
O O7 0.001186 0.235080 0.161404
O O8 0.099765 0.000000 0.288593
O O9 0.900924 0.500000 0.183196
O O10 0.886114 0.255948 0.113666
O O11 0.002639 0.259857 0.297693
O O12 0.742621 0.500000 0.611291
O O13 0.668481 0.251295 0.574944
O O14 0.673318 0.278565 0.488772
O O15 0.404302 0.500000 0.461498
O O16 0.384187 0.738768 0.385649
O O17 0.504111 0.743824 0.571892
O O18 0.607133 0.500000 0.663288
O O19 0.111792 0.500000 0.403783
O O20 0.582815 0.000000 0.908801
#
# Coordination Sequence:
#
# PCOD9182373 Si02
#       8
#     8   8   8   8   8   8   8   8
#     4  11  20  31  49  77 106 134 166 205 249 299
#     4  11  22  36  51  71  99 134 170 211 254 296
#     4   8  17  31  48  71 103 135 167 203 244 290
#     4  11  20  32  51  76 101 132 170 209 250 298
#     4   8  17  33  55  78 103 132 167 205 246 295
#     4   9  17  34  55  77 103 134 167 203 244 295
#     4  10  19  33  50  73 104 138 171 207 245 292
#     4  10  20  36  53  71  97 135 174 211 248 291
#
# _framework density 17.866374
#
# number of rings (size 3 to 8) (size 9 to 14) (size 15 to 20)
#    0.000    2.250    0.000    5.625    0.000    0.000 
#    0.000    9.375    0.000    0.750    0.000    5.250 
#    0.000    0.000    0.000    0.000    0.000    0.000 
#
# Total GULP energy -178648.705107 kJ/mol
# GULP energy per Si atom -5582.772035 kJ/mol
# Density = 1.782571 g / cm^3
# Si number density = 17.866374 Si / 1000 Ang^3
#
#
#
# Elastic Constant Matrix: (Units=GPa)
#
#
# Indices 1 2 3 4 5 6 
#
# 1 89.9941 1.0109 49.6954 0.0000 23.4901 0.0000
# 2 1.0109 21.6770 3.7084 0.0000 4.0030 0.0000
# 3 49.6954 3.7084 115.4620 0.0000 12.7434 0.0000
# 4 0.0000 0.0000 0.0000 23.6947 0.0000 0.1515
# 5 23.4901 4.0030 12.7434 0.0000 17.4948 0.0000
# 6 0.0000 0.0000 0.0000 0.1515 0.0000 16.4896
#
#
#
# Elastic Compliance Matrix: (Units=1/GPa)
#
#
# Indices 1 2 3 4 5 6 
#
# 1 0.021083 0.004680 -0.006505 0.000000 -0.024641 0.000000
# 2 0.004680 0.049220 -0.001804 0.000000 -0.016232 0.000000
# 3 -0.006505 -0.001804 0.011428 0.000000 0.000823 0.000000
# 4 0.000000 0.000000 0.000000 0.042206 0.000000 -0.000388
# 5 -0.024641 -0.016232 0.000823 0.000000 0.093359 0.000000
# 6 0.000000 0.000000 0.000000 -0.000388 0.000000 0.060648
#
#
# Mechanical properties :
#
#
# Convention : Reuss Voigt Hill
#
# Bulk Modulus (GPa) = 13.42770 37.32917 25.37843
# Shear Modulus (GPa) = 16.12772 23.05038 19.58905
#
# Velocity S-wave (km/s) = 3.00773 3.59577 3.31482
# Velocity P-wave (km/s) = 4.42650 6.17886 5.37458
#
# Compressibility (1/GPa) = 0.07447293
#
# Stress axis : x y z
#
# Youngs Moduli (GPa) = 47.43155 20.31712 87.50626
#
# Poissons Ratio (x) = -0.09508 0.56923
# Poissons Ratio (y) = -0.22197 0.15783
# Poissons Ratio (z) = 0.30854 0.03664
#
# Static dielectric constant tensor:
#      x y z
#    x 1.619190 0.000000 0.012940 
#    y 0.000000 1.602420 0.000000 
#    z 0.012940 0.000000 1.590280 
# 
# From -- ./inp_files/353561.got.cif
#   From: 2010.05.17/outbox.cif.g08.bks.cpg/sg12_177_cif.got.tgz:353561.got - 2010.06.03 13:09:07.
