data_PCOD9182740
_publ_section_title
;
Structure prediction by ZEFSAII (Michael W. Deem and Ramdas Pophale) SiO2 
 PCOD9182740
Probable space group: C 2/M
;
_chemical_formula_sum "Si O2"
_cell_formula_units_Z 64
_cell_length_a 14.710845
_cell_length_b 7.404450
_cell_length_c 26.906471
_cell_angle_alpha 90.000000
_cell_angle_beta 111.077419
_cell_angle_gamma 90.000000
_cell_volume 2734.722010
_symmetry_space_group_name_H-M "C 2/M"
_symmetry_group_IT_number 12
_symmetry_cell_setting 'monoclinic'
loop_
_space_group_symop_operation_xyz
x,y,z
-x,y,-z
-x,-y,-z
x,-y,z
1/2+x,1/2+y,z
1/2-x,1/2+y,-z
1/2-x,1/2-y,-z
1/2+x,1/2-y,z
loop_
_atom_site_type_symbol
_atom_site_label
_atom_site_fract_x
_atom_site_fract_y
_atom_site_fract_z
Si Si1 0.072624 0.794216 0.862470
Si Si2 0.279834 0.782938 0.908555
Si Si3 0.816254 0.710153 0.270537
Si Si4 0.910749 0.281913 0.019410
Si Si5 0.765773 0.719324 0.636390
Si Si6 0.482348 0.215831 0.652364
Si Si7 0.563474 0.716311 0.558205
Si Si8 0.864852 0.785146 0.823879
O O1 0.176062 0.708378 0.870118
O O2 0.077782 0.797044 0.923731
O O3 0.969303 0.711764 0.826851
O O4 0.073150 0.000000 0.843798
O O5 0.356927 0.742292 0.881081
O O6 0.271842 0.000000 0.910766
O O7 0.317333 0.718646 0.969191
O O8 0.827760 0.500000 0.258844
O O9 0.767687 0.721021 0.315541
O O10 0.733533 0.792066 0.219050
O O11 0.925526 0.786804 0.297363
O O12 0.907993 0.500000 0.024691
O O13 0.000000 0.240797 0.000000
O O14 0.767156 0.500000 0.636334
O O15 0.874193 0.783139 0.643950
O O16 0.675855 0.779303 0.583667
O O17 0.511357 0.246917 0.600633
O O18 0.480367 0.000000 0.659258
O O19 0.500000 0.787641 0.500000
O O20 0.568335 0.500000 0.554001
O O21 0.866260 0.000000 0.814222
#
# Coordination Sequence:
#
# PCOD9182740 Si02
#       8
#     8   8   8   8   8   8   8   8
#     4  10  21  35  52  74  99 127 160 197 240 291
#     4  10  21  36  52  73 100 128 159 197 241 291
#     4   9  19  35  52  71  98 129 163 205 249 290
#     4  10  19  33  53  74  98 127 159 196 238 287
#     4   9  18  33  52  74  99 130 169 206 243 289
#     4   9  18  33  52  73  99 132 169 207 244 287
#     4   9  18  32  49  73 106 137 165 202 246 290
#     4  10  21  36  52  73 100 128 160 201 247 293
#
# _framework density 23.402744999999999
#
# number of rings (size 3 to 8) (size 9 to 14) (size 15 to 20)
#    0.000    2.500    1.250    0.375    0.000    4.000 
#    0.000    0.000    0.000    0.000    0.000    0.000 
#    0.000    0.000    0.000    0.000    0.000    0.000 
#
# Total GULP energy -178638.463063 kJ/mol
# GULP energy per Si atom -5582.451971 kJ/mol
# Density = 2.334948 g / cm^3
# Si number density = 23.402745 Si / 1000 Ang^3
#
#
#
# Elastic Constant Matrix: (Units=GPa)
#
#
# Indices 1 2 3 4 5 6 
#
# 1 131.9362 -0.6676 32.1535 0.0000 45.7476 0.0000
# 2 -0.6676 85.5810 -2.5121 0.0000 8.5976 0.0000
# 3 32.1535 -2.5121 98.8796 0.0000 40.3293 0.0000
# 4 0.0000 0.0000 0.0000 2.0773 0.0000 -11.4080
# 5 45.7476 8.5976 40.3293 0.0000 33.9310 0.0000
# 6 0.0000 0.0000 0.0000 -11.4080 0.0000 -23.0172
#
#
#
# Elastic Compliance Matrix: (Units=1/GPa)
#
#
# Indices 1 2 3 4 5 6 
#
# 1 0.017665 0.003922 0.008685 0.000000 -0.035133 0.000000
# 2 0.003922 0.013336 0.005043 0.000000 -0.014662 0.000000
# 3 0.008685 0.005043 0.024677 0.000000 -0.042318 0.000000
# 4 0.000000 0.000000 0.000000 0.129344 0.000000 -0.064106
# 5 -0.035133 -0.014662 -0.042318 0.000000 0.130853 0.000000
# 6 0.000000 0.000000 0.000000 -0.064106 0.000000 -0.011673
#
#
# Mechanical properties :
#
#
# Convention : Reuss Voigt Hill
#
# Bulk Modulus (GPa) = 10.99146 41.59383 26.29264
# Shear Modulus (GPa) = 16.70969 21.75973 19.23471
#
# Velocity S-wave (km/s) = 2.67499 3.05256 2.86999
# Velocity P-wave (km/s) = 3.77460 5.49871 4.71611
#
# Compressibility (1/GPa) = 0.09097974
#
# Stress axis : x y z
#
# Youngs Moduli (GPa) = 56.60994 74.98250 40.52313
#
# Poissons Ratio (x) = -0.29410 -0.35194
# Poissons Ratio (y) = -0.22204 -0.20438
# Poissons Ratio (z) = -0.49165 -0.37817
#
# Static dielectric constant tensor:
#      x y z
#    x 1.892800 0.000000 0.070800 
#    y 0.000000 1.857040 0.000000 
#    z 0.070800 0.000000 1.889080 
# 
# From -- ./inp_files/359854.got.cif
#   From: 2010.05.17/outbox.cif.g08.bks.cpg/sg12_180_cif.got.tgz:359854.got - 2010.06.03 13:09:07.
