data_PCOD9182445
_publ_section_title
;
Structure prediction by ZEFSAII (Michael W. Deem and Ramdas Pophale) SiO2 
 PCOD9182445
Probable space group: C 2/M
;
_chemical_formula_sum "Si O2"
_cell_formula_units_Z 48
_cell_length_a 21.043234
_cell_length_b 8.164079
_cell_length_c 23.987284
_cell_angle_alpha 90.000000
_cell_angle_beta 140.645256
_cell_angle_gamma 90.000000
_cell_volume 2613.197193
_symmetry_space_group_name_H-M "C 2/M"
_symmetry_group_IT_number 12
_symmetry_cell_setting 'monoclinic'
loop_
_space_group_symop_operation_xyz
x,y,z
-x,y,-z
-x,-y,-z
x,-y,z
1/2+x,1/2+y,z
1/2-x,1/2+y,-z
1/2-x,1/2-y,-z
1/2+x,1/2-y,z
loop_
_atom_site_type_symbol
_atom_site_label
_atom_site_fract_x
_atom_site_fract_y
_atom_site_fract_z
Si Si1 0.388090 0.805737 0.934763
Si Si2 0.719597 0.802546 0.738413
Si Si3 0.934064 0.698946 0.268165
Si Si4 0.738067 0.805134 0.928551
Si Si5 0.644200 0.197943 0.452343
Si Si6 0.110971 0.700167 0.556160
O O1 0.317901 0.768212 0.834063
O O2 0.329724 0.739657 0.949524
O O3 0.395073 0.000000 0.946916
O O4 0.500000 0.739837 0.000000
O O5 0.626651 0.762455 0.716367
O O6 0.691013 0.747503 0.657081
O O7 0.729018 0.000000 0.745036
O O8 0.936990 0.500000 0.266511
O O9 0.863913 0.759741 0.170220
O O10 0.047851 0.756881 0.351595
O O11 0.731179 0.000000 0.923963
O O12 0.750000 0.750000 0.000000
O O13 0.750000 0.250000 0.500000
O O14 0.632899 0.254881 0.508536
O O15 0.639911 0.000000 0.450126
O O16 0.111144 0.500000 0.556322
O O17 0.000000 0.750502 0.500000
#
# Coordination Sequence:
#
# PCOD9182445 Si02
#       6
#     8   8   8   8   8   8
#     4  10  21  37  55  77 109 144 175 216 270 320
#     4   9  16  30  55  82 100 127 176 224 260 302
#     4   8  15  30  53  75  98 134 173 208 254 308
#     4  10  20  36  59  83 105 137 180 222 265 317
#     4  10  19  33  51  74 106 138 168 208 257 307
#     4   9  15  28  55  80  98 128 175 218 251 301
#
# _framework density 18.368302
#
# number of rings (size 3 to 8) (size 9 to 14) (size 15 to 20)
#    0.000    2.667    1.667    2.000    0.000    1.333 
#    3.000    5.000    0.000    1.000    0.000    0.000 
#    0.000    0.000    0.000    0.000    0.000    0.000 
#
# Total GULP energy -133790.414819 kJ/mol
# GULP energy per Si atom -5574.600617 kJ/mol
# Density = 1.832650 g / cm^3
# Si number density = 18.368302 Si / 1000 Ang^3
#
#
#
# Elastic Constant Matrix: (Units=GPa)
#
#
# Indices 1 2 3 4 5 6 
#
# 1 132.8664 12.7780 110.1941 0.0000 1.7384 0.0000
# 2 12.7780 16.1634 16.6880 0.0000 -2.6681 0.0001
# 3 110.1941 16.6880 176.4605 0.0000 1.4747 0.0000
# 4 0.0000 0.0000 0.0000 15.8896 0.0000 3.6819
# 5 1.7384 -2.6681 1.4747 0.0000 38.0020 0.0000
# 6 0.0000 0.0001 0.0000 3.6819 0.0000 23.4606
#
#
#
# Elastic Compliance Matrix: (Units=1/GPa)
#
#
# Indices 1 2 3 4 5 6 
#
# 1 0.015716 -0.002642 -0.009560 0.000000 -0.000533 0.000000
# 2 -0.002642 0.069996 -0.005013 0.000000 0.005230 0.000000
# 3 -0.009560 -0.005013 0.012114 0.000000 -0.000385 0.000000
# 4 0.000000 0.000000 0.000000 0.065309 0.000000 -0.010250
# 5 -0.000533 0.005230 -0.000385 0.000000 0.026721 0.000000
# 6 0.000000 0.000000 0.000000 -0.010250 0.000000 0.044233
#
#
# Mechanical properties :
#
#
# Convention : Reuss Voigt Hill
#
# Bulk Modulus (GPa) = 15.77396 67.20117 41.48756
# Shear Modulus (GPa) = 17.26207 27.85913 22.56060
#
# Velocity S-wave (km/s) = 3.06890 3.89870 3.50842
# Velocity P-wave (km/s) = 4.60041 7.54529 6.24880
#
# Compressibility (1/GPa) = 0.06339564
#
# Stress axis : x y z
#
# Youngs Moduli (GPa) = 63.62964 14.28648 82.54839
#
# Poissons Ratio (x) = 0.03775 0.78914
# Poissons Ratio (y) = 0.16813 0.41384
# Poissons Ratio (z) = 0.60829 0.07162
#
# Static dielectric constant tensor:
#      x y z
#    x 1.609910 0.000000 -0.005300 
#    y 0.000000 1.652770 0.000000 
#    z -0.005300 0.000000 1.660190 
# 
# From -- ./inp_files/345704.got.cif
#   From: 2010.05.17/outbox.cif.g08.bks.cpg/sg12_173_cif.got.tgz:345704.got - 2010.06.03 13:09:07.
