data_PCOD9182078
_publ_section_title
;
Structure prediction by ZEFSAII (Michael W. Deem and Ramdas Pophale) SiO2 
 PCOD9182078
Probable space group: C 2/M
;
_chemical_formula_sum "Si O2"
_cell_formula_units_Z 64
_cell_length_a 23.958852
_cell_length_b 19.257239
_cell_length_c 19.897537
_cell_angle_alpha 90.000000
_cell_angle_beta 158.671751
_cell_angle_gamma 90.000000
_cell_volume 3338.990931
_symmetry_space_group_name_H-M "C 2/M"
_symmetry_group_IT_number 12
_symmetry_cell_setting 'monoclinic'
loop_
_space_group_symop_operation_xyz
x,y,z
-x,y,-z
-x,-y,-z
x,-y,z
1/2+x,1/2+y,z
1/2-x,1/2+y,-z
1/2-x,1/2-y,-z
1/2+x,1/2-y,z
loop_
_atom_site_type_symbol
_atom_site_label
_atom_site_fract_x
_atom_site_fract_y
_atom_site_fract_z
Si Si1 0.323029 0.332249 0.282973
Si Si2 0.780299 0.711572 0.632670
Si Si3 0.136512 0.077213 0.795126
Si Si4 0.679645 0.703577 0.191569
Si Si5 0.275982 0.422595 0.356133
Si Si6 0.011896 0.745666 0.774612
Si Si7 0.284351 0.853022 0.084470
Si Si8 0.171486 0.579441 0.720901
O O1 0.500000 0.314385 0.500000
O O2 0.309256 0.360816 0.192720
O O3 0.225435 0.265195 0.191776
O O4 0.282473 0.395823 0.287019
O O5 0.761591 0.769328 0.670053
O O6 0.809511 0.637659 0.699964
O O7 0.617231 0.712062 0.411827
O O8 0.917883 0.724756 0.735429
O O9 0.951876 0.077344 0.580348
O O10 0.186755 0.000000 0.829655
O O11 0.201255 0.093149 0.941050
O O12 0.739687 0.631813 0.228873
O O13 0.500000 0.699695 0.000000
O O14 0.213994 0.500000 0.292704
O O15 0.076113 0.683296 0.799854
O O16 0.157293 0.793399 0.954448
O O17 0.328037 0.888344 0.203614
O O18 0.231129 0.500000 0.788950
O O19 0.000000 0.577620 0.500000
#
# Coordination Sequence:
#
# PCOD9182078 Si02
#       8
#     8   8   8   8   8   8   8   8
#     4   9  19  33  57  86 117 155 198 239 284 347
#     4  10  20  39  57  88 117 159 193 248 292 363
#     4  10  19  32  55  86 118 150 191 239 290 349
#     4  11  23  37  63  88 122 154 204 247 297 355
#     4   9  17  33  55  82 117 156 192 231 288 352
#     4  10  22  36  61  86 120 147 200 246 305 347
#     4  11  22  37  62  88 115 152 197 255 298 356
#     4  11  25  44  64  87 120 159 202 256 311 362
#
# _framework density 19.167466999999998
#
# number of rings (size 3 to 8) (size 9 to 14) (size 15 to 20)
#    0.000    1.875    1.250    2.625    5.250    1.750 
#    0.000    1.250    0.000    4.875    0.000    0.000 
#    0.000    0.000    0.000    0.000    0.000    0.000 
#
# Total GULP energy -178657.688603 kJ/mol
# GULP energy per Si atom -5583.052769 kJ/mol
# Density = 1.912384 g / cm^3
# Si number density = 19.167467 Si / 1000 Ang^3
#
#
#
# Elastic Constant Matrix: (Units=GPa)
#
#
# Indices 1 2 3 4 5 6 
#
# 1 119.0938 66.9516 36.7000 0.0059 -4.3522 0.0009
# 2 66.9516 137.3737 28.5092 0.0139 5.4340 0.0049
# 3 36.7000 28.5092 43.0606 0.0166 -10.7465 0.0030
# 4 0.0059 0.0139 0.0166 -16.7015 0.0096 -13.0751
# 5 -4.3522 5.4340 -10.7465 0.0096 26.2721 0.0018
# 6 0.0009 0.0049 0.0030 -13.0751 0.0018 3.3735
#
#
#
# Elastic Compliance Matrix: (Units=1/GPa)
#
#
# Indices 1 2 3 4 5 6 
#
# 1 0.013801 -0.004949 -0.008531 -0.000004 -0.000180 -0.000005
# 2 -0.004949 0.010717 -0.004049 0.000002 -0.004693 -0.000002
# 3 -0.008531 -0.004049 0.036786 0.000016 0.014472 0.000029
# 4 -0.000004 0.000002 0.000016 -0.014842 0.000015 -0.057523
# 5 -0.000180 -0.004693 0.014472 0.000015 0.044924 0.000027
# 6 -0.000005 -0.000002 0.000029 -0.057523 0.000027 0.073478
#
#
# Mechanical properties :
#
#
# Convention : Reuss Voigt Hill
#
# Bulk Modulus (GPa) = 38.09922 62.64995 50.37459
# Shear Modulus (GPa) = 23.96124 13.74664 18.85394
#
# Velocity S-wave (km/s) = 3.53951 2.68094 3.13971
# Velocity P-wave (km/s) = 6.05181 6.50690 6.28347
#
# Compressibility (1/GPa) = 0.02624726
#
# Stress axis : x y z
#
# Youngs Moduli (GPa) = 72.45797 93.30843 27.18409
#
# Poissons Ratio (x) = 0.46175 0.23191
# Poissons Ratio (y) = 0.35857 0.11007
# Poissons Ratio (z) = 0.61814 0.37780
#
# Static dielectric constant tensor:
#      x y z
#    x 1.730300 0.000010 -0.038560 
#    y 0.000010 1.664570 0.000000 
#    z -0.038560 0.000000 1.681700 
# 
# From -- ./inp_files/326168.got.cif
#   From: 2010.05.17/outbox.cif.g08.bks.cpg/sg12_164_cif.got.tgz:326168.got - 2010.06.03 13:09:07.
