data_PCOD9182061
_publ_section_title
;
Structure prediction by ZEFSAII (Michael W. Deem and Ramdas Pophale) SiO2 
 PCOD9182061
Probable space group: C 2/M
;
_chemical_formula_sum "Si O2"
_cell_formula_units_Z 48
_cell_length_a 14.885172
_cell_length_b 18.884210
_cell_length_c 9.174382
_cell_angle_alpha 90.000000
_cell_angle_beta 54.227400
_cell_angle_gamma 90.000000
_cell_volume 2092.349551
_symmetry_space_group_name_H-M "C 2/M"
_symmetry_group_IT_number 12
_symmetry_cell_setting 'monoclinic'
loop_
_space_group_symop_operation_xyz
x,y,z
-x,y,-z
-x,-y,-z
x,-y,z
1/2+x,1/2+y,z
1/2-x,1/2+y,-z
1/2-x,1/2-y,-z
1/2+x,1/2-y,z
loop_
_atom_site_type_symbol
_atom_site_label
_atom_site_fract_x
_atom_site_fract_y
_atom_site_fract_z
Si Si1 0.331812 0.079149 0.709209
Si Si2 0.186073 0.680957 0.693705
Si Si3 0.308169 0.917417 0.068683
Si Si4 0.656376 0.583172 0.656419
Si Si5 0.895861 0.275194 0.515034
Si Si6 0.056931 0.918129 0.287106
O O1 0.203935 0.085740 0.774917
O O2 0.388485 0.144945 0.580131
O O3 0.366358 0.000000 0.628213
O O4 0.348465 0.084490 0.865144
O O5 0.135795 0.635290 0.871075
O O6 0.258596 0.625593 0.526960
O O7 0.101694 0.718505 0.662586
O O8 0.278470 0.737393 0.657274
O O9 0.180588 0.890312 0.182625
O O10 0.311641 0.000000 0.114137
O O11 0.657250 0.500000 0.611830
O O12 0.533781 0.611202 0.739035
O O13 0.000000 0.241286 0.500000
O O14 0.000000 0.917692 0.500000
O O15 0.075519 0.000000 0.225641
#
# Coordination Sequence:
#
# PCOD9182061 Si02
#       6
#     8   8   8   8   8   8
#     4   9  20  37  54  77 111 145 181 230 280 318
#     4  10  20  35  59  82 110 140 181 224 272 319
#     4  10  19  32  55  85 114 143 175 221 278 329
#     4   9  16  29  51  80 113 145 179 217 264 328
#     4  10  23  40  58  80 105 144 190 227 269 321
#     4   9  15  23  43  79 112 140 176 210 254 319
#
# _framework density 22.940719000000001
#
# number of rings (size 3 to 8) (size 9 to 14) (size 15 to 20)
#    0.000    2.500    1.667    0.500    2.333    2.333 
#    0.000    4.167    0.000    2.000    0.000    0.000 
#    0.000    0.000    0.000    0.000    0.000    0.000 
#
# Total GULP energy -133907.716450 kJ/mol
# GULP energy per Si atom -5579.488185 kJ/mol
# Density = 2.288850 g / cm^3
# Si number density = 22.940719 Si / 1000 Ang^3
#
#
#
# Elastic Constant Matrix: (Units=GPa)
#
#
# Indices 1 2 3 4 5 6 
#
# 1 129.4373 33.3152 29.6720 0.0000 26.2864 0.0000
# 2 33.3152 109.2822 25.2193 0.0000 19.9517 0.0000
# 3 29.6720 25.2193 21.4581 0.0000 19.9942 0.0000
# 4 0.0000 0.0000 0.0000 2.5142 0.0000 10.5397
# 5 26.2864 19.9517 19.9942 0.0000 29.6180 0.0000
# 6 0.0000 0.0000 0.0000 10.5397 0.0000 25.0919
#
#
#
# Elastic Compliance Matrix: (Units=1/GPa)
#
#
# Indices 1 2 3 4 5 6 
#
# 1 0.011339 0.000289 -0.017415 0.000000 0.001498 0.000000
# 2 0.000289 0.012747 -0.019247 0.000000 0.004151 0.000000
# 3 -0.017415 -0.019247 0.180120 0.000000 -0.093171 0.000000
# 4 0.000000 0.000000 0.000000 -0.522750 0.000000 0.219578
# 5 0.001498 0.004151 -0.093171 0.000000 0.092535 0.000000
# 6 0.000000 0.000000 0.000000 0.219578 0.000000 -0.052379
#
#
# Mechanical properties :
#
#
# Convention : Reuss Voigt Hill
#
# Bulk Modulus (GPa) = 7.60697 48.51006 28.05852
# Shear Modulus (GPa) = -30.89817 22.90955 -3.99431
#
# Velocity S-wave (km/s) = -3.67395 3.16356 -1.32096
# Velocity P-wave (km/s) = 3.83068 5.87672 3.15133
#
# Compressibility (1/GPa) = 0.13145838
#
# Stress axis : x y z
#
# Youngs Moduli (GPa) = 88.18775 78.45211 5.55187
#
# Poissons Ratio (x) = -0.02263 0.09669
# Poissons Ratio (y) = -0.02544 0.10686
# Poissons Ratio (z) = 1.53578 1.50999
#
# Static dielectric constant tensor:
#      x y z
#    x 1.957940 0.000000 0.023910 
#    y 0.000000 1.872600 0.000000 
#    z 0.023910 0.000000 1.843270 
# 
# From -- ./inp_files/63341.got.cif
#   From: 2010.05.17/outbox.cif.g08.bks.cpg/sg12_32_cif.got.tgz:63341.got - 2010.06.03 13:09:07.
