data_PCOD9182507
_publ_section_title
;
Structure prediction by ZEFSAII (Michael W. Deem and Ramdas Pophale) SiO2 
 PCOD9182507
Probable space group: C 2/M
;
_chemical_formula_sum "Si O2"
_cell_formula_units_Z 64
_cell_length_a 16.042826
_cell_length_b 15.016277
_cell_length_c 12.773643
_cell_angle_alpha 90.000000
_cell_angle_beta 96.610357
_cell_angle_gamma 90.000000
_cell_volume 3056.758138
_symmetry_space_group_name_H-M "C 2/M"
_symmetry_group_IT_number 12
_symmetry_cell_setting 'monoclinic'
loop_
_space_group_symop_operation_xyz
x,y,z
-x,y,-z
-x,-y,-z
x,-y,z
1/2+x,1/2+y,z
1/2-x,1/2+y,-z
1/2-x,1/2-y,-z
1/2+x,1/2-y,z
loop_
_atom_site_type_symbol
_atom_site_label
_atom_site_fract_x
_atom_site_fract_y
_atom_site_fract_z
Si Si1 0.996715 0.270508 0.221433
Si Si2 0.225127 0.396380 0.677673
Si Si3 0.686286 0.211500 0.287520
Si Si4 0.586101 0.783566 0.567608
Si Si5 0.834020 0.102790 0.398999
Si Si6 0.419151 0.597184 0.179187
Si Si7 0.124220 0.596018 0.882824
Si Si8 0.752190 0.660568 0.934099
O O1 0.087185 0.301082 0.271939
O O2 0.937640 0.272036 0.314467
O O3 0.991728 0.169799 0.181610
O O4 0.948464 0.331125 0.131360
O O5 0.249388 0.500000 0.662325
O O6 0.291719 0.315143 0.686357
O O7 0.156297 0.360250 0.583667
O O8 0.183637 0.394306 0.788434
O O9 0.741701 0.145205 0.367087
O O10 0.716494 0.187017 0.175708
O O11 0.500000 0.808583 0.500000
O O12 0.618410 0.685277 0.535726
O O13 0.879231 0.096629 0.291230
O O14 0.833940 0.000000 0.439532
O O15 0.451825 0.500000 0.160727
O O16 0.340314 0.620648 0.093951
O O17 0.082929 0.500000 0.868120
O O18 0.182060 0.601367 0.993058
O O19 0.750000 0.750000 0.000000
#
# Coordination Sequence:
#
# PCOD9182507 Si02
#       8
#     8   8   8   8   8   8   8   8
#     4  10  20  34  49  74 104 128 159 205 256 293
#     4   9  18  34  53  73  98 133 170 198 237 294
#     4  10  20  32  51  73 103 135 159 202 250 290
#     4   9  18  34  56  77  96 126 166 204 243 293
#     4   8  16  32  52  73  98 131 165 195 239 298
#     4   9  17  31  51  70  95 132 169 202 240 290
#     4  10  19  33  52  72  97 132 171 206 239 287
#     4  11  17  32  51  71  95 129 173 202 233 284
#
# _framework density 20.937213
#
# number of rings (size 3 to 8) (size 9 to 14) (size 15 to 20)
#    0.000    2.500    2.500    1.875    0.000    2.500 
#    0.000    3.125    0.000    2.250    0.000    0.000 
#    0.000    0.000    0.000    0.000    0.000    0.000 
#
# Total GULP energy -178327.545022 kJ/mol
# GULP energy per Si atom -5572.735782 kJ/mol
# Density = 2.088956 g / cm^3
# Si number density = 20.937213 Si / 1000 Ang^3
#
#
#
# Elastic Constant Matrix: (Units=GPa)
#
#
# Indices 1 2 3 4 5 6 
#
# 1 30.6583 -6.0294 1.5968 0.0000 4.9255 0.0000
# 2 -6.0294 71.7639 -2.6021 0.0000 -10.1064 0.0000
# 3 1.5968 -2.6021 57.0151 0.0000 3.0799 0.0000
# 4 0.0000 0.0000 0.0000 4.1992 0.0000 5.2960
# 5 4.9255 -10.1064 3.0799 0.0000 21.5321 0.0000
# 6 0.0000 0.0000 0.0000 5.2960 0.0000 -2.4111
#
#
#
# Elastic Compliance Matrix: (Units=1/GPa)
#
#
# Indices 1 2 3 4 5 6 
#
# 1 0.034114 0.001884 -0.000500 0.000000 -0.006848 0.000000
# 2 0.001884 0.015030 0.000278 0.000000 0.006584 0.000000
# 3 -0.000500 0.000278 0.017689 0.000000 -0.002286 0.000000
# 4 0.000000 0.000000 0.000000 0.063163 0.000000 0.138740
# 5 -0.006848 0.006584 -0.002286 0.000000 0.051426 0.000000
# 6 0.000000 0.000000 0.000000 0.138740 0.000000 -0.110007
#
#
# Mechanical properties :
#
#
# Convention : Reuss Voigt Hill
#
# Bulk Modulus (GPa) = 14.25373 16.15199 15.20286
# Shear Modulus (GPa) = 54.65768 15.76219 35.20994
#
# Velocity S-wave (km/s) = 5.11490 2.74675 4.10529
# Velocity P-wave (km/s) = 6.45798 4.21791 5.45419
#
# Compressibility (1/GPa) = 0.07015707
#
# Stress axis : x y z
#
# Youngs Moduli (GPa) = 29.31325 66.53309 56.53120
#
# Poissons Ratio (x) = -0.12533 0.02824
# Poissons Ratio (y) = -0.05522 -0.01569
# Poissons Ratio (z) = 0.01464 -0.01847
#
# Static dielectric constant tensor:
#      x y z
#    x 1.782870 0.000000 -0.021090 
#    y 0.000000 1.964600 0.000000 
#    z -0.021090 0.000000 1.778810 
# 
# From -- ./inp_files/270337.got.cif
#   From: 2010.05.17/outbox.cif.g08.bks.cpg/sg12_136_cif.got.tgz:270337.got - 2010.06.03 13:09:07.
