data_PCOD9182588
_publ_section_title
;
Structure prediction by ZEFSAII (Michael W. Deem and Ramdas Pophale) SiO2 
 PCOD9182588
Probable space group: C 2/M
;
_chemical_formula_sum "Si O2"
_cell_formula_units_Z 48
_cell_length_a 24.326137
_cell_length_b 7.672296
_cell_length_c 18.032476
_cell_angle_alpha 90.000000
_cell_angle_beta 47.105908
_cell_angle_gamma 90.000000
_cell_volume 2465.633563
_symmetry_space_group_name_H-M "C 2/M"
_symmetry_group_IT_number 12
_symmetry_cell_setting 'monoclinic'
loop_
_space_group_symop_operation_xyz
x,y,z
-x,y,-z
-x,-y,-z
x,-y,z
1/2+x,1/2+y,z
1/2-x,1/2+y,-z
1/2-x,1/2-y,-z
1/2+x,1/2-y,z
loop_
_atom_site_type_symbol
_atom_site_label
_atom_site_fract_x
_atom_site_fract_y
_atom_site_fract_z
Si Si1 0.533731 0.792162 0.190879
Si Si2 0.869999 0.710248 0.383086
Si Si3 0.565229 0.786836 0.995659
Si Si4 0.242712 0.791456 0.386826
Si Si5 0.190198 0.792952 0.119540
Si Si6 0.233699 0.286373 0.800313
O O1 0.454728 0.724785 0.294936
O O2 0.549893 0.725124 0.093176
O O3 0.607155 0.763277 0.172712
O O4 0.524877 0.000000 0.191776
O O5 0.870894 0.500000 0.377745
O O6 0.830467 0.755232 0.496817
O O7 0.814152 0.774475 0.369016
O O8 0.564831 0.000000 0.996812
O O9 0.500000 0.730689 0.000000
O O10 0.647459 0.734995 0.893025
O O11 0.240735 0.726482 0.304444
O O12 0.251438 0.000000 0.374497
O O13 0.218293 0.724451 0.173273
O O14 0.189262 0.000000 0.125922
O O15 0.250000 0.750000 0.000000
O O16 0.235943 0.500000 0.798695
#
# Coordination Sequence:
#
# PCOD9182588 Si02
#       6
#     8   8   8   8   8   8
#     4  10  19  33  52  76 103 133 171 211 252 303
#     4   9  18  32  52  78 105 132 165 207 257 306
#     4   9  15  25  47  76 100 123 159 209 254 293
#     4   9  17  32  54  77 101 132 169 210 253 299
#     4  11  21  35  53  74 102 137 173 210 254 302
#     4   9  17  30  49  74  99 127 170 211 245 294
#
# _framework density 19.467611999999999
#
# number of rings (size 3 to 8) (size 9 to 14) (size 15 to 20)
#    0.000    2.500    1.667    1.500    0.000    4.667 
#    0.000    2.500    0.000    5.500    0.000    0.000 
#    0.000    0.000    0.000    0.000    0.000    0.000 
#
# Total GULP energy -133932.940580 kJ/mol
# GULP energy per Si atom -5580.539191 kJ/mol
# Density = 1.942330 g / cm^3
# Si number density = 19.467612 Si / 1000 Ang^3
#
#
#
# Elastic Constant Matrix: (Units=GPa)
#
#
# Indices 1 2 3 4 5 6 
#
# 1 169.6991 2.1376 114.8771 0.0018 20.9554 0.0057
# 2 2.1376 28.4157 6.8074 0.0119 0.3191 -0.0040
# 3 114.8771 6.8074 178.5117 0.0077 19.0472 -0.0022
# 4 0.0018 0.0119 0.0077 21.1725 -0.0065 -1.5979
# 5 20.9554 0.3191 19.0472 -0.0065 29.6425 0.0017
# 6 0.0057 -0.0040 -0.0022 -1.5979 0.0017 18.8806
#
#
#
# Elastic Compliance Matrix: (Units=1/GPa)
#
#
# Indices 1 2 3 4 5 6 
#
# 1 0.010767 0.000809 -0.006599 0.000000 -0.003380 -0.000004
# 2 0.000809 0.035585 -0.001906 -0.000019 0.000270 0.000005
# 3 -0.006599 -0.001906 0.010115 -0.000002 -0.001814 0.000003
# 4 0.000000 -0.000019 -0.000002 0.047535 0.000012 0.004023
# 5 -0.003380 0.000270 -0.001814 0.000012 0.037287 -0.000001
# 6 -0.000004 0.000005 0.000003 0.004023 -0.000001 0.053305
#
#
# Mechanical properties :
#
#
# Convention : Reuss Voigt Hill
#
# Bulk Modulus (GPa) = 24.34660 69.36339 46.85500
# Shear Modulus (GPa) = 22.35349 30.79272 26.57311
#
# Velocity S-wave (km/s) = 3.39225 3.98143 3.69859
# Velocity P-wave (km/s) = 5.27982 7.53944 6.50844
#
# Compressibility (1/GPa) = 0.04107350
#
# Stress axis : x y z
#
# Youngs Moduli (GPa) = 92.87351 28.10198 98.86411
#
# Poissons Ratio (x) = -0.02273 0.65243
# Poissons Ratio (y) = -0.07513 0.18847
# Poissons Ratio (z) = 0.61290 0.05357
#
# Static dielectric constant tensor:
#      x y z
#    x 1.659930 0.000000 0.019140 
#    y 0.000000 1.743890 0.000000 
#    z 0.019140 0.000000 1.651490 
# 
# From -- ./inp_files/280790.got.cif
#   From: 2010.05.17/outbox.cif.g08.bks.cpg/sg12_141_cif.got.tgz:280790.got - 2010.06.03 13:09:07.
