data_PCOD9182554
_publ_section_title
;
Structure prediction by ZEFSAII (Michael W. Deem and Ramdas Pophale) SiO2 
 PCOD9182554
Probable space group: C 2/M
;
_chemical_formula_sum "Si O2"
_cell_formula_units_Z 48
_cell_length_a 12.279634
_cell_length_b 13.347293
_cell_length_c 15.291812
_cell_angle_alpha 90.000000
_cell_angle_beta 112.898516
_cell_angle_gamma 90.000000
_cell_volume 2308.816232
_symmetry_space_group_name_H-M "C 2/M"
_symmetry_group_IT_number 12
_symmetry_cell_setting 'monoclinic'
loop_
_space_group_symop_operation_xyz
x,y,z
-x,y,-z
-x,-y,-z
x,-y,z
1/2+x,1/2+y,z
1/2-x,1/2+y,-z
1/2-x,1/2-y,-z
1/2+x,1/2-y,z
loop_
_atom_site_type_symbol
_atom_site_label
_atom_site_fract_x
_atom_site_fract_y
_atom_site_fract_z
Si Si1 0.312661 0.885874 0.802123
Si Si2 0.969040 0.111930 0.268182
Si Si3 0.639038 0.117606 0.522696
Si Si4 0.427096 0.327295 0.065777
Si Si5 0.661074 0.237922 0.356742
Si Si6 0.656785 0.113072 0.984592
O O1 0.356075 0.810493 0.743077
O O2 0.358176 0.873043 0.915283
O O3 0.170540 0.874076 0.761750
O O4 0.338492 0.000000 0.784318
O O5 0.049264 0.191850 0.341510
O O6 0.985885 0.123694 0.168884
O O7 0.001091 0.000000 0.305603
O O8 0.500000 0.131617 0.500000
O O9 0.666545 0.152408 0.432004
O O10 0.723319 0.191313 0.604531
O O11 0.666352 0.000000 0.544421
O O12 0.297269 0.375692 0.012683
O O13 0.500000 0.338917 0.000000
O O14 0.403437 0.209154 0.077413
O O15 0.618866 0.000000 0.949260
#
# Coordination Sequence:
#
# PCOD9182554 Si02
#       6
#     8   8   8   8   8   8
#     4   9  18  34  54  76 104 136 173 216 255 294
#     4  10  21  35  52  77 106 135 172 218 258 296
#     4  10  22  38  55  79 109 134 161 206 260 310
#     4  10  19  33  52  74 104 140 176 214 259 302
#     4  11  20  35  59  79 100 136 174 205 250 314
#     4   9  19  34  51  74 105 139 176 218 257 296
#
# _framework density 20.789874000000001
#
# number of rings (size 3 to 8) (size 9 to 14) (size 15 to 20)
#    0.000    2.167    0.000    4.500    0.000    1.667 
#    0.000    1.667    0.000   14.000    0.000    0.000 
#    0.000    0.000    0.000    0.000    0.000    0.000 
#
# Total GULP energy -134112.722752 kJ/mol
# GULP energy per Si atom -5588.030115 kJ/mol
# Density = 2.074256 g / cm^3
# Si number density = 20.789874 Si / 1000 Ang^3
#
#
#
# Elastic Constant Matrix: (Units=GPa)
#
#
# Indices 1 2 3 4 5 6 
#
# 1 59.6579 29.9104 6.1283 0.0000 4.0750 0.0000
# 2 29.9104 113.9901 19.9596 0.0000 0.2611 0.0000
# 3 6.1283 19.9596 33.5074 0.0000 4.9958 0.0000
# 4 0.0000 0.0000 0.0000 16.8470 0.0000 -2.3102
# 5 4.0750 0.2611 4.9958 0.0000 26.2734 0.0000
# 6 0.0000 0.0000 0.0000 -2.3102 0.0000 21.7028
#
#
#
# Elastic Compliance Matrix: (Units=1/GPa)
#
#
# Indices 1 2 3 4 5 6 
#
# 1 0.019532 -0.005102 -0.000091 0.000000 -0.002961 0.000000
# 2 -0.005102 0.011155 -0.005983 0.000000 0.001818 0.000000
# 3 -0.000091 -0.005983 0.034388 0.000000 -0.006465 0.000000
# 4 0.000000 0.000000 0.000000 0.060237 0.000000 0.006412
# 5 -0.002961 0.001818 -0.006465 0.000000 0.039732 0.000000
# 6 0.000000 0.000000 0.000000 0.006412 0.000000 0.046760
#
#
# Mechanical properties :
#
#
# Convention : Reuss Voigt Hill
#
# Bulk Modulus (GPa) = 23.40673 35.46131 29.43402
# Shear Modulus (GPa) = 20.12902 23.04178 21.58540
#
# Velocity S-wave (km/s) = 3.11499 3.33275 3.22571
# Velocity P-wave (km/s) = 4.92145 5.64834 5.29738
#
# Compressibility (1/GPa) = 0.04272275
#
# Stress axis : x y z
#
# Youngs Moduli (GPa) = 51.19795 89.64670 29.07950
#
# Poissons Ratio (x) = 0.45741 0.00266
# Poissons Ratio (y) = 0.26123 0.17397
# Poissons Ratio (z) = 0.00468 0.53632
#
# Static dielectric constant tensor:
#      x y z
#    x 1.750640 0.000000 0.032860 
#    y 0.000000 1.741730 0.000000 
#    z 0.032860 0.000000 1.714640 
# 
# From -- ./inp_files/204284.got.cif
#   From: 2010.05.17/outbox.cif.g08.bks.cpg/sg12_103_cif.got.tgz:204284.got - 2010.06.03 13:09:07.
