data_PCOD9182583
_publ_section_title
;
Structure prediction by ZEFSAII (Michael W. Deem and Ramdas Pophale) SiO2 
 PCOD9182583
Probable space group: C 2/M
;
_chemical_formula_sum "Si O2"
_cell_formula_units_Z 56
_cell_length_a 15.291195
_cell_length_b 12.310658
_cell_length_c 17.987401
_cell_angle_alpha 90.000000
_cell_angle_beta 113.412981
_cell_angle_gamma 90.000000
_cell_volume 3107.242151
_symmetry_space_group_name_H-M "C 2/M"
_symmetry_group_IT_number 12
_symmetry_cell_setting 'monoclinic'
loop_
_space_group_symop_operation_xyz
x,y,z
-x,y,-z
-x,-y,-z
x,-y,z
1/2+x,1/2+y,z
1/2-x,1/2+y,-z
1/2-x,1/2-y,-z
1/2+x,1/2-y,z
loop_
_atom_site_type_symbol
_atom_site_label
_atom_site_fract_x
_atom_site_fract_y
_atom_site_fract_z
Si Si1 0.539377 0.271253 0.351317
Si Si2 0.165438 0.211222 0.525087
Si Si3 0.409394 0.372812 0.185907
Si Si4 0.689200 0.880243 0.321154
Si Si5 0.260008 0.246914 0.799787
Si Si6 0.124434 0.628147 0.641338
Si Si7 0.951126 0.870977 0.903999
O O1 0.583680 0.324247 0.440442
O O2 0.476570 0.350975 0.280229
O O3 0.621028 0.214743 0.329172
O O4 0.472127 0.173545 0.355684
O O5 0.250000 0.250000 0.500000
O O6 0.212808 0.128198 0.598686
O O7 0.134492 0.312386 0.565558
O O8 0.383893 0.500000 0.172496
O O9 0.317045 0.297227 0.167232
O O10 0.473598 0.343926 0.136000
O O11 0.711080 0.853591 0.243336
O O12 0.647694 0.000000 0.316827
O O13 0.207342 0.329405 0.724708
O O14 0.354065 0.303402 0.863027
O O15 0.126542 0.500000 0.634534
O O16 0.929784 0.000000 0.889856
O O17 0.000000 0.852568 0.000000
#
# Coordination Sequence:
#
# PCOD9182583 Si02
#       7
#     8   8   8   8   8   8   8
#     4  10  19  34  52  79 109 144 191 237 274 331
#     4   9  20  32  44  72 107 143 190 232 277 329
#     4  10  21  37  60  86 114 153 189 226 286 342
#     4  10  19  33  52  75 109 151 186 230 282 328
#     4  10  20  37  57  84 117 147 187 231 278 340
#     4  10  20  33  53  77 107 145 187 236 283 324
#     4  10  21  39  64  90 114 145 186 231 283 343
#
# _framework density 18.022413
#
# number of rings (size 3 to 8) (size 9 to 14) (size 15 to 20)
#    0.000    2.143    1.429    1.714    0.000    4.571 
#    0.000    0.000    0.000    6.857    0.000    0.000 
#    0.000    0.000    0.000    0.000    0.000    0.000 
#
# Total GULP energy -156145.307899 kJ/mol
# GULP energy per Si atom -5576.618139 kJ/mol
# Density = 1.798139 g / cm^3
# Si number density = 18.022413 Si / 1000 Ang^3
#
#
#
# Elastic Constant Matrix: (Units=GPa)
#
#
# Indices 1 2 3 4 5 6 
#
# 1 111.8419 34.8079 58.1083 0.0000 -1.6691 0.0000
# 2 34.8079 41.6011 24.3598 0.0000 -5.3180 0.0000
# 3 58.1083 24.3598 101.4570 0.0000 1.5297 0.0000
# 4 0.0000 0.0000 0.0000 4.3652 0.0000 -1.9327
# 5 -1.6691 -5.3180 1.5297 0.0000 20.9023 0.0000
# 6 0.0000 0.0000 0.0000 -1.9327 0.0000 21.0772
#
#
#
# Elastic Compliance Matrix: (Units=1/GPa)
#
#
# Indices 1 2 3 4 5 6 
#
# 1 0.015068 -0.008883 -0.006489 0.000000 -0.000582 0.000000
# 2 -0.008883 0.034472 -0.003315 0.000000 0.008304 0.000000
# 3 -0.006489 -0.003315 0.014405 0.000000 -0.002416 0.000000
# 4 0.000000 0.000000 0.000000 0.238782 0.000000 0.021896
# 5 -0.000582 0.008304 -0.002416 0.000000 0.050085 0.000000
# 6 0.000000 0.000000 0.000000 0.021896 0.000000 0.049452
#
#
# Mechanical properties :
#
#
# Convention : Reuss Voigt Hill
#
# Bulk Modulus (GPa) = 37.63101 54.38355 46.00728
# Shear Modulus (GPa) = 11.14842 18.44387 14.79614
#
# Velocity S-wave (km/s) = 2.48984 3.20251 2.86839
# Velocity P-wave (km/s) = 5.40289 6.62690 6.04595
#
# Compressibility (1/GPa) = 0.02657383
#
# Stress axis : x y z
#
# Youngs Moduli (GPa) = 66.36494 29.00878 69.42061
#
# Poissons Ratio (x) = 0.25767 0.45045
# Poissons Ratio (y) = 0.58949 0.23010
# Poissons Ratio (z) = 0.43062 0.09615
#
# Static dielectric constant tensor:
#      x y z
#    x 1.653880 0.000000 0.008410 
#    y 0.000000 1.595800 0.000000 
#    z 0.008410 0.000000 1.616440 
# 
# From -- ./inp_files/268626.got.cif
#   From: 2010.05.17/outbox.cif.g08.bks.cpg/sg12_135_cif.got.tgz:268626.got - 2010.06.03 13:09:07.
