data_PCOD9182522
_publ_section_title
;
Structure prediction by ZEFSAII (Michael W. Deem and Ramdas Pophale) SiO2 
 PCOD9182522
Probable space group: C 2/M
;
_chemical_formula_sum "Si O2"
_cell_formula_units_Z 64
_cell_length_a 30.685380
_cell_length_b 8.734086
_cell_length_c 15.332307
_cell_angle_alpha 90.000000
_cell_angle_beta 78.611986
_cell_angle_gamma 90.000000
_cell_volume 4028.292684
_symmetry_space_group_name_H-M "C 2/M"
_symmetry_group_IT_number 12
_symmetry_cell_setting 'monoclinic'
loop_
_space_group_symop_operation_xyz
x,y,z
-x,y,-z
-x,-y,-z
x,-y,z
1/2+x,1/2+y,z
1/2-x,1/2+y,-z
1/2-x,1/2-y,-z
1/2+x,1/2-y,z
loop_
_atom_site_type_symbol
_atom_site_label
_atom_site_fract_x
_atom_site_fract_y
_atom_site_fract_z
Si Si1 0.209550 0.315544 0.198640
Si Si2 0.684023 0.682139 0.584320
Si Si3 0.355603 0.682355 0.918900
Si Si4 0.811980 0.183697 0.123222
Si Si5 0.459056 0.317206 0.124672
Si Si6 0.375573 0.818614 0.246619
Si Si7 0.784288 0.683733 0.603917
Si Si8 0.053223 0.317426 0.063002
O O1 0.205583 0.500000 0.192678
O O2 0.174803 0.236984 0.148471
O O3 0.260209 0.275247 0.152635
O O4 0.203218 0.274118 0.302617
O O5 0.678159 0.500000 0.592859
O O6 0.646261 0.765584 0.654328
O O7 0.732177 0.720453 0.608077
O O8 0.688061 0.734815 0.482811
O O9 0.362294 0.500000 0.913286
O O10 0.403021 0.765405 0.903458
O O11 0.330412 0.718353 0.019862
O O12 0.841483 0.266423 0.184137
O O13 0.815877 0.000000 0.136431
O O14 0.461383 0.500000 0.119792
O O15 0.422137 0.262699 0.207205
O O16 0.507729 0.247394 0.121604
O O17 0.444535 0.254321 0.035153
O O18 0.381284 0.000000 0.241673
O O19 0.788559 0.500000 0.592606
O O20 0.050810 0.500000 0.056712
#
# Coordination Sequence:
#
# PCOD9182522 Si02
#       8
#     8   8   8   8   8   8   8   8
#     4  10  20  35  52  71 102 141 179 219 259 300
#     4  10  19  33  52  73 102 135 168 214 263 311
#     4  11  22  34  51  74 103 141 181 217 255 302
#     4  10  20  35  50  69 103 142 178 217 255 299
#     4  11  21  35  54  75 103 135 168 211 262 308
#     4  12  22  32  51  78 105 137 174 211 254 312
#     4   9  18  33  51  73 100 134 173 216 260 306
#     4  11  21  35  53  76 102 133 173 214 257 305
#
# _framework density 15.887623
#
# number of rings (size 3 to 8) (size 9 to 14) (size 15 to 20)
#    0.000    1.500    2.500    5.250    0.000    2.000 
#    0.000    0.000    0.000    0.000    0.000    0.875 
#    0.000    7.000    0.000    0.000    0.000    0.000 
#
# Total GULP energy -178767.230283 kJ/mol
# GULP energy per Si atom -5586.475946 kJ/mol
# Density = 1.585146 g / cm^3
# Si number density = 15.887623 Si / 1000 Ang^3
#
#
#
# Elastic Constant Matrix: (Units=GPa)
#
#
# Indices 1 2 3 4 5 6 
#
# 1 100.8265 51.4447 57.4893 0.0000 -10.2188 0.0000
# 2 51.4447 88.6989 48.2014 0.0000 -6.5931 0.0000
# 3 57.4893 48.2014 90.1922 0.0000 -10.3203 0.0000
# 4 0.0000 0.0000 0.0000 24.2386 0.0000 1.0340
# 5 -10.2188 -6.5931 -10.3203 0.0000 21.1635 0.0000
# 6 0.0000 0.0000 0.0000 1.0340 0.0000 26.2205
#
#
#
# Elastic Compliance Matrix: (Units=1/GPa)
#
#
# Indices 1 2 3 4 5 6 
#
# 1 0.017600 -0.005745 -0.007817 0.000000 0.002897 0.000000
# 2 -0.005745 0.017778 -0.005850 0.000000 -0.000088 0.000000
# 3 -0.007817 -0.005850 0.019652 0.000000 0.003987 0.000000
# 4 0.000000 0.000000 0.000000 0.041326 0.000000 -0.001630
# 5 0.002897 -0.000088 0.003987 0.000000 0.050567 0.000000
# 6 0.000000 0.000000 0.000000 -0.001630 0.000000 0.038202
#
#
# Mechanical properties :
#
#
# Convention : Reuss Voigt Hill
#
# Bulk Modulus (GPa) = 61.69638 65.99873 63.84756
# Shear Modulus (GPa) = 21.80081 22.49666 22.14873
#
# Velocity S-wave (km/s) = 3.70832 3.76704 3.73780
# Velocity P-wave (km/s) = 7.56656 7.78151 7.67479
#
# Compressibility (1/GPa) = 0.01620841
#
# Stress axis : x y z
#
# Youngs Moduli (GPa) = 56.81979 56.24863 50.88489
#
# Poissons Ratio (x) = 0.32312 0.39775
# Poissons Ratio (y) = 0.32640 0.29766
# Poissons Ratio (z) = 0.44414 0.32903
#
# Static dielectric constant tensor:
#      x y z
#    x 1.515810 0.000000 -0.013120 
#    y 0.000000 1.532060 0.000000 
#    z -0.013120 0.000000 1.517330 
# 
# From -- ./inp_files/248283.got.cif
#   From: 2010.05.17/outbox.cif.g08.bks.cpg/sg12_125_cif.got.tgz:248283.got - 2010.06.03 13:09:07.
