data_PCOD9182471
_publ_section_title
;
Structure prediction by ZEFSAII (Michael W. Deem and Ramdas Pophale) SiO2 
 PCOD9182471
Probable space group: C 2/M
;
_chemical_formula_sum "Si O2"
_cell_formula_units_Z 56
_cell_length_a 8.581760
_cell_length_b 17.290383
_cell_length_c 29.130443
_cell_angle_alpha 90.000000
_cell_angle_beta 44.063681
_cell_angle_gamma 90.000000
_cell_volume 3006.066813
_symmetry_space_group_name_H-M "C 2/M"
_symmetry_group_IT_number 12
_symmetry_cell_setting 'monoclinic'
loop_
_space_group_symop_operation_xyz
x,y,z
-x,y,-z
-x,-y,-z
x,-y,z
1/2+x,1/2+y,z
1/2-x,1/2+y,-z
1/2-x,1/2-y,-z
1/2+x,1/2-y,z
loop_
_atom_site_type_symbol
_atom_site_label
_atom_site_fract_x
_atom_site_fract_y
_atom_site_fract_z
Si Si1 0.803421 0.678603 0.337470
Si Si2 0.385700 0.692658 0.774281
Si Si3 0.767855 0.589705 0.437891
Si Si4 0.061394 0.309848 0.437548
Si Si5 0.050085 0.212613 0.137460
Si Si6 0.496783 0.409283 0.667511
Si Si7 0.519360 0.299145 0.045086
O O1 0.853717 0.633725 0.374011
O O2 0.613482 0.740939 0.391623
O O3 0.703328 0.618142 0.322988
O O4 0.994241 0.731536 0.273774
O O5 0.479134 0.677947 0.805571
O O6 0.437154 0.621190 0.730704
O O7 0.123800 0.715725 0.829577
O O8 0.500000 0.591050 0.500000
O O9 0.838446 0.500000 0.421888
O O10 0.870563 0.634910 0.458831
O O11 0.283179 0.362081 0.393728
O O12 0.000000 0.277499 0.500000
O O13 0.304878 0.243015 0.085656
O O14 0.007337 0.165070 0.099222
O O15 0.533364 0.500000 0.657322
O O16 0.500000 0.343656 0.000000
O O17 0.750000 0.250000 0.000000
#
# Coordination Sequence:
#
# PCOD9182471 Si02
#       7
#     8   8   8   8   8   8   8
#     4  11  22  37  56  75 103 137 182 218 272 325
#     4  10  19  33  51  77 104 150 182 216 260 320
#     4  11  24  39  55  76 102 132 170 223 283 330
#     4  11  23  39  58  78  99 131 176 224 278 340
#     4   9  16  28  49  76 113 148 179 213 255 307
#     4  11  23  37  54  76 105 138 178 229 274 318
#     4   8  14  25  45  79 119 147 167 212 268 303
#
# _framework density 18.628993000000001
#
# number of rings (size 3 to 8) (size 9 to 14) (size 15 to 20)
#    0.000    1.857    1.429    3.857    2.000    4.000 
#    0.000    0.000    0.000    0.000    0.000    0.000 
#    0.000   72.000    0.000    0.000    0.000    0.000 
#
# Total GULP energy -156052.264873 kJ/mol
# GULP energy per Si atom -5573.295174 kJ/mol
# Density = 1.858659 g / cm^3
# Si number density = 18.628993 Si / 1000 Ang^3
#
#
#
# Elastic Constant Matrix: (Units=GPa)
#
#
# Indices 1 2 3 4 5 6 
#
# 1 100.4748 8.7157 32.5406 0.0044 22.4111 -0.0091
# 2 8.7157 65.7280 9.6264 -0.0003 6.3350 -0.0011
# 3 32.5406 9.6264 74.3231 0.0065 14.9378 -0.0184
# 4 0.0044 -0.0003 0.0065 11.4193 -0.0032 -23.1082
# 5 22.4111 6.3350 14.9378 -0.0032 47.8321 0.0063
# 6 -0.0091 -0.0011 -0.0184 -23.1082 0.0063 65.0506
#
#
#
# Elastic Compliance Matrix: (Units=1/GPa)
#
#
# Indices 1 2 3 4 5 6 
#
# 1 0.012426 -0.000571 -0.004494 -0.000006 -0.004343 -0.000001
# 2 -0.000571 0.015639 -0.001508 0.000003 -0.001333 0.000001
# 3 -0.004494 -0.001508 0.016169 0.000000 -0.002744 0.000004
# 4 -0.000006 0.000003 0.000000 0.311482 0.000009 0.110649
# 5 -0.004343 -0.001333 -0.002744 0.000009 0.023975 -0.000001
# 6 -0.000001 0.000001 0.000004 0.110649 -0.000001 0.054679
#
#
# Mechanical properties :
#
#
# Convention : Reuss Voigt Hill
#
# Bulk Modulus (GPa) = 32.16489 38.03237 35.09863
# Shear Modulus (GPa) = 10.91990 37.50331 24.21161
#
# Velocity S-wave (km/s) = 2.42374 4.49170 3.60901
# Velocity P-wave (km/s) = 5.01360 6.88190 6.02066
#
# Compressibility (1/GPa) = 0.03108980
#
# Stress axis : x y z
#
# Youngs Moduli (GPa) = 80.47375 63.94183 61.84644
#
# Poissons Ratio (x) = 0.03651 0.27792
# Poissons Ratio (y) = 0.04595 0.09325
# Poissons Ratio (z) = 0.36163 0.09641
#
# Static dielectric constant tensor:
#      x y z
#    x 1.686770 0.000000 0.033070 
#    y 0.000000 1.585890 0.000000 
#    z 0.033070 0.000000 1.724480 
# 
# From -- ./inp_files/300465.got.cif
#   From: 2010.05.17/outbox.cif.g08.bks.cpg/sg12_151_cif.got.tgz:300465.got - 2010.06.03 13:09:07.
