data_PCOD9182687
_publ_section_title
;
Structure prediction by ZEFSAII (Michael W. Deem and Ramdas Pophale) SiO2 
 PCOD9182687
Probable space group: C 2/M
;
_chemical_formula_sum "Si O2"
_cell_formula_units_Z 48
_cell_length_a 14.886220
_cell_length_b 13.501662
_cell_length_c 13.208931
_cell_angle_alpha 90.000000
_cell_angle_beta 108.080326
_cell_angle_gamma 90.000000
_cell_volume 2523.755969
_symmetry_space_group_name_H-M "C 2/M"
_symmetry_group_IT_number 12
_symmetry_cell_setting 'monoclinic'
loop_
_space_group_symop_operation_xyz
x,y,z
-x,y,-z
-x,-y,-z
x,-y,z
1/2+x,1/2+y,z
1/2-x,1/2+y,-z
1/2-x,1/2-y,-z
1/2+x,1/2-y,z
loop_
_atom_site_type_symbol
_atom_site_label
_atom_site_fract_x
_atom_site_fract_y
_atom_site_fract_z
Si Si1 0.104693 0.618945 0.072923
Si Si2 0.116798 0.745892 0.273760
Si Si3 0.273789 0.881048 0.265976
Si Si4 0.495208 0.115084 0.377265
Si Si5 0.768237 0.119564 0.979801
Si Si6 0.471798 0.615244 0.108459
O O1 0.106359 0.500000 0.081446
O O2 0.130198 0.666119 0.188782
O O3 0.178309 0.650606 0.012833
O O4 0.000000 0.648085 0.000000
O O5 0.211815 0.811551 0.318134
O O6 0.070194 0.687705 0.350862
O O7 0.038422 0.820600 0.201703
O O8 0.386282 0.863336 0.308714
O O9 0.237015 0.854921 0.140158
O O10 0.259130 0.000000 0.278256
O O11 0.500000 0.121782 0.500000
O O12 0.514071 0.000000 0.354368
O O13 0.768268 0.000000 0.978459
O O14 0.863209 0.147280 0.071335
O O15 0.480217 0.500000 0.140144
O O16 0.500000 0.621491 0.000000
#
# Coordination Sequence:
#
# PCOD9182687 Si02
#       6
#     8   8   8   8   8   8
#     4  10  21  34  48  77 120 157 190 232 276 329
#     4  12  22  33  61  88 113 147 200 243 285 341
#     4  10  21  38  61  87 116 154 195 236 285 350
#     4  10  24  46  65  81 109 150 197 253 312 359
#     4   9  18  33  52  76 117 159 185 214 266 336
#     4  10  19  33  52  83 124 159 187 218 268 340
#
# _framework density 19.019271
#
# number of rings (size 3 to 8) (size 9 to 14) (size 15 to 20)
#    0.000    1.833    1.667    2.500    2.333    4.000 
#    0.000    0.000    0.000    2.000    0.000    0.000 
#    0.000    0.000    0.000    0.000    0.000    0.000 
#
# Total GULP energy -134079.384275 kJ/mol
# GULP energy per Si atom -5586.641011 kJ/mol
# Density = 1.897598 g / cm^3
# Si number density = 19.019271 Si / 1000 Ang^3
#
#
#
# Elastic Constant Matrix: (Units=GPa)
#
#
# Indices 1 2 3 4 5 6 
#
# 1 107.9041 28.5220 6.2464 0.0000 -24.1500 0.0000
# 2 28.5220 102.9641 13.4939 0.0000 -18.2407 0.0000
# 3 6.2464 13.4939 28.3034 0.0000 -12.3959 0.0000
# 4 0.0000 0.0000 0.0000 17.6844 0.0000 -5.5743
# 5 -24.1500 -18.2407 -12.3959 0.0000 19.8957 0.0000
# 6 0.0000 0.0000 0.0000 -5.5743 0.0000 21.6158
#
#
#
# Elastic Compliance Matrix: (Units=1/GPa)
#
#
# Indices 1 2 3 4 5 6 
#
# 1 0.013475 -0.001142 0.005880 0.000000 0.018974 0.000000
# 2 -0.001142 0.011722 -0.001701 0.000000 0.008301 0.000000
# 3 0.005880 -0.001701 0.051281 0.000000 0.037529 0.000000
# 4 0.000000 0.000000 0.000000 0.061550 0.000000 0.015873
# 5 0.018974 0.008301 0.037529 0.000000 0.104285 0.000000
# 6 0.000000 0.000000 0.000000 0.015873 0.000000 0.050356
#
#
# Mechanical properties :
#
#
# Convention : Reuss Voigt Hill
#
# Bulk Modulus (GPa) = 12.11350 37.29957 24.70654
# Shear Modulus (GPa) = 15.91786 24.56647 20.24217
#
# Velocity S-wave (km/s) = 2.89612 3.59787 3.26590
# Velocity P-wave (km/s) = 4.19121 6.07566 5.21919
#
# Compressibility (1/GPa) = 0.08255252
#
# Stress axis : x y z
#
# Youngs Moduli (GPa) = 74.20893 85.30995 19.50040
#
# Poissons Ratio (x) = 0.09744 -0.11467
# Poissons Ratio (y) = 0.08476 0.03317
# Poissons Ratio (z) = -0.43637 0.14512
#
# Static dielectric constant tensor:
#      x y z
#    x 1.702300 0.000000 -0.004080 
#    y 0.000000 1.712480 0.000000 
#    z -0.004080 0.000000 1.611410 
# 
# From -- ./inp_files/143119.got.cif
#   From: 2010.05.17/outbox.cif.g08.bks.cpg/sg12_72_cif.got.tgz:143119.got - 2010.06.03 13:09:07.
