data_PCOD9182266
_publ_section_title
;
Structure prediction by ZEFSAII (Michael W. Deem and Ramdas Pophale) SiO2 
 PCOD9182266
Probable space group: C 2/M
;
_chemical_formula_sum "Si O2"
_cell_formula_units_Z 48
_cell_length_a 11.203330
_cell_length_b 24.229449
_cell_length_c 7.695579
_cell_angle_alpha 90.000000
_cell_angle_beta 82.237666
_cell_angle_gamma 90.000000
_cell_volume 2069.827321
_symmetry_space_group_name_H-M "C 2/M"
_symmetry_group_IT_number 12
_symmetry_cell_setting 'monoclinic'
loop_
_space_group_symop_operation_xyz
x,y,z
-x,y,-z
-x,-y,-z
x,-y,z
1/2+x,1/2+y,z
1/2-x,1/2+y,-z
1/2-x,1/2-y,-z
1/2+x,1/2-y,z
loop_
_atom_site_type_symbol
_atom_site_label
_atom_site_fract_x
_atom_site_fract_y
_atom_site_fract_z
Si Si1 0.861171 0.279543 0.574079
Si Si2 0.775101 0.600025 0.558666
Si Si3 0.457734 0.939253 0.772399
Si Si4 0.227630 0.403877 0.803844
Si Si5 0.376672 0.179311 0.946670
Si Si6 0.375246 0.436637 0.098186
O O1 0.750000 0.250000 0.500000
O O2 0.845235 0.342759 0.516686
O O3 0.840682 0.284398 0.787718
O O4 0.000000 0.262267 0.500000
O O5 0.882373 0.560938 0.607521
O O6 0.705555 0.590493 0.392765
O O7 0.680746 0.598609 0.735348
O O8 0.599374 0.929447 0.770233
O O9 0.410354 0.882070 0.866357
O O10 0.430859 0.000000 0.851182
O O11 0.210751 0.341036 0.881033
O O12 0.289476 0.435686 0.947639
O O13 0.500000 0.203042 0.000000
O O14 0.390052 0.500000 0.155403
O O15 0.500000 0.414433 0.000000
#
# Coordination Sequence:
#
# PCOD9182266 Si02
#       6
#     8   8   8   8   8   8
#     4  11  23  46  74 105 140 181 235 301 374 436
#     4  11  23  42  68  94 138 180 228 293 355 416
#     4  10  19  32  58  99 135 172 221 270 333 414
#     4  11  21  38  63  95 135 182 224 280 344 410
#     4   9  19  37  64  95 142 177 223 286 360 416
#     4  11  25  43  62  94 141 193 243 286 336 417
#
# _framework density 23.190342000000001
#
# number of rings (size 3 to 8) (size 9 to 14) (size 15 to 20)
#    0.000    1.500    3.333    4.500    0.000    7.000 
#    3.000    5.000    0.000    0.000    0.000    0.000 
#    0.000    0.000    0.000    0.000    0.000    0.000 
#
# Total GULP energy -133687.377270 kJ/mol
# GULP energy per Si atom -5570.307386 kJ/mol
# Density = 2.313756 g / cm^3
# Si number density = 23.190342 Si / 1000 Ang^3
#
#
#
# Elastic Constant Matrix: (Units=GPa)
#
#
# Indices 1 2 3 4 5 6 
#
# 1 120.4443 33.6676 54.0410 0.0000 -10.1346 0.0000
# 2 33.6676 65.4047 24.6743 0.0000 16.7292 0.0000
# 3 54.0410 24.6743 192.0072 0.0000 17.2096 0.0000
# 4 0.0000 0.0000 0.0000 17.2607 0.0000 11.0164
# 5 -10.1346 16.7292 17.2096 0.0000 31.5678 0.0000
# 6 0.0000 0.0000 0.0000 11.0164 0.0000 22.8459
#
#
#
# Elastic Compliance Matrix: (Units=1/GPa)
#
#
# Indices 1 2 3 4 5 6 
#
# 1 0.013009 -0.008003 -0.003562 0.000000 0.010359 0.000000
# 2 -0.008003 0.023034 0.000648 0.000000 -0.015130 0.000000
# 3 -0.003562 0.000648 0.006582 0.000000 -0.005075 0.000000
# 4 0.000000 0.000000 0.000000 0.083692 0.000000 -0.040357
# 5 0.010359 -0.015130 -0.005075 0.000000 0.045788 0.000000
# 6 0.000000 0.000000 0.000000 -0.040357 0.000000 0.063232
#
#
# Mechanical properties :
#
#
# Convention : Reuss Voigt Hill
#
# Bulk Modulus (GPa) = 48.09136 66.95802 57.52469
# Shear Modulus (GPa) = 18.93217 32.03310 25.48264
#
# Velocity S-wave (km/s) = 2.86034 3.72063 3.31848
# Velocity P-wave (km/s) = 5.62951 6.88429 6.28827
#
# Compressibility (1/GPa) = 0.02079375
#
# Stress axis : x y z
#
# Youngs Moduli (GPa) = 76.86846 43.41389 151.92635
#
# Poissons Ratio (x) = 0.34743 0.54110
# Poissons Ratio (y) = 0.61515 -0.09851
# Poissons Ratio (z) = 0.27377 -0.02815
#
# Static dielectric constant tensor:
#      x y z
#    x 1.930180 0.000000 -0.077380 
#    y 0.000000 1.870110 0.000000 
#    z -0.077380 0.000000 2.096820 
# 
# From -- ./inp_files/50725.got.cif
#   From: 2010.05.17/outbox.cif.g08.bks.cpg/sg12_26_cif.got.tgz:50725.got - 2010.06.03 13:09:07.
