data_PCOD9182826
_publ_section_title
;
Structure prediction by ZEFSAII (Michael W. Deem and Ramdas Pophale) SiO2 
 PCOD9182826
Probable space group: C 2/M
;
_chemical_formula_sum "Si O2"
_cell_formula_units_Z 58
_cell_length_a 25.243945
_cell_length_b 8.099148
_cell_length_c 23.394556
_cell_angle_alpha 90.000000
_cell_angle_beta 142.306525
_cell_angle_gamma 90.000000
_cell_volume 2924.576819
_symmetry_space_group_name_H-M "C 2/M"
_symmetry_group_IT_number 12
_symmetry_cell_setting 'monoclinic'
loop_
_space_group_symop_operation_xyz
x,y,z
-x,y,-z
-x,-y,-z
x,-y,z
1/2+x,1/2+y,z
1/2-x,1/2+y,-z
1/2-x,1/2-y,-z
1/2+x,1/2-y,z
loop_
_atom_site_type_symbol
_atom_site_label
_atom_site_fract_x
_atom_site_fract_y
_atom_site_fract_z
Si Si1 0.584331 0.699232 0.889631
Si Si2 0.570106 0.683016 0.450266
Si Si3 0.100678 0.199708 0.223105
Si Si4 0.412143 0.297552 0.239533
Si Si5 0.219653 0.698429 0.096276
Si Si6 0.251786 0.306231 0.566991
Si Si7 0.402029 0.199181 0.905912
Si Si8 0.500000 0.500000 0.500000
O O1 0.586203 0.500000 0.892501
O O2 0.497099 0.757303 0.846967
O O3 0.579398 0.749616 0.819395
O O4 0.668795 0.760812 0.994801
O O5 0.587708 0.500000 0.439167
O O6 0.492215 0.758924 0.346586
O O7 0.660906 0.773080 0.521103
O O8 0.535921 0.641561 0.484665
O O9 0.168565 0.264560 0.327901
O O10 0.126370 0.252526 0.181604
O O11 0.099150 0.000000 0.223710
O O12 0.412021 0.500000 0.242524
O O13 0.318077 0.240644 0.180531
O O14 0.223414 0.500000 0.104160
O O15 0.162072 0.761958 0.099732
O O16 0.266126 0.500000 0.577476
O O17 0.250000 0.250000 0.500000
O O18 0.403835 0.000000 0.911046
O O19 0.500000 0.260221 0.000000
#
# Coordination Sequence:
#
# PCOD9182826 Si02
#       8
#     8   8   8   8   8   8   8   2
#     4  10  19  33  53  76 107 148 187 228 278 342
#     4   9  19  39  61  87 116 153 206 250 302 364
#     4  10  22  37  56  82 113 155 194 232 297 358
#     4   9  18  34  56  79 108 146 189 235 284 343
#     4  10  20  34  53  79 111 147 186 235 284 338
#     4  11  23  40  62  92 125 159 203 258 315 369
#     4  10  20  35  54  81 115 147 187 242 289 343
#     4   8  20  36  70  88 112 158 210 244 312 368
#
# _framework density 19.83193
#
# number of rings (size 3 to 8) (size 9 to 14) (size 15 to 20)
#    0.414    1.793    1.379    1.655    0.000    5.241 
#    2.483    3.103    0.000    0.000    0.000    0.000 
#    0.000    0.000    0.000    0.000    0.000    0.000 
#
# Total GULP energy -161492.657118 kJ/mol
# GULP energy per Si atom -5568.712314 kJ/mol
# Density = 1.978679 g / cm^3
# Si number density = 19.831930 Si / 1000 Ang^3
#
#
#
# Elastic Constant Matrix: (Units=GPa)
#
#
# Indices 1 2 3 4 5 6 
#
# 1 70.3148 -2.3917 -8.4899 0.0000 -6.8855 0.0000
# 2 -2.3917 5.1680 -5.4531 0.0000 0.0377 0.0000
# 3 -8.4899 -5.4531 66.7914 0.0000 2.6912 0.0000
# 4 0.0000 0.0000 0.0000 22.6281 0.0000 -2.7323
# 5 -6.8855 0.0377 2.6912 0.0000 27.9881 0.0000
# 6 0.0000 0.0000 0.0000 -2.7323 0.0000 10.0164
#
#
#
# Elastic Compliance Matrix: (Units=1/GPa)
#
#
# Indices 1 2 3 4 5 6 
#
# 1 0.015206 0.009743 0.002588 0.000000 0.003479 0.000000
# 2 0.009743 0.218087 0.019033 0.000000 0.000273 -0.000001
# 3 0.002588 0.019033 0.016896 0.000000 -0.001013 0.000000
# 4 0.000000 0.000000 0.000000 0.045698 0.000000 0.012466
# 5 0.003479 0.000273 -0.001013 0.000000 0.036682 0.000000
# 6 0.000000 -0.000001 0.000000 0.012466 0.000000 0.103236
#
#
# Mechanical properties :
#
#
# Convention : Reuss Voigt Hill
#
# Bulk Modulus (GPa) = 3.19574 12.17831 7.68702
# Shear Modulus (GPa) = 10.47374 22.70045 16.58710
#
# Velocity S-wave (km/s) = 2.30059 3.38693 2.89517
# Velocity P-wave (km/s) = 2.94480 4.63132 3.88078
#
# Compressibility (1/GPa) = 0.31291667
#
# Stress axis : x y z
#
# Youngs Moduli (GPa) = 65.76209 4.58532 59.18659
#
# Poissons Ratio (x) = -0.04467 -0.15318
# Poissons Ratio (y) = -0.64070 -1.12649
# Poissons Ratio (z) = -0.17020 -0.08727
#
# Static dielectric constant tensor:
#      x y z
#    x 1.688380 0.000000 0.014880 
#    y 0.000000 1.720730 0.000000 
#    z 0.014880 0.000000 1.716090 
# 
# From -- ./inp_files/351505.got.cif
#   From: 2010.05.17/outbox.cif.g08.bks.cpg/sg12_176_cif.got.tgz:351505.got - 2010.06.03 13:09:07.
