data_PCOD9182838
_publ_section_title
;
Structure prediction by ZEFSAII (Michael W. Deem and Ramdas Pophale) SiO2 
 PCOD9182838
Probable space group: C 2/M
;
_chemical_formula_sum "Si O2"
_cell_formula_units_Z 64
_cell_length_a 20.526231
_cell_length_b 9.608225
_cell_length_c 17.722298
_cell_angle_alpha 90.000000
_cell_angle_beta 66.013415
_cell_angle_gamma 90.000000
_cell_volume 3193.359643
_symmetry_space_group_name_H-M "C 2/M"
_symmetry_group_IT_number 12
_symmetry_cell_setting 'monoclinic'
loop_
_space_group_symop_operation_xyz
x,y,z
-x,y,-z
-x,-y,-z
x,-y,z
1/2+x,1/2+y,z
1/2-x,1/2+y,-z
1/2-x,1/2-y,-z
1/2+x,1/2-y,z
loop_
_atom_site_type_symbol
_atom_site_label
_atom_site_fract_x
_atom_site_fract_y
_atom_site_fract_z
Si Si1 0.447491 0.159348 0.212628
Si Si2 0.191094 0.160075 0.987662
Si Si3 0.887183 0.337068 0.702212
Si Si4 0.334669 0.160943 0.403832
Si Si5 0.348275 0.662631 0.163287
Si Si6 0.462604 0.165224 0.443234
Si Si7 0.913495 0.838069 0.826670
Si Si8 0.266756 0.161820 0.647066
O O1 0.389989 0.158235 0.307326
O O2 0.408764 0.231328 0.160609
O O3 0.512743 0.257164 0.202649
O O4 0.469898 0.000000 0.189083
O O5 0.123039 0.169701 0.074438
O O6 0.214569 0.000000 0.975313
O O7 0.250000 0.250000 0.000000
O O8 0.177065 0.199886 0.908231
O O9 0.870575 0.500000 0.725315
O O10 0.971821 0.327164 0.646500
O O11 0.869520 0.240791 0.781662
O O12 0.842841 0.298167 0.647751
O O13 0.386914 0.216341 0.446119
O O14 0.268241 0.250474 0.404294
O O15 0.314199 0.000000 0.428147
O O16 0.372211 0.500000 0.151502
O O17 0.286196 0.671604 0.255514
O O18 0.500000 0.226857 0.500000
O O19 0.449831 0.000000 0.463557
O O20 0.922219 0.000000 0.802431
O O21 0.270347 0.000000 0.622979
#
# Coordination Sequence:
#
# PCOD9182838 Si02
#       8
#     8   8   8   8   8   8   8   8
#     4  10  19  33  53  77 101 134 178 220 261 311
#     4  10  22  37  52  72 102 139 179 220 269 320
#     4  10  19  35  56  80 107 137 182 225 260 316
#     4   9  17  32  53  77 105 137 175 216 258 311
#     4   9  18  34  51  71 101 137 175 216 267 316
#     4   9  17  32  56  82 106 137 177 219 264 315
#     4  11  22  34  52  78 106 138 174 219 271 316
#     4   9  18  31  53  78 102 138 176 216 262 309
#
# _framework density 20.041588000000001
#
# number of rings (size 3 to 8) (size 9 to 14) (size 15 to 20)
#    0.000    2.375    1.250    1.500    0.000    4.000 
#    0.000    5.625    0.000    1.500    0.000    0.000 
#    0.000    0.000    0.000    0.000    0.000    0.000 
#
# Total GULP energy -178529.641746 kJ/mol
# GULP energy per Si atom -5579.051305 kJ/mol
# Density = 1.999597 g / cm^3
# Si number density = 20.041588 Si / 1000 Ang^3
#
#
#
# Elastic Constant Matrix: (Units=GPa)
#
#
# Indices 1 2 3 4 5 6 
#
# 1 116.1853 50.3765 36.5698 0.0000 31.0954 0.0000
# 2 50.3765 62.6276 43.8475 0.0000 15.0844 -0.0001
# 3 36.5698 43.8475 105.1695 0.0000 36.7537 0.0000
# 4 0.0000 0.0000 0.0000 9.7899 0.0000 11.6416
# 5 31.0954 15.0844 36.7537 0.0000 32.6488 0.0000
# 6 0.0000 -0.0001 0.0000 11.6416 0.0000 32.3422
#
#
#
# Elastic Compliance Matrix: (Units=1/GPa)
#
#
# Indices 1 2 3 4 5 6 
#
# 1 0.017138 -0.013663 0.005333 0.000000 -0.016014 0.000000
# 2 -0.013663 0.033443 -0.013749 0.000000 0.013039 0.000000
# 3 0.005333 -0.013749 0.021335 0.000000 -0.022744 0.000000
# 4 0.000000 0.000000 0.000000 0.178588 0.000000 -0.064283
# 5 -0.016014 0.013039 -0.022744 0.000000 0.065461 0.000000
# 6 0.000000 0.000000 0.000000 -0.064283 0.000000 0.054058
#
#
# Mechanical properties :
#
#
# Convention : Reuss Voigt Hill
#
# Bulk Modulus (GPa) = 36.02369 60.61888 48.32128
# Shear Modulus (GPa) = 11.80828 25.16876 18.48852
#
# Velocity S-wave (km/s) = 2.42995 3.54761 3.04058
# Velocity P-wave (km/s) = 5.08787 6.86243 6.04067
#
# Compressibility (1/GPa) = 0.02775951
#
# Stress axis : x y z
#
# Youngs Moduli (GPa) = 58.34930 29.90170 46.87213
#
# Poissons Ratio (x) = 0.40853 -0.24999
# Poissons Ratio (y) = 0.79720 0.64444
# Poissons Ratio (z) = -0.31120 0.41112
#
# Static dielectric constant tensor:
#      x y z
#    x 1.748260 0.000000 0.012380 
#    y 0.000000 1.680390 0.000000 
#    z 0.012380 0.000000 1.779570 
# 
# From -- ./inp_files/281341.got.cif
#   From: 2010.05.17/outbox.cif.g08.bks.cpg/sg12_141_cif.got.tgz:281341.got - 2010.06.03 13:09:07.
