data_PCOD9182991
_publ_section_title
;
Structure prediction by ZEFSAII (Michael W. Deem and Ramdas Pophale) SiO2 
 PCOD9182991
Probable space group: C 2/M
;
_chemical_formula_sum "Si O2"
_cell_formula_units_Z 56
_cell_length_a 30.531802
_cell_length_b 22.328717
_cell_length_c 8.144909
_cell_angle_alpha 90.000000
_cell_angle_beta 147.243918
_cell_angle_gamma 90.000000
_cell_volume 3004.352435
_symmetry_space_group_name_H-M "C 2/M"
_symmetry_group_IT_number 12
_symmetry_cell_setting 'monoclinic'
loop_
_space_group_symop_operation_xyz
x,y,z
-x,y,-z
-x,-y,-z
x,-y,z
1/2+x,1/2+y,z
1/2-x,1/2+y,-z
1/2-x,1/2-y,-z
1/2+x,1/2-y,z
loop_
_atom_site_type_symbol
_atom_site_label
_atom_site_fract_x
_atom_site_fract_y
_atom_site_fract_z
Si Si1 0.881559 0.000000 0.739002
Si Si2 0.118529 0.759093 0.225790
Si Si3 0.053321 0.000000 0.424702
Si Si4 0.582347 0.371389 0.658892
Si Si5 0.053718 0.245776 0.389653
Si Si6 0.296674 0.813670 0.104540
Si Si7 0.214497 0.122546 0.535025
Si Si8 0.759032 0.657186 0.342179
O O1 0.918733 0.000000 0.674711
O O2 0.827940 0.059110 0.582611
O O3 0.955003 0.000000 0.103159
O O4 0.081614 0.747339 0.289454
O O5 0.145072 0.827181 0.289011
O O6 0.199315 0.719592 0.472632
O O7 0.040582 0.743431 0.870363
O O8 0.085831 0.060163 0.611644
O O9 0.500000 0.365470 0.500000
O O10 0.572446 0.323636 0.482697
O O11 0.663652 0.349976 0.005275
O O12 0.115163 0.290525 0.672695
O O13 0.295426 0.850954 0.272346
O O14 0.250000 0.750000 0.000000
O O15 0.257528 0.852228 0.835231
O O16 0.269625 0.120056 0.544047
#
# Coordination Sequence:
#
# PCOD9182991 Si02
#       8
#     4   8   4   8   8   8   8   8
#     4  11  24  38  56  84 113 161 208 241 285 348
#     4  10  19  33  56  81 111 148 182 237 292 346
#     4  11  23  38  54  76 117 164 209 243 277 332
#     4  12  22  34  51  79 117 159 199 237 282 344
#     4  10  19  33  53  82 113 144 188 231 294 350
#     4  11  20  38  59  83 115 151 190 240 297 350
#     4  12  22  38  57  81 119 153 195 235 286 348
#     4  11  22  36  56  82 111 151 191 237 296 339
#
# _framework density 18.639624999999999
#
# number of rings (size 3 to 8) (size 9 to 14) (size 15 to 20)
#    0.000    1.000    4.286    4.929    0.000    4.000 
#    0.000    0.714    0.000    0.000    0.000    3.000 
#    0.000   12.571    0.000    0.000    0.000    0.000 
#
# Total GULP energy -155969.096214 kJ/mol
# GULP energy per Si atom -5570.324865 kJ/mol
# Density = 1.859720 g / cm^3
# Si number density = 18.639625 Si / 1000 Ang^3
#
#
#
# Elastic Constant Matrix: (Units=GPa)
#
#
# Indices 1 2 3 4 5 6 
#
# 1 76.6463 36.9529 30.6881 0.0000 -7.1635 0.0000
# 2 36.9529 118.5592 77.5313 0.0000 13.8147 0.0000
# 3 30.6881 77.5313 127.1716 0.0000 7.3051 0.0000
# 4 0.0000 0.0000 0.0000 -0.9130 0.0000 12.3212
# 5 -7.1635 13.8147 7.3051 0.0000 19.6353 0.0000
# 6 0.0000 0.0000 0.0000 12.3212 0.0000 24.4391
#
#
#
# Elastic Compliance Matrix: (Units=1/GPa)
#
#
# Indices 1 2 3 4 5 6 
#
# 1 0.017408 -0.005893 -0.001237 0.000000 0.010958 0.000000
# 2 -0.005893 0.016981 -0.008298 0.000000 -0.011010 0.000000
# 3 -0.001237 -0.008298 0.013193 0.000000 0.000478 0.000000
# 4 0.000000 0.000000 0.000000 -0.140354 0.000000 0.070761
# 5 0.010958 -0.011010 0.000478 0.000000 0.062495 0.000000
# 6 0.000000 0.000000 0.000000 0.070761 0.000000 0.005243
#
#
# Mechanical properties :
#
#
# Convention : Reuss Voigt Hill
#
# Bulk Modulus (GPa) = 59.79108 68.08020 63.93564
# Shear Modulus (GPa) = 438.68439 20.44593 229.56516
#
# Velocity S-wave (km/s) = 15.35778 3.31555 11.10978
# Velocity P-wave (km/s) = 18.61797 7.15967 14.10478
#
# Compressibility (1/GPa) = 0.01672490
#
# Stress axis : x y z
#
# Youngs Moduli (GPa) = 57.44568 58.89016 75.79594
#
# Poissons Ratio (x) = 0.34707 0.09377
# Poissons Ratio (y) = 0.33855 0.62894
# Poissons Ratio (z) = 0.07107 0.48866
#
# Static dielectric constant tensor:
#      x y z
#    x 1.720980 0.000000 -0.022210 
#    y 0.000000 1.604130 0.000000 
#    z -0.022210 0.000000 1.753040 
# 
# From -- ./inp_files/113436.got.cif
#   From: 2010.05.17/outbox.cif.g08.bks.cpg/sg12_57_cif.got.tgz:113436.got - 2010.06.03 13:09:07.
