data_PCOD9182199
_publ_section_title
;
Structure prediction by ZEFSAII (Michael W. Deem and Ramdas Pophale) SiO2 
 PCOD9182199
Probable space group: C 2/M
;
_chemical_formula_sum "Si O2"
_cell_formula_units_Z 64
_cell_length_a 26.590698
_cell_length_b 14.215210
_cell_length_c 9.464072
_cell_angle_alpha 90.000000
_cell_angle_beta 63.976350
_cell_angle_gamma 90.000000
_cell_volume 3214.650489
_symmetry_space_group_name_H-M "C 2/M"
_symmetry_group_IT_number 12
_symmetry_cell_setting 'monoclinic'
loop_
_space_group_symop_operation_xyz
x,y,z
-x,y,-z
-x,-y,-z
x,-y,z
1/2+x,1/2+y,z
1/2-x,1/2+y,-z
1/2-x,1/2-y,-z
1/2+x,1/2-y,z
loop_
_atom_site_type_symbol
_atom_site_label
_atom_site_fract_x
_atom_site_fract_y
_atom_site_fract_z
Si Si1 0.131252 0.393461 0.139939
Si Si2 0.623832 0.691915 0.791423
Si Si3 0.508414 0.892780 0.154509
Si Si4 0.783678 0.164541 0.526834
Si Si5 0.827520 0.604200 0.207386
Si Si6 0.467712 0.291944 0.323396
Si Si7 0.371089 0.288229 0.663156
Si Si8 0.912536 0.889345 0.866123
O O1 0.135508 0.500000 0.191588
O O2 0.132575 0.313254 0.256174
O O3 0.072705 0.386711 0.125523
O O4 0.175760 0.381171 0.958194
O O5 0.673615 0.635904 0.650401
O O6 0.639984 0.803795 0.773403
O O7 0.568981 0.676231 0.765194
O O8 0.611647 0.658458 0.963506
O O9 0.476941 0.818922 0.289987
O O10 0.489684 0.000000 0.194971
O O11 0.500000 0.867199 0.000000
O O12 0.750000 0.250000 0.500000
O O13 0.733848 0.101923 0.648639
O O14 0.822689 0.197313 0.608333
O O15 0.854217 0.500000 0.196638
O O16 0.429441 0.303012 0.507690
O O17 0.527198 0.343179 0.244156
O O18 0.371594 0.363819 0.787771
O O19 0.918648 0.000000 0.877685
#
# Coordination Sequence:
#
# PCOD9182199 Si02
#       8
#     8   8   8   8   8   8   8   8
#     4  10  20  35  58  91 126 163 202 245 304 369
#     4  10  21  41  62  92 127 160 207 255 307 364
#     4  10  19  32  56  91 128 166 205 244 297 369
#     4   9  22  42  65  91 119 161 202 252 313 364
#     4  10  19  37  66  93 122 157 201 252 311 375
#     4  11  22  37  61  88 125 169 206 248 302 363
#     4  11  23  41  61  87 128 161 202 262 308 363
#     4  12  25  41  62  89 122 167 213 257 305 360
#
# _framework density 19.908852
#
# number of rings (size 3 to 8) (size 9 to 14) (size 15 to 20)
#    0.000    1.625    2.500    2.250    0.000    5.500 
#    0.000    8.750    0.000    0.000    0.000    0.000 
#    0.000    0.000    0.000    0.000    0.000    0.000 
#
# Total GULP energy -178575.744607 kJ/mol
# GULP energy per Si atom -5580.492019 kJ/mol
# Density = 1.986354 g / cm^3
# Si number density = 19.908852 Si / 1000 Ang^3
#
#
#
# Elastic Constant Matrix: (Units=GPa)
#
#
# Indices 1 2 3 4 5 6 
#
# 1 80.6546 21.1536 41.4388 0.0000 4.0667 0.0000
# 2 21.1536 86.0998 36.7272 0.0000 4.2021 0.0000
# 3 41.4388 36.7272 112.9388 0.0000 6.7785 0.0000
# 4 0.0000 0.0000 0.0000 7.5095 0.0000 -8.9034
# 5 4.0667 4.2021 6.7785 0.0000 23.3192 0.0000
# 6 0.0000 0.0000 0.0000 -8.9034 0.0000 8.9685
#
#
#
# Elastic Compliance Matrix: (Units=1/GPa)
#
#
# Indices 1 2 3 4 5 6 
#
# 1 0.015486 -0.001578 -0.005113 0.000000 -0.000930 0.000000
# 2 -0.001578 0.013678 -0.003804 0.000000 -0.001084 0.000000
# 3 -0.005113 -0.003804 0.012084 0.000000 -0.001935 0.000000
# 4 0.000000 0.000000 0.000000 -0.752234 0.000000 -0.746776
# 5 -0.000930 -0.001084 -0.001935 0.000000 0.043803 0.000000
# 6 0.000000 0.000000 0.000000 -0.746776 0.000000 -0.629857
#
#
# Mechanical properties :
#
#
# Convention : Reuss Voigt Hill
#
# Bulk Modulus (GPa) = 49.36509 53.14804 51.25656
# Shear Modulus (GPa) = -3.93919 19.98434 8.02257
#
# Velocity S-wave (km/s) = -1.40816 3.17170 2.00958
# Velocity P-wave (km/s) = 4.71227 6.33771 5.58445
#
# Compressibility (1/GPa) = 0.02025723
#
# Stress axis : x y z
#
# Youngs Moduli (GPa) = 64.57271 73.11194 82.75721
#
# Poissons Ratio (x) = 0.11540 0.42315
# Poissons Ratio (y) = 0.10192 0.31479
# Poissons Ratio (z) = 0.33017 0.27810
#
# Static dielectric constant tensor:
#      x y z
#    x 1.714320 0.000000 -0.033120 
#    y 0.000000 1.710780 0.000000 
#    z -0.033120 0.000000 1.724150 
# 
# From -- ./inp_files/104507.got.cif
#   From: 2010.05.17/outbox.cif.g08.bks.cpg/sg12_53_cif.got.tgz:104507.got - 2010.06.03 13:09:07.
