data_PCOD9182063
_publ_section_title
;
Structure prediction by ZEFSAII (Michael W. Deem and Ramdas Pophale) SiO2 
 PCOD9182063
Probable space group: C 2/M
;
_chemical_formula_sum "Si O2"
_cell_formula_units_Z 64
_cell_length_a 17.270769
_cell_length_b 11.166374
_cell_length_c 21.769418
_cell_angle_alpha 90.000000
_cell_angle_beta 50.500380
_cell_angle_gamma 90.000000
_cell_volume 3239.508274
_symmetry_space_group_name_H-M "C 2/M"
_symmetry_group_IT_number 12
_symmetry_cell_setting 'monoclinic'
loop_
_space_group_symop_operation_xyz
x,y,z
-x,y,-z
-x,-y,-z
x,-y,z
1/2+x,1/2+y,z
1/2-x,1/2+y,-z
1/2-x,1/2-y,-z
1/2+x,1/2-y,z
loop_
_atom_site_type_symbol
_atom_site_label
_atom_site_fract_x
_atom_site_fract_y
_atom_site_fract_z
Si Si1 0.887385 0.667100 0.570392
Si Si2 0.188735 0.643688 0.996808
Si Si3 0.411562 0.365139 0.473122
Si Si4 0.579439 0.866780 0.696557
Si Si5 0.693985 0.630546 0.593559
Si Si6 0.236685 0.360173 0.828480
Si Si7 0.081010 0.288720 0.316452
Si Si8 0.461502 0.139506 0.138252
O O1 0.888157 0.807115 0.550284
O O2 0.805203 0.622333 0.564281
O O3 0.867080 0.645558 0.651824
O O4 0.000000 0.624953 0.500000
O O5 0.199652 0.500000 0.011429
O O6 0.071698 0.679896 0.062872
O O7 0.250000 0.750000 0.000000
O O8 0.219237 0.645414 0.910049
O O9 0.443488 0.500000 0.463159
O O10 0.316975 0.360061 0.474379
O O11 0.496311 0.290371 0.394295
O O12 0.643303 0.748556 0.647690
O O13 0.482181 0.862020 0.701386
O O14 0.549443 0.853974 0.782876
O O15 0.626971 0.000000 0.665045
O O16 0.644298 0.500000 0.633729
O O17 0.249537 0.500000 0.804317
O O18 0.335436 0.289610 0.758797
O O19 0.137516 0.309108 0.844363
O O20 0.460049 0.000000 0.120439
#
# Coordination Sequence:
#
# PCOD9182063 Si02
#       8
#     8   8   8   8   8   8   8   8
#     4  10  21  35  52  78 110 144 179 222 277 335
#     4  10  20  35  57  84 115 149 186 228 274 324
#     4   9  19  35  54  76 105 143 185 228 272 322
#     4  10  21  38  59  81 109 147 186 224 270 326
#     4  10  21  38  58  81 109 142 183 229 274 323
#     4  10  19  32  55  85 114 146 185 229 274 320
#     4  10  20  33  52  81 112 141 179 227 277 330
#     4   9  18  34  56  82 112 148 190 230 267 317
#
# _framework density 19.756084000000001
#
# number of rings (size 3 to 8) (size 9 to 14) (size 15 to 20)
#    0.000    2.250    0.000    2.625    0.000    6.000 
#    0.000    8.125    0.000    3.000    0.000    0.000 
#    0.000    0.000    0.000    0.000    0.000    0.000 
#
# Total GULP energy -178302.034318 kJ/mol
# GULP energy per Si atom -5571.938572 kJ/mol
# Density = 1.971112 g / cm^3
# Si number density = 19.756084 Si / 1000 Ang^3
#
#
#
# Elastic Constant Matrix: (Units=GPa)
#
#
# Indices 1 2 3 4 5 6 
#
# 1 136.0794 32.6331 29.9507 0.0000 5.2300 0.0000
# 2 32.6331 107.9375 29.4936 0.0000 -3.4481 0.0000
# 3 29.9507 29.4936 62.0395 0.0000 -1.2087 0.0000
# 4 0.0000 0.0000 0.0000 -10.3941 0.0000 -26.4872
# 5 5.2300 -3.4481 -1.2087 0.0000 28.9272 0.0000
# 6 0.0000 0.0000 0.0000 -26.4872 0.0000 0.8798
#
#
#
# Elastic Compliance Matrix: (Units=1/GPa)
#
#
# Indices 1 2 3 4 5 6 
#
# 1 0.008576 -0.001738 -0.003351 0.000000 -0.001898 0.000000
# 2 -0.001738 0.011032 -0.004378 0.000000 0.001446 0.000000
# 3 -0.003351 -0.004378 0.019835 0.000000 0.000913 0.000000
# 4 0.000000 0.000000 0.000000 -0.001238 0.000000 -0.037268
# 5 -0.001898 0.001446 0.000913 0.000000 0.035123 0.000000
# 6 0.000000 0.000000 0.000000 -0.037268 0.000000 0.014625
#
#
# Mechanical properties :
#
#
# Convention : Reuss Voigt Hill
#
# Bulk Modulus (GPa) = 48.75472 54.46790 51.61131
# Shear Modulus (GPa) = 43.96624 18.14785 31.05704
#
# Velocity S-wave (km/s) = 4.72259 3.03412 3.96918
# Velocity P-wave (km/s) = 7.38031 6.31701 6.86926
#
# Compressibility (1/GPa) = 0.02051084
#
# Stress axis : x y z
#
# Youngs Moduli (GPa) = 116.60649 90.64217 50.41479
#
# Poissons Ratio (x) = 0.15751 0.16894
# Poissons Ratio (y) = 0.20263 0.22070
# Poissons Ratio (z) = 0.39075 0.39680
#
# Static dielectric constant tensor:
#      x y z
#    x 1.768070 0.000000 -0.010900 
#    y 0.000000 1.763740 0.000000 
#    z -0.010900 0.000000 1.656390 
# 
# From -- ./inp_files/315669.got.cif
#   From: 2010.05.17/outbox.cif.g08.bks.cpg/sg12_158_cif.got.tgz:315669.got - 2010.06.03 13:09:07.
