data_PCOD9182609
_publ_section_title
;
Structure prediction by ZEFSAII (Michael W. Deem and Ramdas Pophale) SiO2 
 PCOD9182609
Probable space group: C 2/M
;
_chemical_formula_sum "Si O2"
_cell_formula_units_Z 44
_cell_length_a 19.702425
_cell_length_b 21.829695
_cell_length_c 7.021876
_cell_angle_alpha 90.000000
_cell_angle_beta 45.643151
_cell_angle_gamma 90.000000
_cell_volume 2159.365665
_symmetry_space_group_name_H-M "C 2/M"
_symmetry_group_IT_number 12
_symmetry_cell_setting 'monoclinic'
loop_
_space_group_symop_operation_xyz
x,y,z
-x,y,-z
-x,-y,-z
x,-y,z
1/2+x,1/2+y,z
1/2-x,1/2+y,-z
1/2-x,1/2-y,-z
1/2+x,1/2-y,z
loop_
_atom_site_type_symbol
_atom_site_label
_atom_site_fract_x
_atom_site_fract_y
_atom_site_fract_z
Si Si1 0.106641 0.300955 0.778130
Si Si2 0.500000 0.595288 0.000000
Si Si3 0.270582 0.267920 0.173563
Si Si4 0.336854 0.594079 0.034616
Si Si5 0.350457 0.429263 0.560715
Si Si6 0.326626 0.933078 0.364428
O O1 0.171541 0.274815 0.480896
O O2 0.164614 0.282071 0.851384
O O3 0.107580 0.374233 0.756101
O O4 0.000000 0.277001 0.000000
O O5 0.423716 0.570488 0.993844
O O6 0.579282 0.617055 0.689230
O O7 0.250000 0.250000 0.000000
O O8 0.325770 0.332588 0.078988
O O9 0.348677 0.579875 0.789573
O O10 0.240882 0.568369 0.316446
O O11 0.382515 0.500000 0.459078
O O12 0.247429 0.424280 0.665717
O O13 0.371316 0.000000 0.259792
#
# Coordination Sequence:
#
# PCOD9182609 Si02
#       6
#     8   4   8   8   8   8
#     4  10  22  40  62  90 119 150 195 247 293 348
#     4  10  21  32  46  80 112 148 191 242 290 342
#     4  10  22  41  61  83 117 156 194 241 294 350
#     4  10  20  34  54  78 112 151 195 237 288 346
#     4  10  19  33  52  76 112 155 195 236 285 343
#     4   9  19  36  58  83 114 150 190 237 291 348
#
# _framework density 20.376353999999999
#
# number of rings (size 3 to 8) (size 9 to 14) (size 15 to 20)
#    0.000    2.182    0.000    2.455    1.273    5.455 
#    3.273    0.000    0.000    0.000    0.000   10.182 
#    0.000    0.000    0.000    0.000    0.000    0.000 
#
# Total GULP energy -122583.672363 kJ/mol
# GULP energy per Si atom -5571.985107 kJ/mol
# Density = 2.032998 g / cm^3
# Si number density = 20.376354 Si / 1000 Ang^3
#
#
#
# Elastic Constant Matrix: (Units=GPa)
#
#
# Indices 1 2 3 4 5 6 
#
# 1 86.7792 6.3451 89.0630 0.0000 14.0947 0.0000
# 2 6.3451 74.6474 10.9495 0.0000 -5.2370 0.0000
# 3 89.0630 10.9495 112.9330 0.0000 24.1428 0.0000
# 4 0.0000 0.0000 0.0000 4.1527 0.0000 5.6989
# 5 14.0947 -5.2370 24.1428 0.0000 49.2977 0.0000
# 6 0.0000 0.0000 0.0000 5.6989 0.0000 8.1514
#
#
#
# Elastic Compliance Matrix: (Units=1/GPa)
#
#
# Indices 1 2 3 4 5 6 
#
# 1 0.063089 0.002740 -0.051632 0.000000 0.007539 0.000000
# 2 0.002740 0.013953 -0.004091 0.000000 0.002703 0.000000
# 3 -0.051632 -0.004091 0.052392 0.000000 -0.011331 0.000000
# 4 0.000000 0.000000 0.000000 5.939127 0.000000 -4.152286
# 5 0.007539 0.002703 -0.011331 0.000000 0.023966 0.000000
# 6 0.000000 0.000000 0.000000 -4.152286 0.000000 3.025711
#
#
# Mechanical properties :
#
#
# Convention : Reuss Voigt Hill
#
# Bulk Modulus (GPa) = 42.61065 54.11942 48.36503
# Shear Modulus (GPa) = 0.54159 23.52049 12.03104
#
# Velocity S-wave (km/s) = 0.51611 3.40119 2.43254
# Velocity P-wave (km/s) = 4.61653 6.48396 5.62824
#
# Compressibility (1/GPa) = 0.02346831
#
# Stress axis : x y z
#
# Youngs Moduli (GPa) = 15.85060 71.66836 19.08675
#
# Poissons Ratio (x) = -0.19635 0.98548
# Poissons Ratio (y) = -0.04343 0.07809
# Poissons Ratio (z) = 0.81839 0.29321
#
# Static dielectric constant tensor:
#      x y z
#    x 1.601230 0.000000 0.085900 
#    y 0.000000 1.832280 0.000000 
#    z 0.085900 0.000000 1.560500 
# 
# From -- ./inp_files/17561.got.cif
#   From: 2010.05.17/outbox.cif.g08.bks.cpg/sg12_9_cif.got.tgz:17561.got - 2010.06.03 13:09:07.
