data_PCOD9182263
_publ_section_title
;
Structure prediction by ZEFSAII (Michael W. Deem and Ramdas Pophale) SiO2 
 PCOD9182263
Probable space group: C 2/M
;
_chemical_formula_sum "Si O2"
_cell_formula_units_Z 48
_cell_length_a 22.546362
_cell_length_b 15.119327
_cell_length_c 13.632043
_cell_angle_alpha 90.000000
_cell_angle_beta 33.005012
_cell_angle_gamma 90.000000
_cell_volume 2531.262248
_symmetry_space_group_name_H-M "C 2/M"
_symmetry_group_IT_number 12
_symmetry_cell_setting 'monoclinic'
loop_
_space_group_symop_operation_xyz
x,y,z
-x,y,-z
-x,-y,-z
x,-y,z
1/2+x,1/2+y,z
1/2-x,1/2+y,-z
1/2-x,1/2-y,-z
1/2+x,1/2-y,z
loop_
_atom_site_type_symbol
_atom_site_label
_atom_site_fract_x
_atom_site_fract_y
_atom_site_fract_z
Si Si1 0.318616 0.320365 0.838056
Si Si2 0.829137 0.764315 0.610592
Si Si3 0.893597 0.594852 0.935687
Si Si4 0.072064 0.766773 0.996295
Si Si5 0.955541 0.404092 0.453033
Si Si6 0.504716 0.607066 0.722519
O O1 0.363026 0.275695 0.677955
O O2 0.411639 0.366409 0.772291
O O3 0.250000 0.250000 0.000000
O O4 0.233033 0.387742 0.908077
O O5 0.881952 0.671507 0.510356
O O6 0.885100 0.842318 0.468676
O O7 0.699398 0.747161 0.790691
O O8 0.912173 0.500000 0.958178
O O9 0.947663 0.675247 0.918217
O O10 0.942087 0.593162 0.760161
O O11 0.040604 0.846283 0.114767
O O12 0.000000 0.774861 0.000000
O O13 0.899465 0.500000 0.529398
O O14 0.000000 0.390140 0.500000
O O15 0.516462 0.500000 0.713253
#
# Coordination Sequence:
#
# PCOD9182263 Si02
#       6
#     8   8   8   8   8   8
#     4  11  19  37  64  97 134 172 199 252 324 403
#     4  11  22  40  67  91 130 166 213 262 330 387
#     4  10  20  37  62  93 125 159 210 263 314 379
#     4  11  26  46  67  86 125 177 226 275 323 377
#     4  10  19  32  58  96 130 160 200 252 318 396
#     4  12  25  42  66 100 134 167 213 269 330 393
#
# _framework density 18.962872000000001
#
# number of rings (size 3 to 8) (size 9 to 14) (size 15 to 20)
#    0.000    1.167    5.000    3.000    0.000    6.000 
#    0.000    0.000    0.000    0.000    0.000    0.000 
#    0.000    0.000    0.000    0.000    0.000    0.000 
#
# Total GULP energy -133692.896614 kJ/mol
# GULP energy per Si atom -5570.537359 kJ/mol
# Density = 1.891971 g / cm^3
# Si number density = 18.962872 Si / 1000 Ang^3
#
#
#
# Elastic Constant Matrix: (Units=GPa)
#
#
# Indices 1 2 3 4 5 6 
#
# 1 96.9708 31.5524 29.3705 0.0000 -2.2770 0.0000
# 2 31.5524 158.0717 56.3122 0.0000 -6.1774 0.0000
# 3 29.3705 56.3122 103.8329 0.0000 -0.7463 0.0000
# 4 0.0000 0.0000 0.0000 8.3838 0.0000 10.9229
# 5 -2.2770 -6.1774 -0.7463 0.0000 10.5713 0.0000
# 6 0.0000 0.0000 0.0000 10.9229 0.0000 -0.9972
#
#
#
# Elastic Compliance Matrix: (Units=1/GPa)
#
#
# Indices 1 2 3 4 5 6 
#
# 1 0.011551 -0.001346 -0.002526 0.000000 0.001523 0.000000
# 2 -0.001346 0.008197 -0.004034 0.000000 0.004215 0.000000
# 3 -0.002526 -0.004034 0.012519 0.000000 -0.002018 0.000000
# 4 0.000000 0.000000 0.000000 0.007811 0.000000 0.085556
# 5 0.001523 0.004215 -0.002018 0.000000 0.097244 0.000000
# 6 0.000000 0.000000 0.000000 0.085556 0.000000 -0.065668
#
#
# Mechanical properties :
#
#
# Convention : Reuss Voigt Hill
#
# Bulk Modulus (GPa) = 60.77829 65.92729 63.35279
# Shear Modulus (GPa) = 53.79089 19.70094 36.74592
#
# Velocity S-wave (km/s) = 5.33179 3.22673 4.40680
# Velocity P-wave (km/s) = 8.36808 6.98028 7.70549
#
# Compressibility (1/GPa) = 0.01645324
#
# Stress axis : x y z
#
# Youngs Moduli (GPa) = 86.56974 121.99718 79.87876
#
# Poissons Ratio (x) = 0.16423 0.20181
# Poissons Ratio (y) = 0.11654 0.32226
# Poissons Ratio (z) = 0.21871 0.49218
#
# Static dielectric constant tensor:
#      x y z
#    x 1.600480 0.000000 -0.035300 
#    y 0.000000 1.746100 0.000000 
#    z -0.035300 0.000000 1.458160 
# 
# From -- ./inp_files/167630.got.cif
#   From: 2010.05.17/outbox.cif.g08.bks.cpg/sg12_84_cif.got.tgz:167630.got - 2010.06.03 13:09:07.
