data_PCOD9182946
_publ_section_title
;
Structure prediction by ZEFSAII (Michael W. Deem and Ramdas Pophale) SiO2 
 PCOD9182946
Probable space group: C 2/M
;
_chemical_formula_sum "Si O2"
_cell_formula_units_Z 64
_cell_length_a 20.997069
_cell_length_b 24.073644
_cell_length_c 8.585154
_cell_angle_alpha 90.000000
_cell_angle_beta 127.378774
_cell_angle_gamma 90.000000
_cell_volume 3448.409162
_symmetry_space_group_name_H-M "C 2/M"
_symmetry_group_IT_number 12
_symmetry_cell_setting 'monoclinic'
loop_
_space_group_symop_operation_xyz
x,y,z
-x,y,-z
-x,-y,-z
x,-y,z
1/2+x,1/2+y,z
1/2-x,1/2+y,-z
1/2-x,1/2-y,-z
1/2+x,1/2-y,z
loop_
_atom_site_type_symbol
_atom_site_label
_atom_site_fract_x
_atom_site_fract_y
_atom_site_fract_z
Si Si1 0.995157 0.438183 0.303395
Si Si2 0.215624 0.162599 0.807730
Si Si3 0.156122 0.615614 0.567908
Si Si4 0.419256 0.636998 0.961280
Si Si5 0.201561 0.064611 0.025909
Si Si6 0.892876 0.665946 0.187154
Si Si7 0.277984 0.685568 0.543176
Si Si8 0.937421 0.784217 0.274626
O O1 0.974613 0.500000 0.217277
O O2 0.083656 0.418672 0.385418
O O3 0.000000 0.440469 0.500000
O O4 0.931755 0.389796 0.175041
O O5 0.201369 0.103377 0.871929
O O6 0.207774 0.165028 0.611321
O O7 0.151503 0.204238 0.789556
O O8 0.306457 0.177640 0.985944
O O9 0.118939 0.655724 0.645496
O O10 0.208039 0.650309 0.523433
O O11 0.215982 0.576776 0.757647
O O12 0.358186 0.671666 0.760642
O O13 0.500000 0.616738 0.000000
O O14 0.368032 0.588146 0.965418
O O15 0.446498 0.678179 0.138069
O O16 0.193665 0.000000 0.979949
O O17 0.946641 0.719892 0.245615
O O18 0.250000 0.750000 0.500000
O O19 0.000000 0.800074 0.500000
#
# Coordination Sequence:
#
# PCOD9182946 Si02
#       8
#     8   8   8   8   8   8   8   8
#     4   9  17  30  51  78 106 138 181 227 264 310
#     4  10  21  35  54  80 112 143 182 226 273 331
#     4   9  18  32  54  81 109 144 189 229 270 321
#     4  10  22  37  56  84 112 141 181 230 282 332
#     4   9  19  37  59  79 106 146 187 230 278 331
#     4  10  19  33  53  80 107 145 187 221 269 325
#     4  11  21  36  56  81 115 150 181 224 278 334
#     4  11  20  34  56  80 110 144 180 226 276 333
#
# _framework density 18.559283000000001
#
# number of rings (size 3 to 8) (size 9 to 14) (size 15 to 20)
#    0.000    2.125    0.000    4.875    0.000    4.250 
#    0.000    3.750    0.000   13.500    0.000    0.000 
#    0.000    0.000    0.000    0.000    0.000    0.000 
#
# Total GULP energy -178583.771035 kJ/mol
# GULP energy per Si atom -5580.742845 kJ/mol
# Density = 1.851704 g / cm^3
# Si number density = 18.559283 Si / 1000 Ang^3
#
#
#
# Elastic Constant Matrix: (Units=GPa)
#
#
# Indices 1 2 3 4 5 6 
#
# 1 81.7751 30.6979 25.8624 0.0000 5.9042 0.0000
# 2 30.6979 106.2370 37.7101 0.0000 -2.4308 0.0000
# 3 25.8624 37.7101 82.5007 0.0000 1.7380 0.0000
# 4 0.0000 0.0000 0.0000 13.5589 0.0000 3.1944
# 5 5.9042 -2.4308 1.7380 0.0000 31.4877 0.0000
# 6 0.0000 0.0000 0.0000 3.1944 0.0000 9.4701
#
#
#
# Elastic Compliance Matrix: (Units=1/GPa)
#
#
# Indices 1 2 3 4 5 6 
#
# 1 0.014599 -0.003198 -0.003055 0.000000 -0.002816 0.000000
# 2 -0.003198 0.011979 -0.004510 0.000000 0.001773 0.000000
# 3 -0.003055 -0.004510 0.015153 0.000000 -0.000612 0.000000
# 4 0.000000 0.000000 0.000000 0.080119 0.000000 -0.027026
# 5 -0.002816 0.001773 -0.000612 0.000000 0.032457 0.000000
# 6 0.000000 0.000000 0.000000 -0.027026 0.000000 0.114712
#
#
# Mechanical properties :
#
#
# Convention : Reuss Voigt Hill
#
# Bulk Modulus (GPa) = 49.49643 51.00596 50.25120
# Shear Modulus (GPa) = 16.81915 22.65284 19.73599
#
# Velocity S-wave (km/s) = 3.01365 3.49745 3.26452
# Velocity P-wave (km/s) = 6.23191 6.62208 6.42995
#
# Compressibility (1/GPa) = 0.02020348
#
# Stress axis : x y z
#
# Youngs Moduli (GPa) = 68.49854 83.48254 65.99263
#
# Poissons Ratio (x) = 0.26701 0.20162
# Poissons Ratio (y) = 0.21908 0.29763
# Poissons Ratio (z) = 0.20928 0.37650
#
# Static dielectric constant tensor:
#      x y z
#    x 1.649730 0.000000 0.016640 
#    y 0.000000 1.642270 0.000000 
#    z 0.016640 0.000000 1.641430 
# 
# From -- ./inp_files/90680.got.cif
#   From: 2010.05.17/outbox.cif.g08.bks.cpg/sg12_46_cif.got.tgz:90680.got - 2010.06.03 13:09:07.
