data_PCOD9182483
_publ_section_title
;
Structure prediction by ZEFSAII (Michael W. Deem and Ramdas Pophale) SiO2 
 PCOD9182483
Probable space group: C 2/M
;
_chemical_formula_sum "Si O2"
_cell_formula_units_Z 56
_cell_length_a 14.157140
_cell_length_b 19.356943
_cell_length_c 16.781791
_cell_angle_alpha 90.000000
_cell_angle_beta 133.590175
_cell_angle_gamma 90.000000
_cell_volume 3330.911996
_symmetry_space_group_name_H-M "C 2/M"
_symmetry_group_IT_number 12
_symmetry_cell_setting 'monoclinic'
loop_
_space_group_symop_operation_xyz
x,y,z
-x,y,-z
-x,-y,-z
x,-y,z
1/2+x,1/2+y,z
1/2-x,1/2+y,-z
1/2-x,1/2-y,-z
1/2+x,1/2-y,z
loop_
_atom_site_type_symbol
_atom_site_label
_atom_site_fract_x
_atom_site_fract_y
_atom_site_fract_z
Si Si1 0.710085 0.422458 0.325744
Si Si2 0.176151 0.662482 0.749058
Si Si3 0.408005 0.420063 0.180823
Si Si4 0.622018 0.153717 0.460243
Si Si5 0.834196 0.803908 0.458834
Si Si6 0.635693 0.582764 0.030536
Si Si7 0.382050 0.322140 0.308287
O O1 0.721624 0.500000 0.299115
O O2 0.738795 0.367176 0.274294
O O3 0.565085 0.414660 0.274799
O O4 0.812001 0.409034 0.455355
O O5 0.247398 0.627935 0.865380
O O6 0.163106 0.745291 0.742952
O O7 0.026895 0.639649 0.647286
O O8 0.371900 0.500000 0.172302
O O9 0.351011 0.373391 0.218158
O O10 0.376251 0.402004 0.070595
O O11 0.705855 0.175914 0.432317
O O12 0.640426 0.221160 0.528041
O O13 0.827327 0.833211 0.365720
O O14 0.962148 0.826735 0.582877
O O15 0.658467 0.500000 0.052526
O O16 0.500000 0.597035 0.000000
#
# Coordination Sequence:
#
# PCOD9182483 Si02
#       7
#     8   8   8   8   8   8   8
#     4  11  20  33  53  83 116 143 178 225 281 340
#     4  11  21  31  54  84 111 144 182 226 280 333
#     4  10  21  37  58  78 107 150 189 228 275 327
#     4  10  19  33  51  80 115 150 177 217 282 332
#     4   9  18  33  54  78 112 150 181 216 274 337
#     4  10  20  37  57  78 111 153 186 223 278 333
#     4  10  19  34  56  81 109 144 189 229 270 325
#
# _framework density 16.812213
#
# number of rings (size 3 to 8) (size 9 to 14) (size 15 to 20)
#    0.000    1.857    4.286    0.857    0.000    2.286 
#    0.000    2.143    0.000    0.000    0.000    2.000 
#    0.000    0.000    0.000    0.000    0.000    0.000 
#
# Total GULP energy -156008.544379 kJ/mol
# GULP energy per Si atom -5571.733728 kJ/mol
# Density = 1.677395 g / cm^3
# Si number density = 16.812213 Si / 1000 Ang^3
#
#
#
# Elastic Constant Matrix: (Units=GPa)
#
#
# Indices 1 2 3 4 5 6 
#
# 1 53.8015 37.4967 28.5472 0.0000 -20.5744 0.0000
# 2 37.4967 64.5781 50.1053 0.0000 -20.9996 0.0000
# 3 28.5472 50.1053 88.1006 0.0000 -24.4281 0.0000
# 4 0.0000 0.0000 0.0000 24.6595 0.0000 -3.8747
# 5 -20.5744 -20.9996 -24.4281 0.0000 28.3397 0.0000
# 6 0.0000 0.0000 0.0000 -3.8747 0.0000 22.2148
#
#
#
# Elastic Compliance Matrix: (Units=1/GPa)
#
#
# Indices 1 2 3 4 5 6 
#
# 1 0.035131 -0.017794 0.002829 0.000000 0.014758 0.000000
# 2 -0.017794 0.038651 -0.015581 0.000000 0.002292 0.000000
# 3 0.002829 -0.015581 0.021897 0.000000 0.009383 0.000000
# 4 0.000000 0.000000 0.000000 0.041695 0.000000 0.007272
# 5 0.014758 0.002292 0.009383 0.000000 0.055786 0.000000
# 6 0.000000 0.000000 0.000000 0.007272 0.000000 0.046283
#
#
# Mechanical properties :
#
#
# Convention : Reuss Voigt Hill
#
# Bulk Modulus (GPa) = 28.91313 48.75318 38.83315
# Shear Modulus (GPa) = 16.02222 21.06486 18.54354
#
# Velocity S-wave (km/s) = 3.09044 3.54354 3.32472
# Velocity P-wave (km/s) = 5.47443 6.76786 6.15521
#
# Compressibility (1/GPa) = 0.03458636
#
# Stress axis : x y z
#
# Youngs Moduli (GPa) = 28.46468 25.87225 45.66824
#
# Poissons Ratio (x) = 0.46038 -0.12917
# Poissons Ratio (y) = 0.50651 0.71155
# Poissons Ratio (z) = -0.08051 0.40311
#
# Static dielectric constant tensor:
#      x y z
#    x 1.572830 0.000000 -0.016070 
#    y 0.000000 1.574190 0.000000 
#    z -0.016070 0.000000 1.580200 
# 
# From -- ./inp_files/147053.got.cif
#   From: 2010.05.17/outbox.cif.g08.bks.cpg/sg12_74_cif.got.tgz:147053.got - 2010.06.03 13:09:07.
