data_PCOD9182925
_publ_section_title
;
Structure prediction by ZEFSAII (Michael W. Deem and Ramdas Pophale) SiO2 
 PCOD9182925
Probable space group: C 2/M
;
_chemical_formula_sum "Si O2"
_cell_formula_units_Z 48
_cell_length_a 15.622415
_cell_length_b 9.459220
_cell_length_c 31.028298
_cell_angle_alpha 90.000000
_cell_angle_beta 29.196224
_cell_angle_gamma 90.000000
_cell_volume 2236.686633
_symmetry_space_group_name_H-M "C 2/M"
_symmetry_group_IT_number 12
_symmetry_cell_setting 'monoclinic'
loop_
_space_group_symop_operation_xyz
x,y,z
-x,y,-z
-x,-y,-z
x,-y,z
1/2+x,1/2+y,z
1/2-x,1/2+y,-z
1/2-x,1/2-y,-z
1/2+x,1/2-y,z
loop_
_atom_site_type_symbol
_atom_site_label
_atom_site_fract_x
_atom_site_fract_y
_atom_site_fract_z
Si Si1 0.658330 0.653103 0.345885
Si Si2 0.222092 0.332727 0.795892
Si Si3 0.788804 0.342430 0.603055
Si Si4 0.114150 0.171363 0.091068
Si Si5 0.259073 0.656170 0.538516
Si Si6 0.201551 0.329108 0.902125
O O1 0.749696 0.500000 0.310986
O O2 0.635114 0.676270 0.305016
O O3 0.741576 0.779803 0.336148
O O4 0.468732 0.638873 0.450638
O O5 0.170072 0.500000 0.821119
O O6 0.258621 0.287467 0.828756
O O7 0.069658 0.236718 0.842766
O O8 0.716792 0.500000 0.630648
O O9 0.704436 0.239172 0.605083
O O10 0.000000 0.351744 0.500000
O O11 0.172180 0.211645 0.114142
O O12 0.119419 0.000000 0.084588
O O13 0.250000 0.250000 0.000000
O O14 0.179543 0.500000 0.568375
O O15 0.250000 0.750000 0.500000
O O16 0.197883 0.500000 0.904510
O O17 0.000000 0.281934 0.000000
#
# Coordination Sequence:
#
# PCOD9182925 Si02
#       6
#     8   8   8   8   8   8
#     4   9  19  35  55  77 106 142 178 219 278 340
#     4  10  20  38  59  79 111 149 185 229 283 338
#     4   9  17  31  53  76  99 133 175 217 263 318
#     4  11  21  35  57  84 110 144 192 235 279 331
#     4  10  19  33  53  79 108 142 184 226 272 330
#     4   9  17  33  57  80 106 146 186 220 268 337
#
# _framework density 21.460315999999999
#
# number of rings (size 3 to 8) (size 9 to 14) (size 15 to 20)
#    0.000    2.333    1.667    1.500    0.000    3.333 
#    3.000    2.500    0.000    0.000    0.000    0.000 
#    0.000    0.000    0.000    0.000    0.000    0.000 
#
# Total GULP energy -133762.519944 kJ/mol
# GULP energy per Si atom -5573.438331 kJ/mol
# Density = 2.141147 g / cm^3
# Si number density = 21.460316 Si / 1000 Ang^3
#
#
#
# Elastic Constant Matrix: (Units=GPa)
#
#
# Indices 1 2 3 4 5 6 
#
# 1 135.0475 56.1552 27.3109 -0.0001 47.6281 -0.0004
# 2 56.1552 113.6676 14.1015 -0.0002 25.3830 -0.0003
# 3 27.3109 14.1015 62.1057 -0.0008 27.6782 -0.0001
# 4 -0.0001 -0.0002 -0.0008 15.0234 -0.0001 7.2765
# 5 47.6281 25.3830 27.6782 -0.0001 44.8600 0.0000
# 6 -0.0004 -0.0003 -0.0001 7.2765 0.0000 34.3178
#
#
#
# Elastic Compliance Matrix: (Units=1/GPa)
#
#
# Indices 1 2 3 4 5 6 
#
# 1 0.013187 -0.003871 0.000474 0.000000 -0.012103 0.000000
# 2 -0.003871 0.011212 0.000210 0.000000 -0.002364 0.000000
# 3 0.000474 0.000210 0.022237 0.000001 -0.014342 0.000000
# 4 0.000000 0.000000 0.000001 0.074181 -0.000001 -0.015729
# 5 -0.012103 -0.002364 -0.014342 -0.000001 0.045327 0.000000
# 6 0.000000 0.000000 0.000000 -0.015729 0.000000 0.032474
#
#
# Mechanical properties :
#
#
# Convention : Reuss Voigt Hill
#
# Bulk Modulus (GPa) = 24.83775 56.21735 40.52755
# Shear Modulus (GPa) = 22.89236 33.05712 27.97474
#
# Velocity S-wave (km/s) = 3.26963 3.92903 3.61440
# Velocity P-wave (km/s) = 5.08457 6.84367 6.02863
#
# Compressibility (1/GPa) = 0.04026130
#
# Stress axis : x y z
#
# Youngs Moduli (GPa) = 75.83287 89.19260 44.96953
#
# Poissons Ratio (x) = 0.34525 -0.02130
# Poissons Ratio (y) = 0.29354 -0.00944
# Poissons Ratio (z) = -0.03592 -0.01872
#
# Static dielectric constant tensor:
#      x y z
#    x 1.794320 0.000000 -0.030630 
#    y 0.000000 1.804310 0.000000 
#    z -0.030630 0.000000 1.854290 
# 
# From -- ./inp_files/274624.got.cif
#   From: 2010.05.17/outbox.cif.g08.bks.cpg/sg12_138_cif.got.tgz:274624.got - 2010.06.03 13:09:07.
