data_PCOD9182935
_publ_section_title
;
Structure prediction by ZEFSAII (Michael W. Deem and Ramdas Pophale) SiO2 
 PCOD9182935
Probable space group: C 2/M
;
_chemical_formula_sum "Si O2"
_cell_formula_units_Z 56
_cell_length_a 29.829132
_cell_length_b 8.079133
_cell_length_c 12.136634
_cell_angle_alpha 90.000000
_cell_angle_beta 69.492976
_cell_angle_gamma 90.000000
_cell_volume 2739.500253
_symmetry_space_group_name_H-M "C 2/M"
_symmetry_group_IT_number 12
_symmetry_cell_setting 'monoclinic'
loop_
_space_group_symop_operation_xyz
x,y,z
-x,y,-z
-x,-y,-z
x,-y,z
1/2+x,1/2+y,z
1/2-x,1/2+y,-z
1/2-x,1/2-y,-z
1/2+x,1/2-y,z
loop_
_atom_site_type_symbol
_atom_site_label
_atom_site_fract_x
_atom_site_fract_y
_atom_site_fract_z
Si Si1 0.569025 0.806730 0.871865
Si Si2 0.272926 0.305652 0.289132
Si Si3 0.202562 0.199665 0.974687
Si Si4 0.835270 0.193849 0.619486
Si Si5 0.530019 0.306437 0.131427
Si Si6 0.885174 0.202277 0.798108
Si Si7 0.352749 0.193529 0.367913
O O1 0.518990 0.788691 0.849487
O O2 0.611391 0.743410 0.757626
O O3 0.577338 0.000000 0.890182
O O4 0.561400 0.711405 0.992675
O O5 0.283593 0.500000 0.290561
O O6 0.216084 0.281989 0.335562
O O7 0.299456 0.215793 0.366002
O O8 0.293390 0.241599 0.154567
O O9 0.156068 0.257414 0.081219
O O10 0.201241 0.000000 0.972358
O O11 0.250000 0.250000 0.000000
O O12 0.868738 0.253171 0.690600
O O13 0.857740 0.218590 0.480285
O O14 0.825731 0.000000 0.646798
O O15 0.518438 0.500000 0.156692
O O16 0.563194 0.244249 0.202103
O O17 0.886165 0.000000 0.800130
O O18 0.362786 0.000000 0.375524
#
# Coordination Sequence:
#
# PCOD9182935 Si02
#       7
#     8   8   8   8   8   8   8
#     4  10  21  38  58  84 115 143 178 229 281 327
#     4  11  22  36  57  84 112 146 188 232 278 330
#     4  10  19  33  53  79 112 143 177 221 267 321
#     4  11  22  38  58  78 111 151 188 231 274 327
#     4  10  19  35  62  89 113 142 178 223 275 335
#     4   9  19  35  55  82 114 146 180 223 274 325
#     4  11  24  40  57  78 109 148 191 234 276 327
#
# _framework density 20.441686000000001
#
# number of rings (size 3 to 8) (size 9 to 14) (size 15 to 20)
#    0.000    1.714    1.429    4.286    0.000    4.000 
#    0.000    5.000    0.000    4.286    0.000    0.000 
#    0.000    0.000    0.000    0.000    0.000    0.000 
#
# Total GULP energy -156478.651544 kJ/mol
# GULP energy per Si atom -5588.523269 kJ/mol
# Density = 2.039516 g / cm^3
# Si number density = 20.441686 Si / 1000 Ang^3
#
#
#
# Elastic Constant Matrix: (Units=GPa)
#
#
# Indices 1 2 3 4 5 6 
#
# 1 93.2368 -9.8162 24.1812 0.0000 22.0877 0.0000
# 2 -9.8162 24.6740 -3.0453 0.0000 0.7934 0.0000
# 3 24.1812 -3.0453 62.6708 0.0000 13.7226 0.0000
# 4 0.0000 0.0000 0.0000 19.4474 0.0000 -2.6759
# 5 22.0877 0.7934 13.7226 0.0000 24.9518 0.0000
# 6 0.0000 0.0000 0.0000 -2.6759 0.0000 16.7324
#
#
#
# Elastic Compliance Matrix: (Units=1/GPa)
#
#
# Indices 1 2 3 4 5 6 
#
# 1 0.014890 0.005948 -0.002875 0.000000 -0.011789 0.000000
# 2 0.005948 0.043311 0.001437 0.000000 -0.007433 0.000000
# 3 -0.002875 0.001437 0.018859 0.000000 -0.007873 0.000000
# 4 0.000000 0.000000 0.000000 0.052578 0.000000 0.008408
# 5 -0.011789 -0.007433 -0.007873 0.000000 0.055079 0.000000
# 6 0.000000 0.000000 0.000000 0.008408 0.000000 0.061109
#
#
# Mechanical properties :
#
#
# Convention : Reuss Voigt Hill
#
# Bulk Modulus (GPa) = 11.61697 22.58010 17.09853
# Shear Modulus (GPa) = 18.83244 23.51046 21.17145
#
# Velocity S-wave (km/s) = 3.03855 3.39503 3.22172
# Velocity P-wave (km/s) = 4.24331 5.14182 4.71402
#
# Compressibility (1/GPa) = 0.08608097
#
# Stress axis : x y z
#
# Youngs Moduli (GPa) = 67.15920 23.08875 53.02423
#
# Poissons Ratio (x) = -0.13733 0.15244
# Poissons Ratio (y) = -0.39946 -0.07620
# Poissons Ratio (z) = 0.19307 -0.03318
#
# Static dielectric constant tensor:
#      x y z
#    x 1.720450 0.000000 -0.000250 
#    y 0.000000 1.711960 0.000000 
#    z -0.000250 0.000000 1.727200 
# 
# From -- ./inp_files/180700.got.cif
#   From: 2010.05.17/outbox.cif.g08.bks.cpg/sg12_91_cif.got.tgz:180700.got - 2010.06.03 13:09:07.
