data_PCOD9182897
_publ_section_title
;
Structure prediction by ZEFSAII (Michael W. Deem and Ramdas Pophale) SiO2 
 PCOD9182897
Probable space group: C 2/M
;
_chemical_formula_sum "Si O2"
_cell_formula_units_Z 56
_cell_length_a 25.433522
_cell_length_b 9.075104
_cell_length_c 33.027912
_cell_angle_alpha 90.000000
_cell_angle_beta 26.606792
_cell_angle_gamma 90.000000
_cell_volume 3414.180177
_symmetry_space_group_name_H-M "C 2/M"
_symmetry_group_IT_number 12
_symmetry_cell_setting 'monoclinic'
loop_
_space_group_symop_operation_xyz
x,y,z
-x,y,-z
-x,-y,-z
x,-y,z
1/2+x,1/2+y,z
1/2-x,1/2+y,-z
1/2-x,1/2-y,-z
1/2+x,1/2-y,z
loop_
_atom_site_type_symbol
_atom_site_label
_atom_site_fract_x
_atom_site_fract_y
_atom_site_fract_z
Si Si1 0.800072 0.676194 0.887320
Si Si2 0.981453 0.176300 0.218445
Si Si3 0.967998 0.176481 0.908530
Si Si4 0.305175 0.824856 0.399676
Si Si5 0.088176 0.323733 0.902538
Si Si6 0.915730 0.675830 0.411647
Si Si7 0.316308 0.176699 0.780492
O O1 0.819924 0.500000 0.877889
O O2 0.804358 0.710652 0.836550
O O3 0.901315 0.761126 0.841213
O O4 0.670524 0.712000 0.992818
O O5 0.871776 0.246908 0.317213
O O6 0.985998 0.213418 0.167795
O O7 0.978796 0.000000 0.224281
O O8 0.036927 0.257904 0.896555
O O9 0.978473 0.000000 0.907332
O O10 0.176134 0.761481 0.497245
O O11 0.378959 0.795048 0.390231
O O12 0.302340 0.000000 0.395809
O O13 0.093157 0.500000 0.896891
O O14 0.214956 0.258211 0.825966
O O15 0.000000 0.282622 0.000000
O O16 0.902743 0.500000 0.426807
O O17 0.051546 0.715810 0.323705
O O18 0.302295 0.000000 0.785894
#
# Coordination Sequence:
#
# PCOD9182897 Si02
#       7
#     8   8   8   8   8   8   8
#     4  10  19  34  54  78 108 144 181 215 260 320
#     4  11  22  34  52  80 111 144 180 220 264 315
#     4  10  22  38  55  75 105 148 188 217 260 318
#     4  10  19  33  53  78 108 142 176 214 266 321
#     4  11  23  36  53  80 108 138 181 229 269 305
#     4   9  18  33  52  79 107 137 177 217 263 317
#     4  10  19  34  57  79 107 144 178 216 264 319
#
# _framework density 16.402180000000001
#
# number of rings (size 3 to 8) (size 9 to 14) (size 15 to 20)
#    0.000    1.857    2.857    1.714    0.000    4.000 
#    0.000    0.000    0.000    0.857    0.000    6.000 
#    0.000    0.000    0.000    0.000    0.000    0.000 
#
# Total GULP energy -156348.326313 kJ/mol
# GULP energy per Si atom -5583.868797 kJ/mol
# Density = 1.636485 g / cm^3
# Si number density = 16.402180 Si / 1000 Ang^3
#
#
#
# Elastic Constant Matrix: (Units=GPa)
#
#
# Indices 1 2 3 4 5 6 
#
# 1 100.0344 55.0342 80.0533 0.0024 12.0970 -0.0040
# 2 55.0342 47.6618 66.7065 0.0015 7.4194 0.0004
# 3 80.0533 66.7065 161.4179 0.0014 7.5528 0.0005
# 4 0.0024 0.0015 0.0014 31.0572 -0.0012 -3.4958
# 5 12.0970 7.4194 7.5528 -0.0012 22.9246 0.0029
# 6 -0.0040 0.0004 0.0005 -3.4958 0.0029 25.9160
#
#
#
# Elastic Compliance Matrix: (Units=1/GPa)
#
#
# Indices 1 2 3 4 5 6 
#
# 1 0.027983 -0.029558 -0.001442 0.000000 -0.004725 0.000005
# 2 -0.029558 0.083098 -0.019453 -0.000002 -0.004888 -0.000005
# 3 -0.001442 -0.019453 0.014848 0.000000 0.002165 0.000000
# 4 0.000000 -0.000002 0.000000 0.032695 0.000002 0.004410
# 5 -0.004725 -0.004888 0.002165 0.000002 0.046983 -0.000006
# 6 0.000005 -0.000005 0.000000 0.004410 -0.000006 0.039181
#
#
# Mechanical properties :
#
#
# Convention : Reuss Voigt Hill
#
# Bulk Modulus (GPa) = 39.96259 79.18912 59.57586
# Shear Modulus (GPa) = 14.12284 23.13423 18.62854
#
# Velocity S-wave (km/s) = 2.93752 3.75965 3.37372
# Velocity P-wave (km/s) = 5.99354 8.19946 7.18170
#
# Compressibility (1/GPa) = 0.02502340
#
# Stress axis : x y z
#
# Youngs Moduli (GPa) = 35.73537 12.03394 67.34998
#
# Poissons Ratio (x) = 0.35570 0.09711
# Poissons Ratio (y) = 1.05628 1.31015
# Poissons Ratio (z) = 0.05153 0.23409
#
# Static dielectric constant tensor:
#      x y z
#    x 1.516660 0.000000 0.006350 
#    y 0.000000 1.544780 0.000000 
#    z 0.006350 0.000000 1.544090 
# 
# From -- ./inp_files/237406.got.cif
#   From: 2010.05.17/outbox.cif.g08.bks.cpg/sg12_119_cif.got.tgz:237406.got - 2010.06.03 13:09:07.
