data_PCOD9182986
_publ_section_title
;
Structure prediction by ZEFSAII (Michael W. Deem and Ramdas Pophale) SiO2 
 PCOD9182986
Probable space group: C 2/M
;
_chemical_formula_sum "Si O2"
_cell_formula_units_Z 48
_cell_length_a 29.128398
_cell_length_b 19.698396
_cell_length_c 12.541089
_cell_angle_alpha 90.000000
_cell_angle_beta 19.903037
_cell_angle_gamma 90.000000
_cell_volume 2449.682281
_symmetry_space_group_name_H-M "C 2/M"
_symmetry_group_IT_number 12
_symmetry_cell_setting 'monoclinic'
loop_
_space_group_symop_operation_xyz
x,y,z
-x,y,-z
-x,-y,-z
x,-y,z
1/2+x,1/2+y,z
1/2-x,1/2+y,-z
1/2-x,1/2-y,-z
1/2+x,1/2-y,z
loop_
_atom_site_type_symbol
_atom_site_label
_atom_site_fract_x
_atom_site_fract_y
_atom_site_fract_z
Si Si1 0.215284 0.075794 0.270440
Si Si2 0.308997 0.422993 0.921789
Si Si3 0.227779 0.210844 0.354201
Si Si4 0.356030 0.272166 0.859279
Si Si5 0.507590 0.182549 0.101487
Si Si6 0.975549 0.575541 0.356605
O O1 0.161842 0.082983 0.267423
O O2 0.174901 0.136558 0.435475
O O3 0.182348 0.000000 0.381083
O O4 0.378441 0.081086 0.908534
O O5 0.349512 0.500000 0.868322
O O6 0.362930 0.354168 0.857134
O O7 0.148368 0.418656 0.292391
O O8 0.100835 0.257075 0.658637
O O9 0.306481 0.240091 0.078117
O O10 0.341052 0.205271 0.198073
O O11 0.500000 0.248320 0.500000
O O12 0.250000 0.250000 0.000000
O O13 0.466235 0.130538 0.284515
O O14 0.500000 0.152084 0.000000
O O15 0.968121 0.500000 0.325229
#
# Coordination Sequence:
#
# PCOD9182986 Si02
#       6
#     8   8   8   8   8   8
#     4   9  18  31  54  83 113 151 185 218 272 344
#     4  10  19  33  53  81 119 154 186 218 271 343
#     4  11  22  38  59  82 117 146 187 239 285 335
#     4  12  24  36  57  87 121 153 189 225 278 344
#     4  11  23  39  60  83 108 148 196 245 291 329
#     4   9  18  33  54  83 115 146 184 234 281 331
#
# _framework density 19.594377000000001
#
# number of rings (size 3 to 8) (size 9 to 14) (size 15 to 20)
#    0.000    1.667    3.333    2.000    2.333    2.667 
#    0.000    0.000    0.000    1.500    0.000    0.000 
#    0.000    0.000    0.000    0.000    0.000    0.000 
#
# Total GULP energy -133981.594718 kJ/mol
# GULP energy per Si atom -5582.566447 kJ/mol
# Density = 1.954978 g / cm^3
# Si number density = 19.594377 Si / 1000 Ang^3
#
#
#
# Elastic Constant Matrix: (Units=GPa)
#
#
# Indices 1 2 3 4 5 6 
#
# 1 80.9050 24.8465 -8.1157 -0.0003 -2.0425 0.0000
# 2 24.8465 110.6465 11.2548 -0.0002 -8.8444 0.0000
# 3 -8.1157 11.2548 27.0942 -0.0010 -4.2112 -0.0001
# 4 -0.0003 -0.0002 -0.0010 22.0266 0.0000 -7.2322
# 5 -2.0425 -8.8444 -4.2112 0.0000 14.9648 -0.0001
# 6 0.0000 0.0000 -0.0001 -7.2322 -0.0001 8.7357
#
#
#
# Elastic Compliance Matrix: (Units=1/GPa)
#
#
# Indices 1 2 3 4 5 6 
#
# 1 0.014121 -0.003663 0.005976 0.000001 0.001444 0.000001
# 2 -0.003663 0.010711 -0.004853 0.000000 0.004465 0.000000
# 3 0.005976 -0.004853 0.042243 0.000003 0.009835 0.000003
# 4 0.000001 0.000000 0.000003 0.062347 0.000001 0.051617
# 5 0.001444 0.004465 0.009835 0.000001 0.072427 0.000002
# 6 0.000001 0.000000 0.000003 0.051617 0.000002 0.157206
#
#
# Mechanical properties :
#
#
# Convention : Reuss Voigt Hill
#
# Bulk Modulus (GPa) = 16.13043 30.51297 23.32170
# Shear Modulus (GPa) = 12.99374 21.85608 17.42491
#
# Velocity S-wave (km/s) = 2.57794 3.34342 2.98532
# Velocity P-wave (km/s) = 4.13655 5.52365 4.87964
#
# Compressibility (1/GPa) = 0.06199462
#
# Stress axis : x y z
#
# Youngs Moduli (GPa) = 70.81560 93.36247 23.67272
#
# Poissons Ratio (x) = 0.34203 -0.14147
# Poissons Ratio (y) = 0.25943 0.11488
# Poissons Ratio (z) = -0.42320 0.45306
#
# Static dielectric constant tensor:
#      x y z
#    x 1.654000 0.000000 -0.037850 
#    y 0.000000 1.739660 0.000000 
#    z -0.037850 0.000000 1.681950 
# 
# From -- ./inp_files/131077.got.cif
#   From: 2010.05.17/outbox.cif.g08.bks.cpg/sg12_66_cif.got.tgz:131077.got - 2010.06.03 13:09:07.
