data_PCOD9182245
_publ_section_title
;
Structure prediction by ZEFSAII (Michael W. Deem and Ramdas Pophale) SiO2 
 PCOD9182245
Probable space group: C 2/M
;
_chemical_formula_sum "Si O2"
_cell_formula_units_Z 48
_cell_length_a 26.482291
_cell_length_b 20.987743
_cell_length_c 9.475337
_cell_angle_alpha 90.000000
_cell_angle_beta 27.322238
_cell_angle_gamma 90.000000
_cell_volume 2417.259957
_symmetry_space_group_name_H-M "C 2/M"
_symmetry_group_IT_number 12
_symmetry_cell_setting 'monoclinic'
loop_
_space_group_symop_operation_xyz
x,y,z
-x,y,-z
-x,-y,-z
x,-y,z
1/2+x,1/2+y,z
1/2-x,1/2+y,-z
1/2-x,1/2-y,-z
1/2+x,1/2-y,z
loop_
_atom_site_type_symbol
_atom_site_label
_atom_site_fract_x
_atom_site_fract_y
_atom_site_fract_z
Si Si1 0.559957 0.136262 0.215725
Si Si2 0.553509 0.426950 0.709909
Si Si3 0.251798 0.074349 0.399877
Si Si4 0.122808 0.161586 0.940261
Si Si5 0.529313 0.226372 0.781191
Si Si6 0.268347 0.246130 0.121033
O O1 0.500000 0.107483 0.500000
O O2 0.473805 0.176909 0.338198
O O3 0.624679 0.089029 0.952531
O O4 0.649253 0.188967 0.045436
O O5 0.540765 0.500000 0.699493
O O6 0.679478 0.414669 0.436629
O O7 0.500000 0.419050 0.000000
O O8 0.484237 0.383362 0.777296
O O9 0.207420 0.122211 0.631145
O O10 0.234511 0.000000 0.482843
O O11 0.178740 0.190217 0.940488
O O12 0.068251 0.222400 0.998068
O O13 0.647369 0.260099 0.489811
O O14 0.500000 0.192970 0.000000
O O15 0.250000 0.250000 0.000000
#
# Coordination Sequence:
#
# PCOD9182245 Si02
#       6
#     8   8   8   8   8   8
#     4  11  22  37  56  83 119 157 199 237 292 364
#     4   8  14  28  52  83 114 144 187 240 290 337
#     4  10  20  36  60  88 116 153 202 248 293 346
#     4  10  19  32  58  86 116 149 191 245 295 353
#     4  11  21  35  58  86 118 147 193 247 300 350
#     4  11  22  37  56  85 122 160 191 237 303 362
#
# _framework density 19.857192999999999
#
# number of rings (size 3 to 8) (size 9 to 14) (size 15 to 20)
#    0.000    1.833    1.667    6.000    0.000    3.000 
#    0.000    0.000    0.000    7.500    0.000    7.000 
#    0.000    0.000    0.000    0.000    0.000    0.000 
#
# Total GULP energy -133840.088350 kJ/mol
# GULP energy per Si atom -5576.670348 kJ/mol
# Density = 1.981200 g / cm^3
# Si number density = 19.857193 Si / 1000 Ang^3
#
#
#
# Elastic Constant Matrix: (Units=GPa)
#
#
# Indices 1 2 3 4 5 6 
#
# 1 92.7279 34.0371 10.4320 0.0000 1.8160 0.0000
# 2 34.0371 73.8337 6.0841 0.0000 4.4834 0.0000
# 3 10.4320 6.0841 58.7918 0.0000 -2.5180 0.0000
# 4 0.0000 0.0000 0.0000 17.6552 0.0000 -6.7672
# 5 1.8160 4.4834 -2.5180 0.0000 21.3300 0.0000
# 6 0.0000 0.0000 0.0000 -6.7672 0.0000 27.0686
#
#
#
# Elastic Compliance Matrix: (Units=1/GPa)
#
#
# Indices 1 2 3 4 5 6 
#
# 1 0.013151 -0.005916 -0.001725 0.000000 -0.000080 0.000000
# 2 -0.005916 0.016522 -0.000791 0.000000 -0.003063 0.000000
# 3 -0.001725 -0.000791 0.017499 0.000000 0.002379 0.000000
# 4 0.000000 0.000000 0.000000 0.062644 0.000000 0.015661
# 5 -0.000080 -0.003063 0.002379 0.000000 0.047814 0.000000
# 6 0.000000 0.000000 0.000000 0.015661 0.000000 0.040858
#
#
# Mechanical properties :
#
#
# Convention : Reuss Voigt Hill
#
# Bulk Modulus (GPa) = 32.99361 36.27332 34.63346
# Shear Modulus (GPa) = 22.17739 24.86410 23.52074
#
# Velocity S-wave (km/s) = 3.34555 3.54241 3.44538
# Velocity P-wave (km/s) = 5.61917 5.91931 5.77119
#
# Compressibility (1/GPa) = 0.03030890
#
# Stress axis : x y z
#
# Youngs Moduli (GPa) = 76.03819 60.52445 57.14617
#
# Poissons Ratio (x) = 0.35805 0.09856
# Poissons Ratio (y) = 0.44982 0.04522
# Poissons Ratio (z) = 0.13115 0.04789
#
# Static dielectric constant tensor:
#      x y z
#    x 1.714700 0.000000 -0.037750 
#    y 0.000000 1.720940 0.000000 
#    z -0.037750 0.000000 1.750400 
# 
# From -- ./inp_files/106512.got.cif
#   From: 2010.05.17/outbox.cif.g08.bks.cpg/sg12_54_cif.got.tgz:106512.got - 2010.06.03 13:09:07.
