data_PCOD9182944
_publ_section_title
;
Structure prediction by ZEFSAII (Michael W. Deem and Ramdas Pophale) SiO2 
 PCOD9182944
Probable space group: C 2/M
;
_chemical_formula_sum "Si O2"
_cell_formula_units_Z 40
_cell_length_a 8.588671
_cell_length_b 22.050587
_cell_length_c 10.964394
_cell_angle_alpha 90.000000
_cell_angle_beta 129.471481
_cell_angle_gamma 90.000000
_cell_volume 1602.931330
_symmetry_space_group_name_H-M "C 2/M"
_symmetry_group_IT_number 12
_symmetry_cell_setting 'monoclinic'
loop_
_space_group_symop_operation_xyz
x,y,z
-x,y,-z
-x,-y,-z
x,-y,z
1/2+x,1/2+y,z
1/2-x,1/2+y,-z
1/2-x,1/2-y,-z
1/2+x,1/2-y,z
loop_
_atom_site_type_symbol
_atom_site_label
_atom_site_fract_x
_atom_site_fract_y
_atom_site_fract_z
Si Si1 0.677867 0.427845 0.807160
Si Si2 0.030565 0.427353 0.812232
Si Si3 0.860460 0.874781 0.814699
Si Si4 0.877685 0.272922 0.821064
Si Si5 0.022005 0.728064 0.381981
O O1 0.649416 0.500000 0.782044
O O2 0.465218 0.399633 0.744484
O O3 0.807863 0.408236 0.752532
O O4 0.824578 0.417059 0.997390
O O5 0.019780 0.500000 0.789927
O O6 0.144141 0.401290 0.748799
O O7 0.871733 0.801299 0.814670
O O8 0.000000 0.892601 0.000000
O O9 0.993767 0.297116 0.762062
O O10 0.639202 0.283032 0.699475
O O11 0.000000 0.290748 0.000000
O O12 0.250000 0.750000 0.500000
O O13 0.000000 0.694422 0.500000
#
# Coordination Sequence:
#
# PCOD9182944 Si02
#       5
#     8   8   8   8   8
#     4   8  13  22  36  56  90 136 172 195 241 311
#     4   8  13  22  36  56  90 136 172 196 241 309
#     4   9  16  25  39  66 100 129 162 212 262 303
#     4  10  19  33  53  80 106 130 171 223 273 313
#     4   9  19  37  56  71  97 140 174 209 257 329
#
# _framework density 24.954281000000002
#
# number of rings (size 3 to 8) (size 9 to 14) (size 15 to 20)
#    0.000    3.200    0.000    2.400    0.000    2.400 
#    7.200    0.000    0.000    0.000    0.000    0.000 
#    0.000   32.000    0.000    0.000    0.000    0.000 
#
# Total GULP energy -111518.910740 kJ/mol
# GULP energy per Si atom -5575.945537 kJ/mol
# Density = 2.489748 g / cm^3
# Si number density = 24.954281 Si / 1000 Ang^3
#
#
#
# Elastic Constant Matrix: (Units=GPa)
#
#
# Indices 1 2 3 4 5 6 
#
# 1 288.5997 93.6945 38.4944 0.0000 -13.6754 0.0000
# 2 93.6945 105.8607 0.0148 0.0000 1.0754 0.0000
# 3 38.4944 0.0148 90.6559 0.0000 -21.7845 0.0000
# 4 0.0000 0.0000 0.0000 4.0616 0.0000 -3.7596
# 5 -13.6754 1.0754 -21.7845 0.0000 46.0263 0.0000
# 6 0.0000 0.0000 0.0000 -3.7596 0.0000 45.2965
#
#
#
# Elastic Compliance Matrix: (Units=1/GPa)
#
#
# Indices 1 2 3 4 5 6 
#
# 1 0.005301 -0.004699 -0.002082 0.000000 0.000699 0.000000
# 2 -0.004699 0.013614 0.001784 0.000000 -0.000870 0.000000
# 3 -0.002082 0.001784 0.013265 0.000000 0.005618 0.000000
# 4 0.000000 0.000000 0.000000 0.266696 0.000000 0.022136
# 5 0.000699 -0.000870 0.005618 0.000000 0.024614 0.000000
# 6 0.000000 0.000000 0.000000 0.022136 0.000000 0.023914
#
#
# Mechanical properties :
#
#
# Convention : Reuss Voigt Hill
#
# Bulk Modulus (GPa) = 45.07450 83.28041 64.17746
# Shear Modulus (GPa) = 13.70641 42.60439 28.15540
#
# Velocity S-wave (km/s) = 2.34617 4.13643 3.36263
# Velocity P-wave (km/s) = 5.04395 7.50060 6.39142
#
# Compressibility (1/GPa) = 0.02218549
#
# Stress axis : x y z
#
# Youngs Moduli (GPa) = 188.62897 73.45441 75.38883
#
# Poissons Ratio (x) = 0.34516 0.15698
# Poissons Ratio (y) = 0.88636 -0.13450
# Poissons Ratio (z) = 0.39277 -0.13104
#
# Static dielectric constant tensor:
#      x y z
#    x 2.168780 0.000000 0.093490 
#    y 0.000000 2.032020 0.000000 
#    z 0.093490 0.000000 2.030410 
# 
# From -- ./inp_files/41118.got.cif
#   From: 2010.05.17/outbox.cif.g08.bks.cpg/sg12_21_cif.got.tgz:41118.got - 2010.06.03 13:09:07.
