data_PCOD9182019
_publ_section_title
;
Structure prediction by ZEFSAII (Michael W. Deem and Ramdas Pophale) SiO2 
 PCOD9182019
Probable space group: C 2/M
;
_chemical_formula_sum "Si O2"
_cell_formula_units_Z 56
_cell_length_a 31.017922
_cell_length_b 8.558314
_cell_length_c 17.300375
_cell_angle_alpha 90.000000
_cell_angle_beta 45.426990
_cell_angle_gamma 90.000000
_cell_volume 3271.553015
_symmetry_space_group_name_H-M "C 2/M"
_symmetry_group_IT_number 12
_symmetry_cell_setting 'monoclinic'
loop_
_space_group_symop_operation_xyz
x,y,z
-x,y,-z
-x,-y,-z
x,-y,z
1/2+x,1/2+y,z
1/2-x,1/2+y,-z
1/2-x,1/2-y,-z
1/2+x,1/2-y,z
loop_
_atom_site_type_symbol
_atom_site_label
_atom_site_fract_x
_atom_site_fract_y
_atom_site_fract_z
Si Si1 0.527825 0.310224 0.346508
Si Si2 0.903832 0.810993 0.589530
Si Si3 0.488129 0.311488 0.805673
Si Si4 0.696234 0.184792 0.392897
Si Si5 0.942327 0.688278 0.022009
Si Si6 0.129413 0.186885 0.628193
Si Si7 0.674073 0.813178 0.733180
O O1 0.528677 0.500000 0.344954
O O2 0.461623 0.267775 0.463160
O O3 0.577393 0.261741 0.347452
O O4 0.534395 0.257091 0.250285
O O5 0.844152 0.737906 0.628782
O O6 0.898891 0.000000 0.593658
O O7 0.486047 0.500000 0.809772
O O8 0.450916 0.247960 0.924580
O O9 0.558907 0.265890 0.724414
O O10 0.659718 0.235710 0.515627
O O11 0.761281 0.266390 0.314457
O O12 0.704369 0.000000 0.382535
O O13 0.943399 0.500000 0.019492
O O14 0.880761 0.737380 0.141808
O O15 0.000000 0.742427 0.000000
O O16 0.163814 0.235473 0.662645
O O17 0.131588 0.000000 0.615239
O O18 0.670800 0.000000 0.727645
#
# Coordination Sequence:
#
# PCOD9182019 Si02
#       7
#     8   8   8   8   8   8   8
#     4   8  15  30  54  82 107 138 175 215 261 318
#     4   9  16  32  56  78 107 141 177 214 260 320
#     4  10  19  32  55  83 110 139 175 216 261 313
#     4  12  24  36  52  78 112 144 179 220 266 315
#     4  10  21  37  55  77 105 139 178 222 268 311
#     4  11  21  35  55  80 110 143 179 214 261 318
#     4  11  23  39  56  74 105 145 184 220 264 318
#
# _framework density 17.117253999999999
#
# number of rings (size 3 to 8) (size 9 to 14) (size 15 to 20)
#    0.000    1.857    2.857    3.429    0.000    2.000 
#    0.000    2.143    0.000    0.857    0.000    0.000 
#    0.000    0.000    0.000    0.000    0.000    0.000 
#
# Total GULP energy -156320.911397 kJ/mol
# GULP energy per Si atom -5582.889693 kJ/mol
# Density = 1.707829 g / cm^3
# Si number density = 17.117254 Si / 1000 Ang^3
#
#
#
# Elastic Constant Matrix: (Units=GPa)
#
#
# Indices 1 2 3 4 5 6 
#
# 1 115.2712 -5.6241 34.4548 -0.0003 11.6851 0.0000
# 2 -5.6241 12.0787 1.0006 -0.0005 1.6631 0.0001
# 3 34.4548 1.0006 55.3040 0.0000 1.0357 0.0000
# 4 -0.0003 -0.0005 0.0000 18.3942 0.0000 6.7167
# 5 11.6851 1.6631 1.0357 0.0000 28.2727 0.0001
# 6 0.0000 0.0001 0.0000 6.7167 0.0001 22.2513
#
#
#
# Elastic Compliance Matrix: (Units=1/GPa)
#
#
# Indices 1 2 3 4 5 6 
#
# 1 0.011693 0.006733 -0.007313 0.000000 -0.004961 0.000000
# 2 0.006733 0.087455 -0.005633 0.000003 -0.007721 -0.000001
# 3 -0.007313 -0.005633 0.022693 0.000000 0.002523 0.000000
# 4 0.000000 0.000003 0.000000 0.061100 0.000000 -0.018443
# 5 -0.004961 -0.007721 0.002523 0.000000 0.037782 0.000000
# 6 0.000000 -0.000001 0.000000 -0.018443 0.000000 0.050509
#
#
# Mechanical properties :
#
#
# Convention : Reuss Voigt Hill
#
# Bulk Modulus (GPa) = 9.13950 26.92406 18.03178
# Shear Modulus (GPa) = 15.61874 23.97180 19.79527
#
# Velocity S-wave (km/s) = 3.02397 3.74631 3.40435
# Velocity P-wave (km/s) = 4.18849 5.87167 5.10000
#
# Compressibility (1/GPa) = 0.10941515
#
# Stress axis : x y z
#
# Youngs Moduli (GPa) = 85.52421 11.43440 44.06666
#
# Poissons Ratio (x) = -0.07699 0.32228
# Poissons Ratio (y) = -0.57585 0.24821
# Poissons Ratio (z) = 0.62548 0.06441
#
# Static dielectric constant tensor:
#      x y z
#    x 1.582670 0.000000 0.003100 
#    y 0.000000 1.582280 0.000000 
#    z 0.003100 0.000000 1.554410 
# 
# From -- ./inp_files/287339.got.cif
#   From: 2010.05.17/outbox.cif.g08.bks.cpg/sg12_144_cif.got.tgz:287339.got - 2010.06.03 13:09:07.
