data_PCOD9182749
_publ_section_title
;
Structure prediction by ZEFSAII (Michael W. Deem and Ramdas Pophale) SiO2 
 PCOD9182749
Probable space group: C 2/M
;
_chemical_formula_sum "Si O2"
_cell_formula_units_Z 56
_cell_length_a 20.111799
_cell_length_b 7.594981
_cell_length_c 21.301841
_cell_angle_alpha 90.000000
_cell_angle_beta 55.804689
_cell_angle_gamma 90.000000
_cell_volume 2691.328580
_symmetry_space_group_name_H-M "C 2/M"
_symmetry_group_IT_number 12
_symmetry_cell_setting 'monoclinic'
loop_
_space_group_symop_operation_xyz
x,y,z
-x,y,-z
-x,-y,-z
x,-y,z
1/2+x,1/2+y,z
1/2-x,1/2+y,-z
1/2-x,1/2-y,-z
1/2+x,1/2-y,z
loop_
_atom_site_type_symbol
_atom_site_label
_atom_site_fract_x
_atom_site_fract_y
_atom_site_fract_z
Si Si1 0.434168 0.715832 0.181452
Si Si2 0.865000 0.706014 0.727230
Si Si3 0.839072 0.290972 0.475007
Si Si4 0.590366 0.215431 0.433912
Si Si5 0.968436 0.794764 0.301048
Si Si6 0.433242 0.702667 0.979762
Si Si7 0.192275 0.216309 0.857697
O O1 0.433671 0.500000 0.179815
O O2 0.432391 0.773815 0.254503
O O3 0.517568 0.778018 0.104909
O O4 0.360252 0.768229 0.175717
O O5 0.847806 0.500000 0.726396
O O6 0.883554 0.780903 0.648187
O O7 0.945863 0.717567 0.724738
O O8 0.783751 0.776818 0.801630
O O9 0.850028 0.500000 0.470571
O O10 0.750000 0.250000 0.500000
O O11 0.854369 0.226838 0.537623
O O12 0.905251 0.224003 0.390968
O O13 0.500000 0.267547 0.500000
O O14 0.590631 0.000000 0.431206
O O15 0.983785 0.000000 0.283138
O O16 0.414485 0.500000 0.973145
O O17 0.500000 0.699652 0.000000
O O18 0.354797 0.779738 0.055044
O O19 0.189391 0.000000 0.862092
#
# Coordination Sequence:
#
# PCOD9182749 Si02
#       7
#     8   8   8   8   8   8   8
#     4   8  15  27  46  71 101 134 168 208 256 304
#     4  10  19  33  53  74  99 132 173 215 252 300
#     4  11  23  39  58  79 104 132 167 211 255 302
#     4   9  17  33  55  73  93 132 173 203 244 299
#     4  11  22  35  51  74 106 140 168 204 256 308
#     4   7  10  21  41  69  99 124 161 215 258 288
#     4   8  14  25  48  75  95 125 173 219 252 293
#
# _framework density 20.807566999999999
#
# number of rings (size 3 to 8) (size 9 to 14) (size 15 to 20)
#    0.000    2.857    1.429    2.571    2.000    0.000 
#    0.000    2.857    0.000    0.000    0.000    1.000 
#    0.000    8.571    0.000    0.000    0.000    0.000 
#
# Total GULP energy -156109.167115 kJ/mol
# GULP energy per Si atom -5575.327397 kJ/mol
# Density = 2.076021 g / cm^3
# Si number density = 20.807567 Si / 1000 Ang^3
#
#
#
# Elastic Constant Matrix: (Units=GPa)
#
#
# Indices 1 2 3 4 5 6 
#
# 1 80.9512 -9.5964 10.6474 0.0002 -20.5970 -0.0007
# 2 -9.5964 37.0882 0.9842 0.0001 1.1852 -0.0028
# 3 10.6474 0.9842 46.2753 -0.0003 -23.7611 0.0008
# 4 0.0002 0.0001 -0.0003 -14.7352 0.0001 2.2799
# 5 -20.5970 1.1852 -23.7611 0.0001 41.3434 0.0000
# 6 -0.0007 -0.0028 0.0008 2.2799 0.0000 17.1871
#
#
#
# Elastic Compliance Matrix: (Units=1/GPa)
#
#
# Indices 1 2 3 4 5 6 
#
# 1 0.014602 0.003533 0.000352 0.000000 0.007376 0.000001
# 2 0.003533 0.027904 -0.001296 0.000001 0.000216 0.000005
# 3 0.000352 -0.001296 0.030736 -0.000001 0.017877 -0.000001
# 4 0.000000 0.000001 -0.000001 -0.066500 0.000000 0.008821
# 5 0.007376 0.000216 0.017877 0.000000 0.038131 0.000000
# 6 0.000001 0.000005 -0.000001 0.008821 0.000000 0.057013
#
#
# Mechanical properties :
#
#
# Convention : Reuss Voigt Hill
#
# Bulk Modulus (GPa) = 12.75144 18.70947 15.73046
# Shear Modulus (GPa) = 40.70075 19.57768 30.13921
#
# Velocity S-wave (km/s) = 4.42753 3.07072 3.81001
# Velocity P-wave (km/s) = 5.68145 4.64582 5.18954
#
# Compressibility (1/GPa) = 0.07842250
#
# Stress axis : x y z
#
# Youngs Moduli (GPa) = 68.48202 35.83657 32.53531
#
# Poissons Ratio (x) = -0.12662 -0.01147
# Poissons Ratio (y) = -0.24196 0.04216
# Poissons Ratio (z) = -0.02414 0.04643
#
# Static dielectric constant tensor:
#      x y z
#    x 1.709440 0.000000 0.008050 
#    y 0.000000 1.816040 0.000000 
#    z 0.008050 0.000000 1.762300 
# 
# From -- ./inp_files/319024.got.cif
#   From: 2010.05.17/outbox.cif.g08.bks.cpg/sg12_160_cif.got.tgz:319024.got - 2010.06.03 13:09:07.
