data_PCOD9182686
_publ_section_title
;
Structure prediction by ZEFSAII (Michael W. Deem and Ramdas Pophale) SiO2 
 PCOD9182686
Probable space group: C 2/M
;
_chemical_formula_sum "Si O2"
_cell_formula_units_Z 64
_cell_length_a 13.900157
_cell_length_b 26.203581
_cell_length_c 8.541416
_cell_angle_alpha 90.000000
_cell_angle_beta 110.054890
_cell_angle_gamma 90.000000
_cell_volume 2922.431792
_symmetry_space_group_name_H-M "C 2/M"
_symmetry_group_IT_number 12
_symmetry_cell_setting 'monoclinic'
loop_
_space_group_symop_operation_xyz
x,y,z
-x,y,-z
-x,-y,-z
x,-y,z
1/2+x,1/2+y,z
1/2-x,1/2+y,-z
1/2-x,1/2-y,-z
1/2+x,1/2-y,z
loop_
_atom_site_type_symbol
_atom_site_label
_atom_site_fract_x
_atom_site_fract_y
_atom_site_fract_z
Si Si1 0.058966 0.940686 0.788264
Si Si2 0.341982 0.619293 0.886416
Si Si3 0.217211 0.559048 0.246537
Si Si4 0.152092 0.204568 0.362491
Si Si5 0.028906 0.735265 0.840198
Si Si6 0.833302 0.059646 0.592769
Si Si7 0.296799 0.720418 0.280510
Si Si8 0.843759 0.352096 0.995902
O O1 0.165477 0.939871 0.753907
O O2 0.953971 0.926654 0.640796
O O3 0.045292 0.000000 0.833666
O O4 0.080601 0.900892 0.939059
O O5 0.376434 0.660694 0.776736
O O6 0.312929 0.571353 0.762063
O O7 0.242354 0.638869 0.921247
O O8 0.181789 0.500000 0.223361
O O9 0.241044 0.580230 0.433754
O O10 0.149742 0.596350 0.101684
O O11 0.253586 0.229432 0.343421
O O12 0.161458 0.188112 0.548410
O O13 0.068159 0.249254 0.315253
O O14 0.122891 0.764588 0.809221
O O15 0.059105 0.675902 0.873835
O O16 0.000000 0.752701 0.000000
O O17 0.830134 0.000000 0.556959
O O18 0.205058 0.690458 0.146656
#
# Coordination Sequence:
#
# PCOD9182686 Si02
#       8
#     8   8   8   8   8   8   8   8
#     4   9  18  32  51  80 120 160 201 245 290 359
#     4  11  21  34  54  83 119 163 199 246 295 350
#     4   9  19  35  57  82 115 157 199 249 305 359
#     4  11  24  40  62  86 123 158 203 249 299 361
#     4  12  23  41  65  89 116 161 204 252 305 361
#     4  10  19  33  52  83 120 158 201 241 296 365
#     4  11  23  43  60  88 122 158 200 251 301 358
#     4  11  22  40  60  84 122 155 201 248 302 359
#
# _framework density 21.899571000000002
#
# number of rings (size 3 to 8) (size 9 to 14) (size 15 to 20)
#    0.000    1.500    2.500    3.375    0.000    7.000 
#    0.000    3.750    0.000    0.375    0.000    0.000 
#    0.000    4.000    0.000    0.000    0.000    0.000 
#
# Total GULP energy -178518.068819 kJ/mol
# GULP energy per Si atom -5578.689651 kJ/mol
# Density = 2.184973 g / cm^3
# Si number density = 21.899571 Si / 1000 Ang^3
#
#
#
# Elastic Constant Matrix: (Units=GPa)
#
#
# Indices 1 2 3 4 5 6 
#
# 1 44.6236 13.2650 6.4945 0.0000 -6.3568 0.0000
# 2 13.2650 67.5821 33.8908 0.0000 6.6306 0.0000
# 3 6.4945 33.8908 84.7353 0.0000 -1.7538 0.0000
# 4 0.0000 0.0000 0.0000 22.7283 0.0000 -2.0111
# 5 -6.3568 6.6306 -1.7538 0.0000 32.4731 0.0000
# 6 0.0000 0.0000 0.0000 -2.0111 0.0000 29.9603
#
#
#
# Elastic Compliance Matrix: (Units=1/GPa)
#
#
# Indices 1 2 3 4 5 6 
#
# 1 0.024907 -0.005742 0.000513 0.000000 0.006076 0.000000
# 2 -0.005742 0.020419 -0.007845 0.000000 -0.005717 0.000000
# 3 0.000513 -0.007845 0.014952 0.000000 0.002510 0.000000
# 4 0.000000 0.000000 0.000000 0.044261 0.000000 0.002971
# 5 0.006076 -0.005717 0.002510 0.000000 0.033287 0.000000
# 6 0.000000 0.000000 0.000000 0.002971 0.000000 0.033577
#
#
# Mechanical properties :
#
#
# Convention : Reuss Voigt Hill
#
# Bulk Modulus (GPa) = 29.29951 33.80462 31.55207
# Shear Modulus (GPa) = 23.93173 26.58505 25.25839
#
# Velocity S-wave (km/s) = 3.30933 3.48796 3.39982
# Velocity P-wave (km/s) = 5.29248 5.62947 5.46357
#
# Compressibility (1/GPa) = 0.03413026
#
# Stress axis : x y z
#
# Youngs Moduli (GPa) = 40.14856 48.97425 66.88196
#
# Poissons Ratio (x) = 0.28123 -0.03434
# Poissons Ratio (y) = 0.23055 0.52469
# Poissons Ratio (z) = -0.02062 0.38420
#
# Static dielectric constant tensor:
#      x y z
#    x 1.823450 0.000000 -0.017880 
#    y 0.000000 1.872070 0.000000 
#    z -0.017880 0.000000 1.851010 
# 
# From -- ./inp_files/67017.got.cif
#   From: 2010.05.17/outbox.cif.g08.bks.cpg/sg12_34_cif.got.tgz:67017.got - 2010.06.03 13:09:07.
