data_PCOD9182036
_publ_section_title
;
Structure prediction by ZEFSAII (Michael W. Deem and Ramdas Pophale) SiO2 
 PCOD9182036
Probable space group: C 2/M
;
_chemical_formula_sum "Si O2"
_cell_formula_units_Z 40
_cell_length_a 28.627944
_cell_length_b 8.527578
_cell_length_c 19.418561
_cell_angle_alpha 90.000000
_cell_angle_beta 26.969986
_cell_angle_gamma 90.000000
_cell_volume 2149.972379
_symmetry_space_group_name_H-M "C 2/M"
_symmetry_group_IT_number 12
_symmetry_cell_setting 'monoclinic'
loop_
_space_group_symop_operation_xyz
x,y,z
-x,y,-z
-x,-y,-z
x,-y,z
1/2+x,1/2+y,z
1/2-x,1/2+y,-z
1/2-x,1/2-y,-z
1/2+x,1/2-y,z
loop_
_atom_site_type_symbol
_atom_site_label
_atom_site_fract_x
_atom_site_fract_y
_atom_site_fract_z
Si Si1 0.616749 0.687749 0.862033
Si Si2 0.777291 0.812013 0.539611
Si Si3 0.169087 0.811125 0.162847
Si Si4 0.509402 0.309836 0.266730
Si Si5 0.328882 0.188427 0.059265
O O1 0.618192 0.500000 0.856485
O O2 0.693964 0.754244 0.703796
O O3 0.650596 0.740845 0.893317
O O4 0.500000 0.741351 0.000000
O O5 0.750000 0.750000 0.500000
O O6 0.892171 0.759493 0.410276
O O7 0.777085 0.000000 0.538481
O O8 0.059310 0.763415 0.275022
O O9 0.219053 0.761397 0.169632
O O10 0.170555 0.000000 0.161290
O O11 0.250000 0.750000 0.000000
O O12 0.513204 0.500000 0.257046
O O13 0.582203 0.242731 0.110757
O O14 0.330647 0.000000 0.061564
#
# Coordination Sequence:
#
# PCOD9182036 Si02
#       5
#     8   8   8   8   8
#     4  11  24  40  56  75 103 140 178 217 264 315
#     4  11  23  38  57  80 106 138 175 216 263 313
#     4   8  15  29  50  77 107 138 173 210 251 304
#     4   9  18  34  55  79 109 143 175 210 257 312
#     4  10  19  32  55  84 109 137 175 218 260 303
#
# _framework density 18.604890999999999
#
# number of rings (size 3 to 8) (size 9 to 14) (size 15 to 20)
#    0.000    2.200    0.000    3.000    0.000    8.800 
#    0.000    1.000    0.000    6.000    0.000    0.000 
#    0.000    0.000    0.000    0.000    0.000    0.000 
#
# Total GULP energy -111548.115764 kJ/mol
# GULP energy per Si atom -5577.405788 kJ/mol
# Density = 1.856255 g / cm^3
# Si number density = 18.604891 Si / 1000 Ang^3
#
#
#
# Elastic Constant Matrix: (Units=GPa)
#
#
# Indices 1 2 3 4 5 6 
#
# 1 220.0848 35.5006 99.4636 0.0007 -21.7695 -0.0002
# 2 35.5006 27.1331 27.2245 -0.0001 -6.3447 -0.0003
# 3 99.4636 27.2245 119.0519 -0.0001 -16.9161 -0.0008
# 4 0.0007 -0.0001 -0.0001 26.6973 -0.0002 2.6046
# 5 -21.7695 -6.3447 -16.9161 -0.0002 34.6389 0.0004
# 6 -0.0002 -0.0003 -0.0008 2.6046 0.0004 24.8083
#
#
#
# Elastic Compliance Matrix: (Units=1/GPa)
#
#
# Indices 1 2 3 4 5 6 
#
# 1 0.007811 -0.004588 -0.005264 0.000000 0.001498 0.000000
# 2 -0.004588 0.050964 -0.007419 0.000000 0.002828 0.000000
# 3 -0.005264 -0.007419 0.014862 0.000000 0.002591 0.000000
# 4 0.000000 0.000000 0.000000 0.037845 0.000000 -0.003973
# 5 0.001498 0.002828 0.002591 0.000000 0.031594 0.000000
# 6 0.000000 0.000000 0.000000 -0.003973 0.000000 0.040726
#
#
# Mechanical properties :
#
#
# Convention : Reuss Voigt Hill
#
# Bulk Modulus (GPa) = 25.57880 76.73857 51.15869
# Shear Modulus (GPa) = 21.60994 30.83429 26.22211
#
# Velocity S-wave (km/s) = 3.41180 4.07544 3.75830
# Velocity P-wave (km/s) = 5.41284 7.96753 6.81104
#
# Compressibility (1/GPa) = 0.03909487
#
# Stress axis : x y z
#
# Youngs Moduli (GPa) = 128.02966 19.62174 67.28543
#
# Poissons Ratio (x) = 0.09002 0.35416
# Poissons Ratio (y) = 0.58738 0.49922
# Poissons Ratio (z) = 0.67389 0.14558
#
# Static dielectric constant tensor:
#      x y z
#    x 1.674710 0.000000 -0.043030 
#    y 0.000000 1.628650 0.000000 
#    z -0.043030 0.000000 1.605350 
# 
# From -- ./inp_files/211162.got.cif
#   From: 2010.05.17/outbox.cif.g08.bks.cpg/sg12_106_cif.got.tgz:211162.got - 2010.06.03 13:09:07.
