data_PCOD9182409
_publ_section_title
;
Structure prediction by ZEFSAII (Michael W. Deem and Ramdas Pophale) SiO2 
 PCOD9182409
Probable space group: C 2/M
;
_chemical_formula_sum "Si O2"
_cell_formula_units_Z 64
_cell_length_a 20.815589
_cell_length_b 7.608492
_cell_length_c 22.210798
_cell_angle_alpha 90.000000
_cell_angle_beta 117.044586
_cell_angle_gamma 90.000000
_cell_volume 3132.996979
_symmetry_space_group_name_H-M "C 2/M"
_symmetry_group_IT_number 12
_symmetry_cell_setting 'monoclinic'
loop_
_space_group_symop_operation_xyz
x,y,z
-x,y,-z
-x,-y,-z
x,-y,z
1/2+x,1/2+y,z
1/2-x,1/2+y,-z
1/2-x,1/2-y,-z
1/2+x,1/2-y,z
loop_
_atom_site_type_symbol
_atom_site_label
_atom_site_fract_x
_atom_site_fract_y
_atom_site_fract_z
Si Si1 0.650665 0.787207 0.702867
Si Si2 0.300636 0.290844 0.709139
Si Si3 0.155262 0.287020 0.840972
Si Si4 0.572605 0.293503 0.923898
Si Si5 0.227250 0.792114 0.557967
Si Si6 0.681208 0.714374 0.071389
Si Si7 0.578236 0.708008 0.550492
Si Si8 0.411029 0.714936 0.850983
O O1 0.729196 0.723984 0.713332
O O2 0.637756 0.729335 0.765563
O O3 0.594474 0.730240 0.628150
O O4 0.652051 0.000000 0.703480
O O5 0.300683 0.500000 0.717809
O O6 0.286727 0.260133 0.632967
O O7 0.372291 0.225453 0.772886
O O8 0.155165 0.500000 0.841312
O O9 0.100171 0.225103 0.867861
O O10 0.236097 0.226526 0.892560
O O11 0.567271 0.500000 0.936855
O O12 0.492112 0.219649 0.895192
O O13 0.633203 0.221402 0.995046
O O14 0.250000 0.750000 0.500000
O O15 0.149028 0.718136 0.545862
O O16 0.221212 0.000000 0.559958
O O17 0.683981 0.500000 0.070969
O O18 0.640516 0.762656 0.115513
O O19 0.500000 0.782161 0.500000
O O20 0.575985 0.500000 0.535905
O O21 0.414734 0.500000 0.851593
#
# Coordination Sequence:
#
# PCOD9182409 Si02
#       8
#     8   8   8   8   8   8   8   8
#     4   9  17  31  53  76  97 131 174 207 239 292
#     4   9  16  31  55  76  97 130 173 211 246 291
#     4  10  19  33  51  71 102 138 169 204 251 302
#     4  10  20  31  48  77 105 129 165 214 260 297
#     4  10  20  35  55  79 106 133 165 203 247 297
#     4   9  16  30  53  75  96 130 175 214 247 294
#     4   9  19  36  56  78 103 130 162 205 253 294
#     4   9  16  30  52  76  99 128 170 216 254 291
#
# _framework density 20.427723
#
# number of rings (size 3 to 8) (size 9 to 14) (size 15 to 20)
#    0.000    2.625    1.250    1.125    0.000    2.750 
#    2.250    0.625    0.000    3.000    0.000    0.000 
#    0.000    0.000    0.000    0.000    0.000    0.000 
#
# Total GULP energy -178538.791533 kJ/mol
# GULP energy per Si atom -5579.337235 kJ/mol
# Density = 2.038123 g / cm^3
# Si number density = 20.427723 Si / 1000 Ang^3
#
#
#
# Elastic Constant Matrix: (Units=GPa)
#
#
# Indices 1 2 3 4 5 6 
#
# 1 22.0662 -2.6466 -3.8847 0.0000 6.3324 0.0000
# 2 -2.6466 36.4896 -7.7240 0.0000 8.4428 0.0000
# 3 -3.8847 -7.7240 91.2211 0.0000 2.6009 0.0000
# 4 0.0000 0.0000 0.0000 7.9530 0.0000 -9.4226
# 5 6.3324 8.4428 2.6009 0.0000 30.9822 0.0000
# 6 0.0000 0.0000 0.0000 -9.4226 0.0000 8.3323
#
#
#
# Elastic Compliance Matrix: (Units=1/GPa)
#
#
# Indices 1 2 3 4 5 6 
#
# 1 0.050319 0.007202 0.003109 0.000000 -0.012508 0.000000
# 2 0.007202 0.030964 0.003219 0.000000 -0.010180 0.000000
# 3 0.003109 0.003219 0.011438 0.000000 -0.002473 0.000000
# 4 0.000000 0.000000 0.000000 -0.370035 0.000000 -0.418451
# 5 -0.012508 -0.010180 -0.002473 0.000000 0.037815 0.000000
# 6 0.000000 0.000000 0.000000 -0.418451 0.000000 -0.353189
#
#
# Mechanical properties :
#
#
# Convention : Reuss Voigt Hill
#
# Bulk Modulus (GPa) = 8.34858 13.47404 10.91131
# Shear Modulus (GPa) = -8.62336 20.38899 5.88282
#
# Velocity S-wave (km/s) = -2.05683 3.16271 1.69884
# Velocity P-wave (km/s) = 1.24298 4.46623 3.03333
#
# Compressibility (1/GPa) = 0.11978078
#
# Stress axis : x y z
#
# Youngs Moduli (GPa) = 19.87324 32.29540 87.42915
#
# Poissons Ratio (x) = -0.23259 -0.27184
# Poissons Ratio (y) = -0.14312 -0.28141
# Poissons Ratio (z) = -0.06179 -0.10395
#
# Static dielectric constant tensor:
#      x y z
#    x 1.697690 0.000000 0.034710 
#    y 0.000000 1.776380 0.000000 
#    z 0.034710 0.000000 1.702770 
# 
# From -- ./inp_files/319770.got.cif
#   From: 2010.05.17/outbox.cif.g08.bks.cpg/sg12_160_cif.got.tgz:319770.got - 2010.06.03 13:09:07.
