data_PCOD9182293
_publ_section_title
;
Structure prediction by ZEFSAII (Michael W. Deem and Ramdas Pophale) SiO2 
 PCOD9182293
Probable space group: C 2/M
;
_chemical_formula_sum "Si O2"
_cell_formula_units_Z 44
_cell_length_a 25.922030
_cell_length_b 13.494921
_cell_length_c 15.562278
_cell_angle_alpha 90.000000
_cell_angle_beta 151.660153
_cell_angle_gamma 90.000000
_cell_volume 2584.235879
_symmetry_space_group_name_H-M "C 2/M"
_symmetry_group_IT_number 12
_symmetry_cell_setting 'monoclinic'
loop_
_space_group_symop_operation_xyz
x,y,z
-x,y,-z
-x,-y,-z
x,-y,z
1/2+x,1/2+y,z
1/2-x,1/2+y,-z
1/2-x,1/2-y,-z
1/2+x,1/2-y,z
loop_
_atom_site_type_symbol
_atom_site_label
_atom_site_fract_x
_atom_site_fract_y
_atom_site_fract_z
Si Si1 0.732871 0.000000 0.946154
Si Si2 0.218318 0.210436 0.049409
Si Si3 0.041687 0.000000 0.655823
Si Si4 0.943444 0.000000 0.780941
Si Si5 0.173156 0.000000 0.214533
Si Si6 0.473188 0.330695 0.687326
Si Si7 0.509338 0.000000 0.412097
Si Si8 0.828292 0.322420 0.383169
O O1 0.827497 0.000000 0.154443
O O2 0.755203 0.905888 0.920008
O O3 0.611630 0.000000 0.803213
O O4 0.287974 0.234458 0.237077
O O5 0.250000 0.250000 0.000000
O O6 0.089321 0.223351 0.874953
O O7 0.000000 0.000000 0.500000
O O8 0.002173 0.096014 0.650418
O O9 0.853963 0.000000 0.724212
O O10 0.940613 0.902825 0.717147
O O11 0.060609 0.000000 0.998191
O O12 0.236067 0.898774 0.281213
O O13 0.376705 0.257571 0.519814
O O14 0.500000 0.000000 0.500000
O O15 0.572739 0.100550 0.485334
#
# Coordination Sequence:
#
# PCOD9182293 Si02
#       8
#     4   8   4   4   4   8   4   8
#     4  10  19  33  47  69 105 159 199 226 252 316
#     4  11  21  32  51  77 119 155 187 227 268 332
#     4   9  21  34  49  72 116 160 191 219 272 340
#     4  10  20  43  65  83 107 144 194 251 303 328
#     4  10  21  41  68  81 105 148 192 255 294 335
#     4  10  22  35  55  85 113 144 195 237 275 350
#     4  11  19  31  51  75 112 152 191 229 269 326
#     4  11  22  35  55  87 113 147 197 233 287 347
#
# _framework density 17.026309000000001
#
# number of rings (size 3 to 8) (size 9 to 14) (size 15 to 20)
#    0.000    1.636    3.636    2.182    5.091    0.727 
#    0.000    0.000    0.000    0.000    0.000    1.273 
#    0.000    0.000    0.000    0.000    0.000    0.000 
#
# Total GULP energy -122601.811067 kJ/mol
# GULP energy per Si atom -5572.809594 kJ/mol
# Density = 1.698756 g / cm^3
# Si number density = 17.026309 Si / 1000 Ang^3
#
#
#
# Elastic Constant Matrix: (Units=GPa)
#
#
# Indices 1 2 3 4 5 6 
#
# 1 97.4572 29.1078 44.3232 0.0000 -10.3434 0.0000
# 2 29.1078 64.6686 29.8239 0.0000 -7.8640 0.0000
# 3 44.3232 29.8239 109.1249 0.0000 -10.5127 0.0000
# 4 0.0000 0.0000 0.0000 28.2271 0.0000 -4.0307
# 5 -10.3434 -7.8640 -10.5127 0.0000 24.5345 0.0000
# 6 0.0000 0.0000 0.0000 -4.0307 0.0000 10.0534
#
#
#
# Elastic Compliance Matrix: (Units=1/GPa)
#
#
# Indices 1 2 3 4 5 6 
#
# 1 0.013617 -0.003856 -0.004217 0.000000 0.002698 0.000000
# 2 -0.003856 0.019123 -0.003365 0.000000 0.003062 0.000000
# 3 -0.004217 -0.003365 0.012017 0.000000 0.002293 0.000000
# 4 0.000000 0.000000 0.000000 0.037578 0.000000 0.015066
# 5 0.002698 0.003062 0.002293 0.000000 0.043860 0.000000
# 6 0.000000 0.000000 0.000000 0.015066 0.000000 0.105509
#
#
# Mechanical properties :
#
#
# Convention : Reuss Voigt Hill
#
# Bulk Modulus (GPa) = 45.70221 53.08451 49.39336
# Shear Modulus (GPa) = 19.09308 23.76272 21.42790
#
# Velocity S-wave (km/s) = 3.35234 3.73989 3.55141
# Velocity P-wave (km/s) = 6.47184 7.06361 6.77419
#
# Compressibility (1/GPa) = 0.02188078
#
# Stress axis : x y z
#
# Youngs Moduli (GPa) = 73.43860 52.29179 83.21403
#
# Poissons Ratio (x) = 0.20165 0.35091
# Poissons Ratio (y) = 0.28319 0.28003
# Poissons Ratio (z) = 0.30969 0.17597
#
# Static dielectric constant tensor:
#      x y z
#    x 1.580110 0.000000 -0.015460 
#    y 0.000000 1.573680 0.000000 
#    z -0.015460 0.000000 1.664970 
# 
# From -- ./inp_files/240380.got.cif
#   From: 2010.05.17/outbox.cif.g08.bks.cpg/sg12_121_cif.got.tgz:240380.got - 2010.06.03 13:09:07.
