data_PCOD9182875
_publ_section_title
;
Structure prediction by ZEFSAII (Michael W. Deem and Ramdas Pophale) SiO2 
 PCOD9182875
Probable space group: C 2/M
;
_chemical_formula_sum "Si O2"
_cell_formula_units_Z 48
_cell_length_a 13.508478
_cell_length_b 14.303892
_cell_length_c 24.939463
_cell_angle_alpha 90.000000
_cell_angle_beta 147.058429
_cell_angle_gamma 90.000000
_cell_volume 2620.437229
_symmetry_space_group_name_H-M "C 2/M"
_symmetry_group_IT_number 12
_symmetry_cell_setting 'monoclinic'
loop_
_space_group_symop_operation_xyz
x,y,z
-x,y,-z
-x,-y,-z
x,-y,z
1/2+x,1/2+y,z
1/2-x,1/2+y,-z
1/2-x,1/2-y,-z
1/2+x,1/2-y,z
loop_
_atom_site_type_symbol
_atom_site_label
_atom_site_fract_x
_atom_site_fract_y
_atom_site_fract_z
Si Si1 0.116492 0.767111 0.389944
Si Si2 0.020100 0.605051 0.188322
Si Si3 0.295131 0.110764 0.384306
Si Si4 0.680129 0.610839 0.113809
Si Si5 0.291309 0.605087 0.405114
Si Si6 0.280869 0.726621 0.759808
O O1 0.250000 0.750000 0.500000
O O2 0.169622 0.852156 0.375522
O O3 0.156478 0.673390 0.374444
O O4 0.912896 0.775236 0.317659
O O5 0.990827 0.500000 0.151677
O O6 0.205757 0.600006 0.307521
O O7 0.059845 0.695796 0.170716
O O8 0.854117 0.623945 0.153902
O O9 0.500000 0.128322 0.500000
O O10 0.244709 0.168568 0.307496
O O11 0.277359 0.000000 0.366439
O O12 0.667837 0.500000 0.118128
O O13 0.692595 0.661062 0.176529
O O14 0.500000 0.641117 0.000000
O O15 0.500000 0.638913 0.500000
O O16 0.291121 0.500000 0.428220
#
# Coordination Sequence:
#
# PCOD9182875 Si02
#       6
#     8   8   8   8   8   8
#     4  12  22  34  54  79 118 154 195 232 283 347
#     4  10  21  38  58  85 116 146 191 244 288 344
#     4  11  23  37  52  80 118 153 194 240 286 343
#     4  10  22  41  64  89 115 150 200 250 295 343
#     4  10  19  33  53  77 110 151 193 233 276 336
#     4  12  21  37  63  84 116 158 191 240 295 346
#
# _framework density 18.317554000000001
#
# number of rings (size 3 to 8) (size 9 to 14) (size 15 to 20)
#    0.000    1.167    5.000    2.000    0.000    2.667 
#    0.000    0.000    0.000    0.500    0.000    0.000 
#    0.000    0.000    0.000    0.000    0.000    0.000 
#
# Total GULP energy -133839.445408 kJ/mol
# GULP energy per Si atom -5576.643559 kJ/mol
# Density = 1.827586 g / cm^3
# Si number density = 18.317554 Si / 1000 Ang^3
#
#
#
# Elastic Constant Matrix: (Units=GPa)
#
#
# Indices 1 2 3 4 5 6 
#
# 1 88.4312 53.6520 37.1357 0.0002 -1.7302 -0.0010
# 2 53.6520 103.6971 14.3895 0.0001 -2.0066 -0.0004
# 3 37.1357 14.3895 79.1885 0.0005 5.7916 -0.0013
# 4 0.0002 0.0001 0.0005 -3.6732 0.0003 75.0741
# 5 -1.7302 -2.0066 5.7916 0.0003 20.9504 -0.0011
# 6 -0.0010 -0.0004 -0.0013 75.0741 -0.0011 -267.7937
#
#
#
# Elastic Compliance Matrix: (Units=1/GPa)
#
#
# Indices 1 2 3 4 5 6 
#
# 1 0.020490 -0.009416 -0.008120 0.000000 0.003035 0.000000
# 2 -0.009416 0.014265 0.001817 0.000000 0.000086 0.000000
# 3 -0.008120 0.001817 0.016475 0.000000 -0.005051 0.000000
# 4 0.000000 0.000000 0.000000 0.057559 0.000000 0.016136
# 5 0.003035 0.000086 -0.005051 0.000000 0.049387 0.000000
# 6 0.000000 0.000000 0.000000 0.016136 0.000000 0.000790
#
#
# Mechanical properties :
#
#
# Convention : Reuss Voigt Hill
#
# Bulk Modulus (GPa) = 50.52338 53.51903 52.02120
# Shear Modulus (GPa) = 25.38059 -39.02731 -6.82336
#
# Velocity S-wave (km/s) = 3.72639 -4.62085 -1.93213
# Velocity P-wave (km/s) = 6.79385 0.90064 4.84601
#
# Compressibility (1/GPa) = 0.01979282
#
# Stress axis : x y z
#
# Youngs Moduli (GPa) = 48.80372 70.10309 60.69745
#
# Poissons Ratio (x) = 0.66009 0.49286
# Poissons Ratio (y) = 0.45953 -0.11030
# Poissons Ratio (z) = 0.39628 -0.12740
#
# Static dielectric constant tensor:
#      x y z
#    x 1.642570 0.000000 -0.002290 
#    y 0.000000 1.691840 0.000000 
#    z -0.002290 0.000000 1.658110 
# 
# From -- ./inp_files/204269.got.cif
#   From: 2010.05.17/outbox.cif.g08.bks.cpg/sg12_103_cif.got.tgz:204269.got - 2010.06.03 13:09:07.
