data_PCOD9182845
_publ_section_title
;
Structure prediction by ZEFSAII (Michael W. Deem and Ramdas Pophale) SiO2 
 PCOD9182845
Probable space group: C 2/M
;
_chemical_formula_sum "Si O2"
_cell_formula_units_Z 64
_cell_length_a 28.605164
_cell_length_b 8.669260
_cell_length_c 14.771670
_cell_angle_alpha 90.000000
_cell_angle_beta 76.204851
_cell_angle_gamma 90.000000
_cell_volume 3557.495680
_symmetry_space_group_name_H-M "C 2/M"
_symmetry_group_IT_number 12
_symmetry_cell_setting 'monoclinic'
loop_
_space_group_symop_operation_xyz
x,y,z
-x,y,-z
-x,-y,-z
x,-y,z
1/2+x,1/2+y,z
1/2-x,1/2+y,-z
1/2-x,1/2-y,-z
1/2+x,1/2-y,z
loop_
_atom_site_type_symbol
_atom_site_label
_atom_site_fract_x
_atom_site_fract_y
_atom_site_fract_z
Si Si1 0.196480 0.185228 0.034422
Si Si2 0.390615 0.685800 0.051202
Si Si3 0.760892 0.184946 0.395008
Si Si4 0.063896 0.186657 0.783083
Si Si5 0.458379 0.183947 0.866817
Si Si6 0.335864 0.684837 0.611407
Si Si7 0.135926 0.812861 0.603739
Si Si8 0.129587 0.315712 0.221002
O O1 0.170681 0.244193 0.137584
O O2 0.198297 0.000000 0.034454
O O3 0.250000 0.250000 0.000000
O O4 0.160124 0.235054 0.969905
O O5 0.391384 0.500000 0.047371
O O6 0.402091 0.732476 0.148257
O O7 0.433332 0.747516 0.967716
O O8 0.750000 0.250000 0.500000
O O9 0.719283 0.257303 0.353396
O O10 0.816915 0.225476 0.357582
O O11 0.756402 0.000000 0.395603
O O12 0.088678 0.239737 0.678290
O O13 0.010857 0.249897 0.824110
O O14 0.061668 0.000000 0.782964
O O15 0.421277 0.221726 0.802786
O O16 0.460882 0.000000 0.874766
O O17 0.336143 0.500000 0.611618
O O18 0.355498 0.738986 0.503694
O O19 0.365826 0.749827 0.680813
O O20 0.134687 0.000000 0.600193
O O21 0.135215 0.500000 0.219570
#
# Coordination Sequence:
#
# PCOD9182845 Si02
#       8
#     8   8   8   8   8   8   8   8
#     4  10  20  35  54  80 113 142 172 211 254 302
#     4   9  19  34  54  78 103 137 175 206 245 308
#     4   9  16  29  49  72 101 136 172 209 252 301
#     4  10  19  34  55  76 100 133 171 209 254 308
#     4  10  21  36  53  75 102 130 166 216 267 310
#     4  10  19  33  53  77 104 136 177 218 259 310
#     4   8  17  32  50  75 106 137 170 210 253 304
#     4  10  21  37  55  74 100 138 179 215 259 312
#
# _framework density 17.990183999999999
#
# number of rings (size 3 to 8) (size 9 to 14) (size 15 to 20)
#    0.000    2.500    0.000    3.000    0.000    5.000 
#    0.000    6.875    0.000    3.750    0.000    0.000 
#    0.000    0.000    0.000    0.000    0.000    0.000 
#
# Total GULP energy -178417.667823 kJ/mol
# GULP energy per Si atom -5575.552119 kJ/mol
# Density = 1.794924 g / cm^3
# Si number density = 17.990184 Si / 1000 Ang^3
#
#
#
# Elastic Constant Matrix: (Units=GPa)
#
#
# Indices 1 2 3 4 5 6 
#
# 1 101.2641 28.5188 70.1573 0.0000 -14.0978 0.0000
# 2 28.5188 30.7191 25.5136 0.0000 2.0042 0.0000
# 3 70.1573 25.5136 97.9940 0.0000 3.0880 0.0000
# 4 0.0000 0.0000 0.0000 17.8223 0.0000 2.2175
# 5 -14.0978 2.0042 3.0880 0.0000 28.8775 0.0000
# 6 0.0000 0.0000 0.0000 2.2175 0.0000 30.9954
#
#
#
# Elastic Compliance Matrix: (Units=1/GPa)
#
#
# Indices 1 2 3 4 5 6 
#
# 1 0.027159 -0.012359 -0.016728 0.000000 0.015906 0.000000
# 2 -0.012359 0.047245 -0.003170 0.000000 -0.008973 0.000000
# 3 -0.016728 -0.003170 0.023335 0.000000 -0.010442 0.000000
# 4 0.000000 0.000000 0.000000 0.056614 0.000000 -0.004050
# 5 0.015906 -0.008973 -0.010442 0.000000 0.044133 0.000000
# 6 0.000000 0.000000 0.000000 -0.004050 0.000000 0.032553
#
#
# Mechanical properties :
#
#
# Convention : Reuss Voigt Hill
#
# Bulk Modulus (GPa) = 30.09648 53.15075 41.62361
# Shear Modulus (GPa) = 16.30647 22.59151 19.44899
#
# Velocity S-wave (km/s) = 3.01393 3.54753 3.29156
# Velocity P-wave (km/s) = 5.37377 6.81090 6.13456
#
# Compressibility (1/GPa) = 0.03322648
#
# Stress axis : x y z
#
# Youngs Moduli (GPa) = 36.81970 21.16645 42.85388
#
# Poissons Ratio (x) = 0.26159 0.71685
# Poissons Ratio (y) = 0.45504 0.13584
# Poissons Ratio (z) = 0.61592 0.06709
#
# Static dielectric constant tensor:
#      x y z
#    x 1.622340 0.000000 0.007590 
#    y 0.000000 1.606030 0.000000 
#    z 0.007590 0.000000 1.606880 
# 
# From -- ./inp_files/243872.got.cif
#   From: 2010.05.17/outbox.cif.g08.bks.cpg/sg12_122_cif.got.tgz:243872.got - 2010.06.03 13:09:07.
