data_PCOD9182044
_publ_section_title
;
Structure prediction by ZEFSAII (Michael W. Deem and Ramdas Pophale) SiO2 
 PCOD9182044
Probable space group: C 2/M
;
_chemical_formula_sum "Si O2"
_cell_formula_units_Z 48
_cell_length_a 11.762326
_cell_length_b 19.262714
_cell_length_c 21.050016
_cell_angle_alpha 90.000000
_cell_angle_beta 149.527729
_cell_angle_gamma 90.000000
_cell_volume 2418.660863
_symmetry_space_group_name_H-M "C 2/M"
_symmetry_group_IT_number 12
_symmetry_cell_setting 'monoclinic'
loop_
_space_group_symop_operation_xyz
x,y,z
-x,y,-z
-x,-y,-z
x,-y,z
1/2+x,1/2+y,z
1/2-x,1/2+y,-z
1/2-x,1/2-y,-z
1/2+x,1/2-y,z
loop_
_atom_site_type_symbol
_atom_site_label
_atom_site_fract_x
_atom_site_fract_y
_atom_site_fract_z
Si Si1 0.546461 0.921260 0.926406
Si Si2 0.127325 0.341179 0.702270
Si Si3 0.821697 0.423603 0.471676
Si Si4 0.236265 0.581746 0.877913
Si Si5 0.797497 0.285626 0.857949
Si Si6 0.986544 0.880669 0.208902
O O1 0.634661 0.905123 0.898117
O O2 0.390022 0.858491 0.874288
O O3 0.453762 0.000000 0.883832
O O4 0.769695 0.919058 0.077354
O O5 0.112945 0.377656 0.763302
O O6 0.206759 0.264039 0.759080
O O7 0.326632 0.375001 0.755877
O O8 0.902073 0.360893 0.555394
O O9 0.829337 0.500000 0.506790
O O10 0.591962 0.413033 0.323145
O O11 0.000000 0.424712 0.500000
O O12 0.217158 0.500000 0.856439
O O13 0.500000 0.598756 0.000000
O O14 0.598824 0.304878 0.810787
O O15 0.000000 0.257059 0.000000
#
# Coordination Sequence:
#
# PCOD9182044 Si02
#       6
#     8   8   8   8   8   8
#     4  10  21  37  57  85 117 148 186 229 281 339
#     4  11  21  35  56  82 117 143 190 233 282 333
#     4   9  19  35  57  83 109 142 186 238 282 322
#     4  10  19  32  55  84 112 146 183 231 284 329
#     4  10  24  36  55  84 115 155 185 225 281 341
#     4  10  21  36  57  83 110 150 185 235 281 326
#
# _framework density 19.845693000000001
#
# number of rings (size 3 to 8) (size 9 to 14) (size 15 to 20)
#    0.000    2.000    1.667    1.500    2.333    7.000 
#    0.000    0.000    0.000    0.000    0.000    3.500 
#    0.000    0.000    0.000    0.000    0.000    0.000 
#
# Total GULP energy -133819.275474 kJ/mol
# GULP energy per Si atom -5575.803145 kJ/mol
# Density = 1.980052 g / cm^3
# Si number density = 19.845693 Si / 1000 Ang^3
#
#
#
# Elastic Constant Matrix: (Units=GPa)
#
#
# Indices 1 2 3 4 5 6 
#
# 1 63.9961 42.0849 28.0155 0.0013 -15.3962 -0.0057
# 2 42.0849 99.9462 46.8971 0.0021 -18.5972 0.0006
# 3 28.0155 46.8971 100.0807 0.0161 -23.1240 0.0028
# 4 0.0013 0.0021 0.0161 22.3750 0.0027 -25.2985
# 5 -15.3962 -18.5972 -23.1240 0.0027 23.5320 0.0070
# 6 -0.0057 0.0006 0.0028 -25.2985 0.0070 49.6962
#
#
#
# Elastic Compliance Matrix: (Units=1/GPa)
#
#
# Indices 1 2 3 4 5 6 
#
# 1 0.023092 -0.007779 -0.000969 0.000002 0.008009 0.000003
# 2 -0.007779 0.016015 -0.004630 0.000001 0.003018 -0.000001
# 3 -0.000969 -0.004630 0.014801 -0.000033 0.010252 -0.000019
# 4 0.000002 0.000001 -0.000033 0.105303 -0.000058 0.053606
# 5 0.008009 0.003018 0.010252 -0.000058 0.060195 -0.000038
# 6 0.000003 -0.000001 -0.000019 0.053606 -0.000038 0.047411
#
#
# Mechanical properties :
#
#
# Convention : Reuss Voigt Hill
#
# Bulk Modulus (GPa) = 36.82673 55.33532 46.08103
# Shear Modulus (GPa) = 16.52226 28.92234 22.72230
#
# Velocity S-wave (km/s) = 2.88850 3.82168 3.38738
# Velocity P-wave (km/s) = 5.45173 6.88600 6.21041
#
# Compressibility (1/GPa) = 0.02715419
#
# Stress axis : x y z
#
# Youngs Moduli (GPa) = 43.30451 62.44269 67.56170
#
# Poissons Ratio (x) = 0.48573 0.06544
# Poissons Ratio (y) = 0.33686 0.31278
# Poissons Ratio (z) = 0.04194 0.28909
#
# Static dielectric constant tensor:
#      x y z
#    x 1.689370 0.000000 0.000370 
#    y 0.000000 1.751140 0.000000 
#    z 0.000370 0.000000 1.725960 
# 
# From -- ./inp_files/131788.got.cif
#   From: 2010.05.17/outbox.cif.g08.bks.cpg/sg12_66_cif.got.tgz:131788.got - 2010.06.03 13:09:07.
