data_PCOD9182774
_publ_section_title
;
Structure prediction by ZEFSAII (Michael W. Deem and Ramdas Pophale) SiO2 
 PCOD9182774
Probable space group: C 2/M
;
_chemical_formula_sum "Si O2"
_cell_formula_units_Z 56
_cell_length_a 16.108778
_cell_length_b 7.391136
_cell_length_c 20.180223
_cell_angle_alpha 90.000000
_cell_angle_beta 89.706886
_cell_angle_gamma 90.000000
_cell_volume 2402.669680
_symmetry_space_group_name_H-M "C 2/M"
_symmetry_group_IT_number 12
_symmetry_cell_setting 'monoclinic'
loop_
_space_group_symop_operation_xyz
x,y,z
-x,y,-z
-x,-y,-z
x,-y,z
1/2+x,1/2+y,z
1/2-x,1/2+y,-z
1/2-x,1/2-y,-z
1/2+x,1/2-y,z
loop_
_atom_site_type_symbol
_atom_site_label
_atom_site_fract_x
_atom_site_fract_y
_atom_site_fract_z
Si Si1 0.677049 0.779314 0.578579
Si Si2 0.918777 0.279795 0.700858
Si Si3 0.997090 0.708388 0.926889
Si Si4 0.369835 0.206112 0.558851
Si Si5 0.607963 0.781780 0.721213
Si Si6 0.347336 0.777844 0.836069
Si Si7 0.169698 0.795816 0.862792
O O1 0.622131 0.718599 0.515611
O O2 0.770233 0.707900 0.569967
O O3 0.642717 0.725982 0.649866
O O4 0.680434 0.000000 0.575970
O O5 0.912761 0.500000 0.697323
O O6 0.904657 0.211274 0.626359
O O7 0.856811 0.220195 0.759229
O O8 0.011081 0.234949 0.724016
O O9 0.970869 0.500000 0.935855
O O10 0.088567 0.708933 0.895044
O O11 0.928022 0.782581 0.876870
O O12 0.000000 0.791393 0.000000
O O13 0.401758 0.000000 0.555852
O O14 0.654583 0.703723 0.783895
O O15 0.614242 0.000000 0.725527
O O16 0.261696 0.716887 0.869934
O O17 0.345479 0.000000 0.834479
O O18 0.170958 0.000000 0.888594
#
# Coordination Sequence:
#
# PCOD9182774 Si02
#       7
#     8   8   8   8   8   8   8
#     4   9  18  30  46  72 102 133 177 231 275 319
#     4   9  16  29  52  74  99 138 182 226 267 319
#     4  10  21  40  64  86 113 150 186 219 264 329
#     4   9  17  30  48  70  98 137 180 222 277 333
#     4  10  19  33  53  75 105 143 184 231 274 322
#     4   9  18  34  56  82 112 147 184 221 270 326
#     4  11  22  36  58  86 115 146 182 229 277 323
#
# _framework density 23.307406
#
# number of rings (size 3 to 8) (size 9 to 14) (size 15 to 20)
#    0.000    2.429    1.429    1.286    0.000    3.143 
#    0.000    5.000    0.000    0.000    0.000    5.000 
#    0.000    0.000    0.000    0.000    0.000    0.000 
#
# Total GULP energy -156354.027202 kJ/mol
# GULP energy per Si atom -5584.072400 kJ/mol
# Density = 2.325436 g / cm^3
# Si number density = 23.307406 Si / 1000 Ang^3
#
#
#
# Elastic Constant Matrix: (Units=GPa)
#
#
# Indices 1 2 3 4 5 6 
#
# 1 51.9669 -7.6445 15.0469 0.0000 -25.2281 0.0000
# 2 -7.6445 78.0638 -2.5212 0.0000 2.6227 0.0000
# 3 15.0469 -2.5212 121.2472 0.0000 -19.3161 0.0000
# 4 0.0000 0.0000 0.0000 180.9672 0.0000 -9.0667
# 5 -25.2281 2.6227 -19.3161 0.0000 15.1597 0.0000
# 6 0.0000 0.0000 0.0000 -9.0667 0.0000 7.8059
#
#
#
# Elastic Compliance Matrix: (Units=1/GPa)
#
#
# Indices 1 2 3 4 5 6 
#
# 1 0.146378 0.005913 0.025849 0.000000 0.275509 0.000000
# 2 0.005913 0.013125 0.000935 0.000000 0.008760 0.000000
# 3 0.025849 0.000935 0.014914 0.000000 0.061858 0.000000
# 4 0.000000 0.000000 0.000000 0.005867 0.000000 0.006815
# 5 0.275509 0.008760 0.061858 0.000000 0.601758 0.000000
# 6 0.000000 0.000000 0.000000 0.006815 0.000000 0.136024
#
#
# Mechanical properties :
#
#
# Convention : Reuss Voigt Hill
#
# Bulk Modulus (GPa) = 4.16996 29.00448 16.58722
# Shear Modulus (GPa) = 5.36130 57.21299 31.28714
#
# Velocity S-wave (km/s) = 1.51830 4.95988 3.66781
# Velocity P-wave (km/s) = 2.20605 6.72844 5.00692
#
# Compressibility (1/GPa) = 0.23981032
#
# Stress axis : x y z
#
# Youngs Moduli (GPa) = 6.83162 76.19089 67.05147
#
# Poissons Ratio (x) = -0.45050 -1.73323
# Poissons Ratio (y) = -0.04039 -0.06267
# Poissons Ratio (z) = -0.17659 -0.07122
#
# Static dielectric constant tensor:
#      x y z
#    x 1.840770 0.000000 0.010740 
#    y 0.000000 1.856960 0.000000 
#    z 0.010740 0.000000 1.875330 
# 
# From -- ./inp_files/308946.got.cif
#   From: 2010.05.17/outbox.cif.g08.bks.cpg/sg12_155_cif.got.tgz:308946.got - 2010.06.03 13:09:07.
