data_PCOD9182097
_publ_section_title
;
Structure prediction by ZEFSAII (Michael W. Deem and Ramdas Pophale) SiO2 
 PCOD9182097
Probable space group: C 2/M
;
_chemical_formula_sum "Si O2"
_cell_formula_units_Z 56
_cell_length_a 23.570611
_cell_length_b 13.719193
_cell_length_c 20.616302
_cell_angle_alpha 90.000000
_cell_angle_beta 154.119419
_cell_angle_gamma 90.000000
_cell_volume 2909.988801
_symmetry_space_group_name_H-M "C 2/M"
_symmetry_group_IT_number 12
_symmetry_cell_setting 'monoclinic'
loop_
_space_group_symop_operation_xyz
x,y,z
-x,y,-z
-x,-y,-z
x,-y,z
1/2+x,1/2+y,z
1/2-x,1/2+y,-z
1/2-x,1/2-y,-z
1/2+x,1/2-y,z
loop_
_atom_site_type_symbol
_atom_site_label
_atom_site_fract_x
_atom_site_fract_y
_atom_site_fract_z
Si Si1 0.833431 0.114414 0.544826
Si Si2 0.775095 0.802709 0.625313
Si Si3 0.718279 0.383139 0.095207
Si Si4 0.499494 0.117091 0.665500
Si Si5 0.125623 0.883012 0.856479
Si Si6 0.903751 0.617540 0.091781
Si Si7 0.479463 0.750456 0.050582
O O1 0.811615 0.136512 0.598365
O O2 0.743572 0.189611 0.414279
O O3 0.983594 0.142253 0.684867
O O4 0.811049 0.000000 0.508921
O O5 0.632790 0.839889 0.498462
O O6 0.891482 0.808245 0.795389
O O7 0.709528 0.500000 0.095672
O O8 0.868956 0.357844 0.237699
O O9 0.644729 0.358078 0.951672
O O10 0.643649 0.322058 0.072257
O O11 0.521931 0.144664 0.764703
O O12 0.490411 0.000000 0.656000
O O13 0.129893 0.000000 0.859788
O O14 0.253268 0.851879 0.949003
O O15 0.909876 0.500000 0.093016
O O16 0.955405 0.668530 0.080846
O O17 0.500000 0.790550 0.000000
#
# Coordination Sequence:
#
# PCOD9182097 Si02
#       7
#     8   8   8   8   8   8   8
#     4  10  19  32  55  88 120 140 170 228 294 344
#     4  11  22  34  53  85 114 150 179 224 286 326
#     4   9  19  37  58  83 113 145 182 227 278 330
#     4   9  19  36  63  92 113 134 172 235 298 341
#     4   8  15  30  57  88 110 135 171 225 289 337
#     4   9  19  36  59  87 113 141 183 229 281 334
#     4  12  26  39  53  77 112 159 199 222 257 322
#
# _framework density 19.244060999999999
#
# number of rings (size 3 to 8) (size 9 to 14) (size 15 to 20)
#    0.000    2.286    1.429    3.857    2.000    4.000 
#    0.000    0.714    0.000    1.714    0.000    3.000 
#    0.000    0.000    0.000    0.000    0.000    0.000 
#
# Total GULP energy -156348.338408 kJ/mol
# GULP energy per Si atom -5583.869229 kJ/mol
# Density = 1.920026 g / cm^3
# Si number density = 19.244061 Si / 1000 Ang^3
#
#
#
# Elastic Constant Matrix: (Units=GPa)
#
#
# Indices 1 2 3 4 5 6 
#
# 1 77.4179 27.0530 29.7303 0.0001 13.9119 0.0001
# 2 27.0530 88.3224 10.7986 0.0001 9.2223 0.0000
# 3 29.7303 10.7986 53.2471 0.0001 26.9701 0.0001
# 4 0.0001 0.0001 0.0001 21.8347 0.0001 10.8181
# 5 13.9119 9.2223 26.9701 0.0001 19.4692 0.0001
# 6 0.0001 0.0000 0.0001 10.8181 0.0001 24.0961
#
#
#
# Elastic Compliance Matrix: (Units=1/GPa)
#
#
# Indices 1 2 3 4 5 6 
#
# 1 0.018204 -0.004733 -0.012573 0.000000 0.006652 0.000000
# 2 -0.004733 0.013177 0.004756 0.000000 -0.009447 0.000000
# 3 -0.012573 0.004756 0.071816 0.000000 -0.092753 0.000000
# 4 0.000000 0.000000 0.000000 0.058900 0.000000 -0.026444
# 5 0.006652 -0.009447 -0.092753 0.000000 0.179573 0.000000
# 6 0.000000 0.000000 0.000000 -0.026444 0.000000 0.053373
#
#
# Mechanical properties :
#
#
# Convention : Reuss Voigt Hill
#
# Bulk Modulus (GPa) = 12.80486 39.35013 26.07750
# Shear Modulus (GPa) = 11.20633 23.17370 17.19002
#
# Velocity S-wave (km/s) = 2.41576 3.47392 2.99199
# Velocity P-wave (km/s) = 3.80126 6.04840 5.05137
#
# Compressibility (1/GPa) = 0.07809536
#
# Stress axis : x y z
#
# Youngs Moduli (GPa) = 54.93283 75.89019 13.92444
#
# Poissons Ratio (x) = 0.35920 0.17508
# Poissons Ratio (y) = 0.26000 -0.06622
# Poissons Ratio (z) = 0.69069 -0.36091
#
# Static dielectric constant tensor:
#      x y z
#    x 1.658330 0.000000 0.051650 
#    y 0.000000 1.706830 0.000000 
#    z 0.051650 0.000000 1.683980 
# 
# From -- ./inp_files/284508.got.cif
#   From: 2010.05.17/outbox.cif.g08.bks.cpg/sg12_143_cif.got.tgz:284508.got - 2010.06.03 13:09:07.
