data_PCOD9182433
_publ_section_title
;
Structure prediction by ZEFSAII (Michael W. Deem and Ramdas Pophale) SiO2 
 PCOD9182433
Probable space group: C 2/M
;
_chemical_formula_sum "Si O2"
_cell_formula_units_Z 64
_cell_length_a 23.126502
_cell_length_b 8.507615
_cell_length_c 18.363936
_cell_angle_alpha 90.000000
_cell_angle_beta 84.609312
_cell_angle_gamma 90.000000
_cell_volume 3597.149682
_symmetry_space_group_name_H-M "C 2/M"
_symmetry_group_IT_number 12
_symmetry_cell_setting 'monoclinic'
loop_
_space_group_symop_operation_xyz
x,y,z
-x,y,-z
-x,-y,-z
x,-y,z
1/2+x,1/2+y,z
1/2-x,1/2+y,-z
1/2-x,1/2-y,-z
1/2+x,1/2-y,z
loop_
_atom_site_type_symbol
_atom_site_label
_atom_site_fract_x
_atom_site_fract_y
_atom_site_fract_z
Si Si1 0.687044 0.314681 0.028587
Si Si2 0.131746 0.312729 0.891802
Si Si3 0.328238 0.185786 0.559573
Si Si4 0.302558 0.809574 0.408441
Si Si5 0.897552 0.315218 0.845029
Si Si6 0.008829 0.813269 0.914310
Si Si7 0.789343 0.309768 0.250949
Si Si8 0.844560 0.187080 0.710280
O O1 0.690152 0.500000 0.040939
O O2 0.645892 0.274857 0.965206
O O3 0.750000 0.250000 0.000000
O O4 0.659441 0.234414 0.102472
O O5 0.139330 0.500000 0.901816
O O6 0.176032 0.256372 0.823978
O O7 0.065748 0.275158 0.878890
O O8 0.341519 0.231476 0.474014
O O9 0.259768 0.226821 0.574734
O O10 0.356882 0.271502 0.624689
O O11 0.337099 0.000000 0.566649
O O12 0.320561 0.769557 0.323927
O O13 0.293476 0.000000 0.412426
O O14 0.906535 0.500000 0.850860
O O15 0.951885 0.228239 0.875248
O O16 0.886600 0.266913 0.763227
O O17 0.018874 0.000000 0.911268
O O18 0.000000 0.766646 0.000000
O O19 0.788195 0.500000 0.247251
O O20 0.722040 0.259268 0.264406
O O21 0.846465 0.000000 0.719634
#
# Coordination Sequence:
#
# PCOD9182433 Si02
#       8
#     8   8   8   8   8   8   8   8
#     4  12  24  38  54  76 106 140 173 208 256 311
#     4  11  21  35  56  79 102 132 174 221 262 306
#     4   9  15  24  42  69 100 135 176 213 246 296
#     4   8  14  26  43  65  99 140 174 207 252 303
#     4  12  24  38  57  79 101 130 173 220 263 309
#     4  11  23  40  59  76  99 133 171 215 264 317
#     4   8  16  30  49  74 104 138 171 206 253 304
#     4  10  19  33  51  73 108 144 171 206 258 315
#
# _framework density 17.791864
#
# number of rings (size 3 to 8) (size 9 to 14) (size 15 to 20)
#    0.000    1.875    1.250    5.250    0.000    2.000 
#    0.000    5.625    0.000    0.000    0.000    0.875 
#    0.000    7.000    0.000    0.000    0.000    0.000 
#
# Total GULP energy -178508.853222 kJ/mol
# GULP energy per Si atom -5578.401663 kJ/mol
# Density = 1.775137 g / cm^3
# Si number density = 17.791864 Si / 1000 Ang^3
#
#
#
# Elastic Constant Matrix: (Units=GPa)
#
#
# Indices 1 2 3 4 5 6 
#
# 1 39.9277 -6.6925 0.1375 0.0000 13.6214 0.0000
# 2 -6.6925 29.5858 3.2419 0.0000 -2.1718 0.0000
# 3 0.1375 3.2419 79.9679 0.0000 22.7391 0.0000
# 4 0.0000 0.0000 0.0000 24.4519 0.0000 5.3516
# 5 13.6214 -2.1718 22.7391 0.0000 16.9561 0.0000
# 6 0.0000 0.0000 0.0000 5.3516 0.0000 22.6808
#
#
#
# Elastic Compliance Matrix: (Units=1/GPa)
#
#
# Indices 1 2 3 4 5 6 
#
# 1 0.045274 0.004271 0.016060 0.000000 -0.057360 0.000000
# 2 0.004271 0.035439 -0.002843 0.000000 0.004922 0.000000
# 3 0.016060 -0.002843 0.026452 0.000000 -0.048738 0.000000
# 4 0.000000 0.000000 0.000000 0.043124 0.000000 -0.010175
# 5 -0.057360 0.004922 -0.048738 0.000000 0.171047 0.000000
# 6 0.000000 0.000000 0.000000 -0.010175 0.000000 0.046491
#
#
# Mechanical properties :
#
#
# Convention : Reuss Voigt Hill
#
# Bulk Modulus (GPa) = 7.03537 15.87280 11.45409
# Shear Modulus (GPa) = 13.14987 23.00406 18.07696
#
# Velocity S-wave (km/s) = 2.72158 3.59967 3.19097
# Velocity P-wave (km/s) = 3.72006 5.12031 4.47529
#
# Compressibility (1/GPa) = 0.14213885
#
# Stress axis : x y z
#
# Youngs Moduli (GPa) = 22.08756 28.21751 37.80491
#
# Poissons Ratio (x) = -0.12051 -0.60713
# Poissons Ratio (y) = -0.09433 0.10750
# Poissons Ratio (z) = -0.35472 0.08024
#
# Static dielectric constant tensor:
#      x y z
#    x 1.594210 0.000000 0.017640 
#    y 0.000000 1.597640 0.000000 
#    z 0.017640 0.000000 1.650630 
# 
# From -- ./inp_files/281361.got.cif
#   From: 2010.05.17/outbox.cif.g08.bks.cpg/sg12_141_cif.got.tgz:281361.got - 2010.06.03 13:09:07.
