data_PCOD9182312
_publ_section_title
;
Structure prediction by ZEFSAII (Michael W. Deem and Ramdas Pophale) SiO2 
 PCOD9182312
Probable space group: C 2/M
;
_chemical_formula_sum "Si O2"
_cell_formula_units_Z 64
_cell_length_a 18.136433
_cell_length_b 12.149277
_cell_length_c 17.585277
_cell_angle_alpha 90.000000
_cell_angle_beta 97.278064
_cell_angle_gamma 90.000000
_cell_volume 3843.600560
_symmetry_space_group_name_H-M "C 2/M"
_symmetry_group_IT_number 12
_symmetry_cell_setting 'monoclinic'
loop_
_space_group_symop_operation_xyz
x,y,z
-x,y,-z
-x,-y,-z
x,-y,z
1/2+x,1/2+y,z
1/2-x,1/2+y,-z
1/2-x,1/2-y,-z
1/2+x,1/2-y,z
loop_
_atom_site_type_symbol
_atom_site_label
_atom_site_fract_x
_atom_site_fract_y
_atom_site_fract_z
Si Si1 0.862251 0.369142 0.283054
Si Si2 0.706612 0.723589 0.226645
Si Si3 0.242510 0.871886 0.907170
Si Si4 0.515201 0.133133 0.586506
Si Si5 0.125225 0.274956 0.983157
Si Si6 0.572934 0.372679 0.115319
Si Si7 0.968083 0.703264 0.165560
Si Si8 0.406761 0.873021 0.709506
O O1 0.873576 0.500000 0.271750
O O2 0.776019 0.341125 0.269573
O O3 0.905320 0.338502 0.366092
O O4 0.904415 0.306035 0.220546
O O5 0.737752 0.808371 0.167592
O O6 0.647045 0.646136 0.175713
O O7 0.661337 0.793795 0.282131
O O8 0.174560 0.809994 0.939559
O O9 0.227370 0.000000 0.893737
O O10 0.315200 0.855208 0.969943
O O11 0.500000 0.175948 0.500000
O O12 0.453559 0.163033 0.641591
O O13 0.512929 0.000000 0.582522
O O14 0.068161 0.333425 0.918588
O O15 0.085176 0.203956 0.043184
O O16 0.563819 0.500000 0.094829
O O17 0.503206 0.322760 0.152250
O O18 0.037126 0.636911 0.210802
O O19 0.384800 0.000000 0.698108
#
# Coordination Sequence:
#
# PCOD9182312 Si02
#       8
#     8   8   8   8   8   8   8   8
#     4  10  19  33  54  75  98 130 161 203 247 282
#     4  10  19  34  49  72  99 127 172 203 236 304
#     4  10  20  32  46  66  97 130 162 211 257 289
#     4   8  15  30  53  79 102 127 159 192 236 291
#     4  10  20  33  45  69  92 124 174 212 249 306
#     4  10  21  34  49  66  95 133 164 210 261 291
#     4  10  19  33  48  71  94 121 170 208 242 302
#     4   9  18  32  52  74 102 132 155 201 251 281
#
# _framework density 16.651053999999998
#
# number of rings (size 3 to 8) (size 9 to 14) (size 15 to 20)
#    0.000    2.375    1.250    2.625    0.000    2.500 
#    0.000    1.250    0.000    6.750    0.000    0.000 
#    0.000   56.000    0.000    0.000    0.000    0.000 
#
# Total GULP energy -178372.663100 kJ/mol
# GULP energy per Si atom -5574.145722 kJ/mol
# Density = 1.661316 g / cm^3
# Si number density = 16.651054 Si / 1000 Ang^3
#
#
#
# Elastic Constant Matrix: (Units=GPa)
#
#
# Indices 1 2 3 4 5 6 
#
# 1 90.1502 10.6083 43.5906 0.0000 4.3521 0.0000
# 2 10.6083 35.3404 18.2335 0.0000 -5.8141 0.0000
# 3 43.5906 18.2335 104.8063 0.0000 10.8296 0.0000
# 4 0.0000 0.0000 0.0000 13.2664 0.0000 -2.2085
# 5 4.3521 -5.8141 10.8296 0.0000 17.1844 0.0000
# 6 0.0000 0.0000 0.0000 -2.2085 0.0000 16.8529
#
#
#
# Elastic Compliance Matrix: (Units=1/GPa)
#
#
# Indices 1 2 3 4 5 6 
#
# 1 0.013945 -0.001445 -0.005490 0.000000 -0.000561 0.000000
# 2 -0.001445 0.035263 -0.007278 0.000000 0.016883 0.000000
# 3 -0.005490 -0.007278 0.014122 0.000000 -0.009971 0.000000
# 4 0.000000 0.000000 0.000000 0.077060 0.000000 0.010098
# 5 -0.000561 0.016883 -0.009971 0.000000 0.070330 0.000000
# 6 0.000000 0.000000 0.000000 0.010098 0.000000 0.060660
#
#
# Mechanical properties :
#
#
# Convention : Reuss Voigt Hill
#
# Bulk Modulus (GPa) = 28.65247 41.68464 35.16855
# Shear Modulus (GPa) = 16.05443 19.98504 18.01974
#
# Velocity S-wave (km/s) = 3.10848 3.46819 3.29325
# Velocity P-wave (km/s) = 5.48894 6.41298 5.96887
#
# Compressibility (1/GPa) = 0.03490101
#
# Stress axis : x y z
#
# Youngs Moduli (GPa) = 71.71279 28.35850 70.81399
#
# Poissons Ratio (x) = 0.04099 0.38880
# Poissons Ratio (y) = 0.10364 0.51540
# Poissons Ratio (z) = 0.39373 0.20640
#
# Static dielectric constant tensor:
#      x y z
#    x 1.586540 0.000000 0.013840 
#    y 0.000000 1.535620 0.000000 
#    z 0.013840 0.000000 1.566840 
# 
# From -- ./inp_files/276528.got.cif
#   From: 2010.05.17/outbox.cif.g08.bks.cpg/sg12_139_cif.got.tgz:276528.got - 2010.06.03 13:09:07.
