data_PCOD9182805
_publ_section_title
;
Structure prediction by ZEFSAII (Michael W. Deem and Ramdas Pophale) SiO2 
 PCOD9182805
Probable space group: C 2/M
;
_chemical_formula_sum "Si O2"
_cell_formula_units_Z 64
_cell_length_a 13.485763
_cell_length_b 29.313273
_cell_length_c 14.228658
_cell_angle_alpha 90.000000
_cell_angle_beta 149.936856
_cell_angle_gamma 90.000000
_cell_volume 2817.745254
_symmetry_space_group_name_H-M "C 2/M"
_symmetry_group_IT_number 12
_symmetry_cell_setting 'monoclinic'
loop_
_space_group_symop_operation_xyz
x,y,z
-x,y,-z
-x,-y,-z
x,-y,z
1/2+x,1/2+y,z
1/2-x,1/2+y,-z
1/2-x,1/2-y,-z
1/2+x,1/2-y,z
loop_
_atom_site_type_symbol
_atom_site_label
_atom_site_fract_x
_atom_site_fract_y
_atom_site_fract_z
Si Si1 0.102098 0.053351 0.232286
Si Si2 0.815251 0.445973 0.224889
Si Si3 0.778676 0.245780 0.779070
Si Si4 0.973357 0.386636 0.199149
Si Si5 0.289643 0.149205 0.768850
Si Si6 0.611340 0.699258 0.300402
Si Si7 0.085269 0.111716 0.776653
Si Si8 0.987391 0.286890 0.270847
O O1 0.265456 0.070073 0.290412
O O2 0.071026 0.076194 0.308203
O O3 0.138244 0.000000 0.274274
O O4 0.893155 0.058268 0.003797
O O5 0.864323 0.500000 0.267728
O O6 0.970164 0.417005 0.290394
O O7 0.739345 0.297389 0.710198
O O8 0.776024 0.203364 0.705056
O O9 0.622363 0.234012 0.730499
O O10 0.000000 0.246227 0.000000
O O11 0.162808 0.378149 0.287897
O O12 0.908854 0.335393 0.175063
O O13 0.799474 0.405030 0.989258
O O14 0.127561 0.126264 0.704186
O O15 0.500000 0.150102 0.000000
O O16 0.481628 0.656975 0.222217
O O17 0.783497 0.703184 0.518125
O O18 0.484862 0.745850 0.195040
#
# Coordination Sequence:
#
# PCOD9182805 Si02
#       8
#     8   8   8   8   8   8   8   8
#     4   8  15  29  50  77 105 130 165 218 272 317
#     4   8  15  29  50  77 105 130 165 218 272 317
#     4  11  21  35  53  72 102 142 180 220 262 311
#     4  10  19  33  53  76 102 138 181 218 261 316
#     4   9  18  31  48  73 104 134 174 223 257 302
#     4  11  23  36  50  74 108 141 176 219 264 310
#     4  10  19  33  53  76 102 138 181 218 261 316
#     4  11  23  36  50  74 108 141 176 219 264 310
#
# _framework density 22.713196
#
# number of rings (size 3 to 8) (size 9 to 14) (size 15 to 20)
#    0.000    2.250    2.500    1.875    1.750    1.000 
#    0.000    1.250    0.000    4.500    0.000    1.750 
#    0.000    2.000    0.000    0.000    0.000    0.000 
#
# Total GULP energy -178560.672414 kJ/mol
# GULP energy per Si atom -5580.021013 kJ/mol
# Density = 2.266150 g / cm^3
# Si number density = 22.713196 Si / 1000 Ang^3
#
#
#
# Elastic Constant Matrix: (Units=GPa)
#
#
# Indices 1 2 3 4 5 6 
#
# 1 211.3826 65.1133 7.8144 0.0000 8.3630 0.0000
# 2 65.1133 66.0229 -1.8769 0.0000 5.7562 0.0000
# 3 7.8144 -1.8769 64.1165 0.0001 20.3450 0.0000
# 4 0.0000 0.0000 0.0001 10.0285 0.0000 -1.2914
# 5 8.3630 5.7562 20.3450 0.0000 24.8289 0.0000
# 6 0.0000 0.0000 0.0000 -1.2914 0.0000 48.3533
#
#
#
# Elastic Compliance Matrix: (Units=1/GPa)
#
#
# Indices 1 2 3 4 5 6 
#
# 1 0.006863 -0.006814 -0.001086 0.000000 0.000158 0.000000
# 2 -0.006814 0.022445 0.003257 0.000000 -0.005578 0.000000
# 3 -0.001086 0.003257 0.021551 0.000000 -0.018049 0.000000
# 4 0.000000 0.000000 0.000000 0.100060 0.000000 0.002672
# 5 0.000158 -0.005578 -0.018049 0.000000 0.056305 0.000000
# 6 0.000000 0.000000 0.000000 0.002672 0.000000 0.020753
#
#
# Mechanical properties :
#
#
# Convention : Reuss Voigt Hill
#
# Bulk Modulus (GPa) = 24.05283 53.73597 38.89440
# Shear Modulus (GPa) = 19.91078 34.67353 27.29216
#
# Velocity S-wave (km/s) = 2.96398 3.91139 3.47017
# Velocity P-wave (km/s) = 4.72508 6.64142 5.76346
#
# Compressibility (1/GPa) = 0.04157516
#
# Stress axis : x y z
#
# Youngs Moduli (GPa) = 145.69870 44.55375 46.40065
#
# Poissons Ratio (x) = 0.30357 0.05039
# Poissons Ratio (y) = 0.99272 -0.15114
# Poissons Ratio (z) = 0.15823 -0.14512
#
# Static dielectric constant tensor:
#      x y z
#    x 1.857910 0.000000 -0.006060 
#    y 0.000000 1.829800 0.000000 
#    z -0.006060 0.000000 1.931600 
# 
# From -- ./inp_files/209884.got.cif
#   From: 2010.05.17/outbox.cif.g08.bks.cpg/sg12_105_cif.got.tgz:209884.got - 2010.06.03 13:09:07.
