data_PCOD9182685
_publ_section_title
;
Structure prediction by ZEFSAII (Michael W. Deem and Ramdas Pophale) SiO2 
 PCOD9182685
Probable space group: C 2/M
;
_chemical_formula_sum "Si O2"
_cell_formula_units_Z 56
_cell_length_a 22.757609
_cell_length_b 17.554603
_cell_length_c 18.199714
_cell_angle_alpha 90.000000
_cell_angle_beta 23.515038
_cell_angle_gamma 90.000000
_cell_volume 2900.974725
_symmetry_space_group_name_H-M "C 2/M"
_symmetry_group_IT_number 12
_symmetry_cell_setting 'monoclinic'
loop_
_space_group_symop_operation_xyz
x,y,z
-x,y,-z
-x,-y,-z
x,-y,z
1/2+x,1/2+y,z
1/2-x,1/2+y,-z
1/2-x,1/2-y,-z
1/2+x,1/2-y,z
loop_
_atom_site_type_symbol
_atom_site_label
_atom_site_fract_x
_atom_site_fract_y
_atom_site_fract_z
Si Si1 0.595652 0.914981 0.117513
Si Si2 0.136179 0.584580 0.898167
Si Si3 0.612266 0.299798 0.435677
Si Si4 0.364171 0.816195 0.344686
Si Si5 0.626999 0.288566 0.794507
Si Si6 0.059239 0.909887 0.254122
Si Si7 0.125673 0.087678 0.670345
O O1 0.492127 0.842562 0.253472
O O2 0.552805 0.000000 0.194509
O O3 0.585894 0.917220 0.040170
O O4 0.765685 0.901919 0.940200
O O5 0.196150 0.500000 0.812392
O O6 0.264668 0.644872 0.740315
O O7 0.000000 0.597361 0.000000
O O8 0.500000 0.275409 0.500000
O O9 0.713025 0.233696 0.356276
O O10 0.524390 0.350907 0.596533
O O11 0.250000 0.750000 0.500000
O O12 0.418385 0.782012 0.206223
O O13 0.262450 0.890865 0.460308
O O14 0.633517 0.361265 0.733662
O O15 0.500000 0.298436 0.000000
O O16 0.012064 0.894936 0.224167
O O17 0.024086 0.000000 0.310669
O O18 0.127567 0.000000 0.687397
#
# Coordination Sequence:
#
# PCOD9182685 Si02
#       7
#     8   8   8   8   8   8   8
#     4  10  19  33  52  82 124 160 198 242 297 366
#     4  10  20  30  47  80 121 168 205 234 288 363
#     4  12  21  33  56  84 132 168 200 248 307 373
#     4  10  20  37  60  87 118 155 198 253 305 364
#     4  11  24  41  62  90 126 159 210 264 306 374
#     4  10  21  35  57  90 126 165 206 248 305 376
#     4  10  22  43  68  89 117 164 213 260 310 364
#
# _framework density 19.303856
#
# number of rings (size 3 to 8) (size 9 to 14) (size 15 to 20)
#    0.000    1.571    2.857    3.000    0.000    0.857 
#    0.000    5.714    0.000    0.857    0.000    0.000 
#    0.000    0.000    0.000    0.000    0.000    0.000 
#
# Total GULP energy -156146.986952 kJ/mol
# GULP energy per Si atom -5576.678105 kJ/mol
# Density = 1.925992 g / cm^3
# Si number density = 19.303856 Si / 1000 Ang^3
#
#
#
# Elastic Constant Matrix: (Units=GPa)
#
#
# Indices 1 2 3 4 5 6 
#
# 1 94.6531 67.5761 42.3858 0.0007 -20.4533 -0.0006
# 2 67.5761 100.4988 46.3599 -0.0017 -7.7499 0.0005
# 3 42.3858 46.3599 78.5065 -0.0015 -16.2155 -0.0005
# 4 0.0007 -0.0017 -0.0015 23.7767 0.0002 -1.7873
# 5 -20.4533 -7.7499 -16.2155 0.0002 37.5249 0.0001
# 6 -0.0006 0.0005 -0.0005 -1.7873 0.0001 26.8826
#
#
#
# Elastic Compliance Matrix: (Units=1/GPa)
#
#
# Indices 1 2 3 4 5 6 
#
# 1 0.023673 -0.013995 -0.002688 -0.000002 0.008851 0.000001
# 2 -0.013995 0.021968 -0.006648 0.000002 -0.005964 -0.000001
# 3 -0.002688 -0.006648 0.019247 0.000001 0.005479 0.000000
# 4 -0.000002 0.000002 0.000001 0.042269 -0.000001 0.002810
# 5 0.008851 -0.005964 0.005479 -0.000001 0.032609 0.000000
# 6 0.000001 -0.000001 0.000000 0.002810 0.000000 0.037386
#
#
# Mechanical properties :
#
#
# Convention : Reuss Voigt Hill
#
# Bulk Modulus (GPa) = 54.87343 65.14469 60.00906
# Shear Modulus (GPa) = 21.74950 25.45928 23.60439
#
# Velocity S-wave (km/s) = 3.36026 3.63556 3.50062
# Velocity P-wave (km/s) = 6.59871 7.17240 6.89153
#
# Compressibility (1/GPa) = 0.01822376
#
# Stress axis : x y z
#
# Youngs Moduli (GPa) = 42.24210 45.52114 51.95637
#
# Poissons Ratio (x) = 0.63708 0.13968
# Poissons Ratio (y) = 0.59119 0.34543
# Poissons Ratio (z) = 0.11356 0.30264
#
# Static dielectric constant tensor:
#      x y z
#    x 1.697990 0.000000 0.003160 
#    y 0.000000 1.753350 0.000000 
#    z 0.003160 0.000000 1.740530 
# 
# From -- ./inp_files/325984.got.cif
#   From: 2010.05.17/outbox.cif.g08.bks.cpg/sg12_163_cif.got.tgz:325984.got - 2010.06.03 13:09:07.
