data_PCOD9182452
_publ_section_title
;
Structure prediction by ZEFSAII (Michael W. Deem and Ramdas Pophale) SiO2 
 PCOD9182452
Probable space group: C 2/M
;
_chemical_formula_sum "Si O2"
_cell_formula_units_Z 32
_cell_length_a 9.444347
_cell_length_b 18.521651
_cell_length_c 7.964005
_cell_angle_alpha 90.000000
_cell_angle_beta 67.408099
_cell_angle_gamma 90.000000
_cell_volume 1286.202374
_symmetry_space_group_name_H-M "C 2/M"
_symmetry_group_IT_number 12
_symmetry_cell_setting 'monoclinic'
loop_
_space_group_symop_operation_xyz
x,y,z
-x,y,-z
-x,-y,-z
x,-y,z
1/2+x,1/2+y,z
1/2-x,1/2+y,-z
1/2-x,1/2-y,-z
1/2+x,1/2-y,z
loop_
_atom_site_type_symbol
_atom_site_label
_atom_site_fract_x
_atom_site_fract_y
_atom_site_fract_z
Si Si1 0.317212 0.171092 0.320149
Si Si2 0.670300 0.792703 0.192178
Si Si3 0.202494 0.913689 0.056176
Si Si4 0.898819 0.082348 0.372552
O O1 0.489409 0.198207 0.259090
O O2 0.212501 0.240059 0.324341
O O3 0.246877 0.128910 0.509227
O O4 0.302714 0.116148 0.167548
O O5 0.739576 0.872557 0.134705
O O6 0.527488 0.607405 0.181993
O O7 0.210347 0.000000 0.042508
O O8 0.250000 0.750000 0.000000
O O9 0.000000 0.081164 0.500000
O O10 0.856569 0.000000 0.352516
#
# Coordination Sequence:
#
# PCOD9182452 Si02
#       4
#     8   8   8   8
#     4  10  19  33  51  75 108 138 170 211 256 310
#     4  10  20  33  50  75 109 139 169 211 257 310
#     4   9  17  31  52  78 104 131 171 220 261 298
#     4   8  15  30  52  78 103 129 170 221 262 296
#
# _framework density 24.879442999999998
#
# number of rings (size 3 to 8) (size 9 to 14) (size 15 to 20)
#    0.000    2.750    0.000    5.250    0.000    3.000 
#    0.000   22.500    0.000   13.500    0.000    0.000 
#    0.000  159.000    0.000    0.000    0.000    0.000 
#
# Total GULP energy -89618.713527 kJ/mol
# GULP energy per Si atom -5601.169595 kJ/mol
# Density = 2.482282 g / cm^3
# Si number density = 24.879443 Si / 1000 Ang^3
#
#
#
# Elastic Constant Matrix: (Units=GPa)
#
#
# Indices 1 2 3 4 5 6 
#
# 1 181.2432 74.1836 66.3028 0.0000 -48.0071 0.0000
# 2 74.1836 148.6146 64.3665 0.0000 -27.5995 0.0000
# 3 66.3028 64.3665 148.9949 0.0000 -11.2699 0.0000
# 4 0.0000 0.0000 0.0000 50.3803 0.0000 -14.8606
# 5 -48.0071 -27.5995 -11.2699 0.0000 43.8924 0.0000
# 6 0.0000 0.0000 0.0000 -14.8606 0.0000 38.0433
#
#
#
# Elastic Compliance Matrix: (Units=1/GPa)
#
#
# Indices 1 2 3 4 5 6 
#
# 1 0.009615 -0.002018 -0.002761 0.000000 0.008539 0.000000
# 2 -0.002018 0.009614 -0.003024 0.000000 0.003062 0.000000
# 3 -0.002761 -0.003024 0.009050 0.000000 -0.002598 0.000000
# 4 0.000000 0.000000 0.000000 0.022434 0.000000 0.008763
# 5 0.008539 0.003062 -0.002598 0.000000 0.033381 0.000000
# 6 0.000000 0.000000 0.000000 0.008763 0.000000 0.029709
#
#
# Mechanical properties :
#
#
# Convention : Reuss Voigt Hill
#
# Bulk Modulus (GPa) = 78.90254 98.72870 88.81562
# Shear Modulus (GPa) = 37.41565 44.72985 41.07275
#
# Velocity S-wave (km/s) = 3.88219 4.24472 4.06750
# Velocity P-wave (km/s) = 7.20264 7.98702 7.60495
#
# Compressibility (1/GPa) = 0.01267386
#
# Stress axis : x y z
#
# Youngs Moduli (GPa) = 104.00182 104.01018 110.49488
#
# Poissons Ratio (x) = 0.20989 0.30509
# Poissons Ratio (y) = 0.20987 0.33412
# Poissons Ratio (z) = 0.28716 0.31451
#
# Static dielectric constant tensor:
#      x y z
#    x 2.046640 0.000000 0.169580 
#    y 0.000000 1.971830 0.000000 
#    z 0.169580 0.000000 2.069950 
# 
# From -- ./inp_files/128512.got.cif
#   From: 2010.05.17/outbox.cif.g08.bks.cpg/sg12_65_cif.got.tgz:128512.got - 2010.06.03 13:09:07.
