data_PCOD9182321
_publ_section_title
;
Structure prediction by ZEFSAII (Michael W. Deem and Ramdas Pophale) SiO2 
 PCOD9182321
Probable space group: C 2/M
;
_chemical_formula_sum "Si O2"
_cell_formula_units_Z 64
_cell_length_a 22.027318
_cell_length_b 33.479332
_cell_length_c 5.319591
_cell_angle_alpha 90.000000
_cell_angle_beta 97.542028
_cell_angle_gamma 90.000000
_cell_volume 3889.046675
_symmetry_space_group_name_H-M "C 2/M"
_symmetry_group_IT_number 12
_symmetry_cell_setting 'monoclinic'
loop_
_space_group_symop_operation_xyz
x,y,z
-x,y,-z
-x,-y,-z
x,-y,z
1/2+x,1/2+y,z
1/2-x,1/2+y,-z
1/2-x,1/2-y,-z
1/2+x,1/2-y,z
loop_
_atom_site_type_symbol
_atom_site_label
_atom_site_fract_x
_atom_site_fract_y
_atom_site_fract_z
Si Si1 0.066096 0.224326 0.076172
Si Si2 0.732338 0.408475 0.464666
Si Si3 0.733632 0.453662 0.968367
Si Si4 0.592638 0.322487 0.602896
Si Si5 0.770793 0.181943 0.454178
Si Si6 0.195201 0.745063 0.164684
Si Si7 0.915595 0.045814 0.085878
Si Si8 0.084251 0.089700 0.414012
O O1 0.067679 0.189659 0.862477
O O2 0.074635 0.207959 0.366432
O O3 0.125143 0.251406 0.043629
O O4 0.000000 0.243957 0.000000
O O5 0.754871 0.433188 0.237520
O O6 0.745289 0.361366 0.448737
O O7 0.658383 0.411778 0.433845
O O8 0.753397 0.428016 0.737591
O O9 0.751604 0.500000 0.957107
O O10 0.659061 0.453039 0.941409
O O11 0.667083 0.324278 0.676096
O O12 0.570772 0.365140 0.488087
O O13 0.794043 0.216050 0.656443
O O14 0.712168 0.202975 0.299587
O O15 0.250000 0.750000 0.000000
O O16 0.935531 0.061810 0.366917
O O17 0.932760 0.000000 0.051771
O O18 0.936193 0.073555 0.866524
#
# Coordination Sequence:
#
# PCOD9182321 Si02
#       8
#     8   8   8   8   8   8   8   8
#     4  11  22  35  51  71  95 123 154 194 238 282
#     4   9  17  25  40  59  84 114 157 193 224 276
#     4   9  16  25  36  54  84 122 153 184 228 279
#     4  10  19  33  49  67  93 119 155 196 237 284
#     4   9  19  30  47  72  92 126 163 203 243 276
#     4  10  19  33  51  69  99 127 163 201 238 287
#     4   9  15  23  35  56  85 112 140 178 227 282
#     4   9  16  25  39  58  81 113 142 182 230 274
#
# _framework density 16.456475000000001
#
# number of rings (size 3 to 8) (size 9 to 14) (size 15 to 20)
#    0.000    2.500    1.250    1.875    1.750    6.000 
#    0.000    0.000    0.000    0.000    0.000    0.000 
#    0.000   35.000    0.000    9.375    0.000   13.250 
#
# Total GULP energy -178313.845060 kJ/mol
# GULP energy per Si atom -5572.307658 kJ/mol
# Density = 1.641902 g / cm^3
# Si number density = 16.456475 Si / 1000 Ang^3
#
#
#
# Elastic Constant Matrix: (Units=GPa)
#
#
# Indices 1 2 3 4 5 6 
#
# 1 51.6060 17.6122 12.9964 0.0000 14.8262 0.0000
# 2 17.6122 83.6297 29.9920 0.0000 7.4054 0.0000
# 3 12.9964 29.9920 77.7868 0.0000 -3.9113 0.0000
# 4 0.0000 0.0000 0.0000 5.8815 0.0000 -7.6926
# 5 14.8262 7.4054 -3.9113 0.0000 17.7617 0.0000
# 6 0.0000 0.0000 0.0000 -7.6926 0.0000 -19.2570
#
#
#
# Elastic Compliance Matrix: (Units=1/GPa)
#
#
# Indices 1 2 3 4 5 6 
#
# 1 0.028201 -0.001982 -0.005147 0.000000 -0.023848 0.000000
# 2 -0.001982 0.014945 -0.005725 0.000000 -0.005837 0.000000
# 3 -0.005147 -0.005725 0.016441 0.000000 0.010303 0.000000
# 4 0.000000 0.000000 0.000000 0.111677 0.000000 -0.044611
# 5 -0.023848 -0.005837 0.010303 0.000000 0.080910 0.000000
# 6 0.000000 0.000000 0.000000 -0.044611 0.000000 -0.034108
#
#
# Mechanical properties :
#
#
# Convention : Reuss Voigt Hill
#
# Bulk Modulus (GPa) = 29.51526 37.13596 33.32561
# Shear Modulus (GPa) = 19.60283 11.03869 15.32076
#
# Velocity S-wave (km/s) = 3.45511 2.59275 3.05452
# Velocity P-wave (km/s) = 5.82163 5.61946 5.72144
#
# Compressibility (1/GPa) = 0.03388078
#
# Stress axis : x y z
#
# Youngs Moduli (GPa) = 35.45925 66.91328 60.82402
#
# Poissons Ratio (x) = 0.13260 0.31305
# Poissons Ratio (y) = 0.07027 0.34819
# Poissons Ratio (z) = 0.18250 0.38305
#
# Static dielectric constant tensor:
#      x y z
#    x 1.604040 0.000000 -0.006440 
#    y 0.000000 1.573030 0.000000 
#    z -0.006440 0.000000 1.612790 
# 
# From -- ./inp_files/22806.got.cif
#   From: 2010.05.17/outbox.cif.g08.bks.cpg/sg12_12_cif.got.tgz:22806.got - 2010.06.03 13:09:07.
