data_PCOD9182891
_publ_section_title
;
Structure prediction by ZEFSAII (Michael W. Deem and Ramdas Pophale) SiO2 
 PCOD9182891
Probable space group: C 2/M
;
_chemical_formula_sum "Si O2"
_cell_formula_units_Z 48
_cell_length_a 22.248677
_cell_length_b 7.422205
_cell_length_c 12.989045
_cell_angle_alpha 90.000000
_cell_angle_beta 101.513535
_cell_angle_gamma 90.000000
_cell_volume 2101.774792
_symmetry_space_group_name_H-M "C 2/M"
_symmetry_group_IT_number 12
_symmetry_cell_setting 'monoclinic'
loop_
_space_group_symop_operation_xyz
x,y,z
-x,y,-z
-x,-y,-z
x,-y,z
1/2+x,1/2+y,z
1/2-x,1/2+y,-z
1/2-x,1/2-y,-z
1/2+x,1/2-y,z
loop_
_atom_site_type_symbol
_atom_site_label
_atom_site_fract_x
_atom_site_fract_y
_atom_site_fract_z
Si Si1 0.903923 0.796349 0.694367
Si Si2 0.427795 0.706880 0.481341
Si Si3 0.346123 0.719344 0.272903
Si Si4 0.676808 0.284144 0.963890
Si Si5 0.232071 0.713641 0.375071
Si Si6 0.434675 0.279232 0.927749
O O1 0.912344 0.707055 0.585710
O O2 0.830856 0.803875 0.679507
O O3 0.930830 0.717289 0.807923
O O4 0.930197 0.000000 0.695005
O O5 0.500000 0.700895 0.500000
O O6 0.402696 0.500000 0.478610
O O7 0.400420 0.781435 0.366614
O O8 0.348643 0.500000 0.266319
O O9 0.343800 0.784264 0.155618
O O10 0.285635 0.768931 0.316115
O O11 0.671270 0.500000 0.963162
O O12 0.750000 0.250000 0.000000
O O13 0.626786 0.220375 0.031306
O O14 0.223925 0.500000 0.362118
O O15 0.250000 0.750000 0.500000
O O16 0.433394 0.500000 0.925701
O O17 0.500000 0.227662 0.000000
#
# Coordination Sequence:
#
# PCOD9182891 Si02
#       6
#     8   8   8   8   8   8
#     4  10  19  33  53  78 107 135 171 215 261 313
#     4   9  17  28  47  75 101 130 170 212 251 298
#     4   9  18  31  49  75 102 130 168 209 251 304
#     4  10  20  35  55  77 106 140 177 218 261 312
#     4  11  20  33  52  77 106 135 170 212 260 312
#     4   9  19  33  53  83 111 138 176 226 272 308
#
# _framework density 22.837842999999999
#
# number of rings (size 3 to 8) (size 9 to 14) (size 15 to 20)
#    0.000    2.333    1.667    1.500    2.333    0.000 
#    0.000    0.833    0.000    2.500    0.000    0.000 
#    0.000    0.000    0.000    0.000    0.000    0.000 
#
# Total GULP energy -133951.019860 kJ/mol
# GULP energy per Si atom -5581.292494 kJ/mol
# Density = 2.278586 g / cm^3
# Si number density = 22.837843 Si / 1000 Ang^3
#
#
#
# Elastic Constant Matrix: (Units=GPa)
#
#
# Indices 1 2 3 4 5 6 
#
# 1 79.2753 -1.9082 44.9307 0.0000 18.9216 0.0000
# 2 -1.9082 77.5522 2.2444 0.0000 -2.4576 0.0000
# 3 44.9307 2.2444 195.4182 0.0000 23.5495 0.0000
# 4 0.0000 0.0000 0.0000 7.8552 0.0000 6.3995
# 5 18.9216 -2.4576 23.5495 0.0000 36.3597 0.0000
# 6 0.0000 0.0000 0.0000 6.3995 0.0000 19.4288
#
#
#
# Elastic Compliance Matrix: (Units=1/GPa)
#
#
# Indices 1 2 3 4 5 6 
#
# 1 0.015753 0.000270 -0.002863 0.000000 -0.006325 0.000000
# 2 0.000270 0.012941 -0.000325 0.000000 0.000944 0.000000
# 3 -0.002863 -0.000325 0.006077 0.000000 -0.002468 0.000000
# 4 0.000000 0.000000 0.000000 0.173993 0.000000 -0.057310
# 5 -0.006325 0.000944 -0.002468 0.000000 0.032457 0.000000
# 6 0.000000 0.000000 0.000000 -0.057310 0.000000 0.070347
#
#
# Mechanical properties :
#
#
# Convention : Reuss Voigt Hill
#
# Bulk Modulus (GPa) = 34.55951 49.19772 41.87862
# Shear Modulus (GPa) = 15.28834 33.19400 24.24117
#
# Velocity S-wave (km/s) = 2.59014 3.81657 3.26152
# Velocity P-wave (km/s) = 4.91025 6.40395 5.70618
#
# Compressibility (1/GPa) = 0.02893559
#
# Stress axis : x y z
#
# Youngs Moduli (GPa) = 63.47959 77.27676 164.56669
#
# Poissons Ratio (x) = -0.02087 0.47112
# Poissons Ratio (y) = -0.01714 0.05340
# Poissons Ratio (z) = 0.18173 0.02508
#
# Static dielectric constant tensor:
#      x y z
#    x 2.008860 0.000000 -0.048030 
#    y 0.000000 1.933220 0.000000 
#    z -0.048030 0.000000 1.869730 
# 
# From -- ./inp_files/164253.got.cif
#   From: 2010.05.17/outbox.cif.g08.bks.cpg/sg12_83_cif.got.tgz:164253.got - 2010.06.03 13:09:07.
