data_PCOD9182260
_publ_section_title
;
Structure prediction by ZEFSAII (Michael W. Deem and Ramdas Pophale) SiO2 
 PCOD9182260
Probable space group: C 2/M
;
_chemical_formula_sum "Si O2"
_cell_formula_units_Z 56
_cell_length_a 29.916027
_cell_length_b 17.037695
_cell_length_c 9.704709
_cell_angle_alpha 90.000000
_cell_angle_beta 37.088214
_cell_angle_gamma 90.000000
_cell_volume 2982.951610
_symmetry_space_group_name_H-M "C 2/M"
_symmetry_group_IT_number 12
_symmetry_cell_setting 'monoclinic'
loop_
_space_group_symop_operation_xyz
x,y,z
-x,y,-z
-x,-y,-z
x,-y,z
1/2+x,1/2+y,z
1/2-x,1/2+y,-z
1/2-x,1/2-y,-z
1/2+x,1/2-y,z
loop_
_atom_site_type_symbol
_atom_site_label
_atom_site_fract_x
_atom_site_fract_y
_atom_site_fract_z
Si Si1 0.180305 0.747171 0.772268
Si Si2 0.664512 0.587784 0.220629
Si Si3 0.939224 0.409451 0.528298
Si Si4 0.483714 0.323545 0.388268
Si Si5 0.204670 0.684937 0.022784
Si Si6 0.526004 0.181338 0.091554
Si Si7 0.371315 0.587328 0.005981
O O1 0.250000 0.750000 0.500000
O O2 0.153790 0.837813 0.845803
O O3 0.194590 0.719193 0.894400
O O4 0.115000 0.689572 0.880420
O O5 0.641662 0.500000 0.312835
O O6 0.599357 0.647222 0.417459
O O7 0.739637 0.611538 0.109669
O O8 0.669868 0.591163 0.040859
O O9 0.911951 0.500000 0.588016
O O10 0.872642 0.347673 0.723788
O O11 0.000000 0.404952 0.500000
O O12 0.985238 0.386178 0.278828
O O13 0.500000 0.288375 0.500000
O O14 0.499990 0.260594 0.232422
O O15 0.541815 0.395429 0.236385
O O16 0.250000 0.750000 0.000000
O O17 0.500000 0.178859 0.000000
O O18 0.360776 0.500000 0.089351
#
# Coordination Sequence:
#
# PCOD9182260 Si02
#       7
#     8   8   8   8   8   8   8
#     4  11  25  42  60  91 127 164 209 256 319 387
#     4  10  19  32  58  94 121 151 200 252 310 367
#     4  11  24  45  69  94 127 170 224 281 323 375
#     4   9  18  34  62  90 121 159 204 253 300 373
#     4  12  23  40  66  94 124 164 208 267 319 376
#     4  11  24  40  66  90 122 166 215 262 316 381
#     4   9  18  36  59  88 121 159 199 251 305 365
#
# _framework density 18.773351999999999
#
# number of rings (size 3 to 8) (size 9 to 14) (size 15 to 20)
#    0.000    1.571    2.857    2.143    6.000    2.000 
#    0.000    2.143    0.000    2.143    0.000    0.000 
#    0.000    0.000    0.000    0.000    0.000    0.000 
#
# Total GULP energy -156199.232289 kJ/mol
# GULP energy per Si atom -5578.544010 kJ/mol
# Density = 1.873062 g / cm^3
# Si number density = 18.773352 Si / 1000 Ang^3
#
#
#
# Elastic Constant Matrix: (Units=GPa)
#
#
# Indices 1 2 3 4 5 6 
#
# 1 112.6052 25.3261 50.6824 0.0000 3.8084 0.0000
# 2 25.3261 90.8280 37.9518 0.0000 -1.0962 0.0000
# 3 50.6824 37.9518 126.7275 0.0000 -6.9052 0.0000
# 4 0.0000 0.0000 0.0000 14.7112 0.0000 -5.1663
# 5 3.8084 -1.0962 -6.9052 0.0000 32.9140 0.0000
# 6 0.0000 0.0000 0.0000 -5.1663 0.0000 4.1814
#
#
#
# Elastic Compliance Matrix: (Units=1/GPa)
#
#
# Indices 1 2 3 4 5 6 
#
# 1 0.011141 -0.001396 -0.004158 0.000000 -0.002208 0.000000
# 2 -0.001396 0.012764 -0.003270 0.000000 -0.000099 0.000000
# 3 -0.004158 -0.003270 0.010675 0.000000 0.002612 0.000000
# 4 0.000000 0.000000 0.000000 0.120076 0.000000 0.148359
# 5 -0.002208 -0.000099 0.002612 0.000000 0.031182 0.000000
# 6 0.000000 0.000000 0.000000 0.148359 0.000000 0.422458
#
#
# Mechanical properties :
#
#
# Convention : Reuss Voigt Hill
#
# Bulk Modulus (GPa) = 59.05489 62.00901 60.53195
# Shear Modulus (GPa) = 7.91655 24.77467 16.34561
#
# Velocity S-wave (km/s) = 2.05574 3.63667 2.95393
# Velocity P-wave (km/s) = 6.09588 7.12291 6.62932
#
# Compressibility (1/GPa) = 0.01693340
#
# Stress axis : x y z
#
# Youngs Moduli (GPa) = 89.76228 78.34511 93.67428
#
# Poissons Ratio (x) = 0.10935 0.38948
# Poissons Ratio (y) = 0.12528 0.30629
# Poissons Ratio (z) = 0.37321 0.25617
#
# Static dielectric constant tensor:
#      x y z
#    x 1.649460 0.000000 -0.014560 
#    y 0.000000 1.685050 0.000000 
#    z -0.014560 0.000000 1.675690 
# 
# From -- ./inp_files/112603.got.cif
#   From: 2010.05.17/outbox.cif.g08.bks.cpg/sg12_57_cif.got.tgz:112603.got - 2010.06.03 13:09:07.
