data_PCOD9182191
_publ_section_title
;
Structure prediction by ZEFSAII (Michael W. Deem and Ramdas Pophale) SiO2 
 PCOD9182191
Probable space group: C 2/M
;
_chemical_formula_sum "Si O2"
_cell_formula_units_Z 58
_cell_length_a 18.576832
_cell_length_b 25.912800
_cell_length_c 13.417302
_cell_angle_alpha 90.000000
_cell_angle_beta 158.354477
_cell_angle_gamma 90.000000
_cell_volume 2382.409893
_symmetry_space_group_name_H-M "C 2/M"
_symmetry_group_IT_number 12
_symmetry_cell_setting 'monoclinic'
loop_
_space_group_symop_operation_xyz
x,y,z
-x,y,-z
-x,-y,-z
x,-y,z
1/2+x,1/2+y,z
1/2-x,1/2+y,-z
1/2-x,1/2-y,-z
1/2+x,1/2-y,z
loop_
_atom_site_type_symbol
_atom_site_label
_atom_site_fract_x
_atom_site_fract_y
_atom_site_fract_z
Si Si1 0.284802 0.156608 0.936080
Si Si2 0.498977 0.443580 0.133168
Si Si3 0.521571 0.203653 0.408667
Si Si4 0.272050 0.202286 0.717908
Si Si5 0.665364 0.897075 0.329412
Si Si6 0.884118 0.409572 0.456608
Si Si7 0.500000 0.000000 0.000000
Si Si8 0.273553 0.444447 0.054388
O O1 0.333213 0.187297 0.100078
O O2 0.476933 0.130873 0.132930
O O3 0.161114 0.105928 0.802083
O O4 0.219601 0.194173 0.766044
O O5 0.581473 0.500000 0.223244
O O6 0.675705 0.405484 0.380284
O O7 0.326041 0.433293 0.833324
O O8 0.387825 0.444198 0.097623
O O9 0.500000 0.209461 0.500000
O O10 0.630218 0.252289 0.499998
O O11 0.642867 0.150632 0.555575
O O12 0.254189 0.146465 0.642900
O O13 0.500000 0.217927 0.000000
O O14 0.610720 0.952256 0.207855
O O15 0.000000 0.411679 0.500000
O O16 0.043027 0.436986 0.732207
O O17 0.301111 0.500000 0.140694
#
# Coordination Sequence:
#
# PCOD9182191 Si02
#       8
#     8   8   8   8   8   8   2   8
#     4  10  22  40  60  88 119 169 208 244 317 374
#     4  10  19  32  56  90 120 154 201 253 300 357
#     4  10  22  39  62  88 120 161 207 253 306 369
#     4  10  23  41  59  86 119 158 204 260 307 359
#     4  11  23  39  65  90 122 161 208 255 301 370
#     4   8  16  33  53  80 117 154 191 235 297 359
#     4  12  20  44  68  86 126 172 200 254 310 364
#     4   9  18  32  55  84 120 157 194 245 305 363
#
# _framework density 24.345096000000002
#
# number of rings (size 3 to 8) (size 9 to 14) (size 15 to 20)
#    0.000    2.207    2.759    1.241    0.966    7.724 
#    0.000    2.069    0.000    6.621    0.000    0.000 
#    0.000    0.000    0.000    0.000    0.000    0.000 
#
# Total GULP energy -161734.732799 kJ/mol
# GULP energy per Si atom -5577.059752 kJ/mol
# Density = 2.428969 g / cm^3
# Si number density = 24.345096 Si / 1000 Ang^3
#
#
#
# Elastic Constant Matrix: (Units=GPa)
#
#
# Indices 1 2 3 4 5 6 
#
# 1 81.2898 38.7344 19.9866 0.0000 -9.7168 0.0000
# 2 38.7344 148.2919 26.3492 0.0000 6.3307 0.0000
# 3 19.9866 26.3492 70.7661 0.0001 10.0884 0.0000
# 4 0.0000 0.0000 0.0001 24.2100 0.0000 7.8693
# 5 -9.7168 6.3307 10.0884 0.0000 39.5359 0.0000
# 6 0.0000 0.0000 0.0000 7.8693 0.0000 24.5396
#
#
#
# Elastic Compliance Matrix: (Units=1/GPa)
#
#
# Indices 1 2 3 4 5 6 
#
# 1 0.015618 -0.003629 -0.003829 0.000000 0.005396 0.000000
# 2 -0.003629 0.008074 -0.001733 0.000000 -0.001743 0.000000
# 3 -0.003829 -0.001733 0.016554 0.000000 -0.004888 0.000000
# 4 0.000000 0.000000 0.000000 0.046112 0.000000 -0.014787
# 5 0.005396 -0.001743 -0.004888 0.000000 0.028146 0.000000
# 6 0.000000 0.000000 0.000000 -0.014787 0.000000 0.045492
#
#
# Mechanical properties :
#
#
# Convention : Reuss Voigt Hill
#
# Bulk Modulus (GPa) = 45.73771 52.27646 49.00709
# Shear Modulus (GPa) = 26.93015 32.00893 29.46954
#
# Velocity S-wave (km/s) = 3.32954 3.62995 3.48299
# Velocity P-wave (km/s) = 5.79734 6.25207 6.02900
#
# Compressibility (1/GPa) = 0.02186380
#
# Stress axis : x y z
#
# Youngs Moduli (GPa) = 64.03064 123.85825 60.40691
#
# Poissons Ratio (x) = 0.44953 0.23129
# Poissons Ratio (y) = 0.23239 0.10467
# Poissons Ratio (z) = 0.24516 0.21461
#
# Static dielectric constant tensor:
#      x y z
#    x 2.090850 0.000000 -0.027520 
#    y 0.000000 1.894030 0.000000 
#    z -0.027520 0.000000 1.959920 
# 
# From -- ./inp_files/235854.got.cif
#   From: 2010.05.17/outbox.cif.g08.bks.cpg/sg12_118_cif.got.tgz:235854.got - 2010.06.03 13:09:07.
