data_PCOD9182837
_publ_section_title
;
Structure prediction by ZEFSAII (Michael W. Deem and Ramdas Pophale) SiO2 
 PCOD9182837
Probable space group: C 2/M
;
_chemical_formula_sum "Si O2"
_cell_formula_units_Z 64
_cell_length_a 11.901439
_cell_length_b 20.838635
_cell_length_c 12.384315
_cell_angle_alpha 90.000000
_cell_angle_beta 115.243203
_cell_angle_gamma 90.000000
_cell_volume 2778.126783
_symmetry_space_group_name_H-M "C 2/M"
_symmetry_group_IT_number 12
_symmetry_cell_setting 'monoclinic'
loop_
_space_group_symop_operation_xyz
x,y,z
-x,y,-z
-x,-y,-z
x,-y,z
1/2+x,1/2+y,z
1/2-x,1/2+y,-z
1/2-x,1/2-y,-z
1/2+x,1/2-y,z
loop_
_atom_site_type_symbol
_atom_site_label
_atom_site_fract_x
_atom_site_fract_y
_atom_site_fract_z
Si Si1 0.607765 0.571679 0.634822
Si Si2 0.491832 0.070401 0.337311
Si Si3 0.775853 0.353794 0.545922
Si Si4 0.286212 0.195414 0.098399
Si Si5 0.294241 0.573120 0.838845
Si Si6 0.471985 0.121501 0.872706
Si Si7 0.562657 0.642328 0.277761
Si Si8 0.319774 0.763099 0.750343
O O1 0.500000 0.569102 0.500000
O O2 0.625999 0.500000 0.686488
O O3 0.722677 0.595275 0.611364
O O4 0.557908 0.620941 0.704860
O O5 0.584345 0.123492 0.425073
O O6 0.342613 0.079786 0.275020
O O7 0.526927 0.072558 0.224586
O O8 0.521076 0.000000 0.392665
O O9 0.679043 0.354177 0.409094
O O10 0.777659 0.288597 0.616453
O O11 0.202702 0.130454 0.072310
O O12 0.417411 0.168628 0.117413
O O13 0.277543 0.225743 0.214832
O O14 0.250000 0.250000 0.000000
O O15 0.302318 0.500000 0.881916
O O16 0.399061 0.589128 0.794186
O O17 0.359544 0.172091 0.828845
O O18 0.500000 0.092895 0.000000
O O19 0.568917 0.711737 0.223193
#
# Coordination Sequence:
#
# PCOD9182837 Si02
#       8
#     8   8   8   8   8   8   8   8
#     4   9  18  32  51  74 101 140 183 219 261 317
#     4   9  19  34  52  77 109 140 175 221 267 323
#     4  10  20  34  52  77 113 144 182 225 269 325
#     4  10  19  34  56  79 103 138 180 223 276 330
#     4   9  19  35  55  81 110 140 182 229 272 327
#     4  10  19  33  53  77 101 134 175 221 274 323
#     4  10  20  34  53  79 107 149 183 221 273 322
#     4  10  21  34  52  78 106 138 180 228 269 323
#
# _framework density 23.037106000000001
#
# number of rings (size 3 to 8) (size 9 to 14) (size 15 to 20)
#    0.000    2.375    1.250    1.125    1.750    2.250 
#    0.000    1.250    0.000    0.000    0.000    1.750 
#    0.000    0.000    0.000    0.000    0.000    0.000 
#
# Total GULP energy -178489.112040 kJ/mol
# GULP energy per Si atom -5577.784751 kJ/mol
# Density = 2.298467 g / cm^3
# Si number density = 23.037106 Si / 1000 Ang^3
#
#
#
# Elastic Constant Matrix: (Units=GPa)
#
#
# Indices 1 2 3 4 5 6 
#
# 1 63.4579 6.5068 6.7711 0.0000 -14.3717 0.0000
# 2 6.5068 118.4402 33.6720 0.0000 -7.3237 0.0000
# 3 6.7711 33.6720 48.2408 0.0000 -15.7455 0.0000
# 4 0.0000 0.0000 0.0000 6.5506 0.0000 -2.1265
# 5 -14.3717 -7.3237 -15.7455 0.0000 17.1182 0.0000
# 6 0.0000 0.0000 0.0000 -2.1265 0.0000 17.9185
#
#
#
# Elastic Compliance Matrix: (Units=1/GPa)
#
#
# Indices 1 2 3 4 5 6 
#
# 1 0.020065 -0.001177 0.004772 0.000000 0.020731 0.000000
# 2 -0.001177 0.010728 -0.008785 0.000000 -0.004479 0.000000
# 3 0.004772 -0.008785 0.037544 0.000000 0.034781 0.000000
# 4 0.000000 0.000000 0.000000 0.158774 0.000000 0.018843
# 5 0.020731 -0.004479 0.034781 0.000000 0.105898 0.000000
# 6 0.000000 0.000000 0.000000 0.018843 0.000000 0.058044
#
#
# Mechanical properties :
#
#
# Convention : Reuss Voigt Hill
#
# Bulk Modulus (GPa) = 17.25419 36.00430 26.62925
# Shear Modulus (GPa) = 11.88346 20.53008 16.20677
#
# Velocity S-wave (km/s) = 2.27367 2.98849 2.65525
# Velocity P-wave (km/s) = 3.79457 5.25080 4.58092
#
# Compressibility (1/GPa) = 0.05795692
#
# Stress axis : x y z
#
# Youngs Moduli (GPa) = 49.83752 93.21107 26.63560
#
# Poissons Ratio (x) = 0.10971 -0.12710
# Poissons Ratio (y) = 0.05866 0.23399
# Poissons Ratio (z) = -0.23782 0.81886
#
# Static dielectric constant tensor:
#      x y z
#    x 1.866190 0.000000 0.049500 
#    y 0.000000 1.881530 0.000000 
#    z 0.049500 0.000000 1.921110 
# 
# From -- ./inp_files/147650.got.cif
#   From: 2010.05.17/outbox.cif.g08.bks.cpg/sg12_74_cif.got.tgz:147650.got - 2010.06.03 13:09:07.
