data_PCOD9182254
_publ_section_title
;
Structure prediction by ZEFSAII (Michael W. Deem and Ramdas Pophale) SiO2 
 PCOD9182254
Probable space group: C 2/M
;
_chemical_formula_sum "Si O2"
_cell_formula_units_Z 44
_cell_length_a 25.241568
_cell_length_b 14.461391
_cell_length_c 16.892222
_cell_angle_alpha 90.000000
_cell_angle_beta 23.347945
_cell_angle_gamma 90.000000
_cell_volume 2443.725964
_symmetry_space_group_name_H-M "C 2/M"
_symmetry_group_IT_number 12
_symmetry_cell_setting 'monoclinic'
loop_
_space_group_symop_operation_xyz
x,y,z
-x,y,-z
-x,-y,-z
x,-y,z
1/2+x,1/2+y,z
1/2-x,1/2+y,-z
1/2-x,1/2-y,-z
1/2+x,1/2-y,z
loop_
_atom_site_type_symbol
_atom_site_label
_atom_site_fract_x
_atom_site_fract_y
_atom_site_fract_z
Si Si1 0.203571 0.193620 0.988073
Si Si2 0.244047 0.704770 0.263346
Si Si3 0.500000 0.335529 0.000000
Si Si4 0.726373 0.605508 0.568759
Si Si5 0.134068 0.500000 0.415535
Si Si6 0.333096 0.000000 0.817880
Si Si7 0.610160 0.279254 0.590897
O O1 0.269035 0.216345 0.812638
O O2 0.246173 0.089983 0.951169
O O3 0.250000 0.250000 0.000000
O O4 0.047103 0.207982 0.188772
O O5 0.205805 0.597130 0.336578
O O6 0.152450 0.771073 0.441383
O O7 0.394557 0.718695 0.089567
O O8 0.403851 0.387463 0.194609
O O9 0.774714 0.500000 0.503651
O O10 0.679016 0.639722 0.547232
O O11 0.833443 0.682865 0.449406
O O12 0.137156 0.500000 0.316445
O O13 0.980280 0.500000 0.655333
#
# Coordination Sequence:
#
# PCOD9182254 Si02
#       7
#     8   8   4   8   4   4   8
#     4  11  22  39  61  84 119 154 195 243 290 349
#     4  10  21  34  59  87 120 151 191 244 294 353
#     4  10  19  32  58  90 117 142 189 242 314 348
#     4  10  21  36  59  88 123 151 189 246 295 350
#     4   9  18  33  54  90 118 137 186 248 313 341
#     4   9  20  36  58  85 114 153 184 244 303 338
#     4  10  22  36  56  91 114 157 195 232 298 348
#
# _framework density 18.005293000000002
#
# number of rings (size 3 to 8) (size 9 to 14) (size 15 to 20)
#    0.000    2.000    1.818    1.364    7.636    2.182 
#    1.636    0.000    2.000    2.182    0.000    0.000 
#    0.000    0.000    0.000    0.000    0.000    0.000 
#
# Total GULP energy -122563.772248 kJ/mol
# GULP energy per Si atom -5571.080557 kJ/mol
# Density = 1.796431 g / cm^3
# Si number density = 18.005293 Si / 1000 Ang^3
#
#
#
# Elastic Constant Matrix: (Units=GPa)
#
#
# Indices 1 2 3 4 5 6 
#
# 1 96.9747 31.0203 28.0428 0.0000 17.3153 0.0000
# 2 31.0203 88.9935 42.9196 0.0000 7.2356 0.0000
# 3 28.0428 42.9196 90.3020 0.0000 -3.4446 0.0000
# 4 0.0000 0.0000 0.0000 14.6673 0.0000 4.7184
# 5 17.3153 7.2356 -3.4446 0.0000 32.5050 0.0000
# 6 0.0000 0.0000 0.0000 4.7184 0.0000 21.2854
#
#
#
# Elastic Compliance Matrix: (Units=1/GPa)
#
#
# Indices 1 2 3 4 5 6 
#
# 1 0.013262 -0.002536 -0.003174 0.000000 -0.006836 0.000000
# 2 -0.002536 0.015599 -0.006735 0.000000 -0.002835 0.000000
# 3 -0.003174 -0.006735 0.015445 0.000000 0.004826 0.000000
# 4 0.000000 0.000000 0.000000 0.073414 0.000000 -0.016274
# 5 -0.006836 -0.002835 0.004826 0.000000 0.035549 0.000000
# 6 0.000000 0.000000 0.000000 -0.016274 0.000000 0.050588
#
#
# Mechanical properties :
#
#
# Convention : Reuss Voigt Hill
#
# Bulk Modulus (GPa) = 51.50302 53.35951 52.43127
# Shear Modulus (GPa) = 21.25692 25.31070 23.28381
#
# Velocity S-wave (km/s) = 3.43970 3.75338 3.59996
# Velocity P-wave (km/s) = 6.66647 6.96302 6.81636
#
# Compressibility (1/GPa) = 0.01941634
#
# Stress axis : x y z
#
# Youngs Moduli (GPa) = 75.40552 64.10525 64.74755
#
# Poissons Ratio (x) = 0.16258 0.20549
# Poissons Ratio (y) = 0.19124 0.43606
# Poissons Ratio (z) = 0.23931 0.43173
#
# Static dielectric constant tensor:
#      x y z
#    x 1.669140 0.000000 0.002420 
#    y 0.000000 1.648570 0.000000 
#    z 0.002420 0.000000 1.640680 
# 
# From -- ./inp_files/293585.got.cif
#   From: 2010.05.17/outbox.cif.g08.bks.cpg/sg12_147_cif.got.tgz:293585.got - 2010.06.03 13:09:07.
