data_PCOD9182927
_publ_section_title
;
Structure prediction by ZEFSAII (Michael W. Deem and Ramdas Pophale) SiO2 
 PCOD9182927
Probable space group: C 2/M
;
_chemical_formula_sum "Si O2"
_cell_formula_units_Z 60
_cell_length_a 28.853397
_cell_length_b 7.952542
_cell_length_c 17.634944
_cell_angle_alpha 90.000000
_cell_angle_beta 51.205966
_cell_angle_gamma 90.000000
_cell_volume 3153.836652
_symmetry_space_group_name_H-M "C 2/M"
_symmetry_group_IT_number 12
_symmetry_cell_setting 'monoclinic'
loop_
_space_group_symop_operation_xyz
x,y,z
-x,y,-z
-x,-y,-z
x,-y,z
1/2+x,1/2+y,z
1/2-x,1/2+y,-z
1/2-x,1/2-y,-z
1/2+x,1/2-y,z
loop_
_atom_site_type_symbol
_atom_site_label
_atom_site_fract_x
_atom_site_fract_y
_atom_site_fract_z
Si Si1 0.255869 0.297487 0.270453
Si Si2 0.155671 0.302500 0.132604
Si Si3 0.500000 0.250105 0.500000
Si Si4 0.698367 0.199750 0.611925
Si Si5 0.621566 0.201152 0.430496
Si Si6 0.413884 0.198732 0.359568
Si Si7 0.220392 0.795981 0.918589
Si Si8 0.971804 0.810049 0.685683
O O1 0.254437 0.500000 0.271357
O O2 0.284680 0.245479 0.319997
O O3 0.186835 0.243995 0.339101
O O4 0.287143 0.242387 0.160671
O O5 0.147978 0.500000 0.155572
O O6 0.213555 0.244399 0.120628
O O7 0.094509 0.215043 0.217545
O O8 0.173726 0.274102 0.026737
O O9 0.568275 0.303887 0.446755
O O10 0.487652 0.187671 0.599045
O O11 0.750000 0.250000 0.500000
O O12 0.634289 0.267878 0.650265
O O13 0.693946 0.000000 0.611041
O O14 0.616420 0.217433 0.526404
O O15 0.613259 0.000000 0.420620
O O16 0.478370 0.281902 0.301465
O O17 0.423359 0.000000 0.336783
O O18 0.218167 0.000000 0.925145
O O19 0.979420 0.000000 0.647238
#
# Coordination Sequence:
#
# PCOD9182927 Si02
#       8
#     8   8   4   8   8   8   8   8
#     4  10  19  33  53  79 109 141 178 221 269 319
#     4  10  20  36  58  80 107 144 184 220 263 316
#     4  10  20  32  46  74 109 142 177 212 257 308
#     4  11  21  35  54  78 107 143 181 224 272 320
#     4   9  16  29  48  71 102 141 178 211 251 309
#     4   9  19  35  52  71 101 139 181 215 255 317
#     4   9  19  35  56  82 111 142 179 223 268 316
#     4  11  22  35  52  76 108 141 176 218 268 319
#
# _framework density 19.024448
#
# number of rings (size 3 to 8) (size 9 to 14) (size 15 to 20)
#    0.000    2.133    1.333    2.400    0.000    4.800 
#    0.000    2.000    0.000    0.800    0.000    5.600 
#    0.000    0.000    0.000    0.000    0.000    0.000 
#
# Total GULP energy -167146.664842 kJ/mol
# GULP energy per Si atom -5571.555495 kJ/mol
# Density = 1.898115 g / cm^3
# Si number density = 19.024448 Si / 1000 Ang^3
#
#
#
# Elastic Constant Matrix: (Units=GPa)
#
#
# Indices 1 2 3 4 5 6 
#
# 1 134.5320 14.8035 52.1715 0.0000 4.2765 0.0003
# 2 14.8035 42.0579 8.1437 0.0000 -2.3085 0.0011
# 3 52.1715 8.1437 91.9951 -0.0002 0.4658 -0.0001
# 4 0.0000 0.0000 -0.0002 10.8880 0.0000 1.2854
# 5 4.2765 -2.3085 0.4658 0.0000 31.8248 0.0000
# 6 0.0003 0.0011 -0.0001 1.2854 0.0000 13.9938
#
#
#
# Elastic Compliance Matrix: (Units=1/GPa)
#
#
# Indices 1 2 3 4 5 6 
#
# 1 0.009826 -0.002502 -0.005344 0.000000 -0.001424 0.000000
# 2 -0.002502 0.024930 -0.000799 0.000000 0.002156 -0.000002
# 3 -0.005344 -0.000799 0.013969 0.000000 0.000456 0.000000
# 4 0.000000 0.000000 0.000000 0.092851 0.000000 -0.008528
# 5 -0.001424 0.002156 0.000456 0.000000 0.031763 0.000000
# 6 0.000000 -0.000002 0.000000 -0.008528 0.000000 0.072243
#
#
# Mechanical properties :
#
#
# Convention : Reuss Voigt Hill
#
# Bulk Modulus (GPa) = 31.81048 46.53583 39.17315
# Shear Modulus (GPa) = 18.29151 24.23909 21.26530
#
# Velocity S-wave (km/s) = 3.10413 3.57333 3.34696
# Velocity P-wave (km/s) = 5.44101 6.44508 5.96421
#
# Compressibility (1/GPa) = 0.03143618
#
# Stress axis : x y z
#
# Youngs Moduli (GPa) = 101.77015 40.11157 71.58664
#
# Poissons Ratio (x) = 0.10036 0.38254
# Poissons Ratio (y) = 0.25463 0.05719
# Poissons Ratio (z) = 0.54384 0.03205
#
# Static dielectric constant tensor:
#      x y z
#    x 1.713150 0.000000 0.018740 
#    y 0.000000 1.772250 0.000000 
#    z 0.018740 0.000000 1.644720 
# 
# From -- ./inp_files/292209.got.cif
#   From: 2010.05.17/outbox.cif.g08.bks.cpg/sg12_147_cif.got.tgz:292209.got - 2010.06.03 13:09:07.
