data_PCOD9182715
_publ_section_title
;
Structure prediction by ZEFSAII (Michael W. Deem and Ramdas Pophale) SiO2 
 PCOD9182715
Probable space group: C 2/M
;
_chemical_formula_sum "Si O2"
_cell_formula_units_Z 56
_cell_length_a 19.609574
_cell_length_b 7.799043
_cell_length_c 19.324096
_cell_angle_alpha 90.000000
_cell_angle_beta 120.787454
_cell_angle_gamma 90.000000
_cell_volume 2538.856902
_symmetry_space_group_name_H-M "C 2/M"
_symmetry_group_IT_number 12
_symmetry_cell_setting 'monoclinic'
loop_
_space_group_symop_operation_xyz
x,y,z
-x,y,-z
-x,-y,-z
x,-y,z
1/2+x,1/2+y,z
1/2-x,1/2+y,-z
1/2-x,1/2-y,-z
1/2+x,1/2-y,z
loop_
_atom_site_type_symbol
_atom_site_label
_atom_site_fract_x
_atom_site_fract_y
_atom_site_fract_z
Si Si1 0.926603 0.797177 0.254258
Si Si2 0.073392 0.708261 0.584429
Si Si3 0.249823 0.800095 0.166368
Si Si4 0.251903 0.790637 0.327531
Si Si5 0.918305 0.202174 0.743029
Si Si6 0.830325 0.307128 0.006603
Si Si7 0.999522 0.291152 0.080072
O O1 0.935437 0.767266 0.341032
O O2 0.841362 0.719476 0.189491
O O3 0.004727 0.725289 0.256501
O O4 0.920551 0.000000 0.237575
O O5 0.073089 0.500000 0.585332
O O6 0.160615 0.763048 0.602300
O O7 0.000000 0.767309 0.500000
O O8 0.248737 0.740632 0.244904
O O9 0.189726 0.703177 0.085268
O O10 0.228857 0.000000 0.152546
O O11 0.169897 0.729137 0.319033
O O12 0.250720 0.000000 0.328658
O O13 0.934457 0.224235 0.833319
O O14 0.916974 0.000000 0.726225
O O15 0.841780 0.500000 0.034598
O O16 0.750000 0.250000 0.000000
O O17 0.914581 0.221609 0.064054
O O18 0.002769 0.500000 0.083310
O O19 0.000000 0.240473 0.000000
#
# Coordination Sequence:
#
# PCOD9182715 Si02
#       7
#     8   8   8   8   8   8   8
#     4  10  20  33  52  78 107 137 168 207 256 307
#     4   9  18  35  59  82 104 134 171 208 247 298
#     4  10  19  33  53  73  96 130 173 216 254 299
#     4   8  16  32  53  75  98 128 167 206 245 295
#     4  10  20  34  52  74 101 135 173 211 253 305
#     4  11  22  34  49  70  98 131 169 216 264 307
#     4  10  22  37  51  71 101 136 173 217 265 305
#
# _framework density 22.057172000000001
#
# number of rings (size 3 to 8) (size 9 to 14) (size 15 to 20)
#    0.000    2.286    0.000    3.857    0.000    5.143 
#    0.000    3.571    0.000    0.000    0.000    0.000 
#    0.000    0.000    0.000    0.000    0.000    0.000 
#
# Total GULP energy -156303.958044 kJ/mol
# GULP energy per Si atom -5582.284216 kJ/mol
# Density = 2.200697 g / cm^3
# Si number density = 22.057172 Si / 1000 Ang^3
#
#
#
# Elastic Constant Matrix: (Units=GPa)
#
#
# Indices 1 2 3 4 5 6 
#
# 1 122.0029 -1.0086 23.4205 0.0000 36.1847 0.0000
# 2 -1.0086 31.6028 -10.9997 0.0000 -0.7969 0.0000
# 3 23.4205 -10.9997 78.7903 0.0000 30.5607 0.0000
# 4 0.0000 0.0000 0.0000 18.7243 0.0000 -4.7184
# 5 36.1847 -0.7969 30.5607 0.0000 36.2943 0.0000
# 6 0.0000 0.0000 0.0000 -4.7184 0.0000 13.3318
#
#
#
# Elastic Compliance Matrix: (Units=1/GPa)
#
#
# Indices 1 2 3 4 5 6 
#
# 1 0.011778 0.000632 0.001687 0.000000 -0.013149 0.000000
# 2 0.000632 0.033847 0.006673 0.000000 -0.005505 0.000000
# 3 0.001687 0.006673 0.020371 0.000000 -0.018688 0.000000
# 4 0.000000 0.000000 0.000000 0.058636 0.000000 0.020753
# 5 -0.013149 -0.005505 -0.018688 0.000000 0.056277 0.000000
# 6 0.000000 0.000000 0.000000 0.020753 0.000000 0.082354
#
#
# Mechanical properties :
#
#
# Convention : Reuss Voigt Hill
#
# Bulk Modulus (GPa) = 11.90775 28.35782 20.13278
# Shear Modulus (GPa) = 18.29685 28.40232 23.34958
#
# Velocity S-wave (km/s) = 2.88326 3.59230 3.25713
# Velocity P-wave (km/s) = 4.06135 5.48549 4.82624
#
# Compressibility (1/GPa) = 0.08397893
#
# Stress axis : x y z
#
# Youngs Moduli (GPa) = 84.90609 29.54499 49.09027
#
# Poissons Ratio (x) = -0.01866 -0.08284
# Poissons Ratio (y) = -0.05363 -0.32757
# Poissons Ratio (z) = -0.14328 -0.19715
#
# Static dielectric constant tensor:
#      x y z
#    x 1.937400 0.000000 0.027370 
#    y 0.000000 1.786390 0.000000 
#    z 0.027370 0.000000 1.792200 
# 
# From -- ./inp_files/314403.got.cif
#   From: 2010.05.17/outbox.cif.g08.bks.cpg/sg12_158_cif.got.tgz:314403.got - 2010.06.03 13:09:07.
