data_PCOD9182325
_publ_section_title
;
Structure prediction by ZEFSAII (Michael W. Deem and Ramdas Pophale) SiO2 
 PCOD9182325
Probable space group: C 2/M
;
_chemical_formula_sum "Si O2"
_cell_formula_units_Z 56
_cell_length_a 32.206450
_cell_length_b 14.319438
_cell_length_c 13.907827
_cell_angle_alpha 90.000000
_cell_angle_beta 33.440070
_cell_angle_gamma 90.000000
_cell_volume 3534.520559
_symmetry_space_group_name_H-M "C 2/M"
_symmetry_group_IT_number 12
_symmetry_cell_setting 'monoclinic'
loop_
_space_group_symop_operation_xyz
x,y,z
-x,y,-z
-x,-y,-z
x,-y,z
1/2+x,1/2+y,z
1/2-x,1/2+y,-z
1/2-x,1/2-y,-z
1/2+x,1/2-y,z
loop_
_atom_site_type_symbol
_atom_site_label
_atom_site_fract_x
_atom_site_fract_y
_atom_site_fract_z
Si Si1 0.485529 0.890072 0.918011
Si Si2 0.912414 0.270715 0.777226
Si Si3 0.065485 0.723342 0.595321
Si Si4 0.829877 0.108049 0.619287
Si Si5 0.838509 0.391894 0.085385
Si Si6 0.812708 0.109781 0.882452
Si Si7 0.643542 0.889079 0.283326
O O1 0.533137 0.829724 0.750443
O O2 0.504977 0.000000 0.869332
O O3 0.500000 0.863345 0.000000
O O4 0.397738 0.881158 0.057284
O O5 0.872868 0.176751 0.816563
O O6 0.909366 0.342696 0.694795
O O7 0.994675 0.255742 0.662257
O O8 0.863986 0.320687 0.954064
O O9 0.108877 0.818560 0.533762
O O10 0.121994 0.657370 0.425847
O O11 0.749215 0.121999 0.724224
O O12 0.816095 0.123860 0.760629
O O13 0.852568 0.000000 0.563727
O O14 0.845712 0.500000 0.035635
O O15 0.827117 0.000000 0.872551
O O16 0.729194 0.131604 0.083955
O O17 0.633894 0.000000 0.305241
#
# Coordination Sequence:
#
# PCOD9182325 Si02
#       7
#     8   8   8   8   8   8   8
#     4   9  19  37  57  75  96 121 154 201 254 302
#     4  11  19  30  45  68 101 133 164 197 236 278
#     4  11  22  31  48  75  99 126 160 204 246 284
#     4  10  19  33  49  69  99 134 170 199 226 275
#     4   9  17  31  53  74  94 129 166 193 235 293
#     4  10  20  32  47  65  97 143 176 194 222 274
#     4  11  20  30  45  69 100 130 161 199 239 282
#
# _framework density 15.843734
#
# number of rings (size 3 to 8) (size 9 to 14) (size 15 to 20)
#    0.000    1.857    2.857    2.571    0.000    2.857 
#    0.000    2.143    0.000    0.429    0.000    0.000 
#    0.000    0.000    0.000    0.000    0.000    0.000 
#
# Total GULP energy -156227.928667 kJ/mol
# GULP energy per Si atom -5579.568881 kJ/mol
# Density = 1.580767 g / cm^3
# Si number density = 15.843734 Si / 1000 Ang^3
#
#
#
# Elastic Constant Matrix: (Units=GPa)
#
#
# Indices 1 2 3 4 5 6 
#
# 1 83.3875 53.3970 41.8321 0.0000 5.0818 0.0000
# 2 53.3970 85.9869 51.1681 0.0000 -10.9321 0.0000
# 3 41.8321 51.1681 65.9082 0.0000 -6.7551 0.0000
# 4 0.0000 0.0000 0.0000 20.6681 0.0000 -2.7905
# 5 5.0818 -10.9321 -6.7551 0.0000 17.6913 0.0000
# 6 0.0000 0.0000 0.0000 -2.7905 0.0000 21.3240
#
#
#
# Elastic Compliance Matrix: (Units=1/GPa)
#
#
# Indices 1 2 3 4 5 6 
#
# 1 0.025888 -0.014039 -0.007476 0.000000 -0.018966 0.000000
# 2 -0.014039 0.030156 -0.012674 0.000000 0.017828 0.000000
# 3 -0.007476 -0.012674 0.030363 0.000000 0.005909 0.000000
# 4 0.000000 0.000000 0.000000 0.049254 0.000000 0.006446
# 5 -0.018966 0.017828 0.005909 0.000000 0.075245 0.000000
# 6 0.000000 0.000000 0.000000 0.006446 0.000000 0.047739
#
#
# Mechanical properties :
#
#
# Convention : Reuss Voigt Hill
#
# Bulk Modulus (GPa) = 55.46551 58.67522 57.07036
# Shear Modulus (GPa) = 15.01349 17.86238 16.43793
#
# Velocity S-wave (km/s) = 3.08165 3.36134 3.22452
# Velocity P-wave (km/s) = 6.90984 7.22349 7.06841
#
# Compressibility (1/GPa) = 0.01802922
#
# Stress axis : x y z
#
# Youngs Moduli (GPa) = 38.62761 33.16060 32.93476
#
# Poissons Ratio (x) = 0.46554 0.24622
# Poissons Ratio (y) = 0.54229 0.41742
# Poissons Ratio (z) = 0.28878 0.42029
#
# Static dielectric constant tensor:
#      x y z
#    x 1.519840 0.000000 -0.020960 
#    y 0.000000 1.529530 0.000000 
#    z -0.020960 0.000000 1.525790 
# 
# From -- ./inp_files/183462.got.cif
#   From: 2010.05.17/outbox.cif.g08.bks.cpg/sg12_92_cif.got.tgz:183462.got - 2010.06.03 13:09:07.
