data_PCOD9182653
_publ_section_title
;
Structure prediction by ZEFSAII (Michael W. Deem and Ramdas Pophale) SiO2 
 PCOD9182653
Probable space group: C 2/M
;
_chemical_formula_sum "Si O2"
_cell_formula_units_Z 64
_cell_length_a 19.973547
_cell_length_b 19.111646
_cell_length_c 19.642168
_cell_angle_alpha 90.000000
_cell_angle_beta 150.476431
_cell_angle_gamma 90.000000
_cell_volume 3694.852828
_symmetry_space_group_name_H-M "C 2/M"
_symmetry_group_IT_number 12
_symmetry_cell_setting 'monoclinic'
loop_
_space_group_symop_operation_xyz
x,y,z
-x,y,-z
-x,-y,-z
x,-y,z
1/2+x,1/2+y,z
1/2-x,1/2+y,-z
1/2-x,1/2-y,-z
1/2+x,1/2-y,z
loop_
_atom_site_type_symbol
_atom_site_label
_atom_site_fract_x
_atom_site_fract_y
_atom_site_fract_z
Si Si1 0.213976 0.176447 0.003488
Si Si2 0.682471 0.252794 0.268907
Si Si3 0.932797 0.830291 0.701182
Si Si4 0.442248 0.774052 0.581451
Si Si5 0.541163 0.137923 0.964549
Si Si6 0.942196 0.423880 0.161905
Si Si7 0.826010 0.581520 0.534021
Si Si8 0.238755 0.765280 0.166995
O O1 0.087214 0.146526 0.849650
O O2 0.250000 0.250000 0.000000
O O3 0.348493 0.132000 0.115080
O O4 0.184143 0.187575 0.056639
O O5 0.612522 0.297046 0.266858
O O6 0.834744 0.242172 0.432442
O O7 0.585430 0.186131 0.172092
O O8 0.695435 0.285951 0.204974
O O9 0.925090 0.769996 0.636558
O O10 0.827463 0.891999 0.593096
O O11 0.399236 0.855908 0.555188
O O12 0.598067 0.765928 0.696069
O O13 0.569776 0.086480 0.928686
O O14 0.500000 0.105499 0.000000
O O15 0.668294 0.190103 0.090035
O O16 0.894141 0.500000 0.140521
O O17 0.094546 0.415998 0.324125
O O18 0.834132 0.500000 0.516899
#
# Coordination Sequence:
#
# PCOD9182653 Si02
#       8
#     8   8   8   8   8   8   8   8
#     4  12  19  34  57  78 105 136 179 224 273 316
#     4  10  20  31  51  82 107 135 170 220 268 323
#     4  11  20  33  58  77 106 139 178 223 271 318
#     4  11  19  34  56  78 105 139 177 221 272 314
#     4  10  19  33  52  79 110 140 174 219 275 325
#     4  11  21  35  53  77 108 145 184 223 268 322
#     4  10  21  34  51  76 105 137 179 223 261 315
#     4  11  20  32  53  80 112 131 173 223 270 319
#
# _framework density 17.321393
#
# number of rings (size 3 to 8) (size 9 to 14) (size 15 to 20)
#    0.000    1.250    5.000    3.375    0.000    0.750 
#    0.000    0.000    0.000    9.000    0.000    4.375 
#    0.000   19.000    0.000    0.000    0.000    0.000 
#
# Total GULP energy -178304.694617 kJ/mol
# GULP energy per Si atom -5572.021707 kJ/mol
# Density = 1.728197 g / cm^3
# Si number density = 17.321393 Si / 1000 Ang^3
#
#
#
# Elastic Constant Matrix: (Units=GPa)
#
#
# Indices 1 2 3 4 5 6 
#
# 1 78.2366 19.4939 6.5106 -0.0004 -18.9339 -0.0004
# 2 19.4939 60.4657 23.3366 -0.0002 1.2996 -0.0003
# 3 6.5106 23.3366 104.4387 0.0000 5.4109 -0.0006
# 4 -0.0004 -0.0002 0.0000 19.9998 -0.0002 -0.6203
# 5 -18.9339 1.2996 5.4109 -0.0002 29.9054 -0.0005
# 6 -0.0004 -0.0003 -0.0006 -0.6203 -0.0005 9.4180
#
#
#
# Elastic Compliance Matrix: (Units=1/GPa)
#
#
# Indices 1 2 3 4 5 6 
#
# 1 0.016845 -0.005518 -0.000386 0.000000 0.010974 0.000001
# 2 -0.005518 0.019907 -0.003915 0.000000 -0.003650 0.000000
# 3 -0.000386 -0.003915 0.010577 0.000000 -0.001988 0.000000
# 4 0.000000 0.000000 0.000000 0.050103 0.000001 0.003300
# 5 0.010974 -0.003650 -0.001988 0.000001 0.040905 0.000003
# 6 0.000001 0.000000 0.000000 0.003300 0.000003 0.106397
#
#
# Mechanical properties :
#
#
# Convention : Reuss Voigt Hill
#
# Bulk Modulus (GPa) = 36.11252 37.98035 37.04643
# Shear Modulus (GPa) = 18.27485 24.78463 21.52974
#
# Velocity S-wave (km/s) = 3.25167 3.78679 3.52938
# Velocity P-wave (km/s) = 5.91537 6.41047 6.16789
#
# Compressibility (1/GPa) = 0.02769123
#
# Stress axis : x y z
#
# Youngs Moduli (GPa) = 59.36654 50.23464 94.54627
#
# Poissons Ratio (x) = 0.27717 0.03647
# Poissons Ratio (y) = 0.32756 0.37015
# Poissons Ratio (z) = 0.02290 0.19667
#
# Static dielectric constant tensor:
#      x y z
#    x 1.596670 0.000000 -0.001360 
#    y 0.000000 1.589190 0.000000 
#    z -0.001360 0.000000 1.625670 
# 
# From -- ./inp_files/322446.got.cif
#   From: 2010.05.17/outbox.cif.g08.bks.cpg/sg12_162_cif.got.tgz:322446.got - 2010.06.03 13:09:07.
