data_PCOD9182309
_publ_section_title
;
Structure prediction by ZEFSAII (Michael W. Deem and Ramdas Pophale) SiO2 
 PCOD9182309
Probable space group: C 2/M
;
_chemical_formula_sum "Si O2"
_cell_formula_units_Z 52
_cell_length_a 13.370756
_cell_length_b 9.330410
_cell_length_c 18.546768
_cell_angle_alpha 90.000000
_cell_angle_beta 64.154848
_cell_angle_gamma 90.000000
_cell_volume 2082.359083
_symmetry_space_group_name_H-M "C 2/M"
_symmetry_group_IT_number 12
_symmetry_cell_setting 'monoclinic'
loop_
_space_group_symop_operation_xyz
x,y,z
-x,y,-z
-x,-y,-z
x,-y,z
1/2+x,1/2+y,z
1/2-x,1/2+y,-z
1/2-x,1/2-y,-z
1/2+x,1/2-y,z
loop_
_atom_site_type_symbol
_atom_site_label
_atom_site_fract_x
_atom_site_fract_y
_atom_site_fract_z
Si Si1 0.828542 0.720576 0.884424
Si Si2 0.457288 0.838160 0.090523
Si Si3 0.049297 0.835740 0.280574
Si Si4 0.297704 0.500000 0.990167
Si Si5 0.797175 0.164847 0.594803
Si Si6 0.076717 0.335726 0.562580
Si Si7 0.170718 0.835037 0.753291
O O1 0.727243 0.623768 0.940798
O O2 0.933451 0.653235 0.894170
O O3 0.864288 0.738200 0.790736
O O4 0.814280 0.875837 0.923515
O O5 0.372573 0.740466 0.160573
O O6 0.413560 0.000000 0.092677
O O7 0.500000 0.783188 0.000000
O O8 0.007524 0.765252 0.367426
O O9 0.940345 0.840236 0.262584
O O10 0.086760 0.000000 0.277077
O O11 0.881858 0.265605 0.524691
O O12 0.687025 0.160011 0.578608
O O13 0.755434 0.236377 0.681869
O O14 0.835185 0.000000 0.589765
O O15 0.038160 0.500000 0.567867
O O16 0.206981 0.000000 0.751303
#
# Coordination Sequence:
#
# PCOD9182309 Si02
#       7
#     8   8   8   4   8   8   8
#     4  10  19  33  48  69  90 123 158 193 234 279
#     4  10  20  33  48  67  93 124 157 193 232 278
#     4   9  16  26  39  57  84 112 147 183 221 273
#     4  10  20  32  50  66  90 120 158 196 236 276
#     4   9  15  24  36  52  78 111 148 179 216 266
#     4   9  16  22  34  54  78 110 145 182 218 257
#     4   9  17  27  41  59  82 114 150 186 222 266
#
# _framework density 24.971677
#
# number of rings (size 3 to 8) (size 9 to 14) (size 15 to 20)
#    0.000    2.615    1.538    1.385    2.154    5.846 
#    0.000    0.000    0.000    0.000    0.000    0.000 
#    0.000    0.000    0.000    8.308    0.000    4.308 
#
# Total GULP energy -145143.857404 kJ/mol
# GULP energy per Si atom -5582.456054 kJ/mol
# Density = 2.491484 g / cm^3
# Si number density = 24.971677 Si / 1000 Ang^3
#
#
#
# Elastic Constant Matrix: (Units=GPa)
#
#
# Indices 1 2 3 4 5 6 
#
# 1 73.3512 -12.3964 15.2494 0.0000 2.7677 0.0000
# 2 -12.3964 190.2287 108.7761 0.0000 -13.5185 0.0000
# 3 15.2494 108.7761 239.1398 0.0000 39.3320 0.0000
# 4 0.0000 0.0000 0.0000 221.7997 0.0000 -23.5398
# 5 2.7677 -13.5185 39.3320 0.0000 30.8536 0.0000
# 6 0.0000 0.0000 0.0000 -23.5398 0.0000 8.4362
#
#
#
# Elastic Compliance Matrix: (Units=1/GPa)
#
#
# Indices 1 2 3 4 5 6 
#
# 1 0.014540 0.002754 -0.002738 0.000000 0.003393 0.000000
# 2 0.002754 0.010493 -0.007166 0.000000 0.013486 0.000000
# 3 -0.002738 -0.007166 0.010239 0.000000 -0.015947 0.000000
# 4 0.000000 0.000000 0.000000 0.006406 0.000000 0.017874
# 5 0.003393 0.013486 -0.015947 0.000000 0.058344 0.000000
# 6 0.000000 0.000000 0.000000 0.017874 0.000000 0.168411
#
#
# Mechanical properties :
#
#
# Convention : Reuss Voigt Hill
#
# Bulk Modulus (GPa) = 47.68547 80.66420 64.17484
# Shear Modulus (GPa) = 17.25793 78.29060 47.77426
#
# Velocity S-wave (km/s) = 2.63173 5.60534 4.37869
# Velocity P-wave (km/s) = 5.32653 8.61774 7.16371
#
# Compressibility (1/GPa) = 0.02097075
#
# Stress axis : x y z
#
# Youngs Moduli (GPa) = 68.77715 95.30597 97.66811
#
# Poissons Ratio (x) = -0.26250 0.26742
# Poissons Ratio (y) = -0.18943 0.69992
# Poissons Ratio (z) = 0.18831 0.68300
#
# Static dielectric constant tensor:
#      x y z
#    x 2.121260 0.000000 -0.003930 
#    y 0.000000 1.873440 0.000000 
#    z -0.003930 0.000000 1.883550 
# 
# From -- ./inp_files/248618.got.cif
#   From: 2010.05.17/outbox.cif.g08.bks.cpg/sg12_125_cif.got.tgz:248618.got - 2010.06.03 13:09:07.
