data_PCOD9182745
_publ_section_title
;
Structure prediction by ZEFSAII (Michael W. Deem and Ramdas Pophale) SiO2 
 PCOD9182745
Probable space group: C 2/M
;
_chemical_formula_sum "Si O2"
_cell_formula_units_Z 56
_cell_length_a 19.848256
_cell_length_b 7.584706
_cell_length_c 19.977707
_cell_angle_alpha 90.000000
_cell_angle_beta 120.963788
_cell_angle_gamma 90.000000
_cell_volume 2578.915700
_symmetry_space_group_name_H-M "C 2/M"
_symmetry_group_IT_number 12
_symmetry_cell_setting 'monoclinic'
loop_
_space_group_symop_operation_xyz
x,y,z
-x,y,-z
-x,-y,-z
x,-y,z
1/2+x,1/2+y,z
1/2-x,1/2+y,-z
1/2-x,1/2-y,-z
1/2+x,1/2-y,z
loop_
_atom_site_type_symbol
_atom_site_label
_atom_site_fract_x
_atom_site_fract_y
_atom_site_fract_z
Si Si1 0.991802 0.212984 0.675402
Si Si2 0.483029 0.711676 0.828974
Si Si3 0.691763 0.712212 0.266599
Si Si4 0.256132 0.787547 0.924922
Si Si5 0.161461 0.210522 0.753073
Si Si6 0.319560 0.288440 0.586397
Si Si7 0.073725 0.703786 0.000401
O O1 0.993805 0.249175 0.756166
O O2 0.906079 0.277907 0.608328
O O3 0.074938 0.279058 0.689296
O O4 0.990214 0.000000 0.665803
O O5 0.487761 0.500000 0.838569
O O6 0.394481 0.771490 0.803250
O O7 0.549221 0.790402 0.910211
O O8 0.688071 0.500000 0.265662
O O9 0.766921 0.760711 0.261227
O O10 0.698051 0.774650 0.346935
O O11 0.189751 0.721998 0.840298
O O12 0.256904 0.000000 0.919628
O O13 0.250000 0.750000 0.000000
O O14 0.341017 0.717125 0.944983
O O15 0.152386 0.000000 0.754727
O O16 0.325592 0.500000 0.594413
O O17 0.250000 0.250000 0.500000
O O18 0.078517 0.500000 0.024626
O O19 0.000000 0.788817 0.000000
#
# Coordination Sequence:
#
# PCOD9182745 Si02
#       7
#     8   8   8   8   8   8   8
#     4   8  16  32  53  74  96 125 162 202 239 281
#     4   9  17  32  52  69  89 125 170 207 241 288
#     4   9  19  34  52  76 104 131 161 204 253 293
#     4  10  21  34  49  71  99 133 171 211 254 296
#     4  10  19  33  53  74  98 132 172 207 243 294
#     4   9  18  35  57  79 103 129 160 199 242 292
#     4  10  20  32  45  66  97 127 159 207 257 291
#
# _framework density 21.714551
#
# number of rings (size 3 to 8) (size 9 to 14) (size 15 to 20)
#    0.000    2.714    0.000    3.429    0.000    4.857 
#    0.000    4.286    0.000    4.286    0.000    0.000 
#    0.000    0.000    0.000    0.000    0.000    0.000 
#
# Total GULP energy -156224.940325 kJ/mol
# GULP energy per Si atom -5579.462154 kJ/mol
# Density = 2.166513 g / cm^3
# Si number density = 21.714551 Si / 1000 Ang^3
#
#
#
# Elastic Constant Matrix: (Units=GPa)
#
#
# Indices 1 2 3 4 5 6 
#
# 1 129.9213 4.7779 34.1667 0.0000 35.0390 0.0000
# 2 4.7779 48.1907 2.9243 0.0000 5.0029 0.0000
# 3 34.1667 2.9243 92.0265 0.0000 31.2669 0.0000
# 4 0.0000 0.0000 0.0000 21.0342 0.0000 -4.3382
# 5 35.0390 5.0029 31.2669 0.0000 35.0270 0.0000
# 6 0.0000 0.0000 0.0000 -4.3382 0.0000 14.6634
#
#
#
# Elastic Compliance Matrix: (Units=1/GPa)
#
#
# Indices 1 2 3 4 5 6 
#
# 1 0.010555 0.000035 -0.000475 0.000000 -0.010140 0.000000
# 2 0.000035 0.021080 0.000505 0.000000 -0.003497 0.000000
# 3 -0.000475 0.000505 0.015630 0.000000 -0.013550 0.000000
# 4 0.000000 0.000000 0.000000 0.050631 0.000000 0.014979
# 5 -0.010140 -0.003497 -0.013550 0.000000 0.051287 0.000000
# 6 0.000000 0.000000 0.000000 0.014979 0.000000 0.072629
#
#
# Mechanical properties :
#
#
# Convention : Reuss Voigt Hill
#
# Bulk Modulus (GPa) = 21.09871 39.31958 30.20914
# Shear Modulus (GPa) = 21.05439 29.36291 25.20865
#
# Velocity S-wave (km/s) = 3.11722 3.68125 3.41091
# Velocity P-wave (km/s) = 4.76377 6.01794 5.42720
#
# Compressibility (1/GPa) = 0.04739626
#
# Stress axis : x y z
#
# Youngs Moduli (GPa) = 94.73960 47.43882 63.97842
#
# Poissons Ratio (x) = -0.00166 0.03038
# Poissons Ratio (y) = -0.00332 -0.03233
# Poissons Ratio (z) = 0.04498 -0.02397
#
# Static dielectric constant tensor:
#      x y z
#    x 1.848220 0.000000 0.018620 
#    y 0.000000 1.786770 0.000000 
#    z 0.018620 0.000000 1.782320 
# 
# From -- ./inp_files/314450.got.cif
#   From: 2010.05.17/outbox.cif.g08.bks.cpg/sg12_158_cif.got.tgz:314450.got - 2010.06.03 13:09:07.
