data_PCOD9182806
_publ_section_title
;
Structure prediction by ZEFSAII (Michael W. Deem and Ramdas Pophale) SiO2 
 PCOD9182806
Probable space group: C 2/M
;
_chemical_formula_sum "Si O2"
_cell_formula_units_Z 40
_cell_length_a 28.273351
_cell_length_b 7.428616
_cell_length_c 9.241170
_cell_angle_alpha 90.000000
_cell_angle_beta 69.829279
_cell_angle_gamma 90.000000
_cell_volume 1821.901076
_symmetry_space_group_name_H-M "C 2/M"
_symmetry_group_IT_number 12
_symmetry_cell_setting 'monoclinic'
loop_
_space_group_symop_operation_xyz
x,y,z
-x,y,-z
-x,-y,-z
x,-y,z
1/2+x,1/2+y,z
1/2-x,1/2+y,-z
1/2-x,1/2-y,-z
1/2+x,1/2-y,z
loop_
_atom_site_type_symbol
_atom_site_label
_atom_site_fract_x
_atom_site_fract_y
_atom_site_fract_z
Si Si1 0.247845 0.786403 0.672809
Si Si2 0.050298 0.280316 0.530443
Si Si3 0.449382 0.779830 0.136674
Si Si4 0.152890 0.279535 0.263214
Si Si5 0.854237 0.708606 0.056514
O O1 0.250000 0.750000 0.500000
O O2 0.297884 0.718615 0.701059
O O3 0.197080 0.715010 0.798946
O O4 0.246278 0.000000 0.694487
O O5 0.049947 0.500000 0.530439
O O6 0.050506 0.221795 0.696860
O O7 0.101215 0.224810 0.395413
O O8 0.000000 0.222267 0.500000
O O9 0.400287 0.715586 0.101426
O O10 0.448388 0.000000 0.141038
O O11 0.500000 0.726936 0.000000
O O12 0.154092 0.500000 0.263827
O O13 0.153435 0.216829 0.096398
O O14 0.867834 0.500000 0.018405
#
# Coordination Sequence:
#
# PCOD9182806 Si02
#       5
#     8   8   8   8   8
#     4  11  22  36  53  74 102 134 170 209 253 303
#     4   9  15  24  40  65  99 133 164 202 249 297
#     4   9  16  26  44  72 103 134 168 207 250 295
#     4   9  18  31  48  72 101 133 167 207 253 300
#     4  10  19  33  53  76 103 133 169 211 254 300
#
# _framework density 21.955089000000001
#
# number of rings (size 3 to 8) (size 9 to 14) (size 15 to 20)
#    0.000    2.400    0.000    3.600    0.000    8.000 
#    0.000    1.000    0.000    0.600    0.000    0.000 
#    0.000    9.600    0.000    0.000    0.000    0.000 
#
# Total GULP energy -111804.158875 kJ/mol
# GULP energy per Si atom -5590.207944 kJ/mol
# Density = 2.190512 g / cm^3
# Si number density = 21.955089 Si / 1000 Ang^3
#
#
#
# Elastic Constant Matrix: (Units=GPa)
#
#
# Indices 1 2 3 4 5 6 
#
# 1 255.4930 -5.0131 142.1767 0.0000 17.3059 0.0000
# 2 -5.0131 66.9435 -11.5892 0.0000 7.8691 0.0000
# 3 142.1767 -11.5892 237.6067 0.0000 16.5832 0.0000
# 4 0.0000 0.0000 0.0000 -3.5309 0.0000 -8.2390
# 5 17.3059 7.8691 16.5832 0.0000 45.9986 0.0000
# 6 0.0000 0.0000 0.0000 -8.2390 0.0000 4.7631
#
#
#
# Elastic Compliance Matrix: (Units=1/GPa)
#
#
# Indices 1 2 3 4 5 6 
#
# 1 0.005910 -0.000045 -0.003471 0.000000 -0.000964 0.000000
# 2 -0.000045 0.015457 0.000989 0.000000 -0.002984 0.000000
# 3 -0.003471 0.000989 0.006416 0.000000 -0.001176 0.000000
# 4 0.000000 0.000000 0.000000 -0.056236 0.000000 -0.097274
# 5 -0.000964 -0.002984 -0.001176 0.000000 0.023037 0.000000
# 6 0.000000 0.000000 0.000000 -0.097274 0.000000 0.041688
#
#
# Mechanical properties :
#
#
# Convention : Reuss Voigt Hill
#
# Bulk Modulus (GPa) = 43.99804 90.13244 67.06524
# Shear Modulus (GPa) = 102.24491 38.41076 70.32783
#
# Velocity S-wave (km/s) = 6.83163 4.18726 5.66587
# Velocity P-wave (km/s) = 9.07258 8.03242 8.56830
#
# Compressibility (1/GPa) = 0.02272829
#
# Stress axis : x y z
#
# Youngs Moduli (GPa) = 169.19941 64.69739 155.85712
#
# Poissons Ratio (x) = 0.00291 0.54104
# Poissons Ratio (y) = 0.00761 -0.15415
# Poissons Ratio (z) = 0.58735 -0.06399
#
# Static dielectric constant tensor:
#      x y z
#    x 1.750630 0.000000 0.025400 
#    y 0.000000 1.898490 0.000000 
#    z 0.025400 0.000000 1.724670 
# 
# From -- ./inp_files/92817.got.cif
#   From: 2010.05.17/outbox.cif.g08.bks.cpg/sg12_47_cif.got.tgz:92817.got - 2010.06.03 13:09:07.
