data_PCOD9182675
_publ_section_title
;
Structure prediction by ZEFSAII (Michael W. Deem and Ramdas Pophale) SiO2 
 PCOD9182675
Probable space group: C 2/M
;
_chemical_formula_sum "Si O2"
_cell_formula_units_Z 64
_cell_length_a 29.323660
_cell_length_b 12.672433
_cell_length_c 8.954443
_cell_angle_alpha 90.000000
_cell_angle_beta 84.993098
_cell_angle_gamma 90.000000
_cell_volume 3314.792909
_symmetry_space_group_name_H-M "C 2/M"
_symmetry_group_IT_number 12
_symmetry_cell_setting 'monoclinic'
loop_
_space_group_symop_operation_xyz
x,y,z
-x,y,-z
-x,-y,-z
x,-y,z
1/2+x,1/2+y,z
1/2-x,1/2+y,-z
1/2-x,1/2-y,-z
1/2+x,1/2-y,z
loop_
_atom_site_type_symbol
_atom_site_label
_atom_site_fract_x
_atom_site_fract_y
_atom_site_fract_z
Si Si1 0.810034 0.769981 0.392573
Si Si2 0.553909 0.380215 0.352943
Si Si3 0.952534 0.324310 0.448333
Si Si4 0.621854 0.375370 0.852660
Si Si5 0.858052 0.618962 0.615398
Si Si6 0.764914 0.879302 0.675207
Si Si7 0.353551 0.690340 0.826579
Si Si8 0.023335 0.783124 0.839219
O O1 0.851721 0.821464 0.292233
O O2 0.827783 0.682826 0.504999
O O3 0.784700 0.856204 0.502928
O O4 0.774770 0.707917 0.296552
O O5 0.547031 0.500000 0.403336
O O6 0.552142 0.296092 0.487226
O O7 0.603538 0.368631 0.263004
O O8 0.515531 0.344247 0.244800
O O9 0.908634 0.380621 0.528024
O O10 0.958407 0.312161 0.269955
O O11 0.000000 0.366955 0.500000
O O12 0.630535 0.500000 0.851551
O O13 0.567641 0.354094 0.858760
O O14 0.640673 0.324474 0.999793
O O15 0.842400 0.500000 0.643652
O O16 0.857611 0.689819 0.764751
O O17 0.806470 0.857101 0.776776
O O18 0.749308 0.000000 0.692690
O O19 0.000000 0.749168 0.000000
#
# Coordination Sequence:
#
# PCOD9182675 Si02
#       8
#     8   8   8   8   8   8   8   8
#     4  10  22  38  61  91 116 150 200 248 296 356
#     4  10  19  33  52  81 118 154 193 236 288 350
#     4   9  20  35  53  81 109 151 196 246 288 343
#     4  12  23  37  58  89 130 164 189 232 295 358
#     4  10  20  40  62  81 109 151 203 255 297 337
#     4  10  20  39  63  86 116 154 197 248 300 350
#     4  10  22  37  57  88 120 153 195 240 294 355
#     4  11  21  34  54  83 123 160 195 230 284 352
#
# _framework density 19.307390999999999
#
# number of rings (size 3 to 8) (size 9 to 14) (size 15 to 20)
#    0.000    1.750    2.500    2.250    0.000    4.000 
#    0.000    1.875    0.000    0.375    0.000    0.000 
#    0.000    0.000    0.000    0.000    0.000    0.000 
#
# Total GULP energy -178702.989950 kJ/mol
# GULP energy per Si atom -5584.468436 kJ/mol
# Density = 1.926345 g / cm^3
# Si number density = 19.307391 Si / 1000 Ang^3
#
#
#
# Elastic Constant Matrix: (Units=GPa)
#
#
# Indices 1 2 3 4 5 6 
#
# 1 65.6970 -0.2070 8.3636 0.0000 17.6559 0.0000
# 2 -0.2070 94.1567 37.3240 0.0000 5.3899 0.0000
# 3 8.3636 37.3240 74.7379 0.0000 2.8473 0.0000
# 4 0.0000 0.0000 0.0000 7.5342 0.0000 4.7835
# 5 17.6559 5.3899 2.8473 0.0000 31.0691 0.0000
# 6 0.0000 0.0000 0.0000 4.7835 0.0000 1.3568
#
#
#
# Elastic Compliance Matrix: (Units=1/GPa)
#
#
# Indices 1 2 3 4 5 6 
#
# 1 0.018358 0.001617 -0.002462 0.000000 -0.010488 0.000000
# 2 0.001617 0.013474 -0.006810 0.000000 -0.002632 0.000000
# 3 -0.002462 -0.006810 0.017017 0.000000 0.001021 0.000000
# 4 0.000000 0.000000 0.000000 -0.107180 0.000000 0.377861
# 5 -0.010488 -0.002632 0.001021 0.000000 0.038509 0.000000
# 6 0.000000 0.000000 0.000000 0.377861 0.000000 -0.595139
#
#
# Mechanical properties :
#
#
# Convention : Reuss Voigt Hill
#
# Bulk Modulus (GPa) = 29.81532 36.17254 32.99393
# Shear Modulus (GPa) = -8.49663 20.59941 6.05139
#
# Velocity S-wave (km/s) = -2.10006 3.26992 1.77230
# Velocity P-wave (km/s) = 3.09768 5.74737 4.61670
#
# Compressibility (1/GPa) = 0.03353981
#
# Stress axis : x y z
#
# Youngs Moduli (GPa) = 54.47077 74.21594 58.76313
#
# Poissons Ratio (x) = -0.11999 0.14469
# Poissons Ratio (y) = -0.08807 0.40016
# Poissons Ratio (z) = 0.13412 0.50538
#
# Static dielectric constant tensor:
#      x y z
#    x 1.704680 0.000000 -0.002170 
#    y 0.000000 1.653260 0.000000 
#    z -0.002170 0.000000 1.677790 
# 
# From -- ./inp_files/110484.got.cif
#   From: 2010.05.17/outbox.cif.g08.bks.cpg/sg12_56_cif.got.tgz:110484.got - 2010.06.03 13:09:07.
