data_PCOD9182766
_publ_section_title
;
Structure prediction by ZEFSAII (Michael W. Deem and Ramdas Pophale) SiO2 
 PCOD9182766
Probable space group: C 2/M
;
_chemical_formula_sum "Si O2"
_cell_formula_units_Z 56
_cell_length_a 17.313642
_cell_length_b 14.361995
_cell_length_c 12.628991
_cell_angle_alpha 90.000000
_cell_angle_beta 69.859770
_cell_angle_gamma 90.000000
_cell_volume 2948.284082
_symmetry_space_group_name_H-M "C 2/M"
_symmetry_group_IT_number 12
_symmetry_cell_setting 'monoclinic'
loop_
_space_group_symop_operation_xyz
x,y,z
-x,y,-z
-x,-y,-z
x,-y,z
1/2+x,1/2+y,z
1/2-x,1/2+y,-z
1/2-x,1/2-y,-z
1/2+x,1/2-y,z
loop_
_atom_site_type_symbol
_atom_site_label
_atom_site_fract_x
_atom_site_fract_y
_atom_site_fract_z
Si Si1 0.627071 0.396500 0.431490
Si Si2 0.423599 0.264199 0.357308
Si Si3 0.943619 0.893639 0.768462
Si Si4 0.315126 0.237565 0.873895
Si Si5 0.282663 0.197043 0.267925
Si Si6 0.928766 0.396603 0.097249
Si Si7 0.038030 0.604960 0.251932
O O1 0.619970 0.500000 0.482212
O O2 0.602058 0.316924 0.524519
O O3 0.572919 0.394393 0.350648
O O4 0.719551 0.376181 0.348396
O O5 0.472283 0.336964 0.259098
O O6 0.341873 0.234341 0.332270
O O7 0.490248 0.181309 0.346687
O O8 0.870666 0.831207 0.849658
O O9 0.945025 0.000000 0.804532
O O10 0.270880 0.233782 0.779275
O O11 0.380737 0.152275 0.838332
O O12 0.250000 0.250000 0.000000
O O13 0.342444 0.150491 0.153300
O O14 0.917344 0.500000 0.055492
O O15 0.969858 0.404788 0.192352
O O16 0.000000 0.344147 0.000000
O O17 0.053870 0.500000 0.285942
#
# Coordination Sequence:
#
# PCOD9182766 Si02
#       7
#     8   8   8   8   8   8   8
#     4  10  19  33  56  80 102 130 168 221 272 307
#     4  10  19  33  53  75 103 135 168 211 262 309
#     4   9  19  35  56  80 101 128 174 222 261 306
#     4  10  20  34  54  77 104 139 173 210 256 305
#     4  10  20  32  48  76 109 133 166 211 258 307
#     4   9  16  28  49  73  95 123 162 210 256 292
#     4   9  19  34  50  70 100 137 173 205 242 302
#
# _framework density 18.9941
#
# number of rings (size 3 to 8) (size 9 to 14) (size 15 to 20)
#    0.000    2.429    0.000    2.571    0.000    2.857 
#    0.000    1.429    0.000   16.286    0.000    0.000 
#    0.000    0.000    0.000    0.000    0.000    0.000 
#
# Total GULP energy -155891.252095 kJ/mol
# GULP energy per Si atom -5567.544718 kJ/mol
# Density = 1.895087 g / cm^3
# Si number density = 18.994100 Si / 1000 Ang^3
#
#
#
# Elastic Constant Matrix: (Units=GPa)
#
#
# Indices 1 2 3 4 5 6 
#
# 1 67.4343 20.9606 -3.5073 0.0000 -16.6464 0.0000
# 2 20.9606 112.9294 23.0885 0.0000 -11.6992 0.0000
# 3 -3.5073 23.0885 59.7566 0.0000 -16.9851 0.0000
# 4 0.0000 0.0000 0.0000 22.5060 0.0000 2.4760
# 5 -16.6464 -11.6992 -16.9851 0.0000 23.8947 0.0000
# 6 0.0000 0.0000 0.0000 2.4760 0.0000 9.5116
#
#
#
# Elastic Compliance Matrix: (Units=1/GPa)
#
#
# Indices 1 2 3 4 5 6 
#
# 1 0.020878 -0.003573 0.007824 0.000000 0.018357 0.000000
# 2 -0.003573 0.010356 -0.004358 0.000000 -0.000516 0.000000
# 3 0.007824 -0.004358 0.024839 0.000000 0.020973 0.000000
# 4 0.000000 0.000000 0.000000 0.045743 0.000000 -0.011907
# 5 0.018357 -0.000516 0.020973 0.000000 0.069294 0.000000
# 6 0.000000 0.000000 0.000000 -0.011907 0.000000 0.108234
#
#
# Mechanical properties :
#
#
# Convention : Reuss Voigt Hill
#
# Bulk Modulus (GPa) = 17.90238 35.68933 26.79585
# Shear Modulus (GPa) = 16.76858 24.48770 20.62814
#
# Velocity S-wave (km/s) = 2.97447 3.59448 3.29907
# Velocity P-wave (km/s) = 4.60894 6.00479 5.35256
#
# Compressibility (1/GPa) = 0.05585850
#
# Stress axis : x y z
#
# Youngs Moduli (GPa) = 47.89690 96.56521 40.25967
#
# Poissons Ratio (x) = 0.34503 -0.31498
# Poissons Ratio (y) = 0.17113 0.17544
# Poissons Ratio (z) = -0.37473 0.42080
#
# Static dielectric constant tensor:
#      x y z
#    x 1.672050 0.000000 -0.007820 
#    y 0.000000 1.722970 0.000000 
#    z -0.007820 0.000000 1.696630 
# 
# From -- ./inp_files/224654.got.cif
#   From: 2010.05.17/outbox.cif.g08.bks.cpg/sg12_113_cif.got.tgz:224654.got - 2010.06.03 13:09:07.
