data_PCOD9182607
_publ_section_title
;
Structure prediction by ZEFSAII (Michael W. Deem and Ramdas Pophale) SiO2 
 PCOD9182607
Probable space group: C 2/M
;
_chemical_formula_sum "Si O2"
_cell_formula_units_Z 58
_cell_length_a 17.391624
_cell_length_b 13.153391
_cell_length_c 13.640969
_cell_angle_alpha 90.000000
_cell_angle_beta 122.791886
_cell_angle_gamma 90.000000
_cell_volume 2623.220821
_symmetry_space_group_name_H-M "C 2/M"
_symmetry_group_IT_number 12
_symmetry_cell_setting 'monoclinic'
loop_
_space_group_symop_operation_xyz
x,y,z
-x,y,-z
-x,-y,-z
x,-y,z
1/2+x,1/2+y,z
1/2-x,1/2+y,-z
1/2-x,1/2-y,-z
1/2+x,1/2-y,z
loop_
_atom_site_type_symbol
_atom_site_label
_atom_site_fract_x
_atom_site_fract_y
_atom_site_fract_z
Si Si1 0.211993 0.611626 0.060677
Si Si2 0.336276 0.762018 0.235717
Si Si3 0.804819 0.614391 0.509778
Si Si4 0.311602 0.387689 0.770517
Si Si5 0.917084 0.683776 0.865928
Si Si6 0.500000 0.500000 0.500000
Si Si7 0.358695 0.675466 0.466796
Si Si8 0.456572 0.886858 0.208676
O O1 0.251420 0.500000 0.076977
O O2 0.292646 0.692269 0.121525
O O3 0.162415 0.624809 0.131980
O O4 0.130468 0.622658 0.926186
O O5 0.266475 0.855288 0.205750
O O6 0.342313 0.703433 0.341863
O O7 0.433820 0.804305 0.273436
O O8 0.846199 0.500000 0.543064
O O9 0.737812 0.612817 0.368571
O O10 0.736009 0.631799 0.553019
O O11 0.866316 0.715007 0.529921
O O12 0.347674 0.500000 0.815641
O O13 0.384536 0.297824 0.823628
O O14 0.953700 0.632341 0.793161
O O15 0.000000 0.685258 0.000000
O O16 0.438953 0.590977 0.516733
O O17 0.455048 0.000000 0.247587
#
# Coordination Sequence:
#
# PCOD9182607 Si02
#       8
#     8   8   8   8   8   2   8   8
#     4   9  18  32  53  76 106 143 190 232 272 328
#     4  10  20  34  53  80 110 141 188 233 279 340
#     4   9  18  39  64  86 110 154 207 241 284 361
#     4   9  18  33  55  79 105 144 188 232 274 332
#     4   9  18  32  50  78 111 145 188 233 275 331
#     4  12  24  40  58  92 128 154 180 254 324 352
#     4  10  22  37  60  87 118 154 193 247 305 357
#     4  10  19  33  52  76 110 151 181 226 289 337
#
# _framework density 22.110223999999999
#
# number of rings (size 3 to 8) (size 9 to 14) (size 15 to 20)
#    0.000    2.483    0.690    1.241    0.966    3.586 
#    0.000    1.034    0.000    6.621    0.000    0.000 
#    0.000    0.000    0.000    0.000    0.000    0.000 
#
# Total GULP energy -161577.287887 kJ/mol
# GULP energy per Si atom -5571.630617 kJ/mol
# Density = 2.205990 g / cm^3
# Si number density = 22.110224 Si / 1000 Ang^3
#
#
#
# Elastic Constant Matrix: (Units=GPa)
#
#
# Indices 1 2 3 4 5 6 
#
# 1 80.4535 37.7535 11.7236 0.0000 3.8483 0.0000
# 2 37.7535 137.0604 10.7556 0.0000 -0.6607 0.0000
# 3 11.7236 10.7556 40.2685 0.0000 -4.4130 0.0000
# 4 0.0000 0.0000 0.0000 8.0078 0.0000 3.0135
# 5 3.8483 -0.6607 -4.4130 0.0000 19.9967 0.0000
# 6 0.0000 0.0000 0.0000 3.0135 0.0000 24.4171
#
#
#
# Elastic Compliance Matrix: (Units=1/GPa)
#
#
# Indices 1 2 3 4 5 6 
#
# 1 0.014964 -0.003846 -0.003749 0.000000 -0.003834 0.000000
# 2 -0.003846 0.008442 -0.001049 0.000000 0.000788 0.000000
# 3 -0.003749 -0.001049 0.026932 0.000000 0.006630 0.000000
# 4 0.000000 0.000000 0.000000 0.130961 0.000000 -0.016163
# 5 -0.003834 0.000788 0.006630 0.000000 0.052235 0.000000
# 6 0.000000 0.000000 0.000000 -0.016163 0.000000 0.042950
#
#
# Mechanical properties :
#
#
# Convention : Reuss Voigt Hill
#
# Bulk Modulus (GPa) = 30.25832 42.02752 36.14292
# Shear Modulus (GPa) = 16.40485 23.65430 20.02958
#
# Velocity S-wave (km/s) = 2.72685 3.27438 3.01308
# Velocity P-wave (km/s) = 4.86098 5.77450 5.33732
#
# Compressibility (1/GPa) = 0.03304877
#
# Stress axis : x y z
#
# Youngs Moduli (GPa) = 66.82637 118.46146 37.13107
#
# Poissons Ratio (x) = 0.45562 0.13922
# Poissons Ratio (y) = 0.25702 0.03894
# Poissons Ratio (z) = 0.25056 0.12423
#
# Static dielectric constant tensor:
#      x y z
#    x 1.818190 0.000000 -0.008200 
#    y 0.000000 1.823640 0.000000 
#    z -0.008200 0.000000 1.833460 
# 
# From -- ./inp_files/214907.got.cif
#   From: 2010.05.17/outbox.cif.g08.bks.cpg/sg12_108_cif.got.tgz:214907.got - 2010.06.03 13:09:07.
