data_PCOD9182460
_publ_section_title
;
Structure prediction by ZEFSAII (Michael W. Deem and Ramdas Pophale) SiO2 
 PCOD9182460
Probable space group: C 2/M
;
_chemical_formula_sum "Si O2"
_cell_formula_units_Z 32
_cell_length_a 26.771211
_cell_length_b 5.651578
_cell_length_c 9.286021
_cell_angle_alpha 90.000000
_cell_angle_beta 60.104919
_cell_angle_gamma 90.000000
_cell_volume 1218.025040
_symmetry_space_group_name_H-M "C 2/M"
_symmetry_group_IT_number 12
_symmetry_cell_setting 'monoclinic'
loop_
_space_group_symop_operation_xyz
x,y,z
-x,y,-z
-x,-y,-z
x,-y,z
1/2+x,1/2+y,z
1/2-x,1/2+y,-z
1/2-x,1/2-y,-z
1/2+x,1/2-y,z
loop_
_atom_site_type_symbol
_atom_site_label
_atom_site_fract_x
_atom_site_fract_y
_atom_site_fract_z
Si Si1 0.934138 0.000000 0.043897
Si Si2 0.448748 0.500000 0.461673
Si Si3 0.751303 0.500000 0.325194
Si Si4 0.864365 0.000000 0.845192
Si Si5 0.286971 0.000000 0.591744
Si Si6 0.135862 0.500000 0.155748
Si Si7 0.083387 0.500000 0.550943
Si Si8 0.387635 0.000000 0.112096
O O1 0.907925 0.753345 0.139411
O O2 0.000000 0.000000 0.000000
O O3 0.912692 0.000000 0.905179
O O4 0.500000 0.500000 0.500000
O O5 0.392739 0.500000 0.646265
O O6 0.448609 0.750903 0.380352
O O7 0.725260 0.249736 0.314365
O O8 0.746583 0.500000 0.507805
O O9 0.818936 0.500000 0.200959
O O10 0.832365 0.249407 0.904247
O O11 0.354766 0.000000 0.458957
O O12 0.100991 0.500000 0.355226
O O13 0.091823 0.500000 0.085112
#
# Coordination Sequence:
#
# PCOD9182460 Si02
#       8
#     4   4   4   4   4   4   4   4
#     4  10  19  33  51  76 106 137 172 215 259 310
#     4  10  19  33  51  76 106 137 172 215 259 310
#     4  10  21  38  57  77 106 141 175 219 274 314
#     4   8  16  30  46  67  98 138 162 191 260 304
#     4  10  21  38  57  77 106 141 175 219 274 314
#     4   8  16  30  52  69  98 132 160 201 252 310
#     4  10  19  35  54  76 102 138 177 210 264 315
#     4  10  19  35  54  76 102 138 177 210 264 315
#
# _framework density 26.272040000000001
#
# number of rings (size 3 to 8) (size 9 to 14) (size 15 to 20)
#    0.000    2.500    0.000    2.250    0.000    0.000 
#    4.500    1.250    0.000    0.000    0.000    0.000 
#    0.000    0.000    0.000    0.000    0.000    0.000 
#
# Total GULP energy -89287.644631 kJ/mol
# GULP energy per Si atom -5580.477789 kJ/mol
# Density = 2.621224 g / cm^3
# Si number density = 26.272040 Si / 1000 Ang^3
#
#
#
# Elastic Constant Matrix: (Units=GPa)
#
#
# Indices 1 2 3 4 5 6 
#
# 1 117.5059 61.4471 8.8066 0.0000 5.3851 0.0000
# 2 61.4471 387.4079 14.6194 0.0000 -26.6339 0.0000
# 3 8.8066 14.6194 52.9696 0.0000 18.8346 0.0000
# 4 0.0000 0.0000 0.0000 170.8987 0.0000 24.1795
# 5 5.3851 -26.6339 18.8346 0.0000 51.4309 0.0000
# 6 0.0000 0.0000 0.0000 24.1795 0.0000 28.1212
#
#
#
# Elastic Compliance Matrix: (Units=1/GPa)
#
#
# Indices 1 2 3 4 5 6 
#
# 1 0.009457 -0.001589 -0.000562 0.000000 -0.001607 0.000000
# 2 -0.001589 0.003039 -0.001372 0.000000 0.002243 0.000000
# 3 -0.000562 -0.001372 0.022514 0.000000 -0.008897 0.000000
# 4 0.000000 0.000000 0.000000 0.006662 0.000000 -0.005728
# 5 -0.001607 0.002243 -0.008897 0.000000 0.024031 0.000000
# 6 0.000000 0.000000 0.000000 -0.005728 0.000000 0.040486
#
#
# Mechanical properties :
#
#
# Convention : Reuss Voigt Hill
#
# Bulk Modulus (GPa) = 35.76066 80.84774 58.30420
# Shear Modulus (GPa) = 40.79710 81.62419 61.21065
#
# Velocity S-wave (km/s) = 3.94492 5.57999 4.83212
# Velocity P-wave (km/s) = 5.86440 8.50618 7.30569
#
# Compressibility (1/GPa) = 0.02796369
#
# Stress axis : x y z
#
# Youngs Moduli (GPa) = 105.74083 329.02250 44.41617
#
# Poissons Ratio (x) = 0.52291 0.02497
# Poissons Ratio (y) = 0.16805 0.06094
# Poissons Ratio (z) = 0.05944 0.45145
#
# Static dielectric constant tensor:
#      x y z
#    x 2.004160 0.000000 0.108150 
#    y 0.000000 2.098130 0.000000 
#    z 0.108150 0.000000 2.119110 
# 
# From -- ./inp_files/178813.got.cif
#   From: 2010.05.17/outbox.cif.g08.bks.cpg/sg12_90_cif.got.tgz:178813.got - 2010.06.03 13:09:07.
