data_PCOD9182666
_publ_section_title
;
Structure prediction by ZEFSAII (Michael W. Deem and Ramdas Pophale) SiO2 
 PCOD9182666
Probable space group: C 2/M
;
_chemical_formula_sum "Si O2"
_cell_formula_units_Z 64
_cell_length_a 8.853102
_cell_length_b 21.727464
_cell_length_c 17.268351
_cell_angle_alpha 90.000000
_cell_angle_beta 88.344212
_cell_angle_gamma 90.000000
_cell_volume 3320.274568
_symmetry_space_group_name_H-M "C 2/M"
_symmetry_group_IT_number 12
_symmetry_cell_setting 'monoclinic'
loop_
_space_group_symop_operation_xyz
x,y,z
-x,y,-z
-x,-y,-z
x,-y,z
1/2+x,1/2+y,z
1/2-x,1/2+y,-z
1/2-x,1/2-y,-z
1/2+x,1/2-y,z
loop_
_atom_site_type_symbol
_atom_site_label
_atom_site_fract_x
_atom_site_fract_y
_atom_site_fract_z
Si Si1 0.899164 0.629030 0.105302
Si Si2 0.795171 0.569516 0.960982
Si Si3 0.853736 0.426532 0.382132
Si Si4 0.877802 0.766517 0.060326
Si Si5 0.680961 0.925332 0.316208
Si Si6 0.318816 0.426216 0.768733
Si Si7 0.835945 0.074782 0.473212
Si Si8 0.366170 0.620435 0.170705
O O1 0.928366 0.701582 0.097289
O O2 0.819922 0.604016 0.182630
O O3 0.053771 0.593234 0.084720
O O4 0.785762 0.611202 0.036851
O O5 0.814350 0.500000 0.986393
O O6 0.662080 0.575528 0.901668
O O7 0.876230 0.500000 0.390910
O O8 0.721719 0.418055 0.320860
O O9 0.793837 0.403165 0.465373
O O10 0.013931 0.404932 0.345906
O O11 0.845747 0.813433 0.130101
O O12 0.750000 0.750000 0.000000
O O13 0.000000 0.794373 0.000000
O O14 0.793050 0.910856 0.385891
O O15 0.742248 0.893628 0.238140
O O16 0.680723 0.000000 0.303928
O O17 0.327546 0.500000 0.783241
O O18 0.471683 0.393380 0.794071
O O19 0.000000 0.095824 0.500000
O O20 0.836870 0.000000 0.477479
#
# Coordination Sequence:
#
# PCOD9182666 Si02
#       8
#     8   8   8   8   8   8   8   8
#     4  11  21  39  58  77 101 145 192 239 286 340
#     4  11  21  36  57  80 107 139 183 229 295 359
#     4   9  18  32  52  78 114 160 196 227 278 349
#     4  12  23  43  60  76 104 145 199 247 286 345
#     4  10  19  33  52  80 117 154 198 241 283 346
#     4  11  22  35  53  83 120 147 184 239 300 353
#     4   9  16  28  50  80 118 159 193 230 283 344
#     4  12  24  35  55  81 113 152 189 240 297 341
#
# _framework density 19.275514999999999
#
# number of rings (size 3 to 8) (size 9 to 14) (size 15 to 20)
#    0.000    1.375    2.500    5.250    0.000    4.500 
#    0.000    1.250    0.000    0.000    0.000    0.875 
#    0.000    2.000    0.000    0.375    0.000    0.000 
#
# Total GULP energy -178604.191809 kJ/mol
# GULP energy per Si atom -5581.380994 kJ/mol
# Density = 1.923164 g / cm^3
# Si number density = 19.275515 Si / 1000 Ang^3
#
#
#
# Elastic Constant Matrix: (Units=GPa)
#
#
# Indices 1 2 3 4 5 6 
#
# 1 55.6602 11.3371 13.6632 0.0000 9.3031 0.0000
# 2 11.3371 82.9167 33.1672 0.0000 -2.1743 0.0000
# 3 13.6632 33.1672 102.9183 0.0000 -9.0471 0.0000
# 4 0.0000 0.0000 0.0000 -4.7959 0.0000 5.8440
# 5 9.3031 -2.1743 -9.0471 0.0000 29.4393 0.0000
# 6 0.0000 0.0000 0.0000 5.8440 0.0000 14.0019
#
#
#
# Elastic Compliance Matrix: (Units=1/GPa)
#
#
# Indices 1 2 3 4 5 6 
#
# 1 0.020251 -0.001868 -0.002735 0.000000 -0.007378 0.000000
# 2 -0.001868 0.014021 -0.004242 0.000000 0.000322 0.000000
# 3 -0.002735 -0.004242 0.011814 0.000000 0.004182 0.000000
# 4 0.000000 0.000000 0.000000 -0.138216 0.000000 0.057688
# 5 -0.007378 0.000322 0.004182 0.000000 0.037609 0.000000
# 6 0.000000 0.000000 0.000000 0.057688 0.000000 0.047342
#
#
# Mechanical properties :
#
#
# Convention : Reuss Voigt Hill
#
# Bulk Modulus (GPa) = 35.21679 39.75891 37.48785
# Shear Modulus (GPa) = 250.28561 19.95090 135.11826
#
# Velocity S-wave (km/s) = 11.40738 3.22069 8.38156
# Velocity P-wave (km/s) = 13.84970 5.87383 10.63758
#
# Compressibility (1/GPa) = 0.02839555
#
# Stress axis : x y z
#
# Youngs Moduli (GPa) = 49.37967 71.32106 84.64365
#
# Poissons Ratio (x) = 0.13326 0.23150
# Poissons Ratio (y) = 0.09226 0.35907
# Poissons Ratio (z) = 0.13505 0.30256
#
# Static dielectric constant tensor:
#      x y z
#    x 1.824600 0.000000 0.036750 
#    y 0.000000 1.669230 0.000000 
#    z 0.036750 0.000000 1.690620 
# 
# From -- ./inp_files/258122.got.cif
#   From: 2010.05.17/outbox.cif.g08.bks.cpg/sg12_130_cif.got.tgz:258122.got - 2010.06.03 13:09:07.
