data_PCOD9182318
_publ_section_title
;
Structure prediction by ZEFSAII (Michael W. Deem and Ramdas Pophale) SiO2 
 PCOD9182318
Probable space group: C 2/M
;
_chemical_formula_sum "Si O2"
_cell_formula_units_Z 64
_cell_length_a 13.253882
_cell_length_b 21.703746
_cell_length_c 17.901791
_cell_angle_alpha 90.000000
_cell_angle_beta 133.468241
_cell_angle_gamma 90.000000
_cell_volume 3737.358889
_symmetry_space_group_name_H-M "C 2/M"
_symmetry_group_IT_number 12
_symmetry_cell_setting 'monoclinic'
loop_
_space_group_symop_operation_xyz
x,y,z
-x,y,-z
-x,-y,-z
x,-y,z
1/2+x,1/2+y,z
1/2-x,1/2+y,-z
1/2-x,1/2-y,-z
1/2+x,1/2-y,z
loop_
_atom_site_type_symbol
_atom_site_label
_atom_site_fract_x
_atom_site_fract_y
_atom_site_fract_z
Si Si1 0.672153 0.361340 0.805618
Si Si2 0.106067 0.429131 0.984927
Si Si3 0.065996 0.219021 0.251925
Si Si4 0.134406 0.270304 0.611721
Si Si5 0.054250 0.425900 0.247387
Si Si6 0.364523 0.621169 0.380527
Si Si7 0.364366 0.741403 0.884027
Si Si8 0.890906 0.326471 0.236485
O O1 0.531234 0.335033 0.768722
O O2 0.637550 0.395412 0.709558
O O3 0.769929 0.302694 0.834937
O O4 0.757704 0.396343 0.913436
O O5 0.141338 0.500000 0.986622
O O6 0.020754 0.405839 0.869202
O O7 0.000000 0.427171 0.000000
O O8 0.224353 0.212676 0.358755
O O9 0.083935 0.223874 0.172112
O O10 0.995359 0.281121 0.246076
O O11 0.133775 0.195927 0.617700
O O12 0.121886 0.302359 0.685606
O O13 0.000000 0.290203 0.500000
O O14 0.054699 0.500000 0.251092
O O15 0.214217 0.402694 0.332705
O O16 0.956031 0.393340 0.258608
O O17 0.500000 0.601882 0.500000
O O18 0.266657 0.688131 0.870481
O O19 0.500000 0.754457 0.000000
#
# Coordination Sequence:
#
# PCOD9182318 Si02
#       8
#     8   8   8   8   8   8   8   8
#     4  11  20  33  55  79 112 147 177 224 271 339
#     4  10  21  35  56  79 107 147 182 222 273 330
#     4  10  19  33  48  80 110 142 178 220 279 327
#     4  10  20  35  55  81 115 146 181 229 280 330
#     4  11  23  39  58  80 112 150 189 228 267 331
#     4  11  21  35  54  82 116 147 179 226 282 328
#     4  10  21  31  48  80 113 142 174 224 279 325
#     4  10  20  35  53  80 111 144 184 224 271 338
#
# _framework density 17.124393000000001
#
# number of rings (size 3 to 8) (size 9 to 14) (size 15 to 20)
#    0.000    1.625    6.250    0.375    3.500    2.750 
#    0.000    0.000    0.000    3.750    0.000    0.000 
#    0.000    0.000    0.000    0.000    0.000    0.000 
#
# Total GULP energy -178212.846320 kJ/mol
# GULP energy per Si atom -5569.151448 kJ/mol
# Density = 1.708542 g / cm^3
# Si number density = 17.124393 Si / 1000 Ang^3
#
#
#
# Elastic Constant Matrix: (Units=GPa)
#
#
# Indices 1 2 3 4 5 6 
#
# 1 93.4507 19.2177 34.3297 0.0000 16.3282 0.0000
# 2 19.2177 41.7293 22.3335 0.0000 1.1491 0.0000
# 3 34.3297 22.3335 119.1876 0.0000 27.4191 0.0000
# 4 0.0000 0.0000 0.0000 22.8166 0.0000 9.0482
# 5 16.3282 1.1491 27.4191 0.0000 22.2691 0.0000
# 6 0.0000 0.0000 0.0000 9.0482 0.0000 33.1473
#
#
#
# Elastic Compliance Matrix: (Units=1/GPa)
#
#
# Indices 1 2 3 4 5 6 
#
# 1 0.013691 -0.005578 -0.000914 0.000000 -0.008625 0.000000
# 2 -0.005578 0.029635 -0.006328 0.000000 0.010352 0.000000
# 3 -0.000914 -0.006328 0.013407 0.000000 -0.015512 0.000000
# 4 0.000000 0.000000 0.000000 0.049148 0.000000 -0.013416
# 5 -0.008625 0.010352 -0.015512 0.000000 0.069794 0.000000
# 6 0.000000 0.000000 0.000000 -0.013416 0.000000 0.033830
#
#
# Mechanical properties :
#
#
# Convention : Reuss Voigt Hill
#
# Bulk Modulus (GPa) = 32.16170 45.12551 38.64360
# Shear Modulus (GPa) = 20.36582 27.54574 23.95578
#
# Velocity S-wave (km/s) = 3.45235 4.01505 3.74428
# Velocity P-wave (km/s) = 5.89182 6.92119 6.42715
#
# Compressibility (1/GPa) = 0.03109289
#
# Stress axis : x y z
#
# Youngs Moduli (GPa) = 73.04191 33.74444 74.58535
#
# Poissons Ratio (x) = 0.18824 0.06816
# Poissons Ratio (y) = 0.40746 0.47195
# Poissons Ratio (z) = 0.06675 0.21352
#
# Static dielectric constant tensor:
#      x y z
#    x 1.563320 0.000000 0.000850 
#    y 0.000000 1.602130 0.000000 
#    z 0.000850 0.000000 1.670820 
# 
# From -- ./inp_files/265076.got.cif
#   From: 2010.05.17/outbox.cif.g08.bks.cpg/sg12_133_cif.got.tgz:265076.got - 2010.06.03 13:09:07.
