data_PCOD9182210
_publ_section_title
;
Structure prediction by ZEFSAII (Michael W. Deem and Ramdas Pophale) SiO2 
 PCOD9182210
Probable space group: C 2/M
;
_chemical_formula_sum "Si O2"
_cell_formula_units_Z 48
_cell_length_a 11.996728
_cell_length_b 14.986196
_cell_length_c 11.705646
_cell_angle_alpha 90.000000
_cell_angle_beta 104.612552
_cell_angle_gamma 90.000000
_cell_volume 2036.430859
_symmetry_space_group_name_H-M "C 2/M"
_symmetry_group_IT_number 12
_symmetry_cell_setting 'monoclinic'
loop_
_space_group_symop_operation_xyz
x,y,z
-x,y,-z
-x,-y,-z
x,-y,z
1/2+x,1/2+y,z
1/2-x,1/2+y,-z
1/2-x,1/2-y,-z
1/2+x,1/2-y,z
loop_
_atom_site_type_symbol
_atom_site_label
_atom_site_fract_x
_atom_site_fract_y
_atom_site_fract_z
Si Si1 0.390606 0.664191 0.598274
Si Si2 0.131331 0.900357 0.996951
Si Si3 0.241314 0.217511 0.209526
Si Si4 0.566724 0.093242 0.695440
Si Si5 0.645553 0.602976 0.726831
Si Si6 0.344952 0.131351 0.534448
O O1 0.336192 0.670310 0.712022
O O2 0.520532 0.628832 0.639308
O O3 0.377894 0.763589 0.543909
O O4 0.291507 0.613215 0.500251
O O5 0.132480 0.893225 0.861321
O O6 0.178440 0.000000 0.039705
O O7 0.188070 0.816838 0.077434
O O8 0.000000 0.900259 0.000000
O O9 0.370976 0.177950 0.236557
O O10 0.259972 0.317859 0.259998
O O11 0.429828 0.095634 0.652469
O O12 0.611822 0.095721 0.576534
O O13 0.603377 0.000000 0.758376
O O14 0.673979 0.500000 0.706974
#
# Coordination Sequence:
#
# PCOD9182210 Si02
#       6
#     8   8   8   8   8   8
#     4  10  20  35  58  79 112 161 190 231 283 348
#     4  10  20  36  61  91 116 145 195 244 287 344
#     4  11  21  37  61  86 119 150 190 239 297 339
#     4  10  19  32  57  85 111 145 189 239 291 339
#     4  11  23  39  59  87 119 155 195 238 290 350
#     4   9  18  33  51  80 116 144 189 233 288 331
#
# _framework density 23.570650000000001
#
# number of rings (size 3 to 8) (size 9 to 14) (size 15 to 20)
#    0.000    1.833    3.333    2.000    0.000    3.333 
#    0.000    1.667    0.000   15.500    0.000    0.000 
#    0.000    0.000    0.000    0.000    0.000    0.000 
#
# Total GULP energy -133899.956902 kJ/mol
# GULP energy per Si atom -5579.164871 kJ/mol
# Density = 2.351700 g / cm^3
# Si number density = 23.570650 Si / 1000 Ang^3
#
#
#
# Elastic Constant Matrix: (Units=GPa)
#
#
# Indices 1 2 3 4 5 6 
#
# 1 114.4075 40.5207 33.2228 0.0000 27.6682 0.0000
# 2 40.5207 140.4014 35.8953 0.0000 23.6896 0.0000
# 3 33.2228 35.8953 85.0618 0.0000 22.4567 0.0000
# 4 0.0000 0.0000 0.0000 -39.5698 0.0000 -45.6385
# 5 27.6682 23.6896 22.4567 0.0000 39.2791 0.0000
# 6 0.0000 0.0000 0.0000 -45.6385 0.0000 -8.2554
#
#
#
# Elastic Compliance Matrix: (Units=1/GPa)
#
#
# Indices 1 2 3 4 5 6 
#
# 1 0.011381 -0.001761 -0.002197 0.000000 -0.005698 0.000000
# 2 -0.001761 0.008662 -0.002256 0.000000 -0.002694 0.000000
# 3 -0.002197 -0.002256 0.015074 0.000000 -0.005709 0.000000
# 4 0.000000 0.000000 0.000000 0.004701 0.000000 -0.025987
# 5 -0.005698 -0.002694 -0.005709 0.000000 0.034361 0.000000
# 6 0.000000 0.000000 0.000000 -0.025987 0.000000 0.022531
#
#
# Mechanical properties :
#
#
# Convention : Reuss Voigt Hill
#
# Bulk Modulus (GPa) = 44.07911 62.12758 53.10334
# Shear Modulus (GPa) = 42.84423 13.63960 28.24191
#
# Velocity S-wave (km/s) = 4.26807 2.40816 3.46523
# Velocity P-wave (km/s) = 6.55972 5.84359 6.21199
#
# Compressibility (1/GPa) = 0.02268648
#
# Stress axis : x y z
#
# Youngs Moduli (GPa) = 87.86889 115.44568 66.34006
#
# Poissons Ratio (x) = 0.20334 0.14578
# Poissons Ratio (y) = 0.15476 0.14968
# Poissons Ratio (z) = 0.19308 0.26048
#
# Static dielectric constant tensor:
#      x y z
#    x 1.916750 0.000000 -0.014680 
#    y 0.000000 1.939480 0.000000 
#    z -0.014680 0.000000 1.927450 
# 
# From -- ./inp_files/143109.got.cif
#   From: 2010.05.17/outbox.cif.g08.bks.cpg/sg12_72_cif.got.tgz:143109.got - 2010.06.03 13:09:07.
