data_PCOD9182320
_publ_section_title
;
Structure prediction by ZEFSAII (Michael W. Deem and Ramdas Pophale) SiO2 
 PCOD9182320
Probable space group: C 2/M
;
_chemical_formula_sum "Si O2"
_cell_formula_units_Z 48
_cell_length_a 15.453984
_cell_length_b 31.899701
_cell_length_c 7.632833
_cell_angle_alpha 90.000000
_cell_angle_beta 38.481252
_cell_angle_gamma 90.000000
_cell_volume 2341.443512
_symmetry_space_group_name_H-M "C 2/M"
_symmetry_group_IT_number 12
_symmetry_cell_setting 'monoclinic'
loop_
_space_group_symop_operation_xyz
x,y,z
-x,y,-z
-x,-y,-z
x,-y,z
1/2+x,1/2+y,z
1/2-x,1/2+y,-z
1/2-x,1/2-y,-z
1/2+x,1/2-y,z
loop_
_atom_site_type_symbol
_atom_site_label
_atom_site_fract_x
_atom_site_fract_y
_atom_site_fract_z
Si Si1 0.558409 0.359202 0.105431
Si Si2 0.732380 0.616897 0.307724
Si Si3 0.042107 0.320873 0.133234
Si Si4 0.834589 0.387749 0.553080
Si Si5 0.056884 0.547686 0.111510
Si Si6 0.600912 0.732392 0.177457
O O1 0.431961 0.375714 0.425044
O O2 0.601445 0.311277 0.074863
O O3 0.500000 0.360491 0.000000
O O4 0.698942 0.386366 0.887619
O O5 0.779994 0.614452 0.437538
O O6 0.807856 0.656567 0.095387
O O7 0.803498 0.575737 0.112102
O O8 0.039462 0.271922 0.170702
O O9 0.930665 0.346581 0.423632
O O10 0.000000 0.328172 0.000000
O O11 0.936798 0.427183 0.404831
O O12 0.077163 0.500000 0.136259
O O13 0.000000 0.547001 0.000000
O O14 0.500000 0.725394 0.500000
O O15 0.750000 0.750000 0.000000
#
# Coordination Sequence:
#
# PCOD9182320 Si02
#       6
#     8   8   8   8   8   8
#     4  10  19  33  49  66  94 132 167 196 234 284
#     4   8  15  27  46  68  90 123 164 195 226 282
#     4   9  17  33  51  65  88 129 171 196 227 282
#     4   8  15  27  46  68  90 122 162 196 227 280
#     4   8  13  24  43  69 100 126 148 187 243 288
#     4  12  24  34  46  70 100 124 159 208 249 279
#
# _framework density 20.500174000000001
#
# number of rings (size 3 to 8) (size 9 to 14) (size 15 to 20)
#    0.000    2.833    0.000    4.500    0.000    0.000 
#    0.000    7.500    0.000    5.000    0.000    0.000 
#    0.000   84.000    0.000    0.000    0.000    0.000 
#
# Total GULP energy -133941.298509 kJ/mol
# GULP energy per Si atom -5580.887438 kJ/mol
# Density = 2.045351 g / cm^3
# Si number density = 20.500174 Si / 1000 Ang^3
#
#
#
# Elastic Constant Matrix: (Units=GPa)
#
#
# Indices 1 2 3 4 5 6 
#
# 1 57.8154 12.3336 24.0654 0.0000 -5.2567 0.0000
# 2 12.3336 153.4557 70.7579 0.0000 -21.1324 0.0000
# 3 24.0654 70.7579 163.4475 0.0000 -42.0355 0.0000
# 4 0.0000 0.0000 0.0000-1169.9997 0.0000 -480.4120
# 5 -5.2567 -21.1324 -42.0355 0.0000 16.7568 0.0000
# 6 0.0000 0.0000 0.0000 -480.4120 0.0000 -181.3488
#
#
#
# Elastic Compliance Matrix: (Units=1/GPa)
#
#
# Indices 1 2 3 4 5 6 
#
# 1 0.018491 -0.000362 -0.003358 0.000000 -0.003078 0.000000
# 2 -0.000362 0.008246 -0.002455 0.000000 0.004127 0.000000
# 3 -0.003358 -0.002455 0.018623 0.000000 0.042567 0.000000
# 4 0.000000 0.000000 0.000000 0.009741 0.000000 -0.025804
# 5 -0.003078 0.004127 0.042567 0.000000 0.170698 0.000000
# 6 0.000000 0.000000 0.000000 -0.025804 0.000000 0.062843
#
#
# Mechanical properties :
#
#
# Convention : Reuss Voigt Hill
#
# Bulk Modulus (GPa) = 30.29311 65.44803 47.87057
# Shear Modulus (GPa) = 16.02588 -249.08090 -116.52751
#
# Velocity S-wave (km/s) = 2.79900 -11.03475 -7.54756
# Velocity P-wave (km/s) = 5.02543 11.41750 7.24929
#
# Compressibility (1/GPa) = 0.03301080
#
# Stress axis : x y z
#
# Youngs Moduli (GPa) = 54.07942 121.27102 53.69777
#
# Poissons Ratio (x) = 0.04389 0.18029
# Poissons Ratio (y) = 0.01957 0.13183
# Poissons Ratio (z) = 0.18158 0.29774
#
# Static dielectric constant tensor:
#      x y z
#    x 1.783960 0.000000 -0.001000 
#    y 0.000000 1.713990 0.000000 
#    z -0.001000 0.000000 1.735250 
# 
# From -- ./inp_files/80585.got.cif
#   From: 2010.05.17/outbox.cif.g08.bks.cpg/sg12_41_cif.got.tgz:80585.got - 2010.06.03 13:09:07.
