data_PCOD9182296
_publ_section_title
;
Structure prediction by ZEFSAII (Michael W. Deem and Ramdas Pophale) SiO2 
 PCOD9182296
Probable space group: C 2/M
;
_chemical_formula_sum "Si O2"
_cell_formula_units_Z 48
_cell_length_a 18.625136
_cell_length_b 26.627382
_cell_length_c 14.141959
_cell_angle_alpha 90.000000
_cell_angle_beta 156.058084
_cell_angle_gamma 90.000000
_cell_volume 2846.168341
_symmetry_space_group_name_H-M "C 2/M"
_symmetry_group_IT_number 12
_symmetry_cell_setting 'monoclinic'
loop_
_space_group_symop_operation_xyz
x,y,z
-x,y,-z
-x,-y,-z
x,-y,z
1/2+x,1/2+y,z
1/2-x,1/2+y,-z
1/2-x,1/2-y,-z
1/2+x,1/2-y,z
loop_
_atom_site_type_symbol
_atom_site_label
_atom_site_fract_x
_atom_site_fract_y
_atom_site_fract_z
Si Si1 0.674840 0.633127 0.774878
Si Si2 0.236038 0.257859 0.117681
Si Si3 0.791854 0.443349 0.763342
Si Si4 0.890155 0.754255 0.514131
Si Si5 0.922823 0.811836 0.801136
Si Si6 0.590271 0.367120 0.390854
O O1 0.500000 0.646554 0.500000
O O2 0.796073 0.682281 0.925532
O O3 0.752403 0.586021 0.813265
O O4 0.599565 0.623374 0.788351
O O5 0.317605 0.250174 0.320218
O O6 0.101981 0.254609 0.759378
O O7 0.060163 0.224599 0.909885
O O8 0.718756 0.500000 0.676319
O O9 0.712287 0.409357 0.583770
O O10 0.000000 0.445698 0.000000
O O11 0.768179 0.714932 0.422822
O O12 0.854633 0.811286 0.505792
O O13 0.912671 0.861515 0.724982
O O14 0.000000 0.818832 0.000000
#
# Coordination Sequence:
#
# PCOD9182296 Si02
#       6
#     8   8   8   8   8   8
#     4   9  16  30  49  70 100 132 165 210 251 310
#     4   9  15  29  45  66 102 136 173 203 245 296
#     4  10  21  35  55  80 102 127 161 213 276 321
#     4   9  16  29  44  69 100 137 174 209 242 296
#     4  10  21  30  47  71 104 146 175 209 241 286
#     4  10  19  33  47  74 100 131 178 204 250 309
#
# _framework density 16.864778999999999
#
# number of rings (size 3 to 8) (size 9 to 14) (size 15 to 20)
#    0.000    2.500    5.000    0.500    2.333    5.667 
#    3.000    0.000    0.000    0.500    0.000    0.000 
#    0.000    2.667    0.000    0.000    0.000    0.000 
#
# Total GULP energy -133687.596258 kJ/mol
# GULP energy per Si atom -5570.316511 kJ/mol
# Density = 1.682639 g / cm^3
# Si number density = 16.864779 Si / 1000 Ang^3
#
#
#
# Elastic Constant Matrix: (Units=GPa)
#
#
# Indices 1 2 3 4 5 6 
#
# 1 113.2080 51.2991 27.0198 0.0000 -2.6425 0.0000
# 2 51.2991 97.5006 36.1525 0.0000 1.9357 0.0000
# 3 27.0198 36.1525 51.3367 0.0000 4.7831 0.0000
# 4 0.0000 0.0000 0.0000 21.4387 0.0000 3.3916
# 5 -2.6425 1.9357 4.7831 0.0000 18.2926 0.0000
# 6 0.0000 0.0000 0.0000 3.3916 0.0000 14.8470
#
#
#
# Elastic Compliance Matrix: (Units=1/GPa)
#
#
# Indices 1 2 3 4 5 6 
#
# 1 0.011993 -0.005312 -0.002855 0.000000 0.003041 0.000000
# 2 -0.005312 0.016256 -0.008631 0.000000 -0.000231 0.000000
# 3 -0.002855 -0.008631 0.027687 0.000000 -0.006739 0.000000
# 4 0.000000 0.000000 0.000000 0.048394 0.000000 -0.011055
# 5 0.003041 -0.000231 -0.006739 0.000000 0.056893 0.000000
# 6 0.000000 0.000000 0.000000 -0.011055 0.000000 0.069879
#
#
# Mechanical properties :
#
#
# Convention : Reuss Voigt Hill
#
# Bulk Modulus (GPa) = 44.75884 54.55423 49.65654
# Shear Modulus (GPa) = 18.37275 20.75391 19.56333
#
# Velocity S-wave (km/s) = 3.30421 3.51181 3.40959
# Velocity P-wave (km/s) = 6.41518 6.99013 6.70882
#
# Compressibility (1/GPa) = 0.02234195
#
# Stress axis : x y z
#
# Youngs Moduli (GPa) = 83.38515 61.51679 36.11742
#
# Poissons Ratio (x) = 0.32675 0.10311
# Poissons Ratio (y) = 0.44291 0.31171
# Poissons Ratio (z) = 0.23804 0.53092
#
# Static dielectric constant tensor:
#      x y z
#    x 1.644140 0.000000 -0.012150 
#    y 0.000000 1.553550 0.000000 
#    z -0.012150 0.000000 1.617350 
# 
# From -- ./inp_files/235713.got.cif
#   From: 2010.05.17/outbox.cif.g08.bks.cpg/sg12_118_cif.got.tgz:235713.got - 2010.06.03 13:09:07.
