data_PCOD9182531
_publ_section_title
;
Structure prediction by ZEFSAII (Michael W. Deem and Ramdas Pophale) SiO2 
 PCOD9182531
Probable space group: C 2/M
;
_chemical_formula_sum "Si O2"
_cell_formula_units_Z 48
_cell_length_a 28.982502
_cell_length_b 7.967269
_cell_length_c 8.046122
_cell_angle_alpha 90.000000
_cell_angle_beta 90.067068
_cell_angle_gamma 90.000000
_cell_volume 1857.939940
_symmetry_space_group_name_H-M "C 2/M"
_symmetry_group_IT_number 12
_symmetry_cell_setting 'monoclinic'
loop_
_space_group_symop_operation_xyz
x,y,z
-x,y,-z
-x,-y,-z
x,-y,z
1/2+x,1/2+y,z
1/2-x,1/2+y,-z
1/2-x,1/2-y,-z
1/2+x,1/2-y,z
loop_
_atom_site_type_symbol
_atom_site_label
_atom_site_fract_x
_atom_site_fract_y
_atom_site_fract_z
Si Si1 0.032328 0.195930 0.664886
Si Si2 0.890212 0.310481 0.561403
Si Si3 0.192182 0.199192 0.637577
Si Si4 0.551855 0.694590 0.136859
Si Si5 0.638399 0.705718 0.970261
Si Si6 0.222744 0.200336 0.168533
O O1 0.997604 0.265038 0.806427
O O2 0.000000 0.198733 0.500000
O O3 0.078656 0.284036 0.604503
O O4 0.043447 0.000000 0.699789
O O5 0.895809 0.500000 0.618642
O O6 0.837581 0.273479 0.512423
O O7 0.914794 0.197999 0.700357
O O8 0.245203 0.238800 0.681016
O O9 0.188219 0.000000 0.621912
O O10 0.164203 0.256344 0.802744
O O11 0.543304 0.500000 0.098753
O O12 0.586219 0.765312 0.997449
O O13 0.637660 0.500000 0.970096
O O14 0.671435 0.761559 0.122707
O O15 0.220657 0.000000 0.182950
O O16 0.250000 0.250000 0.000000
#
# Coordination Sequence:
#
# PCOD9182531 Si02
#       6
#     8   8   8   8   8   8
#     4   8  15  29  50  71  92 124 163 197 233 283
#     4  11  21  32  48  72 100 129 161 198 241 288
#     4  10  19  33  52  73  97 128 165 202 241 283
#     4   9  17  33  54  74  96 124 160 200 240 284
#     4   8  16  31  53  76  96 122 159 201 240 282
#     4   9  16  29  49  73  99 128 162 196 235 286
#
# _framework density 25.835066999999999
#
# number of rings (size 3 to 8) (size 9 to 14) (size 15 to 20)
#    0.000    2.833    0.000    4.500    0.000    3.000 
#    0.000    6.667    0.000    5.000    0.000    0.000 
#    0.000    0.000    0.000    0.000    0.000    0.000 
#
# Total GULP energy -134139.767537 kJ/mol
# GULP energy per Si atom -5589.156981 kJ/mol
# Density = 2.577626 g / cm^3
# Si number density = 25.835067 Si / 1000 Ang^3
#
#
#
# Elastic Constant Matrix: (Units=GPa)
#
#
# Indices 1 2 3 4 5 6 
#
# 1 190.1585 3.4849 31.4515 0.0000 11.2350 0.0000
# 2 3.4849 47.8426 0.9479 0.0000 6.6440 0.0000
# 3 31.4515 0.9479 101.4656 0.0000 16.3540 0.0000
# 4 0.0000 0.0000 0.0000 -1.8413 0.0000 2.2082
# 5 11.2350 6.6440 16.3540 0.0000 55.9824 0.0000
# 6 0.0000 0.0000 0.0000 2.2082 0.0000 21.2858
#
#
#
# Elastic Compliance Matrix: (Units=1/GPa)
#
#
# Indices 1 2 3 4 5 6 
#
# 1 0.005569 -0.000289 -0.001625 0.000000 -0.000608 0.000000
# 2 -0.000289 0.021272 0.000303 0.000000 -0.002555 0.000000
# 3 -0.001625 0.000303 0.010819 0.000000 -0.002870 0.000000
# 4 0.000000 0.000000 0.000000 -0.483006 0.000000 0.050106
# 5 -0.000608 -0.002555 -0.002870 0.000000 0.019127 0.000000
# 6 0.000000 0.000000 0.000000 0.050106 0.000000 0.041782
#
#
# Mechanical properties :
#
#
# Convention : Reuss Voigt Hill
#
# Bulk Modulus (GPa) = 29.03906 45.69279 37.36592
# Shear Modulus (GPa) = -13.52318 35.32421 10.90051
#
# Velocity S-wave (km/s) = -2.29037 3.70171 2.05631
# Velocity P-wave (km/s) = 2.06644 5.99958 4.48693
#
# Compressibility (1/GPa) = 0.03443638
#
# Stress axis : x y z
#
# Youngs Moduli (GPa) = 179.57011 47.01077 92.42833
#
# Poissons Ratio (x) = 0.01358 0.15023
# Poissons Ratio (y) = 0.05188 -0.02797
# Poissons Ratio (z) = 0.29188 -0.01423
#
# Static dielectric constant tensor:
#      x y z
#    x 2.055080 0.000000 -0.022580 
#    y 0.000000 1.923000 0.000000 
#    z -0.022580 0.000000 2.141870 
# 
# From -- ./inp_files/179270.got.cif
#   From: 2010.05.17/outbox.cif.g08.bks.cpg/sg12_90_cif.got.tgz:179270.got - 2010.06.03 13:09:07.
