data_PCOD9182102
_publ_section_title
;
Structure prediction by ZEFSAII (Michael W. Deem and Ramdas Pophale) SiO2 
 PCOD9182102
Probable space group: C 2/M
;
_chemical_formula_sum "Si O2"
_cell_formula_units_Z 64
_cell_length_a 12.899327
_cell_length_b 17.917785
_cell_length_c 12.109643
_cell_angle_alpha 90.000000
_cell_angle_beta 69.268425
_cell_angle_gamma 90.000000
_cell_volume 2617.640547
_symmetry_space_group_name_H-M "C 2/M"
_symmetry_group_IT_number 12
_symmetry_cell_setting 'monoclinic'
loop_
_space_group_symop_operation_xyz
x,y,z
-x,y,-z
-x,-y,-z
x,-y,z
1/2+x,1/2+y,z
1/2-x,1/2+y,-z
1/2-x,1/2-y,-z
1/2+x,1/2-y,z
loop_
_atom_site_type_symbol
_atom_site_label
_atom_site_fract_x
_atom_site_fract_y
_atom_site_fract_z
Si Si1 0.483438 0.588126 0.256767
Si Si2 0.683022 0.705456 0.126959
Si Si3 0.562180 0.140557 0.214161
Si Si4 0.370920 0.080251 0.584381
Si Si5 0.120329 0.088555 0.918744
Si Si6 0.898152 0.820602 0.474923
Si Si7 0.814224 0.586869 0.025351
Si Si8 0.170919 0.324890 0.607296
O O1 0.513137 0.500000 0.233710
O O2 0.583451 0.643072 0.183293
O O3 0.381201 0.604771 0.210706
O O4 0.444952 0.608078 0.393797
O O5 0.618028 0.777517 0.199005
O O6 0.750000 0.750000 0.000000
O O7 0.786019 0.651243 0.123952
O O8 0.624551 0.095723 0.287562
O O9 0.578612 0.104109 0.088054
O O10 0.432644 0.140655 0.291648
O O11 0.500000 0.076999 0.500000
O O12 0.323292 0.139857 0.518260
O O13 0.317529 0.000000 0.583600
O O14 0.218121 0.105278 0.967089
O O15 0.113232 0.000000 0.930017
O O16 0.000000 0.120573 0.000000
O O17 0.859129 0.761141 0.398842
O O18 0.797223 0.834042 0.596795
O O19 0.000000 0.783664 0.500000
O O20 0.807349 0.500000 0.060009
#
# Coordination Sequence:
#
# PCOD9182102 Si02
#       8
#     8   8   8   8   8   8   8   8
#     4  11  22  38  61  87 123 169 214 262 315 374
#     4  10  20  34  54  84 122 165 205 252 311 384
#     4  10  19  34  56  86 128 165 203 249 318 387
#     4   9  18  33  57  89 121 157 200 255 317 374
#     4   9  17  31  52  84 125 159 198 257 318 370
#     4  11  24  43  64  89 127 170 217 261 311 377
#     4  10  19  32  55  88 128 165 200 256 318 377
#     4  10  22  40  62  89 123 167 208 260 319 373
#
# _framework density 24.4495
#
# number of rings (size 3 to 8) (size 9 to 14) (size 15 to 20)
#    0.000    2.000    2.500    1.875    1.750    1.250 
#    0.000    0.000    2.750    0.000    0.000    0.000 
#    0.000    3.250    0.000    0.000    0.000    0.000 
#
# Total GULP energy -178155.877689 kJ/mol
# GULP energy per Si atom -5567.371178 kJ/mol
# Density = 2.439385 g / cm^3
# Si number density = 24.449500 Si / 1000 Ang^3
#
#
#
# Elastic Constant Matrix: (Units=GPa)
#
#
# Indices 1 2 3 4 5 6 
#
# 1 71.2044 -2.0691 24.9285 0.0000 -24.9033 0.0000
# 2 -2.0691 135.2299 11.1566 0.0000 -1.2704 0.0000
# 3 24.9285 11.1566 94.0591 0.0000 -23.4210 0.0000
# 4 0.0000 0.0000 0.0000 20.5397 0.0000 -9.6342
# 5 -24.9033 -1.2704 -23.4210 0.0000 31.7950 0.0000
# 6 0.0000 0.0000 0.0000 -9.6342 0.0000 20.2032
#
#
#
# Elastic Compliance Matrix: (Units=1/GPa)
#
#
# Indices 1 2 3 4 5 6 
#
# 1 0.019601 0.000577 -0.001757 0.000000 0.014081 0.000000
# 2 0.000577 0.007490 -0.001046 0.000000 -0.000019 0.000000
# 3 -0.001757 -0.001046 0.013310 0.000000 0.008386 0.000000
# 4 0.000000 0.000000 0.000000 0.062714 0.000000 0.029906
# 5 0.014081 -0.000019 0.008386 0.000000 0.048657 0.000000
# 6 0.000000 0.000000 0.000000 0.029906 0.000000 0.063758
#
#
# Mechanical properties :
#
#
# Convention : Reuss Voigt Hill
#
# Bulk Modulus (GPa) = 27.81804 40.94727 34.38265
# Shear Modulus (GPa) = 21.55508 32.27273 26.91390
#
# Velocity S-wave (km/s) = 2.97242 3.63709 3.32142
# Velocity P-wave (km/s) = 4.81486 5.86702 5.36679
#
# Compressibility (1/GPa) = 0.03594790
#
# Stress axis : x y z
#
# Youngs Moduli (GPa) = 51.01861 133.51537 75.13405
#
# Poissons Ratio (x) = -0.07706 0.13201
# Poissons Ratio (y) = -0.02945 0.07860
# Poissons Ratio (z) = 0.08964 0.13968
#
# Static dielectric constant tensor:
#      x y z
#    x 2.075300 0.000000 0.001930 
#    y 0.000000 1.924080 0.000000 
#    z 0.001930 0.000000 2.097140 
# 
# From -- ./inp_files/216345.got.cif
#   From: 2010.05.17/outbox.cif.g08.bks.cpg/sg12_109_cif.got.tgz:216345.got - 2010.06.03 13:09:07.
