data_PCOD9182257
_publ_section_title
;
Structure prediction by ZEFSAII (Michael W. Deem and Ramdas Pophale) SiO2 
 PCOD9182257
Probable space group: C 2/M
;
_chemical_formula_sum "Si O2"
_cell_formula_units_Z 52
_cell_length_a 32.167775
_cell_length_b 7.925970
_cell_length_c 14.825309
_cell_angle_alpha 90.000000
_cell_angle_beta 45.183940
_cell_angle_gamma 90.000000
_cell_volume 2681.340558
_symmetry_space_group_name_H-M "C 2/M"
_symmetry_group_IT_number 12
_symmetry_cell_setting 'monoclinic'
loop_
_space_group_symop_operation_xyz
x,y,z
-x,y,-z
-x,-y,-z
x,-y,z
1/2+x,1/2+y,z
1/2-x,1/2+y,-z
1/2-x,1/2-y,-z
1/2+x,1/2-y,z
loop_
_atom_site_type_symbol
_atom_site_label
_atom_site_fract_x
_atom_site_fract_y
_atom_site_fract_z
Si Si1 0.123967 0.813909 0.856699
Si Si2 0.319688 0.305276 0.955103
Si Si3 0.556515 0.685592 0.151377
Si Si4 0.935634 0.500000 0.552606
Si Si5 0.764313 0.308257 0.220087
Si Si6 0.654530 0.704758 0.281650
Si Si7 0.064889 0.500000 0.852977
Si Si8 0.528410 0.000000 0.705097
O O1 0.191789 0.792422 0.782647
O O2 0.099837 0.664320 0.832890
O O3 0.114692 0.000000 0.831765
O O4 0.087000 0.803410 0.006504
O O5 0.301303 0.500000 0.998804
O O6 0.390018 0.301774 0.860655
O O7 0.310759 0.258291 0.865153
O O8 0.294725 0.196314 0.074625
O O9 0.529232 0.500000 0.201410
O O10 0.512152 0.834996 0.232246
O O11 0.900203 0.330289 0.633366
O O12 0.938281 0.500000 0.440023
O O13 0.000000 0.500000 0.500000
O O14 0.763013 0.500000 0.254786
O O15 0.698254 0.253960 0.297876
O O16 0.643082 0.500000 0.299567
O O17 0.060590 0.500000 0.751834
O O18 0.000000 0.500000 0.000000
#
# Coordination Sequence:
#
# PCOD9182257 Si02
#       8
#     8   8   8   4   8   8   4   4
#     4  10  20  35  57  91 125 160 186 234 315 373
#     4   9  18  31  52  86 126 157 195 239 304 357
#     4   9  18  32  53  83 120 158 192 239 294 363
#     4  12  28  44  64  88 116 170 215 246 292 349
#     4  10  19  32  58  91 123 160 195 242 309 367
#     4  10  23  40  58  86 119 160 206 257 295 350
#     4  12  22  38  60  90 130 154 193 257 301 363
#     4  12  24  38  60  84 118 162 210 247 293 347
#
# _framework density 19.393284999999999
#
# number of rings (size 3 to 8) (size 9 to 14) (size 15 to 20)
#    0.000    1.846    2.308    2.769    6.462    1.846 
#    0.000    0.000    0.000    0.923    0.000    0.000 
#    0.000    0.000    0.000    0.000    0.000    0.000 
#
# Total GULP energy -145043.011240 kJ/mol
# GULP energy per Si atom -5578.577355 kJ/mol
# Density = 1.934914 g / cm^3
# Si number density = 19.393285 Si / 1000 Ang^3
#
#
#
# Elastic Constant Matrix: (Units=GPa)
#
#
# Indices 1 2 3 4 5 6 
#
# 1 85.2879 40.3227 17.2959 0.0015 -3.3107 -0.0001
# 2 40.3227 108.8483 23.8916 0.0026 -16.6042 -0.0001
# 3 17.2959 23.8916 38.4477 -0.0006 -6.5202 0.0000
# 4 0.0015 0.0026 -0.0006 618.1647 -0.0006 -58.1472
# 5 -3.3107 -16.6042 -6.5202 -0.0006 27.7522 0.0000
# 6 -0.0001 -0.0001 0.0000 -58.1472 0.0000 27.2150
#
#
#
# Elastic Compliance Matrix: (Units=1/GPa)
#
#
# Indices 1 2 3 4 5 6 
#
# 1 0.014773 -0.004930 -0.003940 0.000000 -0.002113 0.000000
# 2 -0.004930 0.012997 -0.004832 0.000000 0.006053 0.000000
# 3 -0.003940 -0.004832 0.031469 0.000000 0.004032 0.000000
# 4 0.000000 0.000000 0.000000 0.002025 0.000000 0.004326
# 5 -0.002113 0.006053 0.004032 0.000000 0.040350 0.000000
# 6 0.000000 0.000000 0.000000 0.004326 0.000000 0.045987
#
#
# Mechanical properties :
#
#
# Convention : Reuss Voigt Hill
#
# Bulk Modulus (GPa) = 31.41375 43.95604 37.68489
# Shear Modulus (GPa) = 26.93720 144.69796 85.81758
#
# Velocity S-wave (km/s) = 3.73097 8.64722 6.65937
# Velocity P-wave (km/s) = 5.89861 11.06409 8.86588
#
# Compressibility (1/GPa) = 0.03183320
#
# Stress axis : x y z
#
# Youngs Moduli (GPa) = 67.69148 76.93822 31.77767
#
# Poissons Ratio (x) = 0.37931 0.12522
# Poissons Ratio (y) = 0.33372 0.15356
# Poissons Ratio (z) = 0.26674 0.37179
#
# Static dielectric constant tensor:
#      x y z
#    x 1.723460 0.000000 -0.011410 
#    y 0.000000 1.675950 0.000000 
#    z -0.011410 0.000000 1.667870 
# 
# From -- ./inp_files/249644.got.cif
#   From: 2010.05.17/outbox.cif.g08.bks.cpg/sg12_125_cif.got.tgz:249644.got - 2010.06.03 13:09:07.
