data_PCOD9182945
_publ_section_title
;
Structure prediction by ZEFSAII (Michael W. Deem and Ramdas Pophale) SiO2 
 PCOD9182945
Probable space group: C 2/M
;
_chemical_formula_sum "Si O2"
_cell_formula_units_Z 40
_cell_length_a 10.181423
_cell_length_b 13.812372
_cell_length_c 12.198883
_cell_angle_alpha 90.000000
_cell_angle_beta 110.228351
_cell_angle_gamma 90.000000
_cell_volume 1609.714050
_symmetry_space_group_name_H-M "C 2/M"
_symmetry_group_IT_number 12
_symmetry_cell_setting 'monoclinic'
loop_
_space_group_symop_operation_xyz
x,y,z
-x,y,-z
-x,-y,-z
x,-y,z
1/2+x,1/2+y,z
1/2-x,1/2+y,-z
1/2-x,1/2-y,-z
1/2+x,1/2-y,z
loop_
_atom_site_type_symbol
_atom_site_label
_atom_site_fract_x
_atom_site_fract_y
_atom_site_fract_z
Si Si1 0.705268 0.164821 0.754603
Si Si2 0.919178 0.638450 0.583501
Si Si3 0.354313 0.337144 0.006278
Si Si4 0.638478 0.637126 0.426898
Si Si5 0.841529 0.104594 0.247890
O O1 0.540319 0.137253 0.709207
O O2 0.779615 0.116558 0.879683
O O3 0.781910 0.130527 0.666726
O O4 0.717225 0.284439 0.752235
O O5 0.759829 0.601523 0.545286
O O6 0.892194 0.751639 0.555051
O O7 0.000000 0.600422 0.500000
O O8 0.500000 0.300367 0.000000
O O9 0.250000 0.250000 0.000000
O O10 0.377680 0.390552 0.127496
O O11 0.483269 0.598877 0.361148
O O12 0.765095 0.000000 0.238814
#
# Coordination Sequence:
#
# PCOD9182945 Si02
#       5
#     8   8   8   8   8
#     4   9  17  31  50  75 103 138 179 216 257 319
#     4   8  15  26  49  75  94 124 175 218 247 300
#     4  10  19  33  53  80 106 142 184 225 261 322
#     4   9  15  29  50  74 101 134 175 212 254 317
#     4  10  20  32  51  80 109 135 173 228 273 309
#
# _framework density 24.849135
#
# number of rings (size 3 to 8) (size 9 to 14) (size 15 to 20)
#    0.000    2.800    2.000    0.000    0.000    0.400 
#    0.000    0.000    0.000   76.200    0.000    7.000 
#    0.000    0.000    0.000    0.000    0.000    0.000 
#
# Total GULP energy -111370.544126 kJ/mol
# GULP energy per Si atom -5568.527206 kJ/mol
# Density = 2.479258 g / cm^3
# Si number density = 24.849135 Si / 1000 Ang^3
#
#
#
# Elastic Constant Matrix: (Units=GPa)
#
#
# Indices 1 2 3 4 5 6 
#
# 1 107.4543 1.9871 35.3104 0.0000 23.7004 0.0000
# 2 1.9871 123.2299 1.5407 0.0000 0.0325 0.0000
# 3 35.3104 1.5407 108.5529 0.0000 23.2194 0.0000
# 4 0.0000 0.0000 0.0000 -34.6188 0.0000 8.6138
# 5 23.7004 0.0325 23.2194 0.0000 48.8640 0.0000
# 6 0.0000 0.0000 0.0000 8.6138 0.0000 -22.3906
#
#
#
# Elastic Compliance Matrix: (Units=1/GPa)
#
#
# Indices 1 2 3 4 5 6 
#
# 1 0.011110 -0.000144 -0.002738 0.000000 -0.004088 0.000000
# 2 -0.000144 0.008118 -0.000092 0.000000 0.000108 0.000000
# 3 -0.002738 -0.000092 0.010931 0.000000 -0.003866 0.000000
# 4 0.000000 0.000000 0.000000 -0.031944 0.000000 -0.012289
# 5 -0.004088 0.000108 -0.003866 0.000000 0.024285 0.000000
# 6 0.000000 0.000000 0.000000 -0.012289 0.000000 -0.049389
#
#
# Mechanical properties :
#
#
# Convention : Reuss Voigt Hill
#
# Bulk Modulus (GPa) = 41.29907 46.32372 43.81139
# Shear Modulus (GPa) = -388.44361 18.39750 -185.02305
#
# Velocity S-wave (km/s) = -12.51639 2.72392 -8.63830
# Velocity P-wave (km/s) = 13.86449 5.34560 9.04568
#
# Compressibility (1/GPa) = 0.02421362
#
# Stress axis : x y z
#
# Youngs Moduli (GPa) = 90.00789 123.17773 91.48395
#
# Poissons Ratio (x) = 0.01772 0.25044
# Poissons Ratio (y) = 0.01295 0.00837
# Poissons Ratio (z) = 0.24640 0.01127
#
# Static dielectric constant tensor:
#      x y z
#    x 2.063720 0.000000 -0.101650 
#    y 0.000000 2.131910 0.000000 
#    z -0.101650 0.000000 2.173580 
# 
# From -- ./inp_files/129143.got.cif
#   From: 2010.05.17/outbox.cif.g08.bks.cpg/sg12_65_cif.got.tgz:129143.got - 2010.06.03 13:09:07.
