data_PCOD9182054
_publ_section_title
;
Structure prediction by ZEFSAII (Michael W. Deem and Ramdas Pophale) SiO2 
 PCOD9182054
Probable space group: C 2/M
;
_chemical_formula_sum "Si O2"
_cell_formula_units_Z 64
_cell_length_a 9.930149
_cell_length_b 30.351883
_cell_length_c 15.925027
_cell_angle_alpha 90.000000
_cell_angle_beta 137.329028
_cell_angle_gamma 90.000000
_cell_volume 3253.231560
_symmetry_space_group_name_H-M "C 2/M"
_symmetry_group_IT_number 12
_symmetry_cell_setting 'monoclinic'
loop_
_space_group_symop_operation_xyz
x,y,z
-x,y,-z
-x,-y,-z
x,-y,z
1/2+x,1/2+y,z
1/2-x,1/2+y,-z
1/2-x,1/2-y,-z
1/2+x,1/2-y,z
loop_
_atom_site_type_symbol
_atom_site_label
_atom_site_fract_x
_atom_site_fract_y
_atom_site_fract_z
Si Si1 0.035673 0.877874 0.695651
Si Si2 0.094763 0.379845 0.463400
Si Si3 0.058873 0.449385 0.840862
Si Si4 0.684211 0.867603 0.319711
Si Si5 0.735881 0.949679 0.746802
Si Si6 0.504724 0.789991 0.864411
Si Si7 0.320815 0.551835 0.120490
Si Si8 0.166178 0.790508 0.844779
O O1 0.108674 0.865376 0.635582
O O2 0.179395 0.914546 0.802327
O O3 0.053031 0.834144 0.761359
O O4 0.812960 0.896292 0.590402
O O5 0.148153 0.356164 0.400382
O O6 0.000000 0.354810 0.500000
O O7 0.930500 0.416942 0.366557
O O8 0.991686 0.500000 0.814586
O O9 0.223369 0.446687 0.842218
O O10 0.890270 0.417166 0.730077
O O11 0.156707 0.437743 0.974782
O O12 0.544138 0.835015 0.203945
O O13 0.960309 0.941775 0.819890
O O14 0.683650 0.000000 0.699571
O O15 0.322560 0.778937 0.843028
O O16 0.534516 0.750871 0.811674
O O17 0.698161 0.798022 0.010532
O O18 0.300104 0.500000 0.133516
#
# Coordination Sequence:
#
# PCOD9182054 Si02
#       8
#     8   8   8   8   8   8   8   8
#     4  11  22  37  55  83 115 151 184 228 285 331
#     4  11  22  38  56  79 105 146 198 239 268 319
#     4   9  18  33  54  83 116 150 185 227 279 338
#     4  10  22  38  58  80 116 150 184 227 284 338
#     4   9  18  34  54  77 110 150 192 240 282 319
#     4   9  18  37  59  87 113 147 178 223 281 334
#     4  10  19  32  55  84 116 149 186 229 280 340
#     4   9  19  35  60  85 117 143 179 225 277 338
#
# _framework density 19.672746
#
# number of rings (size 3 to 8) (size 9 to 14) (size 15 to 20)
#    0.000    2.250    1.250    1.500    0.000    5.250 
#    0.000    1.875    0.000    3.750    0.000    0.000 
#    0.000    0.000    0.000    0.000    0.000    0.000 
#
# Total GULP energy -178337.911486 kJ/mol
# GULP energy per Si atom -5573.059734 kJ/mol
# Density = 1.962797 g / cm^3
# Si number density = 19.672746 Si / 1000 Ang^3
#
#
#
# Elastic Constant Matrix: (Units=GPa)
#
#
# Indices 1 2 3 4 5 6 
#
# 1 75.2765 5.5395 18.7976 0.0000 -19.6380 0.0000
# 2 5.5395 35.5735 13.8753 0.0000 -7.5866 0.0000
# 3 18.7976 13.8753 54.8535 0.0000 -10.0407 0.0000
# 4 0.0000 0.0000 0.0000 8.3080 0.0000 -2.2868
# 5 -19.6380 -7.5866 -10.0407 0.0000 33.9769 0.0000
# 6 0.0000 0.0000 0.0000 -2.2868 0.0000 21.1246
#
#
#
# Elastic Compliance Matrix: (Units=1/GPa)
#
#
# Indices 1 2 3 4 5 6 
#
# 1 0.016509 0.000929 -0.004343 0.000000 0.008466 0.000000
# 2 0.000929 0.032030 -0.007414 0.000000 0.005498 0.000000
# 3 -0.004343 -0.007414 0.022023 0.000000 0.002343 0.000000
# 4 0.000000 0.000000 0.000000 0.124063 0.000000 0.013430
# 5 0.008466 0.005498 0.002343 0.000000 0.036245 0.000000
# 6 0.000000 0.000000 0.000000 0.013430 0.000000 0.048792
#
#
# Mechanical properties :
#
#
# Convention : Reuss Voigt Hill
#
# Bulk Modulus (GPa) = 20.44742 26.90314 23.67528
# Shear Modulus (GPa) = 15.74206 21.18132 18.46169
#
# Velocity S-wave (km/s) = 2.83184 3.28484 3.06672
# Velocity P-wave (km/s) = 4.59443 5.30019 4.95988
#
# Compressibility (1/GPa) = 0.04890593
#
# Stress axis : x y z
#
# Youngs Moduli (GPa) = 60.57292 31.22029 45.40755
#
# Poissons Ratio (x) = -0.02899 0.19719
# Poissons Ratio (y) = -0.05625 0.33665
# Poissons Ratio (z) = 0.26305 0.23147
#
# Static dielectric constant tensor:
#      x y z
#    x 1.755060 0.000000 -0.014460 
#    y 0.000000 1.659110 0.000000 
#    z -0.014460 0.000000 1.705930 
# 
# From -- ./inp_files/201329.got.cif
#   From: 2010.05.17/outbox.cif.g08.bks.cpg/sg12_101_cif.got.tgz:201329.got - 2010.06.03 13:09:07.
