data_PCOD9182744
_publ_section_title
;
Structure prediction by ZEFSAII (Michael W. Deem and Ramdas Pophale) SiO2 
 PCOD9182744
Probable space group: C 2/M
;
_chemical_formula_sum "Si O2"
_cell_formula_units_Z 64
_cell_length_a 20.320568
_cell_length_b 7.359977
_cell_length_c 27.715857
_cell_angle_alpha 90.000000
_cell_angle_beta 136.717462
_cell_angle_gamma 90.000000
_cell_volume 2841.902772
_symmetry_space_group_name_H-M "C 2/M"
_symmetry_group_IT_number 12
_symmetry_cell_setting 'monoclinic'
loop_
_space_group_symop_operation_xyz
x,y,z
-x,y,-z
-x,-y,-z
x,-y,z
1/2+x,1/2+y,z
1/2-x,1/2+y,-z
1/2-x,1/2-y,-z
1/2+x,1/2-y,z
loop_
_atom_site_type_symbol
_atom_site_label
_atom_site_fract_x
_atom_site_fract_y
_atom_site_fract_z
Si Si1 0.611801 0.778804 0.562306
Si Si2 0.972083 0.719156 0.210058
Si Si3 0.156010 0.283493 0.481145
Si Si4 0.941131 0.222079 0.015769
Si Si5 0.235525 0.716640 0.935507
Si Si6 0.582966 0.286866 0.173851
Si Si7 0.798021 0.722289 0.288196
Si Si8 0.477696 0.778133 0.322206
O O1 0.500000 0.726264 0.500000
O O2 0.660817 0.717132 0.538730
O O3 0.662294 0.719158 0.638373
O O4 0.613513 0.000000 0.564773
O O5 0.969439 0.500000 0.209431
O O6 0.867076 0.786401 0.137164
O O7 0.993111 0.780920 0.275519
O O8 0.049456 0.769652 0.211057
O O9 0.143743 0.500000 0.478241
O O10 0.250000 0.250000 0.500000
O O11 0.062212 0.215623 0.402784
O O12 0.000026 0.284645 0.094327
O O13 0.937717 0.000000 0.014243
O O14 0.831084 0.284419 0.959711
O O15 0.000000 0.276349 0.000000
O O16 0.232543 0.500000 0.926641
O O17 0.250000 0.750000 0.000000
O O18 0.589021 0.500000 0.165635
O O19 0.689565 0.213250 0.222667
O O20 0.796467 0.500000 0.287630
O O21 0.874784 0.776186 0.288706
O O22 0.479262 0.000000 0.323159
#
# Coordination Sequence:
#
# PCOD9182744 Si02
#       8
#     8   8   8   8   8   8   8   8
#     4   9  15  28  49  73  97 125 164 211 251 285
#     4  10  21  34  51  73 103 139 168 198 247 311
#     4  10  20  33  52  76 104 134 167 210 254 299
#     4   9  18  31  49  75 102 125 160 212 256 285
#     4  10  19  33  53  74  98 131 167 204 247 296
#     4  10  20  33  52  77 102 129 165 211 254 294
#     4   9  17  29  49  75  99 125 166 213 252 290
#     4   9  18  33  50  74 104 134 169 207 250 300
#
# _framework density 22.520125
#
# number of rings (size 3 to 8) (size 9 to 14) (size 15 to 20)
#    0.000    2.500    2.500    0.000    3.500    0.000 
#    0.000    0.000    0.000    3.375    0.000    0.000 
#    0.000    0.000    0.000    0.000    0.000    0.000 
#
# Total GULP energy -178823.135474 kJ/mol
# GULP energy per Si atom -5588.222984 kJ/mol
# Density = 2.246887 g / cm^3
# Si number density = 22.520125 Si / 1000 Ang^3
#
#
#
# Elastic Constant Matrix: (Units=GPa)
#
#
# Indices 1 2 3 4 5 6 
#
# 1 132.6259 -12.9225 1.9448 0.0000 5.0572 -0.0002
# 2 -12.9225 80.3753 -3.1241 0.0002 4.9502 -0.0008
# 3 1.9448 -3.1241 34.4512 0.0000 0.5480 0.0000
# 4 0.0000 0.0002 0.0000 -3.3796 0.0000 -6.8133
# 5 5.0572 4.9502 0.5480 0.0000 45.2496 0.0001
# 6 -0.0002 -0.0008 0.0000 -6.8133 0.0001 7.9106
#
#
#
# Elastic Compliance Matrix: (Units=1/GPa)
#
#
# Indices 1 2 3 4 5 6 
#
# 1 0.007708 0.001289 -0.000302 0.000000 -0.000999 0.000000
# 2 0.001289 0.012788 0.001112 -0.000001 -0.001557 0.000001
# 3 -0.000302 0.001112 0.029151 0.000000 -0.000441 0.000000
# 4 0.000000 -0.000001 0.000000 -0.108134 0.000000 -0.093134
# 5 -0.000999 -0.001557 -0.000441 0.000000 0.022387 0.000000
# 6 0.000000 0.000001 0.000000 -0.093134 0.000000 0.046197
#
#
# Mechanical properties :
#
#
# Convention : Reuss Voigt Hill
#
# Bulk Modulus (GPa) = 18.57208 24.36095 21.46651
# Shear Modulus (GPa) = 209.65358 27.39308 118.52333
#
# Velocity S-wave (km/s) = 9.65910 3.49145 7.26252
# Velocity P-wave (km/s) = 11.51792 5.20524 8.93748
#
# Compressibility (1/GPa) = 0.05384428
#
# Stress axis : x y z
#
# Youngs Moduli (GPa) = 129.73317 78.19857 34.30358
#
# Poissons Ratio (x) = -0.10080 0.01037
# Poissons Ratio (y) = -0.16723 -0.03813
# Poissons Ratio (z) = 0.03922 -0.08693
#
# Static dielectric constant tensor:
#      x y z
#    x 1.795450 0.000000 -0.002030 
#    y 0.000000 1.926480 0.000000 
#    z -0.002030 0.000000 1.792440 
# 
# From -- ./inp_files/276503.got.cif
#   From: 2010.05.17/outbox.cif.g08.bks.cpg/sg12_139_cif.got.tgz:276503.got - 2010.06.03 13:09:07.
