data_PCOD9182205
_publ_section_title
;
Structure prediction by ZEFSAII (Michael W. Deem and Ramdas Pophale) SiO2 
 PCOD9182205
Probable space group: C 2/M
;
_chemical_formula_sum "Si O2"
_cell_formula_units_Z 56
_cell_length_a 14.322078
_cell_length_b 19.430884
_cell_length_c 9.229759
_cell_angle_alpha 90.000000
_cell_angle_beta 88.061141
_cell_angle_gamma 90.000000
_cell_volume 2567.085006
_symmetry_space_group_name_H-M "C 2/M"
_symmetry_group_IT_number 12
_symmetry_cell_setting 'monoclinic'
loop_
_space_group_symop_operation_xyz
x,y,z
-x,y,-z
-x,-y,-z
x,-y,z
1/2+x,1/2+y,z
1/2-x,1/2+y,-z
1/2-x,1/2-y,-z
1/2+x,1/2-y,z
loop_
_atom_site_type_symbol
_atom_site_label
_atom_site_fract_x
_atom_site_fract_y
_atom_site_fract_z
Si Si1 0.749786 0.582355 0.515247
Si Si2 0.423058 0.342620 0.621007
Si Si3 0.147939 0.716711 0.521313
Si Si4 0.135660 0.188402 0.078321
Si Si5 0.344493 0.787906 0.162346
Si Si6 0.280462 0.420842 0.147522
Si Si7 0.891237 0.575397 0.037019
O O1 0.766172 0.500000 0.494981
O O2 0.669744 0.612709 0.413356
O O3 0.837607 0.635030 0.496944
O O4 0.713395 0.593097 0.682429
O O5 0.500000 0.367045 0.500000
O O6 0.410482 0.261137 0.587419
O O7 0.431067 0.342433 0.794816
O O8 0.250000 0.750000 0.500000
O O9 0.120418 0.737127 0.685772
O O10 0.231736 0.216268 0.150306
O O11 0.107829 0.251354 0.976585
O O12 0.164824 0.130181 0.960763
O O13 0.364137 0.868074 0.152625
O O14 0.308267 0.500000 0.121251
O O15 0.172351 0.413614 0.101948
O O16 0.867280 0.500000 0.094273
O O17 0.000000 0.578866 0.000000
#
# Coordination Sequence:
#
# PCOD9182205 Si02
#       7
#     8   8   8   8   8   8   8
#     4  10  21  39  63  85 116 159 202 243 290 354
#     4  11  24  39  59  87 122 157 192 248 305 350
#     4  10  19  37  55  82 115 153 193 239 288 356
#     4  10  19  34  58  86 111 150 198 247 283 345
#     4  10  19  32  57  83 112 151 197 240 283 344
#     4   9  19  36  61  86 111 153 199 239 287 349
#     4   9  19  34  54  85 120 146 182 238 293 341
#
# _framework density 21.814627999999999
#
# number of rings (size 3 to 8) (size 9 to 14) (size 15 to 20)
#    0.000    2.143    2.857    1.714    4.000    2.571 
#    0.000    2.143    0.000    2.143    0.000    0.000 
#    0.000    0.000    0.000    0.000    0.000    0.000 
#
# Total GULP energy -156141.767859 kJ/mol
# GULP energy per Si atom -5576.491709 kJ/mol
# Density = 2.176498 g / cm^3
# Si number density = 21.814628 Si / 1000 Ang^3
#
#
#
# Elastic Constant Matrix: (Units=GPa)
#
#
# Indices 1 2 3 4 5 6 
#
# 1 39.9976 14.1214 6.8631 0.0000 -5.8611 0.0000
# 2 14.1214 109.1467 37.7273 0.0000 3.6355 0.0000
# 3 6.8631 37.7273 125.7618 0.0000 -10.9384 0.0000
# 4 0.0000 0.0000 0.0000 25.5959 0.0000 3.3785
# 5 -5.8611 3.6355 -10.9384 0.0000 14.2227 0.0000
# 6 0.0000 0.0000 0.0000 3.3785 0.0000 -2.6420
#
#
#
# Elastic Compliance Matrix: (Units=1/GPa)
#
#
# Indices 1 2 3 4 5 6 
#
# 1 0.028402 -0.004463 0.000971 0.000000 0.013592 0.000000
# 2 -0.004463 0.011314 -0.003818 0.000000 -0.007667 0.000000
# 3 0.000971 -0.003818 0.009820 0.000000 0.008929 0.000000
# 4 0.000000 0.000000 0.000000 0.033427 0.000000 0.042744
# 5 0.013592 -0.007667 0.008929 0.000000 0.084738 0.000000
# 6 0.000000 0.000000 0.000000 0.042744 0.000000 -0.323837
#
#
# Mechanical properties :
#
#
# Convention : Reuss Voigt Hill
#
# Bulk Modulus (GPa) = 28.63848 43.59219 36.11533
# Shear Modulus (GPa) = -38.49798 21.84827 -8.32486
#
# Velocity S-wave (km/s) = -4.20548 3.16815 -1.95562
# Velocity P-wave (km/s) = 3.22875 5.78008 3.39002
#
# Compressibility (1/GPa) = 0.03491805
#
# Stress axis : x y z
#
# Youngs Moduli (GPa) = 35.20834 88.38333 101.82946
#
# Poissons Ratio (x) = 0.39446 -0.09889
# Poissons Ratio (y) = 0.15714 0.38873
# Poissons Ratio (z) = -0.03419 0.33740
#
# Static dielectric constant tensor:
#      x y z
#    x 1.864090 0.000000 -0.021460 
#    y 0.000000 1.822260 0.000000 
#    z -0.021460 0.000000 1.839010 
# 
# From -- ./inp_files/64086.got.cif
#   From: 2010.05.17/outbox.cif.g08.bks.cpg/sg12_33_cif.got.tgz:64086.got - 2010.06.03 13:09:07.
