data_PCOD9182354
_publ_section_title
;
Structure prediction by ZEFSAII (Michael W. Deem and Ramdas Pophale) SiO2 
 PCOD9182354
Probable space group: C 2/M
;
_chemical_formula_sum "Si O2"
_cell_formula_units_Z 64
_cell_length_a 21.116158
_cell_length_b 7.588798
_cell_length_c 25.806747
_cell_angle_alpha 90.000000
_cell_angle_beta 50.955754
_cell_angle_gamma 90.000000
_cell_volume 3211.825601
_symmetry_space_group_name_H-M "C 2/M"
_symmetry_group_IT_number 12
_symmetry_cell_setting 'monoclinic'
loop_
_space_group_symop_operation_xyz
x,y,z
-x,y,-z
-x,-y,-z
x,-y,z
1/2+x,1/2+y,z
1/2-x,1/2+y,-z
1/2-x,1/2-y,-z
1/2+x,1/2-y,z
loop_
_atom_site_type_symbol
_atom_site_label
_atom_site_fract_x
_atom_site_fract_y
_atom_site_fract_z
Si Si1 0.822268 0.789922 0.003290
Si Si2 0.321009 0.783160 0.651996
Si Si3 0.917870 0.705496 0.507011
Si Si4 0.919522 0.209191 0.777055
Si Si5 0.478315 0.716549 0.859014
Si Si6 0.238287 0.296040 0.852816
Si Si7 0.658408 0.703985 0.789180
Si Si8 0.978178 0.712606 0.637463
O O1 0.801347 0.714576 0.070180
O O2 0.826591 0.000000 0.006986
O O3 0.750000 0.750000 0.000000
O O4 0.907281 0.727015 0.934929
O O5 0.348159 0.722106 0.580724
O O6 0.233754 0.721011 0.717186
O O7 0.392850 0.729599 0.654831
O O8 0.321652 0.000000 0.651565
O O9 0.897401 0.500000 0.508996
O O10 0.000000 0.709750 0.500000
O O11 0.947688 0.780100 0.436706
O O12 0.954112 0.274909 0.813603
O O13 0.829521 0.281858 0.810470
O O14 0.976508 0.237929 0.698183
O O15 0.908464 0.000000 0.789849
O O16 0.477714 0.500000 0.860380
O O17 0.568540 0.779131 0.827176
O O18 0.245379 0.500000 0.833753
O O19 0.185697 0.209567 0.834850
O O20 0.652625 0.500000 0.776038
O O21 0.979356 0.500000 0.633488
#
# Coordination Sequence:
#
# PCOD9182354 Si02
#       8
#     8   8   8   8   8   8   8   8
#     4  11  21  37  58  79 103 133 171 210 254 300
#     4   8  13  23  44  73  98 124 161 205 249 291
#     4   7  11  20  37  66 102 126 149 202 257 285
#     4  10  19  33  50  70 101 136 166 201 250 302
#     4   9  20  37  54  74 101 133 166 206 255 304
#     4  11  22  36  54  77 105 135 167 207 256 302
#     4  10  19  34  56  78 100 130 173 212 246 299
#     4   9  15  25  45  74  99 123 164 212 249 285
#
# _framework density 19.926362999999998
#
# number of rings (size 3 to 8) (size 9 to 14) (size 15 to 20)
#    0.000    2.625    2.500    2.250    0.000    1.000 
#    0.000    4.375    0.000    4.875    0.000    0.000 
#    0.000    0.000    0.000    0.000    0.000    0.000 
#
# Total GULP energy -178447.859856 kJ/mol
# GULP energy per Si atom -5576.495620 kJ/mol
# Density = 1.988101 g / cm^3
# Si number density = 19.926363 Si / 1000 Ang^3
#
#
#
# Elastic Constant Matrix: (Units=GPa)
#
#
# Indices 1 2 3 4 5 6 
#
# 1 92.9813 -1.9122 62.0561 -0.0002 -8.4403 0.0003
# 2 -1.9122 43.4939 -10.3919 -0.0373 -4.9397 -0.0237
# 3 62.0561 -10.3919 178.6836 0.0007 -0.3676 0.0000
# 4 -0.0002 -0.0373 0.0007 7.6439 -0.0009 1.9088
# 5 -8.4403 -4.9397 -0.3676 -0.0009 25.9292 0.0004
# 6 0.0003 -0.0237 0.0000 1.9088 0.0004 7.5447
#
#
#
# Elastic Compliance Matrix: (Units=1/GPa)
#
#
# Indices 1 2 3 4 5 6 
#
# 1 0.014542 -0.000037 -0.005043 0.000002 0.004655 -0.000001
# 2 -0.000037 0.023844 0.001409 0.000105 0.004550 0.000048
# 3 -0.005043 0.001409 0.007427 0.000005 -0.001268 0.000003
# 4 0.000002 0.000105 0.000005 0.139647 0.000026 -0.035330
# 5 0.004655 0.004550 -0.001268 0.000026 0.040931 0.000006
# 6 -0.000001 0.000048 0.000003 -0.035330 0.000006 0.141481
#
#
# Mechanical properties :
#
#
# Convention : Reuss Voigt Hill
#
# Bulk Modulus (GPa) = 25.99349 46.07362 36.03356
# Shear Modulus (GPa) = 12.88534 25.91735 19.40134
#
# Velocity S-wave (km/s) = 2.54569 3.61037 3.12372
# Velocity P-wave (km/s) = 4.65980 6.36804 5.57968
#
# Compressibility (1/GPa) = 0.03847118
#
# Stress axis : x y z
#
# Youngs Moduli (GPa) = 68.76421 41.93987 134.63915
#
# Poissons Ratio (x) = 0.00155 0.67900
# Poissons Ratio (y) = 0.00253 -0.18969
# Poissons Ratio (z) = 0.34678 -0.05909
#
# Static dielectric constant tensor:
#      x y z
#    x 1.671900 0.000000 0.000700 
#    y 0.000000 1.782600 -0.000010 
#    z 0.000700 -0.000010 1.761130 
# 
# From -- ./inp_files/345946.got.cif
#   From: 2010.05.17/outbox.cif.g08.bks.cpg/sg12_173_cif.got.tgz:345946.got - 2010.06.03 13:09:07.
