data_PCOD9182169
_publ_section_title
;
Structure prediction by ZEFSAII (Michael W. Deem and Ramdas Pophale) SiO2 
 PCOD9182169
Probable space group: C 2/M
;
_chemical_formula_sum "Si O2"
_cell_formula_units_Z 52
_cell_length_a 23.749594
_cell_length_b 13.952664
_cell_length_c 16.921931
_cell_angle_alpha 90.000000
_cell_angle_beta 23.846120
_cell_angle_gamma 90.000000
_cell_volume 2266.977889
_symmetry_space_group_name_H-M "C 2/M"
_symmetry_group_IT_number 12
_symmetry_cell_setting 'monoclinic'
loop_
_space_group_symop_operation_xyz
x,y,z
-x,y,-z
-x,-y,-z
x,-y,z
1/2+x,1/2+y,z
1/2-x,1/2+y,-z
1/2-x,1/2-y,-z
1/2+x,1/2-y,z
loop_
_atom_site_type_symbol
_atom_site_label
_atom_site_fract_x
_atom_site_fract_y
_atom_site_fract_z
Si Si1 0.699339 0.391610 0.175767
Si Si2 0.500000 0.762906 0.500000
Si Si3 0.843467 0.897640 0.497867
Si Si4 0.167149 0.609432 0.570847
Si Si5 0.915180 0.730589 0.961452
Si Si6 0.234626 0.298424 0.319511
Si Si7 0.333594 0.395792 0.950350
O O1 0.649696 0.500000 0.251040
O O2 0.584864 0.310433 0.335896
O O3 0.819372 0.363923 0.082632
O O4 0.757745 0.384537 0.011133
O O5 0.611695 0.817630 0.412124
O O6 0.793081 0.889875 0.471869
O O7 0.793407 0.807190 0.609917
O O8 0.009326 0.901661 0.284266
O O9 0.789600 0.000000 0.597781
O O10 0.109442 0.500000 0.645678
O O11 0.217697 0.634581 0.417616
O O12 0.060726 0.689949 0.742132
O O13 0.882810 0.787047 0.084175
O O14 0.843829 0.804143 0.991515
O O15 0.301471 0.500000 0.029114
#
# Coordination Sequence:
#
# PCOD9182169 Si02
#       7
#     8   4   8   8   8   8   8
#     4  10  19  32  56  86 120 159 198 249 306 359
#     4  10  19  34  57  90 124 156 199 256 295 366
#     4  10  21  40  66  89 116 160 209 251 302 361
#     4  11  24  44  64  88 127 168 205 251 308 368
#     4  11  23  37  59  92 124 158 205 251 307 368
#     4  11  23  39  63  92 124 161 205 253 309 363
#     4  10  20  37  60  85 116 160 206 251 297 355
#
# _framework density 22.938026000000001
#
# number of rings (size 3 to 8) (size 9 to 14) (size 15 to 20)
#    0.000    1.538    3.077    1.615    0.000    5.538 
#    0.000    1.923    0.000    2.769    0.000    0.000 
#    0.000    0.000    0.000    0.000    0.000    0.000 
#
# Total GULP energy -144974.947336 kJ/mol
# GULP energy per Si atom -5575.959513 kJ/mol
# Density = 2.288582 g / cm^3
# Si number density = 22.938026 Si / 1000 Ang^3
#
#
#
# Elastic Constant Matrix: (Units=GPa)
#
#
# Indices 1 2 3 4 5 6 
#
# 1 101.4553 7.7607 11.9109 0.0000 12.6687 0.0000
# 2 7.7607 84.9187 20.5001 0.0000 3.7728 0.0000
# 3 11.9109 20.5001 68.4870 0.0000 22.3853 0.0000
# 4 0.0000 0.0000 0.0000 13.1889 0.0000 5.0093
# 5 12.6687 3.7728 22.3853 0.0000 17.4869 0.0000
# 6 0.0000 0.0000 0.0000 5.0093 0.0000 31.7075
#
#
#
# Elastic Compliance Matrix: (Units=1/GPa)
#
#
# Indices 1 2 3 4 5 6 
#
# 1 0.010961 -0.000945 0.001557 0.000000 -0.009730 0.000000
# 2 -0.000945 0.012912 -0.005182 0.000000 0.004533 0.000000
# 3 0.001557 -0.005182 0.027313 0.000000 -0.034974 0.000000
# 4 0.000000 0.000000 0.000000 0.080661 0.000000 -0.012743
# 5 -0.009730 0.004533 -0.034974 0.000000 0.108028 0.000000
# 6 0.000000 0.000000 0.000000 -0.012743 0.000000 0.033552
#
#
# Mechanical properties :
#
#
# Convention : Reuss Voigt Hill
#
# Bulk Modulus (GPa) = 23.78382 37.24491 30.51437
# Shear Modulus (GPa) = 16.85871 26.78929 21.82400
#
# Velocity S-wave (km/s) = 2.71397 3.42116 3.08788
# Velocity P-wave (km/s) = 4.49579 5.64608 5.10345
#
# Compressibility (1/GPa) = 0.04204539
#
# Stress axis : x y z
#
# Youngs Moduli (GPa) = 91.23183 77.44746 36.61259
#
# Poissons Ratio (x) = 0.07321 -0.05701
# Poissons Ratio (y) = 0.08624 0.18973
# Poissons Ratio (z) = -0.14205 0.40134
#
# Static dielectric constant tensor:
#      x y z
#    x 1.902530 0.000000 -0.000560 
#    y 0.000000 1.849460 0.000000 
#    z -0.000560 0.000000 1.933750 
# 
# From -- ./inp_files/240916.got.cif
#   From: 2010.05.17/outbox.cif.g08.bks.cpg/sg12_121_cif.got.tgz:240916.got - 2010.06.03 13:09:07.
