data_PCOD9182261
_publ_section_title
;
Structure prediction by ZEFSAII (Michael W. Deem and Ramdas Pophale) SiO2 
 PCOD9182261
Probable space group: C 2/M
;
_chemical_formula_sum "Si O2"
_cell_formula_units_Z 48
_cell_length_a 14.883500
_cell_length_b 15.043411
_cell_length_c 18.484636
_cell_angle_alpha 90.000000
_cell_angle_beta 37.446551
_cell_angle_gamma 90.000000
_cell_volume 2516.407258
_symmetry_space_group_name_H-M "C 2/M"
_symmetry_group_IT_number 12
_symmetry_cell_setting 'monoclinic'
loop_
_space_group_symop_operation_xyz
x,y,z
-x,y,-z
-x,-y,-z
x,-y,z
1/2+x,1/2+y,z
1/2-x,1/2+y,-z
1/2-x,1/2-y,-z
1/2+x,1/2-y,z
loop_
_atom_site_type_symbol
_atom_site_label
_atom_site_fract_x
_atom_site_fract_y
_atom_site_fract_z
Si Si1 0.313259 0.819156 0.020437
Si Si2 0.289858 0.737126 0.759776
Si Si3 0.483561 0.593006 0.791407
Si Si4 0.376914 0.108552 0.238866
Si Si5 0.609108 0.403062 0.865205
Si Si6 0.399323 0.763571 0.360648
O O1 0.469841 0.858175 0.896580
O O2 0.250000 0.750000 0.000000
O O3 0.304226 0.777347 0.105957
O O4 0.189835 0.894724 0.108466
O O5 0.250891 0.658088 0.727936
O O6 0.227558 0.829415 0.770661
O O7 0.457748 0.756526 0.677613
O O8 0.535857 0.500000 0.725226
O O9 0.506279 0.590902 0.861724
O O10 0.570855 0.677053 0.707098
O O11 0.386175 0.152576 0.313750
O O12 0.365481 0.000000 0.246679
O O13 0.677397 0.500000 0.836185
O O14 0.500000 0.381970 0.000000
O O15 0.250000 0.750000 0.500000
#
# Coordination Sequence:
#
# PCOD9182261 Si02
#       6
#     8   8   8   8   8   8
#     4  11  19  37  64  98 137 172 201 254 327 403
#     4  11  22  40  66  91 132 169 209 264 333 390
#     4  10  20  37  62  90 124 161 204 254 313 383
#     4  12  25  42  67 103 135 167 218 272 328 396
#     4  10  19  32  58  95 127 156 196 248 317 396
#     4  11  26  46  65  86 124 175 224 274 323 376
#
# _framework density 19.074814
#
# number of rings (size 3 to 8) (size 9 to 14) (size 15 to 20)
#    0.000    1.167    5.000    3.000    0.000    6.000 
#    0.000    0.833    0.000    2.000    0.000    0.000 
#    0.000    0.000    0.000    0.000    0.000    0.000 
#
# Total GULP energy -133666.358650 kJ/mol
# GULP energy per Si atom -5569.431610 kJ/mol
# Density = 1.903140 g / cm^3
# Si number density = 19.074814 Si / 1000 Ang^3
#
#
#
# Elastic Constant Matrix: (Units=GPa)
#
#
# Indices 1 2 3 4 5 6 
#
# 1 103.4268 48.8202 24.2610 -0.0001 -6.2496 0.0000
# 2 48.8202 128.2579 9.4380 0.0000 -16.5431 0.0000
# 3 24.2610 9.4380 75.2816 -0.0001 -15.2959 0.0001
# 4 -0.0001 0.0000 -0.0001 5.2824 0.0002 5.7513
# 5 -6.2496 -16.5431 -15.2959 0.0002 7.1309 -0.0001
# 6 0.0000 0.0000 0.0001 5.7513 -0.0001 4.5111
#
#
#
# Elastic Compliance Matrix: (Units=1/GPa)
#
#
# Indices 1 2 3 4 5 6 
#
# 1 0.013802 -0.007653 -0.008221 -0.000004 -0.023292 0.000004
# 2 -0.007653 0.017774 0.012857 0.000008 0.062105 -0.000009
# 3 -0.008221 0.012857 0.033531 0.000011 0.094545 -0.000012
# 4 -0.000004 0.000008 0.000011 -0.487803 0.000062 0.621908
# 5 -0.023292 0.062105 0.094545 0.000062 0.466696 -0.000068
# 6 0.000004 -0.000009 -0.000012 0.621908 -0.000068 -0.571204
#
#
# Mechanical properties :
#
#
# Convention : Reuss Voigt Hill
#
# Bulk Modulus (GPa) = 16.92847 52.44496 34.68671
# Shear Modulus (GPa) = -9.97054 18.34802 4.18874
#
# Velocity S-wave (km/s) = -2.28876 3.10481 1.48348
# Velocity P-wave (km/s) = 1.38184 6.35666 4.59982
#
# Compressibility (1/GPa) = 0.05907210
#
# Stress axis : x y z
#
# Youngs Moduli (GPa) = 72.45272 56.26135 29.82314
#
# Poissons Ratio (x) = 0.43057 0.24518
# Poissons Ratio (y) = 0.55448 -0.38342
# Poissons Ratio (z) = 0.59565 -0.72333
#
# Static dielectric constant tensor:
#      x y z
#    x 1.690350 0.000000 -0.016610 
#    y 0.000000 1.596250 0.000000 
#    z -0.016610 0.000000 1.615540 
# 
# From -- ./inp_files/189363.got.cif
#   From: 2010.05.17/outbox.cif.g08.bks.cpg/sg12_95_cif.got.tgz:189363.got - 2010.06.03 13:09:07.
