data_PCOD9182577
_publ_section_title
;
Structure prediction by ZEFSAII (Michael W. Deem and Ramdas Pophale) SiO2 
 PCOD9182577
Probable space group: C 2/M
;
_chemical_formula_sum "Si O2"
_cell_formula_units_Z 56
_cell_length_a 21.014114
_cell_length_b 8.737182
_cell_length_c 23.854704
_cell_angle_alpha 90.000000
_cell_angle_beta 46.212311
_cell_angle_gamma 90.000000
_cell_volume 3161.832890
_symmetry_space_group_name_H-M "C 2/M"
_symmetry_group_IT_number 12
_symmetry_cell_setting 'monoclinic'
loop_
_space_group_symop_operation_xyz
x,y,z
-x,y,-z
-x,-y,-z
x,-y,z
1/2+x,1/2+y,z
1/2-x,1/2+y,-z
1/2-x,1/2-y,-z
1/2+x,1/2-y,z
loop_
_atom_site_type_symbol
_atom_site_label
_atom_site_fract_x
_atom_site_fract_y
_atom_site_fract_z
Si Si1 0.297961 0.684908 0.085109
Si Si2 0.056054 0.813735 0.093393
Si Si3 0.602633 0.683576 0.190602
Si Si4 0.538672 0.815911 0.342498
Si Si5 0.807369 0.181008 0.672879
Si Si6 0.912933 0.676706 0.513373
Si Si7 0.636057 0.315428 0.830650
O O1 0.287564 0.500000 0.089011
O O2 0.202850 0.760820 0.137620
O O3 0.340826 0.722261 0.119085
O O4 0.363705 0.734578 0.995529
O O5 0.070542 0.766654 0.148659
O O6 0.961709 0.764585 0.126815
O O7 0.056377 0.000000 0.092025
O O8 0.599432 0.500000 0.195695
O O9 0.545800 0.753318 0.275704
O O10 0.623511 0.755707 0.325331
O O11 0.451287 0.768885 0.430485
O O12 0.542028 0.000000 0.341043
O O13 0.840732 0.227511 0.590687
O O14 0.711309 0.244024 0.745953
O O15 0.810581 0.000000 0.677831
O O16 0.884032 0.500000 0.526733
O O17 0.000000 0.678295 0.500000
O O18 0.640059 0.500000 0.823166
#
# Coordination Sequence:
#
# PCOD9182577 Si02
#       7
#     8   8   8   8   8   8   8
#     4  10  19  34  57  78 100 136 183 222 258 310
#     4   9  20  36  53  77 104 140 182 218 259 308
#     4  11  21  33  52  78 111 139 170 219 268 311
#     4  10  19  33  52  75 103 138 178 213 252 308
#     4  11  20  30  49  79 111 135 165 212 266 312
#     4   8  16  30  49  73 102 134 171 212 253 304
#     4  10  19  34  56  76 103 141 182 218 252 307
#
# _framework density 17.711245999999999
#
# number of rings (size 3 to 8) (size 9 to 14) (size 15 to 20)
#    0.000    2.143    1.429    3.857    0.000    4.857 
#    0.000    2.857    0.000    2.571    0.000    0.000 
#    0.000    0.000    0.000    0.000    0.000    0.000 
#
# Total GULP energy -156244.460974 kJ/mol
# GULP energy per Si atom -5580.159321 kJ/mol
# Density = 1.767093 g / cm^3
# Si number density = 17.711246 Si / 1000 Ang^3
#
#
#
# Elastic Constant Matrix: (Units=GPa)
#
#
# Indices 1 2 3 4 5 6 
#
# 1 72.2510 20.0833 33.5066 0.0002 22.0459 0.0000
# 2 20.0833 34.6736 30.0250 -0.0007 9.9030 0.0007
# 3 33.5066 30.0250 133.9670 0.0004 35.7103 -0.0001
# 4 0.0002 -0.0007 0.0004 -10.7855 0.0002 13.9255
# 5 22.0459 9.9030 35.7103 0.0002 13.3597 -0.0001
# 6 0.0000 0.0007 -0.0001 13.9255 -0.0001 12.0750
#
#
#
# Elastic Compliance Matrix: (Units=1/GPa)
#
#
# Indices 1 2 3 4 5 6 
#
# 1 0.056437 -0.012723 0.038426 -0.000001 -0.186412 -0.000001
# 2 -0.012723 0.039899 -0.012080 -0.000002 0.023710 0.000000
# 3 0.038426 -0.012080 0.052444 -0.000001 -0.194637 -0.000001
# 4 -0.000001 -0.000002 -0.000001 -0.037251 0.000006 0.042959
# 5 -0.186412 0.023710 -0.194637 0.000006 0.885151 0.000002
# 6 -0.000001 0.000000 -0.000001 0.042959 0.000002 0.033272
#
#
# Mechanical properties :
#
#
# Convention : Reuss Voigt Hill
#
# Bulk Modulus (GPa) = 5.68100 45.34683 25.51392
# Shear Modulus (GPa) = 4.71085 13.41496 9.06291
#
# Velocity S-wave (km/s) = 1.63266 2.75512 2.26454
# Velocity P-wave (km/s) = 2.60166 5.98163 4.61241
#
# Compressibility (1/GPa) = 0.17602520
#
# Stress axis : x y z
#
# Youngs Moduli (GPa) = 17.71899 25.06357 19.06811
#
# Poissons Ratio (x) = 0.31888 -0.73272
# Poissons Ratio (y) = 0.22543 0.23035
# Poissons Ratio (z) = -0.68087 0.30277
#
# Static dielectric constant tensor:
#      x y z
#    x 1.579240 0.000000 0.020640 
#    y 0.000000 1.596220 0.000000 
#    z 0.020640 0.000000 1.617080 
# 
# From -- ./inp_files/280443.got.cif
#   From: 2010.05.17/outbox.cif.g08.bks.cpg/sg12_141_cif.got.tgz:280443.got - 2010.06.03 13:09:07.
