data_PCOD9182363
_publ_section_title
;
Structure prediction by ZEFSAII (Michael W. Deem and Ramdas Pophale) SiO2 
 PCOD9182363
Probable space group: C 2/M
;
_chemical_formula_sum "Si O2"
_cell_formula_units_Z 48
_cell_length_a 13.681821
_cell_length_b 31.248021
_cell_length_c 11.628256
_cell_angle_alpha 90.000000
_cell_angle_beta 146.214998
_cell_angle_gamma 90.000000
_cell_volume 2764.501169
_symmetry_space_group_name_H-M "C 2/M"
_symmetry_group_IT_number 12
_symmetry_cell_setting 'monoclinic'
loop_
_space_group_symop_operation_xyz
x,y,z
-x,y,-z
-x,-y,-z
x,-y,z
1/2+x,1/2+y,z
1/2-x,1/2+y,-z
1/2-x,1/2-y,-z
1/2+x,1/2-y,z
loop_
_atom_site_type_symbol
_atom_site_label
_atom_site_fract_x
_atom_site_fract_y
_atom_site_fract_z
Si Si1 0.733704 0.690851 0.985093
Si Si2 0.815744 0.249003 0.260239
Si Si3 0.221864 0.382175 0.597402
Si Si4 0.678362 0.895850 0.824841
Si Si5 0.832911 0.787200 0.660114
Si Si6 0.491520 0.452507 0.130525
O O1 0.765291 0.709610 0.889624
O O2 0.533803 0.703618 0.822066
O O3 0.848581 0.715515 0.193351
O O4 0.766649 0.641364 0.034422
O O5 0.693255 0.269449 0.236919
O O6 0.000000 0.237554 0.500000
O O7 0.230317 0.380415 0.745681
O O8 0.243311 0.334206 0.570265
O O9 0.373096 0.414778 0.704490
O O10 0.030491 0.400575 0.380200
O O11 0.794214 0.937281 0.964412
O O12 0.750000 0.750000 0.500000
O O13 0.532711 0.500000 0.215379
O O14 0.500000 0.454711 0.000000
#
# Coordination Sequence:
#
# PCOD9182363 Si02
#       6
#     8   8   8   8   8   8
#     4  11  22  34  52  70 103 143 182 227 260 311
#     4  11  22  35  47  73  99 137 190 224 257 313
#     4  10  20  32  49  72 105 136 176 218 262 323
#     4  10  19  33  50  71 101 139 173 217 267 318
#     4  12  22  34  52  74 106 147 187 224 267 312
#     4   9  18  32  50  74  99 133 178 218 266 327
#
# _framework density 17.362988000000001
#
# number of rings (size 3 to 8) (size 9 to 14) (size 15 to 20)
#    0.000    1.500    5.000    1.500    2.333    0.667 
#    0.000    3.333    0.000    0.000    0.000    0.000 
#    0.000    6.000    0.000    7.500    0.000    1.167 
#
# Total GULP energy -133890.718932 kJ/mol
# GULP energy per Si atom -5578.779956 kJ/mol
# Density = 1.732347 g / cm^3
# Si number density = 17.362988 Si / 1000 Ang^3
#
#
#
# Elastic Constant Matrix: (Units=GPa)
#
#
# Indices 1 2 3 4 5 6 
#
# 1 41.3737 25.0512 25.3529 0.0000 8.1594 0.0000
# 2 25.0512 111.4897 43.3915 0.0000 6.5690 0.0000
# 3 25.3529 43.3915 71.6316 0.0000 4.8289 0.0000
# 4 0.0000 0.0000 0.0000 21.1045 0.0000 2.3082
# 5 8.1594 6.5690 4.8289 0.0000 23.3961 0.0000
# 6 0.0000 0.0000 0.0000 2.3082 0.0000 13.1000
#
#
#
# Elastic Compliance Matrix: (Units=1/GPa)
#
#
# Indices 1 2 3 4 5 6 
#
# 1 0.033661 -0.003450 -0.009226 0.000000 -0.008866 0.000000
# 2 -0.003450 0.012170 -0.006086 0.000000 -0.000957 0.000000
# 3 -0.009226 -0.006086 0.020871 0.000000 0.000619 0.000000
# 4 0.000000 0.000000 0.000000 0.048314 0.000000 -0.008513
# 5 -0.008866 -0.000957 0.000619 0.000000 0.045975 0.000000
# 6 0.000000 0.000000 0.000000 -0.008513 0.000000 0.077836
#
#
# Mechanical properties :
#
#
# Convention : Reuss Voigt Hill
#
# Bulk Modulus (GPa) = 34.27413 45.78738 40.03075
# Shear Modulus (GPa) = 17.47773 20.23341 18.85557
#
# Velocity S-wave (km/s) = 3.17615 3.41738 3.29897
# Velocity P-wave (km/s) = 5.76482 6.48068 6.13321
#
# Compressibility (1/GPa) = 0.02917653
#
# Stress axis : x y z
#
# Youngs Moduli (GPa) = 29.70779 82.16991 47.91366
#
# Poissons Ratio (x) = 0.28351 0.44206
# Poissons Ratio (y) = 0.10250 0.29162
# Poissons Ratio (z) = 0.27409 0.50011
#
# Static dielectric constant tensor:
#      x y z
#    x 1.607160 0.000000 0.028120 
#    y 0.000000 1.599880 0.000000 
#    z 0.028120 0.000000 1.623360 
# 
# From -- ./inp_files/150202.got.cif
#   From: 2010.05.17/outbox.cif.g08.bks.cpg/sg12_76_cif.got.tgz:150202.got - 2010.06.03 13:09:07.
