data_PCOD9182547
_publ_section_title
;
Structure prediction by ZEFSAII (Michael W. Deem and Ramdas Pophale) SiO2 
 PCOD9182547
Probable space group: C 2/M
;
_chemical_formula_sum "Si O2"
_cell_formula_units_Z 56
_cell_length_a 14.146132
_cell_length_b 10.432988
_cell_length_c 24.180263
_cell_angle_alpha 90.000000
_cell_angle_beta 60.730897
_cell_angle_gamma 90.000000
_cell_volume 3113.076262
_symmetry_space_group_name_H-M "C 2/M"
_symmetry_group_IT_number 12
_symmetry_cell_setting 'monoclinic'
loop_
_space_group_symop_operation_xyz
x,y,z
-x,y,-z
-x,-y,-z
x,-y,z
1/2+x,1/2+y,z
1/2-x,1/2+y,-z
1/2-x,1/2-y,-z
1/2+x,1/2-y,z
loop_
_atom_site_type_symbol
_atom_site_label
_atom_site_fract_x
_atom_site_fract_y
_atom_site_fract_z
Si Si1 0.471857 0.148874 0.299714
Si Si2 0.336379 0.155166 0.087858
Si Si3 0.081339 0.346906 0.053581
Si Si4 0.874960 0.136758 0.476515
Si Si5 0.740159 0.273492 0.599203
Si Si6 0.956263 0.355497 0.596258
Si Si7 0.151641 0.654733 0.156651
O O1 0.363368 0.232313 0.335555
O O2 0.535337 0.161613 0.339922
O O3 0.552752 0.178491 0.226755
O O4 0.439652 0.000000 0.303672
O O5 0.455029 0.179702 0.079264
O O6 0.250026 0.248677 0.140806
O O7 0.314221 0.000000 0.097778
O O8 0.349812 0.195875 0.019351
O O9 0.090871 0.500000 0.048997
O O10 0.116719 0.308863 0.104325
O O11 0.795022 0.154436 0.551053
O O12 0.805338 0.146121 0.439932
O O13 0.959557 0.252863 0.451873
O O14 0.931360 0.000000 0.461908
O O15 0.836092 0.335575 0.607068
O O16 0.992914 0.500000 0.572863
O O17 0.176614 0.500000 0.151798
#
# Coordination Sequence:
#
# PCOD9182547 Si02
#       7
#     8   8   8   8   8   8   8
#     4   9  20  36  51  72 103 137 171 205 246 299
#     4   9  17  32  52  75 102 132 168 207 248 298
#     4   8  16  31  52  75 101 134 167 202 251 304
#     4  10  21  35  54  81 104 125 164 212 254 301
#     4  10  20  34  55  75 101 134 167 206 251 297
#     4  10  21  37  55  75 102 135 167 204 255 305
#     4  10  19  33  52  74 102 135 169 207 251 294
#
# _framework density 17.988638000000002
#
# number of rings (size 3 to 8) (size 9 to 14) (size 15 to 20)
#    0.000    2.571    0.000    2.571    0.000    7.429 
#    0.000    5.714    0.000    0.000    0.000    0.000 
#    0.000    0.000    0.000    0.000    0.000    0.000 
#
# Total GULP energy -156025.620077 kJ/mol
# GULP energy per Si atom -5572.343574 kJ/mol
# Density = 1.794769 g / cm^3
# Si number density = 17.988638 Si / 1000 Ang^3
#
#
#
# Elastic Constant Matrix: (Units=GPa)
#
#
# Indices 1 2 3 4 5 6 
#
# 1 82.4998 38.4824 25.2982 0.0000 -8.7432 0.0000
# 2 38.4824 92.7742 41.9303 0.0000 -15.7745 0.0000
# 3 25.2982 41.9303 80.1576 0.0000 -23.4734 0.0000
# 4 0.0000 0.0000 0.0000 13.7162 0.0000 -9.5348
# 5 -8.7432 -15.7745 -23.4734 0.0000 21.7024 0.0000
# 6 0.0000 0.0000 0.0000 -9.5348 0.0000 17.7183
#
#
#
# Elastic Compliance Matrix: (Units=1/GPa)
#
#
# Indices 1 2 3 4 5 6 
#
# 1 0.015264 -0.005436 -0.001947 0.000000 0.000093 0.000000
# 2 -0.005436 0.016218 -0.005792 0.000000 0.003334 0.000000
# 3 -0.001947 -0.005792 0.021452 0.000000 0.018208 0.000000
# 4 0.000000 0.000000 0.000000 0.116480 0.000000 0.062681
# 5 0.000093 0.003334 0.018208 0.000000 0.068232 0.000000
# 6 0.000000 0.000000 0.000000 0.062681 0.000000 0.090169
#
#
# Mechanical properties :
#
#
# Convention : Reuss Voigt Hill
#
# Bulk Modulus (GPa) = 37.61559 51.87260 44.74409
# Shear Modulus (GPa) = 13.77317 20.60876 17.19097
#
# Velocity S-wave (km/s) = 2.77006 3.38842 3.09472
# Velocity P-wave (km/s) = 5.58454 6.64887 6.13981
#
# Compressibility (1/GPa) = 0.02658472
#
# Stress axis : x y z
#
# Youngs Moduli (GPa) = 65.51576 61.65951 46.61669
#
# Poissons Ratio (x) = 0.33516 0.09075
# Poissons Ratio (y) = 0.35612 0.27000
# Poissons Ratio (z) = 0.12754 0.35712
#
# Static dielectric constant tensor:
#      x y z
#    x 1.643870 0.000000 0.029060 
#    y 0.000000 1.621930 0.000000 
#    z 0.029060 0.000000 1.620290 
# 
# From -- ./inp_files/335128.got.cif
#   From: 2010.05.17/outbox.cif.g08.bks.cpg/sg12_168_cif.got.tgz:335128.got - 2010.06.03 13:09:07.
