data_PCOD9182065
_publ_section_title
;
Structure prediction by ZEFSAII (Michael W. Deem and Ramdas Pophale) SiO2 
 PCOD9182065
Probable space group: C 2/M
;
_chemical_formula_sum "Si O2"
_cell_formula_units_Z 40
_cell_length_a 21.560573
_cell_length_b 7.948994
_cell_length_c 12.528279
_cell_angle_alpha 90.000000
_cell_angle_beta 50.978489
_cell_angle_gamma 90.000000
_cell_volume 1668.147282
_symmetry_space_group_name_H-M "C 2/M"
_symmetry_group_IT_number 12
_symmetry_cell_setting 'monoclinic'
loop_
_space_group_symop_operation_xyz
x,y,z
-x,y,-z
-x,-y,-z
x,-y,z
1/2+x,1/2+y,z
1/2-x,1/2+y,-z
1/2-x,1/2-y,-z
1/2+x,1/2-y,z
loop_
_atom_site_type_symbol
_atom_site_label
_atom_site_fract_x
_atom_site_fract_y
_atom_site_fract_z
Si Si1 0.507665 0.299735 0.351676
Si Si2 0.670485 0.694640 0.834620
Si Si3 0.380023 0.196022 0.340761
Si Si4 0.340978 0.296450 0.921309
Si Si5 0.659787 0.695114 0.398943
O O1 0.511057 0.500000 0.366261
O O2 0.466785 0.266485 0.279790
O O3 0.596923 0.235189 0.235840
O O4 0.432733 0.242122 0.507769
O O5 0.648237 0.500000 0.850280
O O6 0.641148 0.780429 0.758539
O O7 0.766981 0.709962 0.732327
O O8 0.639325 0.764900 0.980408
O O9 0.326617 0.293015 0.486924
O O10 0.375990 0.000000 0.372971
O O11 0.346235 0.500000 0.916674
O O12 0.250000 0.250000 0.000000
O O13 0.662880 0.500000 0.362480
#
# Coordination Sequence:
#
# PCOD9182065 Si02
#       5
#     8   8   8   8   8
#     4   8  18  37  57  78 110 146 180 218 271 324
#     4  11  21  34  55  83 114 146 181 219 270 327
#     4  10  19  32  55  85 116 144 177 221 270 322
#     4  10  23  42  60  78 105 145 187 230 273 319
#     4   9  18  34  56  82 114 145 178 219 267 325
#
# _framework density 23.978697
#
# number of rings (size 3 to 8) (size 9 to 14) (size 15 to 20)
#    1.200    1.200    0.000    3.000    0.000    3.200 
#    0.000    5.000    0.000    6.000    0.000    0.000 
#    0.000    0.000    0.000    0.000    0.000    0.000 
#
# Total GULP energy -111526.584594 kJ/mol
# GULP energy per Si atom -5576.329230 kJ/mol
# Density = 2.392412 g / cm^3
# Si number density = 23.978697 Si / 1000 Ang^3
#
#
#
# Elastic Constant Matrix: (Units=GPa)
#
#
# Indices 1 2 3 4 5 6 
#
# 1 64.6870 0.9121 34.1384 0.0000 1.7435 0.0000
# 2 0.9121 51.6269 -4.5349 0.0000 12.3567 0.0000
# 3 34.1384 -4.5349 168.8231 0.0000 -0.8663 0.0000
# 4 0.0000 0.0000 0.0000 10.9747 0.0000 -7.5269
# 5 1.7435 12.3567 -0.8663 0.0000 39.4457 0.0000
# 6 0.0000 0.0000 0.0000 -7.5269 0.0000 21.5979
#
#
#
# Elastic Compliance Matrix: (Units=1/GPa)
#
#
# Indices 1 2 3 4 5 6 
#
# 1 0.017343 -0.000447 -0.003523 0.000000 -0.000704 0.000000
# 2 -0.000447 0.020999 0.000621 0.000000 -0.006545 0.000000
# 3 -0.003523 0.000621 0.006653 0.000000 0.000107 0.000000
# 4 0.000000 0.000000 0.000000 0.119738 0.000000 0.041729
# 5 -0.000704 -0.006545 0.000107 0.000000 0.027435 0.000000
# 6 0.000000 0.000000 0.000000 0.041729 0.000000 0.060844
#
#
# Mechanical properties :
#
#
# Convention : Reuss Voigt Hill
#
# Bulk Modulus (GPa) = 26.11196 38.46314 32.28755
# Shear Modulus (GPa) = 18.35025 31.37841 24.86433
#
# Velocity S-wave (km/s) = 2.76936 3.62138 3.22364
# Velocity P-wave (km/s) = 4.59773 5.79320 5.22974
#
# Compressibility (1/GPa) = 0.03829663
#
# Stress axis : x y z
#
# Youngs Moduli (GPa) = 57.65864 47.62223 150.30958
#
# Poissons Ratio (x) = 0.02131 0.52950
# Poissons Ratio (y) = 0.02580 -0.09334
# Poissons Ratio (z) = 0.20312 -0.02957
#
# Static dielectric constant tensor:
#      x y z
#    x 2.060800 0.000000 0.028700 
#    y 0.000000 1.940680 0.000000 
#    z 0.028700 0.000000 1.945040 
# 
# From -- ./inp_files/236513.got.cif
#   From: 2010.05.17/outbox.cif.g08.bks.cpg/sg12_119_cif.got.tgz:236513.got - 2010.06.03 13:09:07.
