data_PCOD9182349
_publ_section_title
;
Structure prediction by ZEFSAII (Michael W. Deem and Ramdas Pophale) SiO2 
 PCOD9182349
Probable space group: C 2/M
;
_chemical_formula_sum "Si O2"
_cell_formula_units_Z 56
_cell_length_a 12.262928
_cell_length_b 11.138630
_cell_length_c 20.309082
_cell_angle_alpha 90.000000
_cell_angle_beta 79.273710
_cell_angle_gamma 90.000000
_cell_volume 2725.592744
_symmetry_space_group_name_H-M "C 2/M"
_symmetry_group_IT_number 12
_symmetry_cell_setting 'monoclinic'
loop_
_space_group_symop_operation_xyz
x,y,z
-x,y,-z
-x,-y,-z
x,-y,z
1/2+x,1/2+y,z
1/2-x,1/2+y,-z
1/2-x,1/2-y,-z
1/2+x,1/2-y,z
loop_
_atom_site_type_symbol
_atom_site_label
_atom_site_fract_x
_atom_site_fract_y
_atom_site_fract_z
Si Si1 0.103120 0.865642 0.038395
Si Si2 0.667292 0.633510 0.795005
Si Si3 0.107930 0.866704 0.528009
Si Si4 0.629461 0.868432 0.328809
Si Si5 0.916874 0.365414 0.262116
Si Si6 0.260517 0.804094 0.396520
Si Si7 0.194172 0.634007 0.086432
O O1 0.115715 0.748989 0.083279
O O2 0.091859 0.000000 0.069983
O O3 0.215484 0.868486 0.982445
O O4 0.000000 0.850477 0.000000
O O5 0.612476 0.500000 0.802709
O O6 0.759865 0.627480 0.727682
O O7 0.599382 0.753442 0.785108
O O8 0.733811 0.648422 0.855525
O O9 0.209172 0.872454 0.464302
O O10 0.146644 0.782530 0.582480
O O11 0.000000 0.826318 0.500000
O O12 0.083979 0.000000 0.556379
O O13 0.528652 0.844467 0.291126
O O14 0.657217 0.771486 0.379967
O O15 0.610244 0.000000 0.361039
O O16 0.921995 0.500000 0.231866
O O17 0.818229 0.366024 0.327814
O O18 0.141231 0.500000 0.094747
#
# Coordination Sequence:
#
# PCOD9182349 Si02
#       7
#     8   8   8   8   8   8   8
#     4   9  18  32  50  73 102 134 166 204 249 290
#     4   9  19  35  52  72 100 132 164 200 245 294
#     4  10  20  32  48  71  96 123 158 198 239 286
#     4   9  18  33  51  70  95 129 164 197 241 294
#     4  10  20  34  52  74  98 125 162 205 243 285
#     4  10  19  33  50  69  96 127 158 196 243 289
#     4   9  18  33  51  72 100 132 167 204 241 290
#
# _framework density 20.545988999999999
#
# number of rings (size 3 to 8) (size 9 to 14) (size 15 to 20)
#    0.000    2.571    0.000    1.714    0.000    2.571 
#    0.000    3.571    0.000    6.857    0.000    0.000 
#    0.000    0.000    0.000    0.000    0.000    0.000 
#
# Total GULP energy -156042.261860 kJ/mol
# GULP energy per Si atom -5572.937924 kJ/mol
# Density = 2.049923 g / cm^3
# Si number density = 20.545989 Si / 1000 Ang^3
#
#
#
# Elastic Constant Matrix: (Units=GPa)
#
#
# Indices 1 2 3 4 5 6 
#
# 1 61.3673 55.2083 -4.6227 0.0000 12.4554 0.0000
# 2 55.2083 198.4262 50.2938 0.0000 43.3988 0.0000
# 3 -4.6227 50.2938 42.4258 0.0000 1.6184 0.0000
# 4 0.0000 0.0000 0.0000 -10.6171 0.0000 -58.0814
# 5 12.4554 43.3988 1.6184 0.0000 31.2593 0.0000
# 6 0.0000 0.0000 0.0000 -58.0814 0.0000 -78.6355
#
#
#
# Elastic Compliance Matrix: (Units=1/GPa)
#
#
# Indices 1 2 3 4 5 6 
#
# 1 0.030564 -0.016037 0.022000 0.000000 0.008947 0.000000
# 2 -0.016037 0.020369 -0.025108 0.000000 -0.020589 0.000000
# 3 0.022000 -0.025108 0.054845 0.000000 0.023253 0.000000
# 4 0.000000 0.000000 0.000000 0.030976 0.000000 -0.022880
# 5 0.008947 -0.020589 0.023253 0.000000 0.055806 0.000000
# 6 0.000000 0.000000 0.000000 -0.022880 0.000000 0.004182
#
#
# Mechanical properties :
#
#
# Convention : Reuss Voigt Hill
#
# Bulk Modulus (GPa) = 14.81755 55.99756 35.40756
# Shear Modulus (GPa) = 19.41537 1.82401 10.61969
#
# Velocity S-wave (km/s) = 3.07737 0.94324 2.27595
# Velocity P-wave (km/s) = 4.45584 5.33856 4.91705
#
# Compressibility (1/GPa) = 0.06748753
#
# Stress axis : x y z
#
# Youngs Moduli (GPa) = 32.71824 49.09494 18.23320
#
# Poissons Ratio (x) = 0.78733 -0.40113
# Poissons Ratio (y) = 0.52470 0.45780
# Poissons Ratio (z) = -0.71980 1.23268
#
# Static dielectric constant tensor:
#      x y z
#    x 1.713900 0.000000 -0.032930 
#    y 0.000000 1.774810 0.000000 
#    z -0.032930 0.000000 1.713040 
# 
# From -- ./inp_files/304256.got.cif
#   From: 2010.05.17/outbox.cif.g08.bks.cpg/sg12_153_cif.got.tgz:304256.got - 2010.06.03 13:09:07.
