data_PCOD9182870
_publ_section_title
;
Structure prediction by ZEFSAII (Michael W. Deem and Ramdas Pophale) SiO2 
 PCOD9182870
Probable space group: C 2/M
;
_chemical_formula_sum "Si O2"
_cell_formula_units_Z 64
_cell_length_a 15.864515
_cell_length_b 7.564075
_cell_length_c 28.319703
_cell_angle_alpha 90.000000
_cell_angle_beta 58.936119
_cell_angle_gamma 90.000000
_cell_volume 2911.022791
_symmetry_space_group_name_H-M "C 2/M"
_symmetry_group_IT_number 12
_symmetry_cell_setting 'monoclinic'
loop_
_space_group_symop_operation_xyz
x,y,z
-x,y,-z
-x,-y,-z
x,-y,z
1/2+x,1/2+y,z
1/2-x,1/2+y,-z
1/2-x,1/2-y,-z
1/2+x,1/2-y,z
loop_
_atom_site_type_symbol
_atom_site_label
_atom_site_fract_x
_atom_site_fract_y
_atom_site_fract_z
Si Si1 0.334422 0.289419 0.937322
Si Si2 0.908639 0.296662 0.744523
Si Si3 0.336484 0.788584 0.438277
Si Si4 0.869770 0.717611 0.323919
Si Si5 0.526831 0.785636 0.439413
Si Si6 0.810826 0.796256 0.677807
Si Si7 0.974087 0.783516 0.061210
Si Si8 0.247489 0.205964 0.861255
O O1 0.341548 0.500000 0.929457
O O2 0.439211 0.226729 0.928162
O O3 0.297653 0.214730 0.898179
O O4 0.250000 0.250000 0.000000
O O5 0.920242 0.500000 0.757028
O O6 0.869993 0.296780 0.702160
O O7 0.824481 0.214555 0.801736
O O8 0.018345 0.220736 0.714307
O O9 0.250000 0.750000 0.500000
O O10 0.328974 0.723357 0.386873
O O11 0.438594 0.725658 0.431124
O O12 0.342966 0.000000 0.433582
O O13 0.868559 0.500000 0.324414
O O14 0.796657 0.774839 0.303702
O O15 0.500000 0.730198 0.500000
O O16 0.626920 0.715449 0.388451
O O17 0.532057 0.000000 0.437537
O O18 0.802948 0.000000 0.694400
O O19 0.863655 0.721227 0.105076
O O20 0.974121 0.000000 0.061282
O O21 0.000000 0.730496 0.000000
O O22 0.234619 0.000000 0.851861
#
# Coordination Sequence:
#
# PCOD9182870 Si02
#       8
#     8   8   8   8   8   8   8   8
#     4  11  21  35  58  85 119 155 189 235 284 335
#     4  10  21  41  63  80 111 155 196 230 275 345
#     4  10  19  33  53  77 110 144 180 225 281 340
#     4   9  19  37  57  78 110 151 182 226 290 336
#     4  10  20  35  56  82 113 148 187 232 281 338
#     4  11  22  36  58  84 112 146 188 236 287 336
#     4   9  17  33  56  82 117 153 184 228 286 337
#     4  10  21  38  61  86 111 152 198 231 277 341
#
# _framework density 21.985401
#
# number of rings (size 3 to 8) (size 9 to 14) (size 15 to 20)
#    0.000    2.000    2.500    1.500    0.000    2.250 
#    0.000    3.750    0.000    0.000    0.000    0.000 
#    0.000    0.000    0.000    0.000    0.000    0.000 
#
# Total GULP energy -178743.321833 kJ/mol
# GULP energy per Si atom -5585.728807 kJ/mol
# Density = 2.193536 g / cm^3
# Si number density = 21.985401 Si / 1000 Ang^3
#
#
#
# Elastic Constant Matrix: (Units=GPa)
#
#
# Indices 1 2 3 4 5 6 
#
# 1 163.2170 -6.0287 45.9990 0.0001 -34.4010 0.0000
# 2 -6.0287 49.7627 -9.6450 0.0001 -4.7586 -0.0002
# 3 45.9990 -9.6450 119.0396 0.0001 -29.4433 0.0001
# 4 0.0001 0.0001 0.0001 6.4709 0.0001 8.2278
# 5 -34.4010 -4.7586 -29.4433 0.0001 33.6523 0.0000
# 6 0.0000 -0.0002 0.0001 8.2278 0.0000 10.6932
#
#
#
# Elastic Compliance Matrix: (Units=1/GPa)
#
#
# Indices 1 2 3 4 5 6 
#
# 1 0.008078 0.001466 -0.001160 -0.000010 0.007450 0.000008
# 2 0.001466 0.021522 0.002936 -0.000043 0.007111 0.000034
# 3 -0.001160 0.002936 0.011353 -0.000012 0.009162 0.000009
# 4 -0.000010 -0.000043 -0.000012 7.141154 -0.000038 -5.494714
# 5 0.007450 0.007111 0.009162 -0.000038 0.046354 0.000030
# 6 0.000008 0.000034 0.000009 -5.494714 0.000030 4.321389
#
#
# Mechanical properties :
#
#
# Convention : Reuss Voigt Hill
#
# Bulk Modulus (GPa) = 21.08023 43.63002 32.35512
# Shear Modulus (GPa) = 0.43256 30.27621 15.35438
#
# Velocity S-wave (km/s) = 0.44404 3.71496 2.64557
# Velocity P-wave (km/s) = 3.14197 6.18784 4.90721
#
# Compressibility (1/GPa) = 0.04743782
#
# Stress axis : x y z
#
# Youngs Moduli (GPa) = 123.79022 46.46391 88.08322
#
# Poissons Ratio (x) = -0.06813 0.10218
# Poissons Ratio (y) = -0.18151 -0.25862
# Poissons Ratio (z) = 0.14359 -0.13642
#
# Static dielectric constant tensor:
#      x y z
#    x 1.791620 0.000000 -0.027480 
#    y 0.000000 1.937920 0.000000 
#    z -0.027480 0.000000 1.786410 
# 
# From -- ./inp_files/374998.got.cif
#   From: 2010.05.17/outbox.cif.g08.bks.cpg/sg12_188_cif.got.tgz:374998.got - 2010.06.03 13:09:07.
