data_PCOD9182289
_publ_section_title
;
Structure prediction by ZEFSAII (Michael W. Deem and Ramdas Pophale) SiO2 
 PCOD9182289
Probable space group: C 2/M
;
_chemical_formula_sum "Si O2"
_cell_formula_units_Z 64
_cell_length_a 23.922600
_cell_length_b 24.555527
_cell_length_c 18.268472
_cell_angle_alpha 90.000000
_cell_angle_beta 160.445145
_cell_angle_gamma 90.000000
_cell_volume 3591.926989
_symmetry_space_group_name_H-M "C 2/M"
_symmetry_group_IT_number 12
_symmetry_cell_setting 'monoclinic'
loop_
_space_group_symop_operation_xyz
x,y,z
-x,y,-z
-x,-y,-z
x,-y,z
1/2+x,1/2+y,z
1/2-x,1/2+y,-z
1/2-x,1/2-y,-z
1/2+x,1/2-y,z
loop_
_atom_site_type_symbol
_atom_site_label
_atom_site_fract_x
_atom_site_fract_y
_atom_site_fract_z
Si Si1 0.990283 0.844502 0.401091
Si Si2 0.280705 0.236264 0.141494
Si Si3 0.545137 0.813395 0.260073
Si Si4 0.815993 0.202676 0.711641
Si Si5 0.839321 0.672860 0.760516
Si Si6 0.169478 0.436072 0.756647
Si Si7 0.306007 0.866935 0.066821
Si Si8 0.814253 0.157696 0.854769
O O1 0.924110 0.781693 0.315445
O O2 0.000000 0.858250 0.500000
O O3 0.168374 0.850068 0.581714
O O4 0.854474 0.875843 0.183408
O O5 0.283525 0.192937 0.078288
O O6 0.292749 0.198012 0.227055
O O7 0.104997 0.269255 0.932797
O O8 0.693106 0.791398 0.492706
O O9 0.620994 0.830926 0.276445
O O10 0.460007 0.861562 0.201356
O O11 0.830201 0.262208 0.764347
O O12 0.750110 0.162231 0.692963
O O13 0.996509 0.180006 0.911888
O O14 0.000000 0.649904 0.000000
O O15 0.203082 0.500000 0.802866
O O16 0.166065 0.409032 0.832999
O O17 0.304667 0.401495 0.877931
O O18 0.000000 0.428308 0.500000
#
# Coordination Sequence:
#
# PCOD9182289 Si02
#       8
#     8   8   8   8   8   8   8   8
#     4  11  22  33  52  77 117 154 187 226 263 320
#     4  10  19  33  46  76 109 154 193 220 258 312
#     4  11  20  30  50  73 109 148 186 216 258 320
#     4  11  19  30  46  74 110 149 185 214 261 313
#     4  12  21  32  46  73 114 155 187 218 252 310
#     4  10  22  40  62  81 102 135 184 242 295 336
#     4  10  21  36  54  80 108 144 192 231 280 333
#     4  10  20  33  49  74 108 144 185 223 264 325
#
# _framework density 17.817734000000002
#
# number of rings (size 3 to 8) (size 9 to 14) (size 15 to 20)
#    0.000    1.375    2.500    6.375    3.500    3.000 
#    0.000    1.250    0.000    1.125    0.000    0.000 
#    0.000    2.000    0.000    0.000    0.000    0.000 
#
# Total GULP energy -178559.042211 kJ/mol
# GULP energy per Si atom -5579.970069 kJ/mol
# Density = 1.777718 g / cm^3
# Si number density = 17.817734 Si / 1000 Ang^3
#
#
#
# Elastic Constant Matrix: (Units=GPa)
#
#
# Indices 1 2 3 4 5 6 
#
# 1 143.4844 26.1564 38.1830 0.0000 -7.6558 0.0000
# 2 26.1564 59.0801 6.7284 0.0000 -4.5465 0.0000
# 3 38.1830 6.7284 91.3235 0.0000 -7.8938 0.0000
# 4 0.0000 0.0000 0.0000 11.3920 0.0000 -3.7504
# 5 -7.6558 -4.5465 -7.8938 0.0000 32.2417 0.0000
# 6 0.0000 0.0000 0.0000 -3.7504 0.0000 12.5673
#
#
#
# Elastic Compliance Matrix: (Units=1/GPa)
#
#
# Indices 1 2 3 4 5 6 
#
# 1 0.008477 -0.003327 -0.003234 0.000000 0.000752 0.000000
# 2 -0.003327 0.018521 0.000188 0.000000 0.001868 0.000000
# 3 -0.003234 0.000188 0.012489 0.000000 0.002316 0.000000
# 4 0.000000 0.000000 0.000000 0.097345 0.000000 0.029050
# 5 0.000752 0.001868 0.002316 0.000000 0.032025 0.000000
# 6 0.000000 0.000000 0.000000 0.029050 0.000000 0.088241
#
#
# Mechanical properties :
#
#
# Convention : Reuss Voigt Hill
#
# Bulk Modulus (GPa) = 37.39618 48.44705 42.92161
# Shear Modulus (GPa) = 17.93680 26.09487 22.01583
#
# Velocity S-wave (km/s) = 3.17627 3.83109 3.51894
# Velocity P-wave (km/s) = 5.87242 6.84244 6.37591
#
# Compressibility (1/GPa) = 0.02674070
#
# Stress axis : x y z
#
# Youngs Moduli (GPa) = 117.97238 53.99180 80.07288
#
# Poissons Ratio (x) = 0.17961 0.25896
# Poissons Ratio (y) = 0.39245 -0.01503
# Poissons Ratio (z) = 0.38153 -0.01014
#
# Static dielectric constant tensor:
#      x y z
#    x 1.657410 0.000000 -0.010320 
#    y 0.000000 1.584660 0.000000 
#    z -0.010320 0.000000 1.663290 
# 
# From -- ./inp_files/291112.got.cif
#   From: 2010.05.17/outbox.cif.g08.bks.cpg/sg12_146_cif.got.tgz:291112.got - 2010.06.03 13:09:07.
