data_PCOD9182580
_publ_section_title
;
Structure prediction by ZEFSAII (Michael W. Deem and Ramdas Pophale) SiO2 
 PCOD9182580
Probable space group: C 2/M
;
_chemical_formula_sum "Si O2"
_cell_formula_units_Z 64
_cell_length_a 24.961063
_cell_length_b 8.822185
_cell_length_c 16.298989
_cell_angle_alpha 90.000000
_cell_angle_beta 91.534908
_cell_angle_gamma 90.000000
_cell_volume 3587.930706
_symmetry_space_group_name_H-M "C 2/M"
_symmetry_group_IT_number 12
_symmetry_cell_setting 'monoclinic'
loop_
_space_group_symop_operation_xyz
x,y,z
-x,y,-z
-x,-y,-z
x,-y,z
1/2+x,1/2+y,z
1/2-x,1/2+y,-z
1/2-x,1/2-y,-z
1/2+x,1/2-y,z
loop_
_atom_site_type_symbol
_atom_site_label
_atom_site_fract_x
_atom_site_fract_y
_atom_site_fract_z
Si Si1 0.158116 0.181548 0.631428
Si Si2 0.431062 0.821561 0.670594
Si Si3 0.140315 0.180541 0.189574
Si Si4 0.263369 0.318818 0.689497
Si Si5 0.166232 0.679397 0.452597
Si Si6 0.456726 0.318542 0.301949
Si Si7 0.921983 0.319376 0.954040
Si Si8 0.967749 0.818749 0.110668
O O1 0.204458 0.249553 0.690619
O O2 0.168242 0.243066 0.540578
O O3 0.098830 0.226783 0.658332
O O4 0.161480 0.000000 0.632332
O O5 0.403612 0.732212 0.744726
O O6 0.392260 0.799272 0.591164
O O7 0.490951 0.763113 0.660564
O O8 0.431029 0.000000 0.690763
O O9 0.197506 0.218421 0.232827
O O10 0.126504 0.263419 0.104623
O O11 0.136426 0.000000 0.178522
O O12 0.260939 0.500000 0.682048
O O13 0.292188 0.251320 0.609886
O O14 0.176654 0.500000 0.460338
O O15 0.463347 0.500000 0.311761
O O16 0.454693 0.286305 0.204481
O O17 0.923769 0.500000 0.959294
O O18 0.975961 0.258474 0.911519
O O19 0.924936 0.246059 0.044293
O O20 0.972818 0.000000 0.100628
#
# Coordination Sequence:
#
# PCOD9182580 Si02
#       8
#     8   8   8   8   8   8   8   8
#     4  11  23  38  55  77 104 141 182 221 264 314
#     4  10  20  33  53  79 107 138 174 218 266 311
#     4  10  19  33  54  79 108 139 173 214 266 320
#     4  10  21  37  58  81 104 136 177 225 270 312
#     4  10  21  37  56  80 107 137 174 222 272 316
#     4  10  22  37  54  75 107 146 180 213 259 319
#     4  11  20  30  50  82 112 137 172 215 262 309
#     4  10  19  33  52  75 107 145 177 211 258 313
#
# _framework density 17.837579999999999
#
# number of rings (size 3 to 8) (size 9 to 14) (size 15 to 20)
#    0.000    1.750    1.250    4.500    0.000    5.000 
#    0.000    2.500    0.000    0.750    0.000    0.000 
#    0.000    0.000    0.000    0.000    0.000    0.000 
#
# Total GULP energy -178743.795496 kJ/mol
# GULP energy per Si atom -5585.743609 kJ/mol
# Density = 1.779698 g / cm^3
# Si number density = 17.837580 Si / 1000 Ang^3
#
#
#
# Elastic Constant Matrix: (Units=GPa)
#
#
# Indices 1 2 3 4 5 6 
#
# 1 85.3990 30.7938 10.7139 0.0000 22.3924 0.0000
# 2 30.7938 69.0798 22.0859 0.0000 14.7520 0.0000
# 3 10.7139 22.0859 41.2549 0.0000 18.8559 0.0000
# 4 0.0000 0.0000 0.0000 13.0819 0.0000 14.7132
# 5 22.3924 14.7520 18.8559 0.0000 19.2496 0.0000
# 6 0.0000 0.0000 0.0000 14.7132 0.0000 22.0932
#
#
#
# Elastic Compliance Matrix: (Units=1/GPa)
#
#
# Indices 1 2 3 4 5 6 
#
# 1 0.020684 -0.006516 0.012370 0.000000 -0.031185 0.000000
# 2 -0.006516 0.020163 -0.009966 0.000000 0.001889 0.000000
# 3 0.012370 -0.009966 0.053321 0.000000 -0.058982 0.000000
# 4 0.000000 0.000000 0.000000 0.304548 0.000000 -0.202817
# 5 -0.031185 0.001889 -0.058982 0.000000 0.144553 0.000000
# 6 0.000000 0.000000 0.000000 -0.202817 0.000000 0.180331
#
#
# Mechanical properties :
#
#
# Convention : Reuss Voigt Hill
#
# Bulk Modulus (GPa) = 11.63543 35.88010 23.75777
# Shear Modulus (GPa) = 6.57487 19.69430 13.13458
#
# Velocity S-wave (km/s) = 1.92197 3.32639 2.71651
# Velocity P-wave (km/s) = 3.38562 5.90861 4.81530
#
# Compressibility (1/GPa) = 0.08594440
#
# Stress axis : x y z
#
# Youngs Moduli (GPa) = 48.34594 49.59498 18.75445
#
# Poissons Ratio (x) = 0.32315 -0.23199
# Poissons Ratio (y) = 0.31501 0.18691
# Poissons Ratio (z) = -0.59803 0.49426
#
# Static dielectric constant tensor:
#      x y z
#    x 1.606020 0.000000 0.032330 
#    y 0.000000 1.594530 0.000000 
#    z 0.032330 0.000000 1.610330 
# 
# From -- ./inp_files/287761.got.cif
#   From: 2010.05.17/outbox.cif.g08.bks.cpg/sg12_144_cif.got.tgz:287761.got - 2010.06.03 13:09:07.
