data_PCOD9182735
_publ_section_title
;
Structure prediction by ZEFSAII (Michael W. Deem and Ramdas Pophale) SiO2 
 PCOD9182735
Probable space group: C 2/M
;
_chemical_formula_sum "Si O2"
_cell_formula_units_Z 56
_cell_length_a 15.476695
_cell_length_b 7.566008
_cell_length_c 23.457583
_cell_angle_alpha 90.000000
_cell_angle_beta 126.172884
_cell_angle_gamma 90.000000
_cell_volume 2217.332448
_symmetry_space_group_name_H-M "C 2/M"
_symmetry_group_IT_number 12
_symmetry_cell_setting 'monoclinic'
loop_
_space_group_symop_operation_xyz
x,y,z
-x,y,-z
-x,-y,-z
x,-y,z
1/2+x,1/2+y,z
1/2-x,1/2+y,-z
1/2-x,1/2-y,-z
1/2+x,1/2-y,z
loop_
_atom_site_type_symbol
_atom_site_label
_atom_site_fract_x
_atom_site_fract_y
_atom_site_fract_z
Si Si1 0.587166 0.299280 0.606673
Si Si2 0.370032 0.289753 0.566257
Si Si3 0.633455 0.294322 0.094885
Si Si4 0.012523 0.715771 0.810589
Si Si5 0.902462 0.697040 0.040540
Si Si6 0.313755 0.208895 0.670099
Si Si7 0.656536 0.786559 0.758741
O O1 0.577604 0.500000 0.580596
O O2 0.467347 0.220102 0.564364
O O3 0.693133 0.215820 0.619349
O O4 0.623085 0.299687 0.686891
O O5 0.384093 0.500000 0.572248
O O6 0.250000 0.250000 0.500000
O O7 0.373003 0.225924 0.632652
O O8 0.611385 0.500000 0.097615
O O9 0.525994 0.192288 0.067821
O O10 0.728591 0.233694 0.172030
O O11 0.657735 0.280704 0.036725
O O12 0.008736 0.500000 0.815165
O O13 0.891292 0.778602 0.750420
O O14 0.079208 0.782975 0.890701
O O15 0.076271 0.756607 0.778333
O O16 0.858669 0.500000 0.030570
O O17 0.300764 0.000000 0.675856
O O18 0.655586 0.000000 0.750461
#
# Coordination Sequence:
#
# PCOD9182735 Si02
#       7
#     8   8   8   8   8   8   8
#     4  10  22  39  62  92 121 153 197 246 289 340
#     4  11  24  42  63  92 126 156 193 238 287 344
#     4  10  20  33  49  74 109 144 185 240 297 347
#     4   9  18  33  55  81 108 144 191 236 285 345
#     4  10  19  33  53  74 102 145 196 241 286 347
#     4  10  20  39  65  88 118 158 196 239 293 345
#     4  10  20  35  56  81 112 151 192 238 294 353
#
# _framework density 25.255571
#
# number of rings (size 3 to 8) (size 9 to 14) (size 15 to 20)
#    0.000    2.000    1.429    3.000    0.000    4.571 
#    0.000    5.714    0.000    0.000    0.000    0.000 
#    0.000    0.000    0.000    0.000    0.000    0.000 
#
# Total GULP energy -156449.837044 kJ/mol
# GULP energy per Si atom -5587.494180 kJ/mol
# Density = 2.519809 g / cm^3
# Si number density = 25.255571 Si / 1000 Ang^3
#
#
#
# Elastic Constant Matrix: (Units=GPa)
#
#
# Indices 1 2 3 4 5 6 
#
# 1 88.7091 0.0823 -15.9870 0.0000 18.5075 0.0000
# 2 0.0823 65.0971 -5.2350 0.0000 2.5218 0.0000
# 3 -15.9870 -5.2350 76.1841 0.0000 5.3548 0.0000
# 4 0.0000 0.0000 0.0000 10.5540 0.0000 -11.5878
# 5 18.5075 2.5218 5.3548 0.0000 41.5955 0.0000
# 6 0.0000 0.0000 0.0000 -11.5878 0.0000 3.5939
#
#
#
# Elastic Compliance Matrix: (Units=1/GPa)
#
#
# Indices 1 2 3 4 5 6 
#
# 1 0.013172 0.000488 0.003241 0.000000 -0.006308 0.000000
# 2 0.000488 0.015514 0.001261 0.000000 -0.001320 0.000000
# 3 0.003241 0.001261 0.014127 0.000000 -0.003337 0.000000
# 4 0.000000 0.000000 0.000000 -0.037301 0.000000 -0.120271
# 5 -0.006308 -0.001320 -0.003337 0.000000 0.027357 0.000000
# 6 0.000000 0.000000 0.000000 -0.120271 0.000000 -0.109541
#
#
# Mechanical properties :
#
#
# Convention : Reuss Voigt Hill
#
# Bulk Modulus (GPa) = 18.94115 20.85677 19.89896
# Shear Modulus (GPa) = -72.40692 27.89067 -22.25812
#
# Velocity S-wave (km/s) = -5.36022 3.32676 -2.97192
# Velocity P-wave (km/s) = 5.54916 4.79924 1.96983
#
# Compressibility (1/GPa) = 0.05279512
#
# Stress axis : x y z
#
# Youngs Moduli (GPa) = 75.91595 64.45945 70.78400
#
# Poissons Ratio (x) = -0.03148 -0.22942
# Poissons Ratio (y) = -0.03707 -0.08928
# Poissons Ratio (z) = -0.24605 -0.08130
#
# Static dielectric constant tensor:
#      x y z
#    x 2.024530 0.000000 0.042320 
#    y 0.000000 1.944460 0.000000 
#    z 0.042320 0.000000 1.970160 
# 
# From -- ./inp_files/342574.got.cif
#   From: 2010.05.17/outbox.cif.g08.bks.cpg/sg12_172_cif.got.tgz:342574.got - 2010.06.03 13:09:07.
