data_PCOD9182959
_publ_section_title
;
Structure prediction by ZEFSAII (Michael W. Deem and Ramdas Pophale) SiO2 
 PCOD9182959
Probable space group: C 2/M
;
_chemical_formula_sum "Si O2"
_cell_formula_units_Z 56
_cell_length_a 25.661563
_cell_length_b 10.667932
_cell_length_c 23.303024
_cell_angle_alpha 90.000000
_cell_angle_beta 152.264381
_cell_angle_gamma 90.000000
_cell_volume 2968.895367
_symmetry_space_group_name_H-M "C 2/M"
_symmetry_group_IT_number 12
_symmetry_cell_setting 'monoclinic'
loop_
_space_group_symop_operation_xyz
x,y,z
-x,y,-z
-x,-y,-z
x,-y,z
1/2+x,1/2+y,z
1/2-x,1/2+y,-z
1/2-x,1/2-y,-z
1/2+x,1/2-y,z
loop_
_atom_site_type_symbol
_atom_site_label
_atom_site_fract_x
_atom_site_fract_y
_atom_site_fract_z
Si Si1 0.555098 0.250212 0.310476
Si Si2 0.881254 0.151596 0.358487
Si Si3 0.761953 0.356576 0.671105
Si Si4 0.878138 0.150727 0.224310
Si Si5 0.017006 0.643622 0.954671
Si Si6 0.636298 0.848039 0.960636
Si Si7 0.253271 0.862860 0.434948
O O1 0.489397 0.305933 0.300733
O O2 0.456947 0.200366 0.173787
O O3 0.644230 0.148838 0.420412
O O4 0.636415 0.343859 0.354969
O O5 0.787911 0.180027 0.315289
O O6 0.869235 0.196524 0.281474
O O7 0.000000 0.192793 0.500000
O O8 0.882494 0.000000 0.356243
O O9 0.722832 0.500000 0.619450
O O10 0.733948 0.252741 0.596593
O O11 0.895800 0.361419 0.807230
O O12 0.878977 0.000000 0.226629
O O13 0.765856 0.188546 0.080346
O O14 0.057321 0.500000 0.005180
O O15 0.100910 0.697258 0.989912
O O16 0.000000 0.704802 0.000000
O O17 0.630136 0.000000 0.954106
O O18 0.254905 0.000000 0.408911
#
# Coordination Sequence:
#
# PCOD9182959 Si02
#       7
#     8   8   8   8   8   8   8
#     4  11  22  37  55  77 111 155 198 234 282 340
#     4   9  17  30  51  82 113 140 178 232 287 334
#     4  10  19  34  58  85 113 146 185 236 292 340
#     4  10  20  34  55  85 116 144 184 238 289 337
#     4   9  16  28  50  82 111 137 176 230 284 331
#     4  10  19  33  53  80 113 145 184 236 288 341
#     4  11  24  38  57  83 115 154 197 242 285 339
#
# _framework density 18.862234999999998
#
# number of rings (size 3 to 8) (size 9 to 14) (size 15 to 20)
#    0.000    2.000    1.429    3.000    0.000    7.429 
#    0.000    0.000    0.000    5.143    0.000    0.000 
#    0.000    0.000    0.000    0.000    0.000    0.000 
#
# Total GULP energy -156062.327262 kJ/mol
# GULP energy per Si atom -5573.654545 kJ/mol
# Density = 1.881930 g / cm^3
# Si number density = 18.862235 Si / 1000 Ang^3
#
#
#
# Elastic Constant Matrix: (Units=GPa)
#
#
# Indices 1 2 3 4 5 6 
#
# 1 121.1552 30.5265 38.9388 0.0000 6.8716 0.0000
# 2 30.5265 58.5517 25.6947 0.0000 -7.6227 0.0000
# 3 38.9388 25.6947 105.4708 0.0000 6.7155 0.0000
# 4 0.0000 0.0000 0.0000 8.1745 0.0000 -7.5796
# 5 6.8716 -7.6227 6.7155 0.0000 34.6224 0.0000
# 6 0.0000 0.0000 0.0000 -7.5796 0.0000 16.2116
#
#
#
# Elastic Compliance Matrix: (Units=1/GPa)
#
#
# Indices 1 2 3 4 5 6 
#
# 1 0.010385 -0.004637 -0.002540 0.000000 -0.002590 0.000000
# 2 -0.004637 0.022157 -0.004106 0.000000 0.006595 0.000000
# 3 -0.002540 -0.004106 0.011588 0.000000 -0.002648 0.000000
# 4 0.000000 0.000000 0.000000 0.215952 0.000000 0.100967
# 5 -0.002590 0.006595 -0.002648 0.000000 0.031362 0.000000
# 6 0.000000 0.000000 0.000000 0.100967 0.000000 0.108891
#
#
# Mechanical properties :
#
#
# Convention : Reuss Voigt Hill
#
# Bulk Modulus (GPa) = 46.37157 52.83306 49.60232
# Shear Modulus (GPa) = 11.62552 24.46955 18.04754
#
# Velocity S-wave (km/s) = 2.48531 3.60568 3.09659
# Velocity P-wave (km/s) = 5.73353 6.73835 6.25615
#
# Compressibility (1/GPa) = 0.02156494
#
# Stress axis : x y z
#
# Youngs Moduli (GPa) = 96.28940 45.13264 86.29841
#
# Poissons Ratio (x) = 0.20929 0.21916
# Poissons Ratio (y) = 0.44651 0.35432
# Poissons Ratio (z) = 0.24454 0.18530
#
# Static dielectric constant tensor:
#      x y z
#    x 1.696570 0.000000 -0.007550 
#    y 0.000000 1.640550 0.000000 
#    z -0.007550 0.000000 1.683250 
# 
# From -- ./inp_files/325167.got.cif
#   From: 2010.05.17/outbox.cif.g08.bks.cpg/sg12_163_cif.got.tgz:325167.got - 2010.06.03 13:09:07.
