data_PCOD9182567
_publ_section_title
;
Structure prediction by ZEFSAII (Michael W. Deem and Ramdas Pophale) SiO2 
 PCOD9182567
Probable space group: C 2/M
;
_chemical_formula_sum "Si O2"
_cell_formula_units_Z 64
_cell_length_a 26.024464
_cell_length_b 13.046949
_cell_length_c 22.988512
_cell_angle_alpha 90.000000
_cell_angle_beta 151.176032
_cell_angle_gamma 90.000000
_cell_volume 3763.197015
_symmetry_space_group_name_H-M "C 2/M"
_symmetry_group_IT_number 12
_symmetry_cell_setting 'monoclinic'
loop_
_space_group_symop_operation_xyz
x,y,z
-x,y,-z
-x,-y,-z
x,-y,z
1/2+x,1/2+y,z
1/2-x,1/2+y,-z
1/2-x,1/2-y,-z
1/2+x,1/2-y,z
loop_
_atom_site_type_symbol
_atom_site_label
_atom_site_fract_x
_atom_site_fract_y
_atom_site_fract_z
Si Si1 0.216165 0.382956 0.340423
Si Si2 0.602473 0.225776 0.443976
Si Si3 0.145665 0.782564 0.932462
Si Si4 0.914708 0.885621 0.236010
Si Si5 0.041157 0.378891 0.605334
Si Si6 0.042423 0.381386 0.268601
Si Si7 0.374467 0.880055 0.879586
Si Si8 0.743295 0.744046 0.844880
O O1 0.261489 0.500000 0.391515
O O2 0.294884 0.290592 0.435456
O O3 0.116363 0.378091 0.285202
O O4 0.176939 0.371704 0.235363
O O5 0.511369 0.310816 0.345193
O O6 0.553358 0.151755 0.444206
O O7 0.607192 0.163407 0.388194
O O8 0.103706 0.875536 0.851528
O O9 0.059905 0.690746 0.842916
O O10 0.250000 0.750000 0.000000
O O11 0.180689 0.801098 0.033172
O O12 0.815045 0.843773 0.174410
O O13 0.938600 0.000000 0.277092
O O14 0.062225 0.500000 0.629925
O O15 0.148265 0.316253 0.727338
O O16 0.000000 0.353443 0.500000
O O17 0.012029 0.500000 0.249510
O O18 0.311682 0.808282 0.862158
O O19 0.366720 0.000000 0.890260
O O20 0.500000 0.854869 0.000000
#
# Coordination Sequence:
#
# PCOD9182567 Si02
#       8
#     8   8   8   8   8   8   8   8
#     4  10  20  33  51  75 103 135 168 207 253 300
#     4  10  19  33  52  75 102 132 168 207 250 301
#     4   9  19  31  47  73  99 128 165 204 250 295
#     4   9  18  31  48  72 102 131 160 201 253 306
#     4  10  21  36  54  76 101 132 172 215 255 296
#     4  10  20  34  52  75 104 135 169 208 249 299
#     4  10  20  33  51  76 104 135 171 209 253 304
#     4  10  19  33  52  75 101 133 169 208 252 300
#
# _framework density 17.006815
#
# number of rings (size 3 to 8) (size 9 to 14) (size 15 to 20)
#    0.000    2.250    0.000    3.750    0.000    4.000 
#    0.000    0.000    0.000    7.125    0.000    0.000 
#    0.000    0.000    0.000    0.000    0.000    0.000 
#
# Total GULP energy -178339.202062 kJ/mol
# GULP energy per Si atom -5573.100064 kJ/mol
# Density = 1.696811 g / cm^3
# Si number density = 17.006815 Si / 1000 Ang^3
#
#
#
# Elastic Constant Matrix: (Units=GPa)
#
#
# Indices 1 2 3 4 5 6 
#
# 1 112.5212 39.8369 40.9543 0.0000 -10.2238 0.0000
# 2 39.8369 65.7788 32.6272 0.0000 -4.8700 0.0000
# 3 40.9543 32.6272 82.8471 0.0000 -5.8905 0.0000
# 4 0.0000 0.0000 0.0000 10.8628 0.0000 2.0025
# 5 -10.2238 -4.8700 -5.8905 0.0000 28.1506 0.0000
# 6 0.0000 0.0000 0.0000 2.0025 0.0000 24.6375
#
#
#
# Elastic Compliance Matrix: (Units=1/GPa)
#
#
# Indices 1 2 3 4 5 6 
#
# 1 0.012457 -0.005445 -0.003815 0.000000 0.002784 0.000000
# 2 -0.005445 0.021358 -0.005682 0.000000 0.000528 0.000000
# 3 -0.003815 -0.005682 0.016268 0.000000 0.001035 0.000000
# 4 0.000000 0.000000 0.000000 0.093457 0.000000 -0.007596
# 5 0.002784 0.000528 0.001035 0.000000 0.036842 0.000000
# 6 0.000000 0.000000 0.000000 -0.007596 0.000000 0.041206
#
#
# Mechanical properties :
#
#
# Convention : Reuss Voigt Hill
#
# Bulk Modulus (GPa) = 49.51215 54.22041 51.86628
# Shear Modulus (GPa) = 19.36448 22.57877 20.97163
#
# Velocity S-wave (km/s) = 3.37802 3.64762 3.51541
# Velocity P-wave (km/s) = 6.66266 7.04918 6.85864
#
# Compressibility (1/GPa) = 0.02019706
#
# Stress axis : x y z
#
# Youngs Moduli (GPa) = 80.27802 46.82164 61.47156
#
# Poissons Ratio (x) = 0.25497 0.23453
# Poissons Ratio (y) = 0.43715 0.34926
# Poissons Ratio (z) = 0.30629 0.26603
#
# Static dielectric constant tensor:
#      x y z
#    x 1.570000 0.000000 -0.021060 
#    y 0.000000 1.562270 0.000000 
#    z -0.021060 0.000000 1.584750 
# 
# From -- ./inp_files/349382.got.cif
#   From: 2010.05.17/outbox.cif.g08.bks.cpg/sg12_175_cif.got.tgz:349382.got - 2010.06.03 13:09:07.
