data_PCOD9182423
_publ_section_title
;
Structure prediction by ZEFSAII (Michael W. Deem and Ramdas Pophale) SiO2 
 PCOD9182423
Probable space group: C 2/M
;
_chemical_formula_sum "Si O2"
_cell_formula_units_Z 56
_cell_length_a 29.820894
_cell_length_b 8.439420
_cell_length_c 18.681139
_cell_angle_alpha 90.000000
_cell_angle_beta 139.653124
_cell_angle_gamma 90.000000
_cell_volume 3043.815924
_symmetry_space_group_name_H-M "C 2/M"
_symmetry_group_IT_number 12
_symmetry_cell_setting 'monoclinic'
loop_
_space_group_symop_operation_xyz
x,y,z
-x,y,-z
-x,-y,-z
x,-y,z
1/2+x,1/2+y,z
1/2-x,1/2+y,-z
1/2-x,1/2-y,-z
1/2+x,1/2-y,z
loop_
_atom_site_type_symbol
_atom_site_label
_atom_site_fract_x
_atom_site_fract_y
_atom_site_fract_z
Si Si1 0.816341 0.689467 0.539052
Si Si2 0.132410 0.806936 0.795898
Si Si3 0.482376 0.314027 0.589823
Si Si4 0.608869 0.311458 0.931307
Si Si5 0.531924 0.811275 0.268090
Si Si6 0.253577 0.188370 0.840212
Si Si7 0.165188 0.311578 0.603438
O O1 0.812323 0.500000 0.532754
O O2 0.750000 0.750000 0.500000
O O3 0.891042 0.730170 0.664836
O O4 0.820137 0.741904 0.460538
O O5 0.129717 0.757185 0.875687
O O6 0.200378 0.752565 0.837090
O O7 0.060683 0.757829 0.669613
O O8 0.132059 0.000000 0.794724
O O9 0.477240 0.500000 0.566719
O O10 0.477389 0.284958 0.669319
O O11 0.415027 0.228643 0.477277
O O12 0.599856 0.500000 0.918626
O O13 0.535136 0.232399 0.859430
O O14 0.671856 0.265890 0.058841
O O15 0.531158 0.000000 0.283264
O O16 0.216257 0.228556 0.720673
O O17 0.260938 0.000000 0.856710
O O18 0.174418 0.500000 0.618476
#
# Coordination Sequence:
#
# PCOD9182423 Si02
#       7
#     8   8   8   8   8   8   8
#     4   9  19  34  56  81 104 125 153 195 244 297
#     4   8  17  31  48  71  98 129 173 217 252 285
#     4   9  16  30  50  71  96 130 168 209 250 293
#     4  10  19  33  51  72  99 135 174 213 248 287
#     4   9  17  31  50  76 104 130 160 200 244 292
#     4  11  21  33  49  70  98 137 175 212 251 291
#     4  10  21  36  49  71 104 134 163 201 249 304
#
# _framework density 18.397957999999999
#
# number of rings (size 3 to 8) (size 9 to 14) (size 15 to 20)
#    0.000    2.571    0.000    4.286    0.000    4.000 
#    0.000   10.714    0.000    0.857    0.000    6.000 
#    0.000    0.000    0.000    0.000    0.000    0.000 
#
# Total GULP energy -156108.320297 kJ/mol
# GULP energy per Si atom -5575.297153 kJ/mol
# Density = 1.835608 g / cm^3
# Si number density = 18.397958 Si / 1000 Ang^3
#
#
#
# Elastic Constant Matrix: (Units=GPa)
#
#
# Indices 1 2 3 4 5 6 
#
# 1 -7.9340 3.0736 22.8854 0.0000 29.5671 0.0000
# 2 3.0736 27.8307 6.2054 0.0000 6.9103 0.0000
# 3 22.8854 6.2054 112.6554 0.0000 32.0698 0.0000
# 4 0.0000 0.0000 0.0000 31.2333 0.0000 5.3622
# 5 29.5671 6.9103 32.0698 0.0000 29.4557 0.0000
# 6 0.0000 0.0000 0.0000 5.3622 0.0000 17.5278
#
#
#
# Elastic Compliance Matrix: (Units=1/GPa)
#
#
# Indices 1 2 3 4 5 6 
#
# 1 -0.025417 -0.003902 -0.003109 0.000000 0.029813 0.000000
# 2 -0.003902 0.037587 0.000170 0.000000 -0.005086 0.000000
# 3 -0.003109 0.000170 0.012494 0.000000 -0.010523 0.000000
# 4 0.000000 0.000000 0.000000 0.033792 0.000000 -0.010338
# 5 0.029813 -0.005086 -0.010523 0.000000 0.016673 0.000000
# 6 0.000000 0.000000 0.000000 -0.010338 0.000000 0.060215
#
#
# Mechanical properties :
#
#
# Convention : Reuss Voigt Hill
#
# Bulk Modulus (GPa) = 91.04572 21.87567 56.46070
# Shear Modulus (GPa) = 32.74660 22.33587 27.54124
#
# Velocity S-wave (km/s) = 4.22347 3.48809 3.87327
# Velocity P-wave (km/s) = 8.56609 5.30457 7.12448
#
# Compressibility (1/GPa) = 0.01098349
#
# Stress axis : x y z
#
# Youngs Moduli (GPa) = -39.34406 26.60461 80.03678
#
# Poissons Ratio (x) = 0.10382 0.24881
# Poissons Ratio (y) = -0.15353 -0.01362
# Poissons Ratio (z) = -0.12231 -0.00453
#
# Static dielectric constant tensor:
#      x y z
#    x 1.637900 0.000000 0.015370 
#    y 0.000000 1.622290 0.000000 
#    z 0.015370 0.000000 1.658890 
# 
# From -- ./inp_files/281678.got.cif
#   From: 2010.05.17/outbox.cif.g08.bks.cpg/sg12_141_cif.got.tgz:281678.got - 2010.06.03 13:09:07.
