data_PCOD9182831
_publ_section_title
;
Structure prediction by ZEFSAII (Michael W. Deem and Ramdas Pophale) SiO2 
 PCOD9182831
Probable space group: C 2/M
;
_chemical_formula_sum "Si O2"
_cell_formula_units_Z 64
_cell_length_a 10.856083
_cell_length_b 25.167486
_cell_length_c 22.762451
_cell_angle_alpha 90.000000
_cell_angle_beta 32.614477
_cell_angle_gamma 90.000000
_cell_volume 3352.027638
_symmetry_space_group_name_H-M "C 2/M"
_symmetry_group_IT_number 12
_symmetry_cell_setting 'monoclinic'
loop_
_space_group_symop_operation_xyz
x,y,z
-x,y,-z
-x,-y,-z
x,-y,z
1/2+x,1/2+y,z
1/2-x,1/2+y,-z
1/2-x,1/2-y,-z
1/2+x,1/2-y,z
loop_
_atom_site_type_symbol
_atom_site_label
_atom_site_fract_x
_atom_site_fract_y
_atom_site_fract_z
Si Si1 0.866816 0.064476 0.994457
Si Si2 0.829120 0.939645 0.232722
Si Si3 0.670591 0.061624 0.532625
Si Si4 0.006850 0.242328 0.629662
Si Si5 0.255904 0.797200 0.632574
Si Si6 0.566625 0.413634 0.684106
Si Si7 0.930132 0.861092 0.589683
Si Si8 0.356907 0.936483 0.231740
O O1 0.009354 0.085285 0.881428
O O2 0.862444 0.000000 0.992389
O O3 0.602382 0.079230 0.107571
O O4 0.000000 0.078984 0.000000
O O5 0.577824 0.917856 0.348793
O O6 0.952612 0.941432 0.245701
O O7 0.783376 0.000000 0.230972
O O8 0.729403 0.065549 0.439781
O O9 0.859610 0.098891 0.485015
O O10 0.698487 0.000000 0.538124
O O11 0.250000 0.250000 0.500000
O O12 0.081683 0.242571 0.667871
O O13 0.826182 0.281306 0.670628
O O14 0.925893 0.183905 0.641033
O O15 0.500000 0.799415 0.500000
O O16 0.132850 0.853504 0.673966
O O17 0.340043 0.424166 0.736980
O O18 0.711169 0.899303 0.685498
O O19 0.000000 0.834730 0.500000
O O20 0.353270 0.000000 0.246880
#
# Coordination Sequence:
#
# PCOD9182831 Si02
#       8
#     8   8   8   8   8   8   8   8
#     4   9  20  38  54  74 108 152 197 236 269 318
#     4  10  20  32  52  79 109 149 193 227 268 329
#     4  10  20  32  50  80 119 153 180 219 276 340
#     4  10  20  35  52  78 111 153 189 232 280 336
#     4  10  19  33  53  76 115 152 185 228 280 334
#     4  11  19  33  54  82 116 146 179 228 285 341
#     4  11  21  33  50  80 116 146 185 226 275 348
#     4  10  21  36  56  79 114 152 183 229 280 329
#
# _framework density 19.092922000000002
#
# number of rings (size 3 to 8) (size 9 to 14) (size 15 to 20)
#    0.000    1.875    2.500    4.500    3.500    2.500 
#    0.000    1.875    0.000    0.000    0.000    0.875 
#    0.000    0.000    0.000    0.000    0.000    0.000 
#
# Total GULP energy -178238.094215 kJ/mol
# GULP energy per Si atom -5569.940444 kJ/mol
# Density = 1.904947 g / cm^3
# Si number density = 19.092922 Si / 1000 Ang^3
#
#
#
# Elastic Constant Matrix: (Units=GPa)
#
#
# Indices 1 2 3 4 5 6 
#
# 1 61.5134 2.2841 40.5940 -0.0004 -8.4485 0.0027
# 2 2.2841 61.0339 6.6997 0.0004 -7.7487 0.0003
# 3 40.5940 6.6997 138.4377 0.0078 -3.3290 -0.0151
# 4 -0.0004 0.0004 0.0078 -1.3380 -0.0041 8.6925
# 5 -8.4485 -7.7487 -3.3290 -0.0041 25.9732 0.0012
# 6 0.0027 0.0003 -0.0151 8.6925 0.0012 13.6730
#
#
#
# Elastic Compliance Matrix: (Units=1/GPa)
#
#
# Indices 1 2 3 4 5 6 
#
# 1 0.021100 0.000675 -0.006069 -0.000026 0.006287 0.000005
# 2 0.000675 0.017120 -0.000901 -0.000006 0.005211 0.000002
# 3 -0.006069 -0.000901 0.009020 0.000026 -0.001087 -0.000005
# 4 -0.000026 -0.000006 0.000026 -0.145682 -0.000034 0.092616
# 5 0.006287 0.005211 -0.001087 -0.000034 0.041962 0.000016
# 6 0.000005 0.000002 -0.000005 0.092616 0.000016 0.014256
#
#
# Mechanical properties :
#
#
# Convention : Reuss Voigt Hill
#
# Bulk Modulus (GPa) = 28.86006 40.01565 34.43786
# Shear Modulus (GPa) = -276.48383 21.75545 -127.36419
#
# Velocity S-wave (km/s) = -12.04674 3.37924 -8.17633
# Velocity P-wave (km/s) = 13.35478 6.01910 8.42973
#
# Compressibility (1/GPa) = 0.03464996
#
# Stress axis : x y z
#
# Youngs Moduli (GPa) = 47.39382 58.41259 110.85960
#
# Poissons Ratio (x) = -0.03941 0.67276
# Poissons Ratio (y) = -0.03197 0.09989
# Poissons Ratio (z) = 0.28761 0.05263
#
# Static dielectric constant tensor:
#      x y z
#    x 1.749990 -0.000010 0.025170 
#    y -0.000010 1.725730 0.000000 
#    z 0.025170 0.000000 1.662030 
# 
# From -- ./inp_files/337097.got.cif
#   From: 2010.05.17/outbox.cif.g08.bks.cpg/sg12_169_cif.got.tgz:337097.got - 2010.06.03 13:09:07.
