data_PCOD9182003
_publ_section_title
;
Structure prediction by ZEFSAII (Michael W. Deem and Ramdas Pophale) SiO2 
 PCOD9182003
Probable space group: C 2/M
;
_chemical_formula_sum "Si O2"
_cell_formula_units_Z 64
_cell_length_a 24.953760
_cell_length_b 9.063463
_cell_length_c 20.861761
_cell_angle_alpha 90.000000
_cell_angle_beta 52.208280
_cell_angle_gamma 90.000000
_cell_volume 3728.568279
_symmetry_space_group_name_H-M "C 2/M"
_symmetry_group_IT_number 12
_symmetry_cell_setting 'monoclinic'
loop_
_space_group_symop_operation_xyz
x,y,z
-x,y,-z
-x,-y,-z
x,-y,z
1/2+x,1/2+y,z
1/2-x,1/2+y,-z
1/2-x,1/2-y,-z
1/2+x,1/2-y,z
loop_
_atom_site_type_symbol
_atom_site_label
_atom_site_fract_x
_atom_site_fract_y
_atom_site_fract_z
Si Si1 0.320585 0.324564 0.521389
Si Si2 0.530081 0.677304 0.047381
Si Si3 0.819898 0.824999 0.369342
Si Si4 0.680102 0.324999 0.130659
Si Si5 0.820585 0.175436 0.021389
Si Si6 0.046258 0.323552 0.278025
Si Si7 0.469919 0.677304 0.452619
Si Si8 0.046259 0.676448 0.778025
O O1 0.308848 0.500000 0.537624
O O2 0.254413 0.237133 0.592291
O O3 0.329828 0.296526 0.438394
O O4 0.390481 0.283642 0.504706
O O5 0.525246 0.500000 0.060392
O O6 0.488911 0.756670 0.133640
O O7 0.500000 0.713104 0.000000
O O8 0.609519 0.716356 0.995294
O O9 0.676763 0.500000 0.643317
O O10 0.879793 0.744565 0.287947
O O11 0.676761 0.500000 0.143318
O O12 0.754413 0.262868 0.092291
O O13 0.620207 0.244563 0.212052
O O14 0.670172 0.296525 0.061606
O O15 0.808847 0.000000 0.037625
O O16 0.050294 0.500000 0.279586
O O17 0.011089 0.256667 0.366359
O O18 1.000000 0.285949 0.250000
O O19 0.500000 0.713106 0.500000
O O20 0.474753 0.500000 0.439610
O O21 0.050296 0.500000 0.779583
#
# Coordination Sequence:
#
# PCOD9182003 Si02
#       8
#     8   8   8   8   8   8   8   8
#     4   9  18  33  53  80 112 142 176 224 275 323
#     4  10  21  38  59  82 111 147 183 222 274 331
#     4  10  19  32  55  82 109 142 181 227 274 321
#     4  10  19  32  55  82 109 142 181 227 274 321
#     4   9  18  33  53  80 112 142 176 224 275 323
#     4  11  22  35  55  83 113 144 183 229 272 320
#     4  10  21  38  59  82 111 147 183 222 274 331
#     4  11  22  35  55  83 113 144 183 229 272 320
#
# _framework density 17.164764999999999
#
# number of rings (size 3 to 8) (size 9 to 14) (size 15 to 20)
#    0.000    2.000    2.500    1.500    0.000    3.500 
#    0.000    1.250    0.000    0.000    0.000    0.000 
#    0.000    0.000    0.000    0.000    0.000    0.000 
#
# Total GULP energy -178654.083903 kJ/mol
# GULP energy per Si atom -5582.940122 kJ/mol
# Density = 1.712570 g / cm^3
# Si number density = 17.164765 Si / 1000 Ang^3
#
#
#
# Elastic Constant Matrix: (Units=GPa)
#
#
# Indices 1 2 3 4 5 6 
#
# 1 157.1951 62.6252 90.3528 -0.0004 -19.6485 0.0004
# 2 62.6252 49.0754 66.8927 -0.0010 -6.7006 0.0017
# 3 90.3528 66.8927 126.3619 -0.0003 -18.0959 0.0004
# 4 -0.0004 -0.0010 -0.0003 31.5967 0.0001 -8.1859
# 5 -19.6485 -6.7006 -18.0959 0.0001 28.9443 -0.0001
# 6 0.0004 0.0017 0.0004 -8.1859 -0.0001 19.8401
#
#
#
# Elastic Compliance Matrix: (Units=1/GPa)
#
#
# Indices 1 2 3 4 5 6 
#
# 1 0.013732 -0.015973 -0.000613 0.000000 0.005241 0.000001
# 2 -0.015973 0.093488 -0.040114 0.000001 -0.014280 -0.000007
# 3 -0.000613 -0.040114 0.030971 0.000000 0.009660 0.000003
# 4 0.000000 0.000001 0.000000 0.035437 0.000000 0.014621
# 5 0.005241 -0.014280 0.009660 0.000000 0.040841 0.000001
# 6 0.000001 -0.000007 0.000003 0.014621 0.000001 0.056436
#
#
# Mechanical properties :
#
#
# Convention : Reuss Voigt Hill
#
# Bulk Modulus (GPa) = 40.33631 85.81932 63.07782
# Shear Modulus (GPa) = 12.73669 23.59366 18.16518
#
# Velocity S-wave (km/s) = 2.72697 3.71150 3.25666
# Velocity P-wave (km/s) = 5.78495 8.27484 7.13928
#
# Compressibility (1/GPa) = 0.02479156
#
# Stress axis : x y z
#
# Youngs Moduli (GPa) = 72.82069 10.69662 32.28868
#
# Poissons Ratio (x) = 0.17086 0.01979
# Poissons Ratio (y) = 1.16316 1.29522
# Poissons Ratio (z) = 0.04463 0.42908
#
# Static dielectric constant tensor:
#      x y z
#    x 1.578610 0.000000 -0.001220 
#    y 0.000000 1.566300 0.000000 
#    z -0.001220 0.000000 1.543840 
# 
# From -- ./inp_files/289075.got.cif
#   From: 2010.05.17/outbox.cif.g08.bks.cpg/sg12_145_cif.got.tgz:289075.got - 2010.06.03 13:09:07.
