data_PCOD9182650
_publ_section_title
;
Structure prediction by ZEFSAII (Michael W. Deem and Ramdas Pophale) SiO2 
 PCOD9182650
Probable space group: C 2/M
;
_chemical_formula_sum "Si O2"
_cell_formula_units_Z 56
_cell_length_a 28.437290
_cell_length_b 9.096378
_cell_length_c 21.370465
_cell_angle_alpha 90.000000
_cell_angle_beta 31.554249
_cell_angle_gamma 90.000000
_cell_volume 2892.851134
_symmetry_space_group_name_H-M "C 2/M"
_symmetry_group_IT_number 12
_symmetry_cell_setting 'monoclinic'
loop_
_space_group_symop_operation_xyz
x,y,z
-x,y,-z
-x,-y,-z
x,-y,z
1/2+x,1/2+y,z
1/2-x,1/2+y,-z
1/2-x,1/2-y,-z
1/2+x,1/2-y,z
loop_
_atom_site_type_symbol
_atom_site_label
_atom_site_fract_x
_atom_site_fract_y
_atom_site_fract_z
Si Si1 0.745125 0.323737 0.192962
Si Si2 0.423219 0.664393 0.961300
Si Si3 0.438597 0.160167 0.131232
Si Si4 0.822562 0.324711 0.464612
Si Si5 0.009775 0.169761 0.250442
Si Si6 0.818717 0.178358 0.872058
Si Si7 0.273321 0.672077 0.649106
O O1 0.743369 0.500000 0.196706
O O2 0.702357 0.276002 0.175487
O O3 0.703237 0.276018 0.307022
O O4 0.848030 0.271599 0.072719
O O5 0.402166 0.500000 0.006081
O O6 0.521657 0.711391 0.872118
O O7 0.427389 0.670934 0.882109
O O8 0.335074 0.175426 0.232148
O O9 0.450571 0.000000 0.148998
O O10 0.500000 0.160858 0.000000
O O11 0.814669 0.500000 0.468404
O O12 0.750000 0.250000 0.500000
O O13 0.923656 0.269944 0.336398
O O14 0.806284 0.268324 0.553925
O O15 0.078154 0.214998 0.227550
O O16 0.980092 0.000000 0.293600
O O17 0.809747 0.000000 0.886547
O O18 0.750000 0.250000 0.000000
O O19 0.300649 0.500000 0.610322
#
# Coordination Sequence:
#
# PCOD9182650 Si02
#       7
#     8   8   8   8   8   8   8
#     4  10  20  36  59  87 120 159 198 238 295 360
#     4  11  21  32  52  84 120 154 191 244 299 349
#     4  10  19  33  52  78 112 151 193 236 290 361
#     4  12  26  44  66  90 117 158 205 253 305 362
#     4  10  22  40  60  88 123 160 204 251 299 357
#     4  10  20  36  61  92 126 162 202 249 300 356
#     4  10  21  39  61  85 118 159 201 250 300 355
#
# _framework density 19.358065
#
# number of rings (size 3 to 8) (size 9 to 14) (size 15 to 20)
#    0.000    1.571    2.857    2.571    0.000    5.429 
#    0.000    0.714    0.000    4.286    0.000    0.000 
#    0.000    0.000    0.000    0.000    0.000    0.000 
#
# Total GULP energy -156227.693121 kJ/mol
# GULP energy per Si atom -5579.560469 kJ/mol
# Density = 1.931400 g / cm^3
# Si number density = 19.358065 Si / 1000 Ang^3
#
#
#
# Elastic Constant Matrix: (Units=GPa)
#
#
# Indices 1 2 3 4 5 6 
#
# 1 122.5469 43.8371 24.0330 0.0000 11.9742 -0.0004
# 2 43.8371 52.6146 26.0714 -0.0009 4.4630 -0.0002
# 3 24.0330 26.0714 61.4924 -0.0038 10.9435 0.0009
# 4 0.0000 -0.0009 -0.0038 25.1986 0.0013 4.1956
# 5 11.9742 4.4630 10.9435 0.0013 30.9451 -0.0001
# 6 -0.0004 -0.0002 0.0009 4.1956 -0.0001 19.5525
#
#
#
# Elastic Compliance Matrix: (Units=1/GPa)
#
#
# Indices 1 2 3 4 5 6 
#
# 1 0.011934 -0.009676 0.000012 0.000000 -0.003227 0.000000
# 2 -0.009676 0.031906 -0.010238 -0.000001 0.002763 0.000001
# 3 0.000012 -0.010238 0.021702 0.000004 -0.006203 -0.000002
# 4 0.000000 -0.000001 0.000004 0.041155 -0.000003 -0.008831
# 5 -0.003227 0.002763 -0.006203 -0.000003 0.035359 0.000001
# 6 0.000000 0.000001 -0.000002 -0.008831 0.000001 0.053039
#
#
# Mechanical properties :
#
#
# Convention : Reuss Voigt Hill
#
# Bulk Modulus (GPa) = 38.84982 47.17077 43.01029
# Shear Modulus (GPa) = 20.53576 24.65341 22.59458
#
# Velocity S-wave (km/s) = 3.26058 3.57255 3.42013
# Velocity P-wave (km/s) = 5.85558 6.43723 6.15328
#
# Compressibility (1/GPa) = 0.02574015
#
# Stress axis : x y z
#
# Youngs Moduli (GPa) = 83.79317 31.34193 46.07908
#
# Poissons Ratio (x) = 0.30325 -0.00057
# Poissons Ratio (y) = 0.81075 0.47174
# Poissons Ratio (z) = -0.00103 0.32087
#
# Static dielectric constant tensor:
#      x y z
#    x 1.741470 0.000000 0.033520 
#    y 0.000000 1.680450 0.000000 
#    z 0.033520 0.000000 1.669980 
# 
# From -- ./inp_files/329500.got.cif
#   From: 2010.05.17/outbox.cif.g08.bks.cpg/sg12_165_cif.got.tgz:329500.got - 2010.06.03 13:09:07.
