data_PCOD9182776
_publ_section_title
;
Structure prediction by ZEFSAII (Michael W. Deem and Ramdas Pophale) SiO2 
 PCOD9182776
Probable space group: C 2/M
;
_chemical_formula_sum "Si O2"
_cell_formula_units_Z 40
_cell_length_a 19.732103
_cell_length_b 8.708426
_cell_length_c 28.378850
_cell_angle_alpha 90.000000
_cell_angle_beta 27.429431
_cell_angle_gamma 90.000000
_cell_volume 2246.385793
_symmetry_space_group_name_H-M "C 2/M"
_symmetry_group_IT_number 12
_symmetry_cell_setting 'monoclinic'
loop_
_space_group_symop_operation_xyz
x,y,z
-x,y,-z
-x,-y,-z
x,-y,z
1/2+x,1/2+y,z
1/2-x,1/2+y,-z
1/2-x,1/2-y,-z
1/2+x,1/2-y,z
loop_
_atom_site_type_symbol
_atom_site_label
_atom_site_fract_x
_atom_site_fract_y
_atom_site_fract_z
Si Si1 0.163491 0.684636 0.671226
Si Si2 0.040823 0.684181 0.289986
Si Si3 0.713074 0.682408 0.739462
Si Si4 0.144690 0.683996 0.881110
Si Si5 0.528706 0.684117 0.567445
O O1 0.160634 0.500000 0.679368
O O2 0.142415 0.764513 0.734217
O O3 0.324250 0.725492 0.551358
O O4 0.044039 0.725545 0.705340
O O5 0.037020 0.500000 0.297610
O O6 0.208411 0.741855 0.187709
O O7 0.964329 0.758715 0.382970
O O8 0.712403 0.500000 0.744467
O O9 0.637679 0.756530 0.831841
O O10 0.881779 0.742304 0.636485
O O11 0.161691 0.500000 0.870225
O O12 0.000000 0.723874 0.000000
O O13 0.512924 0.500000 0.576477
#
# Coordination Sequence:
#
# PCOD9182776 Si02
#       5
#     8   8   8   8   8
#     4  10  21  35  51  76 111 146 175 210 257 305
#     4  10  20  34  54  80 108 137 174 218 259 304
#     4  11  22  34  53  80 107 137 176 219 258 303
#     4  10  21  39  61  79  99 132 172 214 263 319
#     4  10  19  33  53  75 107 148 181 210 250 304
#
# _framework density 17.806380000000001
#
# number of rings (size 3 to 8) (size 9 to 14) (size 15 to 20)
#    0.000    1.800    0.000    7.200    0.000    7.200 
#    0.000    1.000    0.000    0.000    0.000    0.000 
#    0.000    0.000    0.000    0.000    0.000    0.000 
#
# Total GULP energy -111743.066919 kJ/mol
# GULP energy per Si atom -5587.153346 kJ/mol
# Density = 1.776585 g / cm^3
# Si number density = 17.806380 Si / 1000 Ang^3
#
#
#
# Elastic Constant Matrix: (Units=GPa)
#
#
# Indices 1 2 3 4 5 6 
#
# 1 104.1017 12.9022 20.8305 -0.0014 17.0532 0.0007
# 2 12.9022 37.4877 11.2278 -0.0009 6.9297 0.0004
# 3 20.8305 11.2278 78.4999 -0.0021 18.9014 0.0008
# 4 -0.0014 -0.0009 -0.0021 9.0873 0.0000 -2.1713
# 5 17.0532 6.9297 18.9014 0.0000 7.5814 0.0001
# 6 0.0007 0.0004 0.0008 -2.1713 0.0001 33.1097
#
#
#
# Elastic Compliance Matrix: (Units=1/GPa)
#
#
# Indices 1 2 3 4 5 6 
#
# 1 0.020332 0.004655 0.014949 0.000007 -0.087256 0.000000
# 2 0.004655 0.034412 0.009851 0.000006 -0.066482 0.000000
# 3 0.014949 0.009851 0.044101 0.000013 -0.152578 0.000000
# 4 0.000007 0.000006 0.000013 0.111795 -0.000056 0.007331
# 5 -0.087256 -0.066482 -0.152578 -0.000056 0.769329 0.000000
# 6 0.000000 0.000000 0.000000 0.007331 0.000000 0.030683
#
#
# Mechanical properties :
#
#
# Convention : Reuss Voigt Hill
#
# Bulk Modulus (GPa) = 6.33902 34.44560 20.39231
# Shear Modulus (GPa) = 4.97845 21.63093 13.30469
#
# Velocity S-wave (km/s) = 1.67390 3.48916 2.73644
# Velocity P-wave (km/s) = 2.70252 5.96815 4.63263
#
# Compressibility (1/GPa) = 0.15775316
#
# Stress axis : x y z
#
# Youngs Moduli (GPa) = 49.18472 29.05923 22.67512
#
# Poissons Ratio (x) = -0.13526 -0.33897
# Poissons Ratio (y) = -0.22893 -0.22336
# Poissons Ratio (z) = -0.73525 -0.28625
#
# Static dielectric constant tensor:
#      x y z
#    x 1.606060 0.000000 0.000220 
#    y 0.000000 1.597760 0.000000 
#    z 0.000220 0.000000 1.584960 
# 
# From -- ./inp_files/162643.got.cif
#   From: 2010.05.17/outbox.cif.g08.bks.cpg/sg12_82_cif.got.tgz:162643.got - 2010.06.03 13:09:07.
