data_PCOD9182286
_publ_section_title
;
Structure prediction by ZEFSAII (Michael W. Deem and Ramdas Pophale) SiO2 
 PCOD9182286
Probable space group: C 2/M
;
_chemical_formula_sum "Si O2"
_cell_formula_units_Z 60
_cell_length_a 21.166782
_cell_length_b 20.180850
_cell_length_c 8.232374
_cell_angle_alpha 90.000000
_cell_angle_beta 57.881502
_cell_angle_gamma 90.000000
_cell_volume 2978.360870
_symmetry_space_group_name_H-M "C 2/M"
_symmetry_group_IT_number 12
_symmetry_cell_setting 'monoclinic'
loop_
_space_group_symop_operation_xyz
x,y,z
-x,y,-z
-x,-y,-z
x,-y,z
1/2+x,1/2+y,z
1/2-x,1/2+y,-z
1/2-x,1/2-y,-z
1/2+x,1/2-y,z
loop_
_atom_site_type_symbol
_atom_site_label
_atom_site_fract_x
_atom_site_fract_y
_atom_site_fract_z
Si Si1 0.084392 0.621861 0.329079
Si Si2 0.792908 0.718734 0.719092
Si Si3 0.100247 0.078666 0.716883
Si Si4 0.335075 0.078009 0.073368
Si Si5 0.674605 0.000000 0.374122
Si Si6 0.561796 0.421185 0.151830
Si Si7 0.802118 0.851291 0.880559
Si Si8 0.762494 0.619885 0.496459
O O1 0.131198 0.685976 0.317900
O O2 0.122715 0.558217 0.360369
O O3 0.000000 0.626429 0.500000
O O4 0.098350 0.611204 0.118050
O O5 0.796544 0.796267 0.747859
O O6 0.779725 0.688710 0.560684
O O7 0.726868 0.687879 0.920516
O O8 0.176511 0.113095 0.563389
O O9 0.024685 0.100375 0.729164
O O10 0.107381 0.000000 0.677527
O O11 0.087719 0.087243 0.928161
O O12 0.259598 0.092541 0.072890
O O13 0.318619 0.107137 0.271882
O O14 0.347045 0.000000 0.070898
O O15 0.723861 0.059030 0.396748
O O16 0.565344 0.500000 0.181765
O O17 0.618187 0.382553 0.190785
#
# Coordination Sequence:
#
# PCOD9182286 Si02
#       8
#     8   8   8   8   4   8   8   8
#     4  10  21  39  60  87 119 154 209 257 311 370
#     4   9  21  36  60  81 109 169 206 254 301 357
#     4   9  16  28  50  82 123 156 191 248 304 359
#     4  11  22  34  58  91 124 158 196 262 317 366
#     4  10  19  32  61  83 111 157 194 250 304 365
#     4   9  17  28  53  88 116 158 203 252 307 356
#     4  10  19  37  57  85 117 155 221 252 287 368
#     4  11  19  35  54  87 122 156 202 246 310 371
#
# _framework density 20.145308
#
# number of rings (size 3 to 8) (size 9 to 14) (size 15 to 20)
#    0.000    2.133    3.333    1.400    0.000    0.533 
#    0.000    5.333    0.000    2.400    0.000    0.000 
#    0.000    0.000    0.000    0.000    0.000    0.133 
#
# Total GULP energy -167016.260675 kJ/mol
# GULP energy per Si atom -5567.208689 kJ/mol
# Density = 2.009946 g / cm^3
# Si number density = 20.145308 Si / 1000 Ang^3
#
#
#
# Elastic Constant Matrix: (Units=GPa)
#
#
# Indices 1 2 3 4 5 6 
#
# 1 54.1322 26.7646 34.7535 0.0000 -20.0729 0.0000
# 2 26.7646 61.9204 34.1493 0.0000 -7.6068 0.0000
# 3 34.7535 34.1493 107.7647 0.0000 -23.1313 0.0000
# 4 0.0000 0.0000 0.0000 14.2501 0.0000 10.0784
# 5 -20.0729 -7.6068 -23.1313 0.0000 19.2255 0.0000
# 6 0.0000 0.0000 0.0000 10.0784 0.0000 33.3150
#
#
#
# Elastic Compliance Matrix: (Units=1/GPa)
#
#
# Indices 1 2 3 4 5 6 
#
# 1 0.036952 -0.011215 -0.001394 0.000000 0.032466 0.000000
# 2 -0.011215 0.022976 -0.005697 0.000000 -0.009474 0.000000
# 3 -0.001394 -0.005697 0.014477 0.000000 0.013708 0.000000
# 4 0.000000 0.000000 0.000000 0.089276 0.000000 -0.027008
# 5 0.032466 -0.009474 0.013708 0.000000 0.098657 0.000000
# 6 0.000000 0.000000 0.000000 -0.027008 0.000000 0.038187
#
#
# Mechanical properties :
#
#
# Convention : Reuss Voigt Hill
#
# Bulk Modulus (GPa) = 26.46081 46.12800 36.29441
# Shear Modulus (GPa) = 14.29654 21.90144 18.09899
#
# Velocity S-wave (km/s) = 2.66685 3.30081 3.00062
# Velocity P-wave (km/s) = 4.75881 6.12164 5.48274
#
# Compressibility (1/GPa) = 0.03779174
#
# Stress axis : x y z
#
# Youngs Moduli (GPa) = 27.06178 43.52417 69.07529
#
# Poissons Ratio (x) = 0.48813 0.09631
# Poissons Ratio (y) = 0.30350 0.39355
# Poissons Ratio (z) = 0.03773 0.24798
#
# Static dielectric constant tensor:
#      x y z
#    x 1.710900 0.000000 0.047490 
#    y 0.000000 1.679640 0.000000 
#    z 0.047490 0.000000 1.767150 
# 
# From -- ./inp_files/89845.got.cif
#   From: 2010.05.17/outbox.cif.g08.bks.cpg/sg12_45_cif.got.tgz:89845.got - 2010.06.03 13:09:07.
