data_PCOD9182397
_publ_section_title
;
Structure prediction by ZEFSAII (Michael W. Deem and Ramdas Pophale) SiO2 
 PCOD9182397
Probable space group: C 2/M
;
_chemical_formula_sum "Si O2"
_cell_formula_units_Z 64
_cell_length_a 24.726097
_cell_length_b 11.516178
_cell_length_c 24.481425
_cell_angle_alpha 90.000000
_cell_angle_beta 152.153255
_cell_angle_gamma 90.000000
_cell_volume 3256.252681
_symmetry_space_group_name_H-M "C 2/M"
_symmetry_group_IT_number 12
_symmetry_cell_setting 'monoclinic'
loop_
_space_group_symop_operation_xyz
x,y,z
-x,y,-z
-x,-y,-z
x,-y,z
1/2+x,1/2+y,z
1/2-x,1/2+y,-z
1/2-x,1/2-y,-z
1/2+x,1/2-y,z
loop_
_atom_site_type_symbol
_atom_site_label
_atom_site_fract_x
_atom_site_fract_y
_atom_site_fract_z
Si Si1 0.888379 0.379083 0.140100
Si Si2 0.416265 0.366715 0.326724
Si Si3 0.146061 0.135292 0.235225
Si Si4 0.761110 0.191820 0.089939
Si Si5 0.389671 0.630901 0.984144
Si Si6 0.687699 0.136363 0.713484
Si Si7 0.871472 0.292515 0.673819
Si Si8 0.378364 0.629483 0.574014
O O1 0.885634 0.500000 0.169297
O O2 0.861490 0.273953 0.156034
O O3 0.011274 0.365616 0.220846
O O4 0.789016 0.378043 0.005475
O O5 0.421202 0.500000 0.355242
O O6 0.313655 0.369339 0.189549
O O7 0.389426 0.249074 0.338082
O O8 0.534038 0.346245 0.397556
O O9 0.257055 0.158001 0.296614
O O10 0.138714 0.212259 0.282315
O O11 0.150820 0.000000 0.254931
O O12 0.025157 0.151914 0.094050
O O13 0.657128 0.276239 0.014971
O O14 0.381963 0.500000 0.999819
O O15 0.299397 0.636780 0.853712
O O16 0.642326 0.000000 0.675359
O O17 0.753582 0.364212 0.564153
O O18 0.883321 0.216186 0.629310
O O19 0.407702 0.500000 0.619840
#
# Coordination Sequence:
#
# PCOD9182397 Si02
#       8
#     8   8   8   8   8   8   8   8
#     4  11  21  32  49  80 116 149 185 234 287 339
#     4  10  20  38  60  83 113 154 195 234 283 344
#     4  10  19  34  57  84 115 148 190 236 282 339
#     4  10  19  33  50  80 114 152 183 230 275 349
#     4   9  16  29  53  81 113 150 187 228 276 335
#     4   9  19  35  58  88 118 151 191 237 284 336
#     4  11  21  38  57  82 111 147 189 237 289 338
#     4  10  22  40  59  79 108 148 195 239 285 341
#
# _framework density 19.654494
#
# number of rings (size 3 to 8) (size 9 to 14) (size 15 to 20)
#    0.000    2.000    2.500    1.875    0.000    2.000 
#    0.000    3.125    0.000    4.500    0.000    0.000 
#    0.000    0.000    0.000    0.000    0.000    0.000 
#
# Total GULP energy -178269.266336 kJ/mol
# GULP energy per Si atom -5570.914573 kJ/mol
# Density = 1.960976 g / cm^3
# Si number density = 19.654494 Si / 1000 Ang^3
#
#
#
# Elastic Constant Matrix: (Units=GPa)
#
#
# Indices 1 2 3 4 5 6 
#
# 1 64.1505 57.3637 10.0856 0.0000 20.2782 0.0001
# 2 57.3637 123.2351 24.9303 -0.0001 24.9020 0.0003
# 3 10.0856 24.9303 44.2427 -0.0001 18.7547 0.0004
# 4 0.0000 -0.0001 -0.0001 13.4497 0.0000 -58.1207
# 5 20.2782 24.9020 18.7547 0.0000 24.0250 0.0001
# 6 0.0001 0.0003 0.0004 -58.1207 0.0001 763.2634
#
#
#
# Elastic Compliance Matrix: (Units=1/GPa)
#
#
# Indices 1 2 3 4 5 6 
#
# 1 0.031845 -0.012357 0.008472 0.000000 -0.020683 0.000000
# 2 -0.012357 0.015168 -0.005212 0.000000 -0.001223 0.000000
# 3 0.008472 -0.005212 0.036392 0.000000 -0.030158 0.000000
# 4 0.000000 0.000000 0.000000 0.110816 0.000000 0.008438
# 5 -0.020683 -0.001223 -0.030158 0.000000 0.083891 0.000000
# 6 0.000000 0.000000 0.000000 0.008438 0.000000 0.001953
#
#
# Mechanical properties :
#
#
# Convention : Reuss Voigt Hill
#
# Bulk Modulus (GPa) = 15.33507 46.26529 30.80018
# Shear Modulus (GPa) = 15.62522 169.43086 92.52804
#
# Velocity S-wave (km/s) = 2.82262 9.29472 6.86873
# Velocity P-wave (km/s) = 4.29444 11.78047 8.86627
#
# Compressibility (1/GPa) = 0.06521000
#
# Stress axis : x y z
#
# Youngs Moduli (GPa) = 31.40256 65.92723 27.47854
#
# Poissons Ratio (x) = 0.81469 -0.23279
# Poissons Ratio (y) = 0.38806 0.14321
# Poissons Ratio (z) = -0.26603 0.34358
#
# Static dielectric constant tensor:
#      x y z
#    x 1.674090 0.000000 0.003340 
#    y 0.000000 1.691670 0.000000 
#    z 0.003340 0.000000 1.697890 
# 
# From -- ./inp_files/367777.got.cif
#   From: 2010.05.17/outbox.cif.g08.bks.cpg/sg12_184_cif.got.tgz:367777.got - 2010.06.03 13:09:07.
