data_PCOD9182747
_publ_section_title
;
Structure prediction by ZEFSAII (Michael W. Deem and Ramdas Pophale) SiO2 
 PCOD9182747
Probable space group: C 2/M
;
_chemical_formula_sum "Si O2"
_cell_formula_units_Z 40
_cell_length_a 27.837185
_cell_length_b 7.950394
_cell_length_c 11.797278
_cell_angle_alpha 90.000000
_cell_angle_beta 54.049104
_cell_angle_gamma 90.000000
_cell_volume 2113.603904
_symmetry_space_group_name_H-M "C 2/M"
_symmetry_group_IT_number 12
_symmetry_cell_setting 'monoclinic'
loop_
_space_group_symop_operation_xyz
x,y,z
-x,y,-z
-x,-y,-z
x,-y,z
1/2+x,1/2+y,z
1/2-x,1/2+y,-z
1/2-x,1/2-y,-z
1/2+x,1/2-y,z
loop_
_atom_site_type_symbol
_atom_site_label
_atom_site_fract_x
_atom_site_fract_y
_atom_site_fract_z
Si Si1 0.840963 0.702778 0.929045
Si Si2 0.920172 0.196877 0.201518
Si Si3 0.193573 0.202961 0.502805
Si Si4 0.047030 0.696196 0.091374
Si Si5 0.220083 0.202902 0.213648
O O1 0.842024 0.500000 0.936663
O O2 0.903459 0.764511 0.891320
O O3 0.825810 0.749095 0.821376
O O4 0.785006 0.763708 0.082082
O O5 0.866261 0.262254 0.352348
O O6 0.983447 0.215167 0.175857
O O7 0.910232 0.000000 0.190606
O O8 0.926253 0.288113 0.072495
O O9 0.250000 0.250000 0.500000
O O10 0.202590 0.265692 0.362066
O O11 0.189853 0.000000 0.502157
O O12 0.036324 0.500000 0.130279
O O13 0.222892 0.000000 0.214013
#
# Coordination Sequence:
#
# PCOD9182747 Si02
#       5
#     8   8   8   8   8
#     4   9  18  32  51  74  97 125 164 205 243 288
#     4  10  20  33  50  75 103 129 165 206 244 293
#     4  10  21  35  52  75 102 132 163 201 249 296
#     4  10  19  33  53  74  99 132 167 204 248 292
#     4   9  18  33  51  72  99 128 161 201 245 293
#
# _framework density 18.925021999999998
#
# number of rings (size 3 to 8) (size 9 to 14) (size 15 to 20)
#    0.000    2.400    0.000    3.600    0.000    5.600 
#    0.000    5.000    0.000    6.000    0.000    0.000 
#    0.000    0.000    0.000    0.000    0.000    0.000 
#
# Total GULP energy -111608.985718 kJ/mol
# GULP energy per Si atom -5580.449286 kJ/mol
# Density = 1.888195 g / cm^3
# Si number density = 18.925022 Si / 1000 Ang^3
#
#
#
# Elastic Constant Matrix: (Units=GPa)
#
#
# Indices 1 2 3 4 5 6 
#
# 1 143.7188 -13.8463 73.1730 0.0000 -3.3728 0.0000
# 2 -13.8463 14.7124 -4.9006 0.0000 -2.2267 0.0000
# 3 73.1730 -4.9006 137.3386 0.0000 -1.2239 0.0000
# 4 0.0000 0.0000 0.0000 16.6634 0.0000 0.8173
# 5 -3.3728 -2.2267 -1.2239 0.0000 16.4179 0.0000
# 6 0.0000 0.0000 0.0000 0.8173 0.0000 27.9355
#
#
#
# Elastic Compliance Matrix: (Units=1/GPa)
#
#
# Indices 1 2 3 4 5 6 
#
# 1 0.010548 0.008612 -0.005287 0.000000 0.002941 0.000000
# 2 0.008612 0.077337 -0.001720 0.000000 0.012130 0.000000
# 3 -0.005287 -0.001720 0.010031 0.000000 -0.000572 0.000000
# 4 0.000000 0.000000 0.000000 0.060098 0.000000 -0.001758
# 5 0.002941 0.012130 -0.000572 0.000000 0.063116 0.000000
# 6 0.000000 0.000000 0.000000 -0.001758 0.000000 0.035848
#
#
# Mechanical properties :
#
#
# Convention : Reuss Voigt Hill
#
# Bulk Modulus (GPa) = 9.88863 44.95797 27.42330
# Shear Modulus (GPa) = 17.39258 28.29294 22.84276
#
# Velocity S-wave (km/s) = 3.03483 3.87072 3.47798
# Velocity P-wave (km/s) = 4.18531 6.61695 5.53628
#
# Compressibility (1/GPa) = 0.10112626
#
# Stress axis : x y z
#
# Youngs Moduli (GPa) = 94.80178 12.93035 99.68657
#
# Poissons Ratio (x) = -0.11135 0.52700
# Poissons Ratio (y) = -0.81639 0.17151
# Poissons Ratio (z) = 0.50118 0.02225
#
# Static dielectric constant tensor:
#      x y z
#    x 1.644800 0.000000 -0.009770 
#    y 0.000000 1.675080 0.000000 
#    z -0.009770 0.000000 1.648290 
# 
# From -- ./inp_files/162660.got.cif
#   From: 2010.05.17/outbox.cif.g08.bks.cpg/sg12_82_cif.got.tgz:162660.got - 2010.06.03 13:09:07.
