data_PCOD9182574
_publ_section_title
;
Structure prediction by ZEFSAII (Michael W. Deem and Ramdas Pophale) SiO2 
 PCOD9182574
Probable space group: C 2/M
;
_chemical_formula_sum "Si O2"
_cell_formula_units_Z 56
_cell_length_a 30.636192
_cell_length_b 7.480036
_cell_length_c 15.583096
_cell_angle_alpha 90.000000
_cell_angle_beta 133.943005
_cell_angle_gamma 90.000000
_cell_volume 2571.242770
_symmetry_space_group_name_H-M "C 2/M"
_symmetry_group_IT_number 12
_symmetry_cell_setting 'monoclinic'
loop_
_space_group_symop_operation_xyz
x,y,z
-x,y,-z
-x,-y,-z
x,-y,z
1/2+x,1/2+y,z
1/2-x,1/2+y,-z
1/2-x,1/2-y,-z
1/2+x,1/2-y,z
loop_
_atom_site_type_symbol
_atom_site_label
_atom_site_fract_x
_atom_site_fract_y
_atom_site_fract_z
Si Si1 0.898091 0.706753 0.617833
Si Si2 0.351481 0.205277 0.140041
Si Si3 0.749308 0.713411 0.127589
Si Si4 0.441718 0.782734 0.976176
Si Si5 0.717575 0.288608 0.632910
Si Si6 0.664434 0.781182 0.294312
Si Si7 0.033565 0.719510 0.795482
O O1 0.909681 0.500000 0.656169
O O2 0.848871 0.713884 0.475733
O O3 0.865109 0.783177 0.657329
O O4 0.964407 0.779433 0.687039
O O5 0.307322 0.283200 0.152495
O O6 0.416370 0.284103 0.203906
O O7 0.361795 0.000000 0.180091
O O8 0.310772 0.208609 0.998009
O O9 0.745552 0.500000 0.110239
O O10 0.758115 0.752826 0.238908
O O11 0.380692 0.728564 0.844257
O O12 0.442393 0.000000 0.977390
O O13 0.500000 0.725816 0.000000
O O14 0.447851 0.725874 0.082753
O O15 0.712641 0.500000 0.614860
O O16 0.767822 0.218798 0.634341
O O17 0.666421 0.000000 0.298645
O O18 0.036025 0.500000 0.796088
#
# Coordination Sequence:
#
# PCOD9182574 Si02
#       7
#     8   8   8   8   8   8   8
#     4  10  19  33  52  75 103 135 174 214 253 301
#     4   9  18  34  57  83 106 129 161 207 260 308
#     4  10  20  35  55  79 105 132 167 210 255 303
#     4   9  13  21  41  72 103 125 152 196 246 296
#     4  11  22  35  51  72 102 139 177 214 254 298
#     4   9  17  29  48  75 102 132 169 211 256 302
#     4   9  16  28  50  78 106 134 165 205 254 304
#
# _framework density 21.779351999999999
#
# number of rings (size 3 to 8) (size 9 to 14) (size 15 to 20)
#    0.000    2.429    1.429    2.143    0.000    2.857 
#    0.000    2.143    0.000    4.286    0.000    2.000 
#    0.000    0.000    0.000    0.000    0.000    0.000 
#
# Total GULP energy -156365.363710 kJ/mol
# GULP energy per Si atom -5584.477275 kJ/mol
# Density = 2.172978 g / cm^3
# Si number density = 21.779352 Si / 1000 Ang^3
#
#
#
# Elastic Constant Matrix: (Units=GPa)
#
#
# Indices 1 2 3 4 5 6 
#
# 1 138.4407 2.6531 31.0351 0.0000 28.1307 0.0000
# 2 2.6531 66.5710 -11.9109 0.0000 3.3604 0.0000
# 3 31.0351 -11.9109 52.4375 0.0000 14.9928 0.0000
# 4 0.0000 0.0000 0.0000 28.6470 0.0000 -5.8268
# 5 28.1307 3.3604 14.9928 0.0000 26.1520 0.0000
# 6 0.0000 0.0000 0.0000 -5.8268 0.0000 4.5278
#
#
#
# Elastic Compliance Matrix: (Units=1/GPa)
#
#
# Indices 1 2 3 4 5 6 
#
# 1 0.009720 -0.000589 -0.003491 0.000000 -0.008378 0.000000
# 2 -0.000589 0.016224 0.005321 0.000000 -0.004502 0.000000
# 3 -0.003491 0.005321 0.025675 0.000000 -0.011648 0.000000
# 4 0.000000 0.000000 0.000000 0.047285 0.000000 0.060851
# 5 -0.008378 -0.004502 -0.011648 0.000000 0.054506 0.000000
# 6 0.000000 0.000000 0.000000 0.060851 0.000000 0.299168
#
#
# Mechanical properties :
#
#
# Convention : Reuss Voigt Hill
#
# Bulk Modulus (GPa) = 18.48384 33.44488 25.96436
# Shear Modulus (GPa) = 10.68079 27.57680 19.12880
#
# Velocity S-wave (km/s) = 2.21692 3.56222 2.96683
# Velocity P-wave (km/s) = 3.88050 5.68408 4.86657
#
# Compressibility (1/GPa) = 0.05410130
#
# Stress axis : x y z
#
# Youngs Moduli (GPa) = 102.88551 61.63598 38.94768
#
# Poissons Ratio (x) = 0.03631 0.13596
# Poissons Ratio (y) = 0.06061 -0.20724
# Poissons Ratio (z) = 0.35916 -0.32796
#
# Static dielectric constant tensor:
#      x y z
#    x 1.808250 0.000000 0.018390 
#    y 0.000000 1.864710 0.000000 
#    z 0.018390 0.000000 1.752980 
# 
# From -- ./inp_files/237875.got.cif
#   From: 2010.05.17/outbox.cif.g08.bks.cpg/sg12_119_cif.got.tgz:237875.got - 2010.06.03 13:09:07.
