data_PCOD9182763
_publ_section_title
;
Structure prediction by ZEFSAII (Michael W. Deem and Ramdas Pophale) SiO2 
 PCOD9182763
Probable space group: C 2/M
;
_chemical_formula_sum "Si O2"
_cell_formula_units_Z 56
_cell_length_a 19.180015
_cell_length_b 9.208854
_cell_length_c 31.419196
_cell_angle_alpha 90.000000
_cell_angle_beta 147.244401
_cell_angle_gamma 90.000000
_cell_volume 3002.564472
_symmetry_space_group_name_H-M "C 2/M"
_symmetry_group_IT_number 12
_symmetry_cell_setting 'monoclinic'
loop_
_space_group_symop_operation_xyz
x,y,z
-x,y,-z
-x,-y,-z
x,-y,z
1/2+x,1/2+y,z
1/2-x,1/2+y,-z
1/2-x,1/2-y,-z
1/2+x,1/2-y,z
loop_
_atom_site_type_symbol
_atom_site_label
_atom_site_fract_x
_atom_site_fract_y
_atom_site_fract_z
Si Si1 0.955962 0.171246 0.877691
Si Si2 0.226389 0.165999 0.061144
Si Si3 0.823271 0.325000 0.497742
Si Si4 0.019101 0.667401 0.194193
Si Si5 0.796653 0.172217 0.657275
Si Si6 0.858075 0.663669 0.905361
Si Si7 0.562562 0.332547 0.579404
O O1 0.927541 0.256151 0.820275
O O2 0.868313 0.231630 0.870551
O O3 0.941699 0.000000 0.864543
O O4 0.104273 0.200101 0.968697
O O5 0.364689 0.172565 0.110671
O O6 0.229506 0.272383 0.102697
O O7 0.204348 0.000000 0.064966
O O8 0.835637 0.500000 0.510405
O O9 0.750000 0.250000 0.500000
O O10 0.744684 0.302276 0.412969
O O11 0.962066 0.250403 0.558718
O O12 0.058269 0.500000 0.217311
O O13 0.069918 0.753004 0.261271
O O14 0.692482 0.244270 0.635925
O O15 0.800144 0.000000 0.665720
O O16 0.825168 0.500000 0.876105
O O17 0.000000 0.662077 0.000000
O O18 0.500000 0.338028 0.500000
O O19 0.584048 0.500000 0.604024
#
# Coordination Sequence:
#
# PCOD9182763 Si02
#       7
#     8   8   8   8   8   8   8
#     4  10  19  33  53  75 102 137 179 224 270 322
#     4   9  19  34  52  75 103 138 179 224 273 321
#     4  10  20  35  58  86 113 140 175 218 261 312
#     4  11  22  35  52  76 107 140 177 222 268 315
#     4  10  21  37  55  78 109 143 177 214 262 316
#     4   9  17  30  50  74  98 126 166 217 267 316
#     4   9  17  32  56  82 107 137 172 209 252 305
#
# _framework density 18.650724
#
# number of rings (size 3 to 8) (size 9 to 14) (size 15 to 20)
#    0.000    2.286    0.000    3.000    0.000    6.857 
#    0.000    1.429    0.000    3.429    0.000    0.000 
#    0.000    0.000    0.000    0.000    0.000    0.000 
#
# Total GULP energy -156117.679149 kJ/mol
# GULP energy per Si atom -5575.631398 kJ/mol
# Density = 1.860827 g / cm^3
# Si number density = 18.650724 Si / 1000 Ang^3
#
#
#
# Elastic Constant Matrix: (Units=GPa)
#
#
# Indices 1 2 3 4 5 6 
#
# 1 92.0585 59.9813 12.9241 0.0000 -13.9884 0.0000
# 2 59.9813 121.0241 39.9014 0.0000 -13.1684 0.0000
# 3 12.9241 39.9014 42.8657 0.0000 -7.7705 0.0000
# 4 0.0000 0.0000 0.0000 24.8332 0.0000 -2.0883
# 5 -13.9884 -13.1684 -7.7705 0.0000 15.8473 0.0000
# 6 0.0000 0.0000 0.0000 -2.0883 0.0000 32.6877
#
#
#
# Elastic Compliance Matrix: (Units=1/GPa)
#
#
# Indices 1 2 3 4 5 6 
#
# 1 0.017891 -0.009482 0.005342 0.000000 0.010533 0.000000
# 2 -0.009482 0.017304 -0.013346 0.000000 -0.000535 0.000000
# 3 0.005342 -0.013346 0.036203 0.000000 0.011377 0.000000
# 4 0.000000 0.000000 0.000000 0.040486 0.000000 0.002587
# 5 0.010533 -0.000535 0.011377 0.000000 0.077534 0.000000
# 6 0.000000 0.000000 0.000000 0.002587 0.000000 0.030758
#
#
# Mechanical properties :
#
#
# Convention : Reuss Voigt Hill
#
# Bulk Modulus (GPa) = 27.45270 53.50687 40.47979
# Shear Modulus (GPa) = 18.70618 24.21642 21.46130
#
# Velocity S-wave (km/s) = 3.17041 3.60726 3.39587
# Velocity P-wave (km/s) = 5.30597 6.78977 6.09321
#
# Compressibility (1/GPa) = 0.03642628
#
# Stress axis : x y z
#
# Youngs Moduli (GPa) = 55.89255 57.78936 27.62181
#
# Poissons Ratio (x) = 0.54798 -0.14754
# Poissons Ratio (y) = 0.52999 0.36863
# Poissons Ratio (z) = -0.29856 0.77123
#
# Static dielectric constant tensor:
#      x y z
#    x 1.627010 0.000000 0.016820 
#    y 0.000000 1.634240 0.000000 
#    z 0.016820 0.000000 1.675240 
# 
# From -- ./inp_files/275696.got.cif
#   From: 2010.05.17/outbox.cif.g08.bks.cpg/sg12_138_cif.got.tgz:275696.got - 2010.06.03 13:09:07.
