data_PCOD9182317
_publ_section_title
;
Structure prediction by ZEFSAII (Michael W. Deem and Ramdas Pophale) SiO2 
 PCOD9182317
Probable space group: C 2/M
;
_chemical_formula_sum "Si O2"
_cell_formula_units_Z 64
_cell_length_a 18.610624
_cell_length_b 22.869275
_cell_length_c 16.221686
_cell_angle_alpha 90.000000
_cell_angle_beta 153.770604
_cell_angle_gamma 90.000000
_cell_volume 3051.394226
_symmetry_space_group_name_H-M "C 2/M"
_symmetry_group_IT_number 12
_symmetry_cell_setting 'monoclinic'
loop_
_space_group_symop_operation_xyz
x,y,z
-x,y,-z
-x,-y,-z
x,-y,z
1/2+x,1/2+y,z
1/2-x,1/2+y,-z
1/2-x,1/2-y,-z
1/2+x,1/2-y,z
loop_
_atom_site_type_symbol
_atom_site_label
_atom_site_fract_x
_atom_site_fract_y
_atom_site_fract_z
Si Si1 0.457842 0.434304 0.175394
Si Si2 0.472882 0.326484 0.065266
Si Si3 0.726227 0.738114 0.594370
Si Si4 0.634618 0.389513 0.750670
Si Si5 0.275959 0.228055 0.934322
Si Si6 0.269043 0.382688 0.321447
Si Si7 0.073429 0.320340 0.328629
Si Si8 0.664724 0.064937 0.378641
O O1 0.420137 0.500000 0.106022
O O2 0.448889 0.381043 0.101576
O O3 0.348477 0.419437 0.143357
O O4 0.645807 0.435318 0.399267
O O5 0.630459 0.285710 0.246677
O O6 0.500000 0.346459 0.000000
O O7 0.322120 0.281702 0.923232
O O8 0.730409 0.688590 0.669336
O O9 0.761098 0.697193 0.549965
O O10 0.574302 0.778637 0.409400
O O11 0.645938 0.319596 0.774596
O O12 0.451564 0.402122 0.533301
O O13 0.753312 0.401862 0.796045
O O14 0.250000 0.250000 0.000000
O O15 0.440191 0.191289 0.121696
O O16 0.158778 0.411444 0.278348
O O17 0.077875 0.388615 0.348599
O O18 0.599803 0.000000 0.317261
#
# Coordination Sequence:
#
# PCOD9182317 Si02
#       8
#     8   8   8   8   8   8   8   8
#     4  10  20  35  53  72 100 138 178 216 251 298
#     4  11  21  33  53  79 104 131 169 219 265 303
#     4   9  16  30  48  74 100 126 171 209 262 305
#     4  10  19  33  48  77 107 134 169 202 259 315
#     4  11  20  32  53  78 107 134 165 205 262 321
#     4   9  18  30  52  75 104 136 164 210 256 308
#     4   9  17  28  51  73  97 136 168 211 251 301
#     4   9  17  32  52  74  98 132 180 216 245 293
#
# _framework density 20.974018999999998
#
# number of rings (size 3 to 8) (size 9 to 14) (size 15 to 20)
#    0.000    2.250    2.500    1.500    3.500    0.750 
#    0.000    3.125    0.000    0.750    0.000    0.000 
#    0.000    3.000    0.000    0.000    0.000    0.000 
#
# Total GULP energy -178193.990301 kJ/mol
# GULP energy per Si atom -5568.562197 kJ/mol
# Density = 2.092628 g / cm^3
# Si number density = 20.974019 Si / 1000 Ang^3
#
#
#
# Elastic Constant Matrix: (Units=GPa)
#
#
# Indices 1 2 3 4 5 6 
#
# 1 47.0961 12.6555 0.7998 0.0000 -16.7722 0.0000
# 2 12.6555 126.1380 5.5350 0.0000 -6.5570 0.0000
# 3 0.7998 5.5350 22.1183 0.0000 -6.2638 0.0000
# 4 0.0000 0.0000 0.0000 15.0166 0.0000 3.8637
# 5 -16.7722 -6.5570 -6.2638 0.0000 15.8522 0.0000
# 6 0.0000 0.0000 0.0000 3.8637 0.0000 18.5823
#
#
#
# Elastic Compliance Matrix: (Units=1/GPa)
#
#
# Indices 1 2 3 4 5 6 
#
# 1 0.036673 -0.001965 0.011174 0.000000 0.042403 0.000000
# 2 -0.001965 0.008236 -0.001818 0.000000 0.000609 0.000000
# 3 0.011174 -0.001818 0.054495 0.000000 0.032604 0.000000
# 4 0.000000 0.000000 0.000000 0.070357 0.000000 -0.014629
# 5 0.042403 0.000609 0.032604 0.000000 0.121082 0.000000
# 6 0.000000 0.000000 0.000000 -0.014629 0.000000 0.056856
#
#
# Mechanical properties :
#
#
# Convention : Reuss Voigt Hill
#
# Bulk Modulus (GPa) = 8.75761 25.92591 17.34176
# Shear Modulus (GPa) = 13.47782 21.64768 17.56275
#
# Velocity S-wave (km/s) = 2.53770 3.21615 2.89685
# Velocity P-wave (km/s) = 3.57366 5.11657 4.41307
#
# Compressibility (1/GPa) = 0.11418641
#
# Stress axis : x y z
#
# Youngs Moduli (GPa) = 27.26838 121.41165 18.35018
#
# Poissons Ratio (x) = 0.23863 -0.20505
# Poissons Ratio (y) = 0.05360 0.03335
# Poissons Ratio (z) = -0.30470 0.22067
#
# Static dielectric constant tensor:
#      x y z
#    x 1.831320 0.000000 0.046100 
#    y 0.000000 1.801460 0.000000 
#    z 0.046100 0.000000 1.875970 
# 
# From -- ./inp_files/285775.got.cif
#   From: 2010.05.17/outbox.cif.g08.bks.cpg/sg12_143_cif.got.tgz:285775.got - 2010.06.03 13:09:07.
