data_PCOD9182673
_publ_section_title
;
Structure prediction by ZEFSAII (Michael W. Deem and Ramdas Pophale) SiO2 
 PCOD9182673
Probable space group: C 2/M
;
_chemical_formula_sum "Si O2"
_cell_formula_units_Z 56
_cell_length_a 20.687258
_cell_length_b 18.079475
_cell_length_c 17.441539
_cell_angle_alpha 90.000000
_cell_angle_beta 30.652742
_cell_angle_gamma 90.000000
_cell_volume 3325.844537
_symmetry_space_group_name_H-M "C 2/M"
_symmetry_group_IT_number 12
_symmetry_cell_setting 'monoclinic'
loop_
_space_group_symop_operation_xyz
x,y,z
-x,y,-z
-x,-y,-z
x,-y,z
1/2+x,1/2+y,z
1/2-x,1/2+y,-z
1/2-x,1/2-y,-z
1/2+x,1/2-y,z
loop_
_atom_site_type_symbol
_atom_site_label
_atom_site_fract_x
_atom_site_fract_y
_atom_site_fract_z
Si Si1 0.223757 0.709013 0.646995
Si Si2 0.520286 0.915775 0.887889
Si Si3 0.559638 0.292058 0.690806
Si Si4 0.237160 0.083893 0.163728
Si Si5 0.646972 0.584606 0.084062
Si Si6 0.163737 0.297510 0.146530
Si Si7 0.646545 0.727252 0.330847
O O1 0.131142 0.640031 0.755085
O O2 0.348396 0.684673 0.472614
O O3 0.146254 0.764893 0.672158
O O4 0.267488 0.744174 0.682971
O O5 0.546617 0.000000 0.836269
O O6 0.500000 0.915430 0.000000
O O7 0.382024 0.892510 0.997820
O O8 0.467275 0.357798 0.812618
O O9 0.475713 0.223885 0.742149
O O10 0.163254 0.084037 0.159485
O O11 0.173368 0.140940 0.285926
O O12 0.243708 0.000000 0.187390
O O13 0.627318 0.500000 0.078641
O O14 0.776968 0.620811 0.919196
O O15 0.177031 0.268349 0.219938
O O16 0.250000 0.250000 0.000000
O O17 0.500000 0.739714 0.500000
#
# Coordination Sequence:
#
# PCOD9182673 Si02
#       7
#     8   8   8   8   8   8   8
#     4  11  22  33  55  79 111 151 184 223 282 316
#     4  10  20  31  46  74 113 148 179 213 256 328
#     4  10  21  37  53  83 111 143 187 231 268 331
#     4  10  19  33  52  81 116 148 182 215 264 338
#     4  10  20  36  59  81 108 146 182 224 279 328
#     4  10  19  36  58  79 112 141 180 233 264 322
#     4  12  21  35  55  84 110 145 187 230 278 329
#
# _framework density 16.837827999999998
#
# number of rings (size 3 to 8) (size 9 to 14) (size 15 to 20)
#    0.000    1.571    5.714    0.857    2.000    0.857 
#    0.000    0.000    0.000    3.000    0.000    0.000 
#    0.000    0.000    0.000    0.000    0.000    0.000 
#
# Total GULP energy -156078.218564 kJ/mol
# GULP energy per Si atom -5574.222092 kJ/mol
# Density = 1.679950 g / cm^3
# Si number density = 16.837828 Si / 1000 Ang^3
#
#
#
# Elastic Constant Matrix: (Units=GPa)
#
#
# Indices 1 2 3 4 5 6 
#
# 1 98.0864 15.5396 19.6280 0.0001 4.5623 -0.0001
# 2 15.5396 70.8430 29.6169 0.0001 -0.2610 -0.0001
# 3 19.6280 29.6169 74.8429 0.0001 1.8366 -0.0002
# 4 0.0001 0.0001 0.0001 14.1128 -0.0001 -5.3917
# 5 4.5623 -0.2610 1.8366 -0.0001 26.9198 0.0001
# 6 -0.0001 -0.0001 -0.0002 -5.3917 0.0001 17.1740
#
#
#
# Elastic Compliance Matrix: (Units=1/GPa)
#
#
# Indices 1 2 3 4 5 6 
#
# 1 0.010958 -0.001469 -0.002250 0.000000 -0.001718 0.000000
# 2 -0.001469 0.017121 -0.006411 0.000000 0.000852 0.000000
# 3 -0.002250 -0.006411 0.016508 0.000000 -0.000807 0.000000
# 4 0.000000 0.000000 0.000000 0.080515 0.000000 0.025277
# 5 -0.001718 0.000852 -0.000807 0.000000 0.037502 0.000000
# 6 0.000000 0.000000 0.000000 0.025277 0.000000 0.066163
#
#
# Mechanical properties :
#
#
# Convention : Reuss Voigt Hill
#
# Bulk Modulus (GPa) = 41.10686 41.48233 41.29460
# Shear Modulus (GPa) = 19.44488 23.57385 21.50937
#
# Velocity S-wave (km/s) = 3.40197 3.74579 3.57801
# Velocity P-wave (km/s) = 6.31645 6.58770 6.45350
#
# Compressibility (1/GPa) = 0.02432684
#
# Stress axis : x y z
#
# Youngs Moduli (GPa) = 91.25701 58.40680 60.57605
#
# Poissons Ratio (x) = 0.08581 0.13631
# Poissons Ratio (y) = 0.13408 0.38834
# Poissons Ratio (z) = 0.20535 0.37444
#
# Static dielectric constant tensor:
#      x y z
#    x 1.606100 0.000000 -0.021720 
#    y 0.000000 1.584500 0.000000 
#    z -0.021720 0.000000 1.579710 
# 
# From -- ./inp_files/284980.got.cif
#   From: 2010.05.17/outbox.cif.g08.bks.cpg/sg12_143_cif.got.tgz:284980.got - 2010.06.03 13:09:07.
