data_PCOD9182032
_publ_section_title
;
Structure prediction by ZEFSAII (Michael W. Deem and Ramdas Pophale) SiO2 
 PCOD9182032
Probable space group: C 2/M
;
_chemical_formula_sum "Si O2"
_cell_formula_units_Z 44
_cell_length_a 24.636947
_cell_length_b 9.760142
_cell_length_c 9.417021
_cell_angle_alpha 90.000000
_cell_angle_beta 123.876538
_cell_angle_gamma 90.000000
_cell_volume 1880.011625
_symmetry_space_group_name_H-M "C 2/M"
_symmetry_group_IT_number 12
_symmetry_cell_setting 'monoclinic'
loop_
_space_group_symop_operation_xyz
x,y,z
-x,y,-z
-x,-y,-z
x,-y,z
1/2+x,1/2+y,z
1/2-x,1/2+y,-z
1/2-x,1/2-y,-z
1/2+x,1/2-y,z
loop_
_atom_site_type_symbol
_atom_site_label
_atom_site_fract_x
_atom_site_fract_y
_atom_site_fract_z
Si Si1 0.948815 0.843658 0.292199
Si Si2 0.365861 0.149403 0.345651
Si Si3 0.961849 0.343410 0.755940
Si Si4 0.775578 0.156749 0.910409
Si Si5 0.840579 0.251185 0.738487
Si Si6 0.241317 0.000000 0.511249
O O1 0.886109 0.769405 0.269059
O O2 0.000000 0.844381 0.500000
O O3 0.981024 0.754136 0.215966
O O4 0.937469 0.000000 0.234322
O O5 0.411880 0.153320 0.548399
O O6 0.290708 0.153444 0.283489
O O7 0.375695 0.000000 0.288888
O O8 0.982762 0.500000 0.811963
O O9 0.915624 0.284557 0.810866
O O10 0.830604 0.215624 0.889884
O O11 0.787321 0.000000 0.971281
O O12 0.750000 0.250000 0.000000
O O13 0.812633 0.120572 0.612018
O O14 0.795207 0.380729 0.635146
#
# Coordination Sequence:
#
# PCOD9182032 Si02
#       6
#     8   8   8   8   8   4
#     4   9  18  31  48  81 114 143 181 226 284 340
#     4   9  18  35  55  76 110 150 187 228 275 336
#     4  10  19  32  55  83 114 148 181 228 289 343
#     4  11  25  41  57  80 114 157 200 232 273 335
#     4  11  21  36  54  86 115 148 186 239 285 345
#     4  10  20  32  56  82 116 142 180 230 296 338
#
# _framework density 23.404112000000001
#
# number of rings (size 3 to 8) (size 9 to 14) (size 15 to 20)
#    0.000    2.000    1.818    2.727    5.091    2.909 
#    6.545    0.000    0.000    1.091    0.000    6.364 
#    0.000    0.000    0.000    0.000    0.000    0.000 
#
# Total GULP energy -122527.097162 kJ/mol
# GULP energy per Si atom -5569.413507 kJ/mol
# Density = 2.335084 g / cm^3
# Si number density = 23.404112 Si / 1000 Ang^3
#
#
#
# Elastic Constant Matrix: (Units=GPa)
#
#
# Indices 1 2 3 4 5 6 
#
# 1 160.5000 84.6733 17.9562 0.0000 -20.0161 0.0000
# 2 84.6733 232.3089 26.7062 0.0000 -29.0473 0.0000
# 3 17.9562 26.7062 55.9401 0.0000 -6.4331 0.0000
# 4 0.0000 0.0000 0.0000 4.6723 0.0000 7.1924
# 5 -20.0161 -29.0473 -6.4331 0.0000 38.2344 0.0000
# 6 0.0000 0.0000 0.0000 7.1924 0.0000 24.8625
#
#
#
# Elastic Compliance Matrix: (Units=1/GPa)
#
#
# Indices 1 2 3 4 5 6 
#
# 1 0.007934 -0.002506 -0.001113 0.000000 0.002063 0.000000
# 2 -0.002506 0.005753 -0.001622 0.000000 0.002786 0.000000
# 3 -0.001113 -0.001622 0.019170 0.000000 0.001411 0.000000
# 4 0.000000 0.000000 0.000000 0.385854 0.000000 -0.111622
# 5 0.002063 0.002786 0.001411 0.000000 0.029588 0.000000
# 6 0.000000 0.000000 0.000000 -0.111622 0.000000 0.072512
#
#
# Mechanical properties :
#
#
# Convention : Reuss Voigt Hill
#
# Bulk Modulus (GPa) = 44.69224 78.60226 61.64725
# Shear Modulus (GPa) = 9.28072 34.84806 22.06439
#
# Velocity S-wave (km/s) = 1.99350 3.86291 3.07377
# Velocity P-wave (km/s) = 4.94328 7.31804 6.24459
#
# Compressibility (1/GPa) = 0.02237525
#
# Stress axis : x y z
#
# Youngs Moduli (GPa) = 126.03324 173.82869 52.16478
#
# Poissons Ratio (x) = 0.43563 0.05807
# Poissons Ratio (y) = 0.31585 0.08459
# Poissons Ratio (z) = 0.14031 0.28189
#
# Static dielectric constant tensor:
#      x y z
#    x 1.847980 0.000000 0.005590 
#    y 0.000000 1.828040 0.000000 
#    z 0.005590 0.000000 1.993150 
# 
# From -- ./inp_files/172488.got.cif
#   From: 2010.05.17/outbox.cif.g08.bks.cpg/sg12_87_cif.got.tgz:172488.got - 2010.06.03 13:09:07.
