data_PCOD9182682
_publ_section_title
;
Structure prediction by ZEFSAII (Michael W. Deem and Ramdas Pophale) SiO2 
 PCOD9182682
Probable space group: C 2/M
;
_chemical_formula_sum "Si O2"
_cell_formula_units_Z 64
_cell_length_a 24.127498
_cell_length_b 27.815689
_cell_length_c 9.099987
_cell_angle_alpha 90.000000
_cell_angle_beta 31.142097
_cell_angle_gamma 90.000000
_cell_volume 3158.419072
_symmetry_space_group_name_H-M "C 2/M"
_symmetry_group_IT_number 12
_symmetry_cell_setting 'monoclinic'
loop_
_space_group_symop_operation_xyz
x,y,z
-x,y,-z
-x,-y,-z
x,-y,z
1/2+x,1/2+y,z
1/2-x,1/2+y,-z
1/2-x,1/2-y,-z
1/2+x,1/2-y,z
loop_
_atom_site_type_symbol
_atom_site_label
_atom_site_fract_x
_atom_site_fract_y
_atom_site_fract_z
Si Si1 0.119070 0.778878 0.737471
Si Si2 0.217257 0.352592 0.187657
Si Si3 0.274578 0.903112 0.295891
Si Si4 0.405064 0.448309 0.100327
Si Si5 0.326133 0.824571 0.395340
Si Si6 0.330120 0.320816 0.663120
Si Si7 0.128139 0.555073 0.214845
Si Si8 0.542540 0.372346 0.260511
O O1 0.200884 0.808922 0.651499
O O2 0.114513 0.723444 0.794033
O O3 0.166388 0.778803 0.464281
O O4 0.000000 0.799980 0.000000
O O5 0.154606 0.336780 0.477064
O O6 0.175195 0.403175 0.215141
O O7 0.239527 0.318201 0.995123
O O8 0.338504 0.356675 0.969949
O O9 0.201131 0.933754 0.571013
O O10 0.345254 0.869012 0.242155
O O11 0.200945 0.866983 0.366227
O O12 0.332683 0.934090 0.040136
O O13 0.389453 0.500000 0.060986
O O14 0.500000 0.452428 0.000000
O O15 0.443158 0.407038 0.906783
O O16 0.451223 0.331713 0.443673
O O17 0.157277 0.500000 0.190497
O O18 0.000000 0.559092 0.500000
O O19 0.500000 0.400481 0.500000
#
# Coordination Sequence:
#
# PCOD9182682 Si02
#       8
#     8   8   8   8   8   8   8   8
#     4  10  21  35  56  83 117 152 186 236 278 352
#     4  10  20  36  59  84 112 146 189 242 282 337
#     4  10  19  37  60  79 114 156 188 233 285 345
#     4  11  21  31  51  85 117 152 190 223 277 360
#     4  10  21  36  58  88 113 143 194 238 290 335
#     4   9  19  33  56  81 113 158 185 210 289 357
#     4  10  23  43  62  80 106 152 204 242 285 340
#     4  10  19  33  52  82 117 153 181 221 286 350
#
# _framework density 20.263301999999999
#
# number of rings (size 3 to 8) (size 9 to 14) (size 15 to 20)
#    0.000    2.000    2.500    1.125    1.750    2.250 
#    0.000    0.000    0.000    3.750    0.000    0.000 
#    0.000    0.000    0.000    0.000    0.000    0.000 
#
# Total GULP energy -178252.668186 kJ/mol
# GULP energy per Si atom -5570.395881 kJ/mol
# Density = 2.021718 g / cm^3
# Si number density = 20.263302 Si / 1000 Ang^3
#
#
#
# Elastic Constant Matrix: (Units=GPa)
#
#
# Indices 1 2 3 4 5 6 
#
# 1 66.3595 17.4600 18.9145 0.0000 19.9245 0.0000
# 2 17.4600 52.2769 1.6948 0.0000 8.4607 0.0000
# 3 18.9145 1.6948 45.5327 0.0000 10.0366 -0.0003
# 4 0.0000 0.0000 0.0000 -2.0927 -0.0001 -9.4893
# 5 19.9245 8.4607 10.0366 -0.0001 31.1187 0.0002
# 6 0.0000 0.0000 -0.0003 -9.4893 0.0002 -5.5089
#
#
#
# Elastic Compliance Matrix: (Units=1/GPa)
#
#
# Indices 1 2 3 4 5 6 
#
# 1 0.021339 -0.005275 -0.006430 0.000000 -0.010155 0.000000
# 2 -0.005275 0.021324 0.002079 0.000000 -0.003090 0.000000
# 3 -0.006430 0.002079 0.025592 -0.000001 -0.004703 0.000000
# 4 0.000000 0.000000 -0.000001 0.070160 0.000001 -0.120854
# 5 -0.010155 -0.003090 -0.004703 0.000001 0.040994 -0.000001
# 6 0.000000 0.000000 0.000000 -0.120854 -0.000001 0.026652
#
#
# Mechanical properties :
#
#
# Convention : Reuss Voigt Hill
#
# Bulk Modulus (GPa) = 20.40681 26.70084 23.55383
# Shear Modulus (GPa) = 20.69131 13.11009 16.90070
#
# Velocity S-wave (km/s) = 3.19897 2.54635 2.89113
# Velocity P-wave (km/s) = 4.87208 4.67448 4.77431
#
# Compressibility (1/GPa) = 0.04900324
#
# Stress axis : x y z
#
# Youngs Moduli (GPa) = 46.86250 46.89656 39.07418
#
# Poissons Ratio (x) = 0.24738 0.25123
# Poissons Ratio (y) = 0.24720 -0.08123
# Poissons Ratio (z) = 0.30131 -0.09749
#
# Static dielectric constant tensor:
#      x y z
#    x 1.794750 0.000000 0.043680 
#    y 0.000000 1.747440 0.000000 
#    z 0.043680 0.000000 1.795930 
# 
# From -- ./inp_files/66915.got.cif
#   From: 2010.05.17/outbox.cif.g08.bks.cpg/sg12_34_cif.got.tgz:66915.got - 2010.06.03 13:09:07.
