data_PCOD9182692
_publ_section_title
;
Structure prediction by ZEFSAII (Michael W. Deem and Ramdas Pophale) SiO2 
 PCOD9182692
Probable space group: C 2/M
;
_chemical_formula_sum "Si O2"
_cell_formula_units_Z 42
_cell_length_a 21.713480
_cell_length_b 14.144752
_cell_length_c 18.747397
_cell_angle_alpha 90.000000
_cell_angle_beta 160.438833
_cell_angle_gamma 90.000000
_cell_volume 1927.827004
_symmetry_space_group_name_H-M "C 2/M"
_symmetry_group_IT_number 12
_symmetry_cell_setting 'monoclinic'
loop_
_space_group_symop_operation_xyz
x,y,z
-x,y,-z
-x,-y,-z
x,-y,z
1/2+x,1/2+y,z
1/2-x,1/2+y,-z
1/2-x,1/2-y,-z
1/2+x,1/2-y,z
loop_
_atom_site_type_symbol
_atom_site_label
_atom_site_fract_x
_atom_site_fract_y
_atom_site_fract_z
Si Si1 0.122947 0.386108 0.857852
Si Si2 0.400039 0.897085 0.753052
Si Si3 0.783340 0.289946 0.420138
Si Si4 0.000000 0.500000 0.000000
Si Si5 0.950204 0.887709 0.123622
Si Si6 0.780476 0.389705 0.271539
O O1 0.107420 0.500000 0.828356
O O2 0.050266 0.367785 0.858211
O O3 0.981937 0.331847 0.653193
O O4 0.328905 0.359990 0.059775
O O5 0.245041 0.820567 0.599085
O O6 0.321888 0.000000 0.644677
O O7 0.497190 0.919480 0.933749
O O8 0.728215 0.324419 0.281077
O O9 0.642780 0.337281 0.322806
O O10 0.826644 0.867317 0.918235
O O11 0.979062 0.000000 0.156268
O O12 0.741261 0.500000 0.247069
O O13 0.000000 0.381789 0.500000
#
# Coordination Sequence:
#
# PCOD9182692 Si02
#       6
#     8   8   8   2   8   8
#     4  10  20  39  59  90 126 157 187 251 315 363
#     4   9  22  39  62  84 115 158 213 257 299 345
#     4  12  21  34  63  89 117 160 203 248 298 366
#     4   8  20  44  60  84 108 162 216 250 292 348
#     4  10  21  33  54  90 125 154 196 233 307 375
#     4  10  19  33  52  85 123 160 185 233 298 371
#
# _framework density 21.786187000000002
#
# number of rings (size 3 to 8) (size 9 to 14) (size 15 to 20)
#    0.571    1.333    1.905    2.857    2.667    2.286 
#    0.000    0.000    0.000    1.714    0.000    0.000 
#    0.000    0.000    0.000    0.000    0.000    0.000 
#
# Total GULP energy -117115.083466 kJ/mol
# GULP energy per Si atom -5576.908736 kJ/mol
# Density = 2.173660 g / cm^3
# Si number density = 21.786187 Si / 1000 Ang^3
#
#
#
# Elastic Constant Matrix: (Units=GPa)
#
#
# Indices 1 2 3 4 5 6 
#
# 1 114.1790 39.3540 18.7651 0.0116 -7.4302 0.0048
# 2 39.3540 60.4465 7.7813 0.0280 15.8225 0.0155
# 3 18.7651 7.7813 44.2842 0.0316 12.5583 0.0167
# 4 0.0116 0.0280 0.0316 12.3040 0.0092 10.1886
# 5 -7.4302 15.8225 12.5583 0.0092 39.8957 0.0039
# 6 0.0048 0.0155 0.0167 10.1886 0.0039 18.6621
#
#
#
# Elastic Compliance Matrix: (Units=1/GPa)
#
#
# Indices 1 2 3 4 5 6 
#
# 1 0.014113 -0.010677 -0.006643 0.000025 0.008954 -0.000004
# 2 -0.010677 0.026604 0.003739 -0.000061 -0.013716 0.000013
# 3 -0.006643 0.003739 0.028011 -0.000083 -0.011538 0.000021
# 4 0.000025 -0.000061 -0.000083 0.148333 0.000029 -0.080982
# 5 0.008954 -0.013716 -0.011538 0.000029 0.035805 -0.000004
# 6 -0.000004 0.000013 0.000021 -0.080982 -0.000004 0.097796
#
#
# Mechanical properties :
#
#
# Convention : Reuss Voigt Hill
#
# Bulk Modulus (GPa) = 24.05780 38.96783 31.51282
# Shear Modulus (GPa) = 12.76557 24.37299 18.56928
#
# Velocity S-wave (km/s) = 2.42326 3.34838 2.92266
# Velocity P-wave (km/s) = 4.34698 5.73360 5.08775
#
# Compressibility (1/GPa) = 0.04156656
#
# Stress axis : x y z
#
# Youngs Moduli (GPa) = 70.85877 37.58867 35.69980
#
# Poissons Ratio (x) = 0.40132 0.23716
# Poissons Ratio (y) = 0.75654 -0.13349
# Poissons Ratio (z) = 0.47073 -0.14056
#
# Static dielectric constant tensor:
#      x y z
#    x 1.788630 0.000000 -0.014160 
#    y 0.000000 1.837420 0.000000 
#    z -0.014160 0.000000 1.776650 
# 
# From -- ./inp_files/325573.got.cif
#   From: 2010.05.17/outbox.cif.g08.bks.cpg/sg12_163_cif.got.tgz:325573.got - 2010.06.03 13:09:07.
