data_PCOD9182387
_publ_section_title
;
Structure prediction by ZEFSAII (Michael W. Deem and Ramdas Pophale) SiO2 
 PCOD9182387
Probable space group: C 2/M
;
_chemical_formula_sum "Si O2"
_cell_formula_units_Z 36
_cell_length_a 13.316504
_cell_length_b 9.544663
_cell_length_c 11.888366
_cell_angle_alpha 90.000000
_cell_angle_beta 70.831429
_cell_angle_gamma 90.000000
_cell_volume 1427.253078
_symmetry_space_group_name_H-M "C 2/M"
_symmetry_group_IT_number 12
_symmetry_cell_setting 'monoclinic'
loop_
_space_group_symop_operation_xyz
x,y,z
-x,y,-z
-x,-y,-z
x,-y,z
1/2+x,1/2+y,z
1/2-x,1/2+y,-z
1/2-x,1/2-y,-z
1/2+x,1/2-y,z
loop_
_atom_site_type_symbol
_atom_site_label
_atom_site_fract_x
_atom_site_fract_y
_atom_site_fract_z
Si Si1 0.432715 0.843415 0.136992
Si Si2 0.897050 0.839604 0.360473
Si Si3 0.693261 0.725171 0.162942
Si Si4 0.358791 0.838718 0.589611
Si Si5 0.284072 0.500000 0.012383
O O1 0.442790 0.731230 0.231324
O O2 0.308564 0.843338 0.148688
O O3 0.460359 0.000000 0.167460
O O4 0.500000 0.817617 0.000000
O O5 0.769088 0.844840 0.384757
O O6 0.907439 0.737629 0.463419
O O7 0.932126 0.000000 0.366240
O O8 0.631434 0.745530 0.301751
O O9 0.652555 0.622540 0.082143
O O10 0.718725 0.877296 0.104625
O O11 0.392827 0.000000 0.592061
#
# Coordination Sequence:
#
# PCOD9182387 Si02
#       5
#     8   8   8   8   4
#     4  10  20  34  51  73 103 135 163 198 247 306
#     4   9  18  28  45  72  99 128 160 197 252 299
#     4  10  19  33  50  77 102 131 165 208 245 294
#     4   9  16  28  46  69 101 128 157 201 248 299
#     4  10  20  32  50  72 104 132 168 206 248 282
#
# _framework density 25.223277
#
# number of rings (size 3 to 8) (size 9 to 14) (size 15 to 20)
#    0.000    2.444    2.222    0.667    3.111    3.111 
#    0.000    0.000    0.000    0.000    0.000    9.333 
#    0.000    0.000    0.000    0.000    0.000    0.000 
#
# Total GULP energy -100311.305000 kJ/mol
# GULP energy per Si atom -5572.850278 kJ/mol
# Density = 2.516587 g / cm^3
# Si number density = 25.223277 Si / 1000 Ang^3
#
#
#
# Elastic Constant Matrix: (Units=GPa)
#
#
# Indices 1 2 3 4 5 6 
#
# 1 71.8185 -8.2143 -5.6571 0.0000 -12.9752 0.0000
# 2 -8.2143 223.2299 96.2058 0.0000 -10.6982 0.0000
# 3 -5.6571 96.2058 173.5748 0.0000 -50.3664 0.0000
# 4 0.0000 0.0000 0.0000 31.1795 0.0000 -1.8149
# 5 -12.9752 -10.6982 -50.3664 0.0000 34.4720 0.0000
# 6 0.0000 0.0000 0.0000 -1.8149 0.0000 -2.7053
#
#
#
# Elastic Compliance Matrix: (Units=1/GPa)
#
#
# Indices 1 2 3 4 5 6 
#
# 1 0.016528 -0.000810 0.004722 0.000000 0.012869 0.000000
# 2 -0.000810 0.006492 -0.005431 0.000000 -0.006226 0.000000
# 3 0.004722 -0.005431 0.015541 0.000000 0.022798 0.000000
# 4 0.000000 0.000000 0.000000 0.030867 0.000000 -0.020708
# 5 0.012869 -0.006226 0.022798 0.000000 0.065231 0.000000
# 6 0.000000 0.000000 0.000000 -0.020708 0.000000 -0.355755
#
#
# Mechanical properties :
#
#
# Convention : Reuss Voigt Hill
#
# Bulk Modulus (GPa) = 28.15142 70.36577 49.25860
# Shear Modulus (GPa) = -24.24641 38.34183 7.04771
#
# Velocity S-wave (km/s) = -3.10380 3.90307 1.67338
# Velocity P-wave (km/s) = 1.28827 6.94764 4.82753
#
# Compressibility (1/GPa) = 0.03552218
#
# Stress axis : x y z
#
# Youngs Moduli (GPa) = 60.50254 154.02969 64.34678
#
# Poissons Ratio (x) = 0.12477 -0.30383
# Poissons Ratio (y) = 0.04901 0.34949
# Poissons Ratio (z) = -0.28568 0.83658
#
# Static dielectric constant tensor:
#      x y z
#    x 2.171900 0.000000 0.023890 
#    y 0.000000 1.888100 0.000000 
#    z 0.023890 0.000000 1.951850 
# 
# From -- ./inp_files/151295.got.cif
#   From: 2010.05.17/outbox.cif.g08.bks.cpg/sg12_76_cif.got.tgz:151295.got - 2010.06.03 13:09:07.
