data_PCOD9182066
_publ_section_title
;
Structure prediction by ZEFSAII (Michael W. Deem and Ramdas Pophale) SiO2 
 PCOD9182066
Probable space group: C 2/M
;
_chemical_formula_sum "Si O2"
_cell_formula_units_Z 64
_cell_length_a 18.663962
_cell_length_b 16.763335
_cell_length_c 22.368324
_cell_angle_alpha 90.000000
_cell_angle_beta 149.780412
_cell_angle_gamma 90.000000
_cell_volume 3522.393910
_symmetry_space_group_name_H-M "C 2/M"
_symmetry_group_IT_number 12
_symmetry_cell_setting 'monoclinic'
loop_
_space_group_symop_operation_xyz
x,y,z
-x,y,-z
-x,-y,-z
x,-y,z
1/2+x,1/2+y,z
1/2-x,1/2+y,-z
1/2-x,1/2-y,-z
1/2+x,1/2-y,z
loop_
_atom_site_type_symbol
_atom_site_label
_atom_site_fract_x
_atom_site_fract_y
_atom_site_fract_z
Si Si1 0.478130 0.093209 0.051372
Si Si2 0.991634 0.125718 0.896867
Si Si3 0.764131 0.908018 0.837038
Si Si4 0.617091 0.747119 0.687707
Si Si5 0.652856 0.784666 0.243856
Si Si6 0.395474 0.413093 0.697342
Si Si7 0.161535 0.094156 0.803072
Si Si8 0.717117 0.236767 0.545917
O O1 0.587307 0.133913 0.173987
O O2 0.509462 0.000000 0.071356
O O3 0.500000 0.126841 0.000000
O O4 0.311554 0.103091 0.945602
O O5 0.875874 0.097627 0.862326
O O6 0.962373 0.218641 0.860969
O O7 0.958917 0.086978 0.809687
O O8 0.142826 0.107433 0.035967
O O9 0.663960 0.830514 0.753737
O O10 0.707693 0.000000 0.797455
O O11 0.704217 0.740396 0.688634
O O12 0.657070 0.665606 0.751916
O O13 0.447661 0.748654 0.559933
O O14 0.686278 0.786571 0.338022
O O15 0.342313 0.500000 0.643014
O O16 0.525471 0.393192 0.746972
O O17 0.267960 0.351675 0.599471
O O18 0.158856 0.000000 0.779938
O O19 0.750000 0.250000 0.500000
#
# Coordination Sequence:
#
# PCOD9182066 Si02
#       8
#     8   8   8   8   8   8   8   8
#     4  10  19  34  59  88 120 147 183 240 296 352
#     4   9  18  33  56  84 114 145 183 233 288 353
#     4  10  19  32  55  85 116 146 181 231 292 345
#     4  11  21  37  58  82 116 148 193 241 279 338
#     4  10  21  36  59  85 111 153 194 234 293 343
#     4  10  20  37  59  80 110 151 193 235 287 346
#     4  10  20  35  59  87 113 149 188 232 293 354
#     4  11  23  41  56  78 112 154 199 241 279 330
#
# _framework density 18.169460999999998
#
# number of rings (size 3 to 8) (size 9 to 14) (size 15 to 20)
#    0.000    1.875    2.500    2.625    1.750    0.500 
#    2.250    3.125    0.000    6.000    0.000    0.000 
#    0.000    0.000    0.000    0.000    0.000    0.000 
#
# Total GULP energy -178279.048332 kJ/mol
# GULP energy per Si atom -5571.220260 kJ/mol
# Density = 1.812811 g / cm^3
# Si number density = 18.169461 Si / 1000 Ang^3
#
#
#
# Elastic Constant Matrix: (Units=GPa)
#
#
# Indices 1 2 3 4 5 6 
#
# 1 37.4831 22.2612 21.1694 0.0011 -17.9092 0.0005
# 2 22.2612 75.9940 45.5368 -0.0007 -5.1225 -0.0005
# 3 21.1694 45.5368 83.1655 0.0007 -12.5855 0.0002
# 4 0.0011 -0.0007 0.0007 10.4681 0.0008 9.0065
# 5 -17.9092 -5.1225 -12.5855 0.0008 31.8835 0.0000
# 6 0.0005 -0.0005 0.0002 9.0065 0.0000 16.0320
#
#
#
# Elastic Compliance Matrix: (Units=1/GPa)
#
#
# Indices 1 2 3 4 5 6 
#
# 1 0.044906 -0.010168 -0.002439 -0.000011 0.022628 0.000004
# 2 -0.010168 0.021927 -0.010368 0.000005 -0.006281 -0.000002
# 3 -0.002439 -0.010368 0.018998 -0.000003 0.004463 0.000001
# 4 -0.000011 0.000005 -0.000003 0.184898 -0.000011 -0.103873
# 5 0.022628 -0.006281 0.004463 -0.000011 0.044827 0.000005
# 6 0.000004 -0.000002 0.000001 -0.103873 0.000005 0.120729
#
#
# Mechanical properties :
#
#
# Convention : Reuss Voigt Hill
#
# Bulk Modulus (GPa) = 25.07493 41.61969 33.34731
# Shear Modulus (GPa) = 10.09023 18.85508 14.47266
#
# Velocity S-wave (km/s) = 2.35912 3.22488 2.82536
# Velocity P-wave (km/s) = 4.60990 6.06817 5.38859
#
# Compressibility (1/GPa) = 0.03988047
#
# Stress axis : x y z
#
# Youngs Moduli (GPa) = 22.26857 45.60617 52.63819
#
# Poissons Ratio (x) = 0.46371 0.12839
# Poissons Ratio (y) = 0.22642 0.54577
# Poissons Ratio (z) = 0.05432 0.47286
#
# Static dielectric constant tensor:
#      x y z
#    x 1.647090 0.000000 0.002340 
#    y 0.000000 1.692980 0.000000 
#    z 0.002340 0.000000 1.603680 
# 
# From -- ./inp_files/317386.got.cif
#   From: 2010.05.17/outbox.cif.g08.bks.cpg/sg12_159_cif.got.tgz:317386.got - 2010.06.03 13:09:07.
