data_PCOD9182162
_publ_section_title
;
Structure prediction by ZEFSAII (Michael W. Deem and Ramdas Pophale) SiO2 
 PCOD9182162
Probable space group: C 2/M
;
_chemical_formula_sum "Si O2"
_cell_formula_units_Z 40
_cell_length_a 15.758064
_cell_length_b 16.650709
_cell_length_c 10.802213
_cell_angle_alpha 90.000000
_cell_angle_beta 39.702001
_cell_angle_gamma 90.000000
_cell_volume 1810.546250
_symmetry_space_group_name_H-M "C 2/M"
_symmetry_group_IT_number 12
_symmetry_cell_setting 'monoclinic'
loop_
_space_group_symop_operation_xyz
x,y,z
-x,y,-z
-x,-y,-z
x,-y,z
1/2+x,1/2+y,z
1/2-x,1/2+y,-z
1/2-x,1/2-y,-z
1/2+x,1/2-y,z
loop_
_atom_site_type_symbol
_atom_site_label
_atom_site_fract_x
_atom_site_fract_y
_atom_site_fract_z
Si Si1 0.055499 0.085721 0.219414
Si Si2 0.844135 0.762033 0.776709
Si Si3 0.855299 0.301823 0.220151
Si Si4 0.184133 0.412195 0.247444
Si Si5 0.289779 0.627361 0.395664
O O1 0.055478 0.167008 0.300291
O O2 0.919679 0.083048 0.296919
O O3 0.072972 0.000000 0.267765
O O4 0.178371 0.091815 0.985390
O O5 0.753756 0.794272 0.765961
O O6 0.891199 0.670635 0.700594
O O7 0.750000 0.750000 0.000000
O O8 0.811435 0.362927 0.376489
O O9 0.847733 0.214759 0.292820
O O10 0.000000 0.316537 0.000000
O O11 0.124378 0.500000 0.285462
O O12 0.222461 0.407221 0.348679
#
# Coordination Sequence:
#
# PCOD9182162 Si02
#       5
#     8   8   8   8   8
#     4  10  19  33  57  88 118 145 184 242 295 338
#     4   9  18  33  55  84 117 151 185 230 289 350
#     4  10  20  35  54  80 113 153 194 231 281 344
#     4   9  17  32  57  87 115 145 188 241 289 337
#     4  10  19  32  56  86 113 145 190 241 287 337
#
# _framework density 22.092780000000001
#
# number of rings (size 3 to 8) (size 9 to 14) (size 15 to 20)
#    0.000    2.400    0.000    4.800    0.000    2.400 
#    0.000    5.000    0.000    9.000    0.000   74.200 
#    0.000    1.600    0.000    0.000    0.000    0.000 
#
# Total GULP energy -111635.514343 kJ/mol
# GULP energy per Si atom -5581.775717 kJ/mol
# Density = 2.204250 g / cm^3
# Si number density = 22.092780 Si / 1000 Ang^3
#
#
#
# Elastic Constant Matrix: (Units=GPa)
#
#
# Indices 1 2 3 4 5 6 
#
# 1 53.6973 46.9457 5.2748 0.0000 20.2554 0.0000
# 2 46.9457 164.7067 14.5781 0.0000 13.4260 0.0000
# 3 5.2748 14.5781 137.0305 0.0000 4.8438 0.0000
# 4 0.0000 0.0000 0.0000 -1.2315 0.0000 6.2556
# 5 20.2554 13.4260 4.8438 0.0000 24.2968 0.0000
# 6 0.0000 0.0000 0.0000 6.2556 0.0000 7.2123
#
#
#
# Elastic Compliance Matrix: (Units=1/GPa)
#
#
# Indices 1 2 3 4 5 6 
#
# 1 0.034882 -0.007958 0.000379 0.000000 -0.024758 0.000000
# 2 -0.007958 0.008216 -0.000646 0.000000 0.002223 0.000000
# 3 0.000379 -0.000646 0.007403 0.000000 -0.001435 0.000000
# 4 0.000000 0.000000 0.000000 -0.150211 0.000000 0.130285
# 5 -0.024758 0.002223 -0.001435 0.000000 0.060855 0.000000
# 6 0.000000 0.000000 0.000000 0.130285 0.000000 0.025649
#
#
# Mechanical properties :
#
#
# Convention : Reuss Voigt Hill
#
# Bulk Modulus (GPa) = 29.36842 54.33685 41.85264
# Shear Modulus (GPa) = 342.62220 25.29792 183.96006
#
# Velocity S-wave (km/s) = 12.46676 3.38757 9.13498
# Velocity P-wave (km/s) = 14.85088 6.32053 11.41266
#
# Compressibility (1/GPa) = 0.03405018
#
# Stress axis : x y z
#
# Youngs Moduli (GPa) = 28.66810 121.72082 135.08912
#
# Poissons Ratio (x) = 0.96861 -0.05120
# Poissons Ratio (y) = 0.22813 0.08731
# Poissons Ratio (z) = -0.01087 0.07867
#
# Static dielectric constant tensor:
#      x y z
#    x 1.785730 0.000000 0.005650 
#    y 0.000000 1.874440 0.000000 
#    z 0.005650 0.000000 1.800260 
# 
# From -- ./inp_files/155762.got.cif
#   From: 2010.05.17/outbox.cif.g08.bks.cpg/sg12_78_cif.got.tgz:155762.got - 2010.06.03 13:09:07.
