data_PCOD9182178
_publ_section_title
;
Structure prediction by ZEFSAII (Michael W. Deem and Ramdas Pophale) SiO2 
 PCOD9182178
Probable space group: C 2/M
;
_chemical_formula_sum "Si O2"
_cell_formula_units_Z 56
_cell_length_a 8.428758
_cell_length_b 24.942714
_cell_length_c 16.249562
_cell_angle_alpha 90.000000
_cell_angle_beta 46.011400
_cell_angle_gamma 90.000000
_cell_volume 2457.912794
_symmetry_space_group_name_H-M "C 2/M"
_symmetry_group_IT_number 12
_symmetry_cell_setting 'monoclinic'
loop_
_space_group_symop_operation_xyz
x,y,z
-x,y,-z
-x,-y,-z
x,-y,z
1/2+x,1/2+y,z
1/2-x,1/2+y,-z
1/2-x,1/2-y,-z
1/2+x,1/2-y,z
loop_
_atom_site_type_symbol
_atom_site_label
_atom_site_fract_x
_atom_site_fract_y
_atom_site_fract_z
Si Si1 0.192531 0.305556 0.701924
Si Si2 0.732526 0.643686 0.900568
Si Si3 0.163242 0.209207 0.601370
Si Si4 0.463862 0.061350 0.915848
Si Si5 0.287991 0.885890 0.461655
Si Si6 0.942625 0.936272 0.693302
Si Si7 0.748610 0.063696 0.261425
O O1 0.196205 0.243631 0.670517
O O2 0.407778 0.307623 0.681779
O O3 0.228434 0.347192 0.612477
O O4 0.946387 0.318603 0.820358
O O5 0.722991 0.605662 0.823278
O O6 0.773606 0.601120 0.958570
O O7 0.500000 0.671794 0.000000
O O8 0.250000 0.250000 0.500000
O O9 0.296808 0.156061 0.533910
O O10 0.688997 0.081716 0.791521
O O11 0.418419 0.000000 0.906662
O O12 0.500000 0.061277 0.000000
O O13 0.073102 0.919022 0.565354
O O14 0.497708 0.924382 0.380277
O O15 0.081192 0.923610 0.726094
O O16 0.926187 0.000000 0.699060
O O17 0.772763 0.000000 0.231790
#
# Coordination Sequence:
#
# PCOD9182178 Si02
#       7
#     8   8   8   8   8   8   8
#     4  10  23  40  60  89 117 148 200 251 300 362
#     4  11  23  41  62  84 115 157 202 250 301 351
#     4  10  20  37  60  84 114 148 187 239 298 361
#     4  10  21  37  58  85 116 154 202 248 292 350
#     4  10  19  32  56  87 120 155 189 233 289 355
#     4  10  20  34  54  84 122 160 195 235 288 351
#     4  10  21  35  55  88 125 160 200 242 285 347
#
# _framework density 22.783557999999999
#
# number of rings (size 3 to 8) (size 9 to 14) (size 15 to 20)
#    0.000    1.857    0.000    4.714    0.000   10.286 
#    0.000    2.143    0.000    9.429    0.000    0.000 
#    0.000    0.000    0.000    0.000    0.000    0.000 
#
# Total GULP energy -156435.720430 kJ/mol
# GULP energy per Si atom -5586.990015 kJ/mol
# Density = 2.273170 g / cm^3
# Si number density = 22.783558 Si / 1000 Ang^3
#
#
#
# Elastic Constant Matrix: (Units=GPa)
#
#
# Indices 1 2 3 4 5 6 
#
# 1 71.5705 -4.7005 10.9942 0.0000 -12.1248 0.0000
# 2 -4.7005 17.0552 -10.9445 0.0000 7.7596 0.0000
# 3 10.9942 -10.9445 93.8169 0.0000 -27.4810 0.0000
# 4 0.0000 0.0000 0.0000 19.7886 0.0000 -8.3227
# 5 -12.1248 7.7596 -27.4810 0.0000 32.1134 0.0000
# 6 0.0000 0.0000 0.0000 -8.3227 0.0000 32.8946
#
#
#
# Elastic Compliance Matrix: (Units=1/GPa)
#
#
# Indices 1 2 3 4 5 6 
#
# 1 0.014973 0.001740 -0.000025 0.000000 0.005211 0.000000
# 2 0.001740 0.067241 0.004102 0.000000 -0.012081 0.000000
# 3 -0.000025 0.004102 0.014476 0.000000 0.011387 0.000000
# 4 0.000000 0.000000 0.000000 0.056552 0.000000 0.014308
# 5 0.005211 -0.012081 0.011387 0.000000 0.045771 0.000000
# 6 0.000000 0.000000 0.000000 0.014308 0.000000 0.034020
#
#
# Mechanical properties :
#
#
# Convention : Reuss Voigt Hill
#
# Bulk Modulus (GPa) = 9.23172 19.23789 14.23481
# Shear Modulus (GPa) = 19.41675 29.43221 24.42448
#
# Velocity S-wave (km/s) = 2.92246 3.59809 3.27773
# Velocity P-wave (km/s) = 3.93045 5.07186 4.53719
#
# Compressibility (1/GPa) = 0.10832218
#
# Stress axis : x y z
#
# Youngs Moduli (GPa) = 66.78595 14.87185 69.07941
#
# Poissons Ratio (x) = -0.02587 0.00174
# Poissons Ratio (y) = -0.11617 -0.28334
# Poissons Ratio (z) = 0.00168 -0.06100
#
# Static dielectric constant tensor:
#      x y z
#    x 1.875840 0.000000 -0.004290 
#    y 0.000000 1.859720 0.000000 
#    z -0.004290 0.000000 1.887450 
# 
# From -- ./inp_files/259811.got.cif
#   From: 2010.05.17/outbox.cif.g08.bks.cpg/sg12_130_cif.got.tgz:259811.got - 2010.06.03 13:09:07.
