data_PCOD9182390
_publ_section_title
;
Structure prediction by ZEFSAII (Michael W. Deem and Ramdas Pophale) SiO2 
 PCOD9182390
Probable space group: C 2/M
;
_chemical_formula_sum "Si O2"
_cell_formula_units_Z 44
_cell_length_a 7.005862
_cell_length_b 24.695867
_cell_length_c 11.862184
_cell_angle_alpha 90.000000
_cell_angle_beta 116.049309
_cell_angle_gamma 90.000000
_cell_volume 1843.861122
_symmetry_space_group_name_H-M "C 2/M"
_symmetry_group_IT_number 12
_symmetry_cell_setting 'monoclinic'
loop_
_space_group_symop_operation_xyz
x,y,z
-x,y,-z
-x,-y,-z
x,-y,z
1/2+x,1/2+y,z
1/2-x,1/2+y,-z
1/2-x,1/2-y,-z
1/2+x,1/2-y,z
loop_
_atom_site_type_symbol
_atom_site_label
_atom_site_fract_x
_atom_site_fract_y
_atom_site_fract_z
Si Si1 0.554782 0.000000 0.286523
Si Si2 0.183277 0.121047 0.965203
Si Si3 0.165201 0.000000 0.439561
Si Si4 0.006929 0.379261 0.236335
Si Si5 0.702852 0.187039 0.474113
Si Si6 0.279933 0.000000 0.014727
Si Si7 0.600184 0.386801 0.302076
O O1 0.621735 0.061457 0.266927
O O2 0.612753 0.000000 0.432567
O O3 0.331435 0.000000 0.161577
O O4 0.168272 0.055586 0.958329
O O5 0.107369 0.133720 0.819821
O O6 0.404794 0.132125 0.087181
O O7 0.000000 0.143343 0.000000
O O8 0.120561 0.947407 0.354152
O O9 0.000000 0.000000 0.500000
O O10 0.797656 0.383902 0.264066
O O11 0.144581 0.334082 0.335076
O O12 0.500000 0.176133 0.500000
O O13 0.750000 0.250000 0.500000
O O14 0.874750 0.150851 0.582335
O O15 0.500000 0.000000 0.000000
#
# Coordination Sequence:
#
# PCOD9182390 Si02
#       7
#     4   8   4   8   8   4   8
#     4  10  19  33  50  78 110 142 174 216 263 316
#     4   9  18  34  55  77 100 137 183 226 257 311
#     4  12  24  31  47  82 119 149 176 214 267 326
#     4   9  18  36  59  81 103 135 183 225 267 315
#     4  10  21  38  57  80 105 142 180 225 272 321
#     4  10  20  30  46  72 114 151 172 206 266 324
#     4  10  20  35  58  79 105 140 183 221 265 316
#
# _framework density 23.862969
#
# number of rings (size 3 to 8) (size 9 to 14) (size 15 to 20)
#    0.000    2.182    1.818    1.364    2.545    4.364 
#    0.000    0.909    0.000    0.000    0.000    0.000 
#    0.000    0.000    0.000    0.000    0.000    0.000 
#
# Total GULP energy -122766.959967 kJ/mol
# GULP energy per Si atom -5580.316362 kJ/mol
# Density = 2.380866 g / cm^3
# Si number density = 23.862969 Si / 1000 Ang^3
#
#
#
# Elastic Constant Matrix: (Units=GPa)
#
#
# Indices 1 2 3 4 5 6 
#
# 1 83.5366 -4.3034 43.2991 0.0000 -5.0031 0.0000
# 2 -4.3034 128.5562 87.7212 0.0000 12.9771 0.0000
# 3 43.2991 87.7212 269.4589 0.0000 17.4535 0.0000
# 4 0.0000 0.0000 0.0000 13.1591 0.0000 7.1103
# 5 -5.0031 12.9771 17.4535 0.0000 39.4136 0.0000
# 6 0.0000 0.0000 0.0000 7.1103 0.0000 18.0356
#
#
#
# Elastic Compliance Matrix: (Units=1/GPa)
#
#
# Indices 1 2 3 4 5 6 
#
# 1 0.013872 0.002379 -0.003158 0.000000 0.002376 0.000000
# 2 0.002379 0.010549 -0.003718 0.000000 -0.001525 0.000000
# 3 -0.003158 -0.003718 0.005534 0.000000 -0.001627 0.000000
# 4 0.000000 0.000000 0.000000 0.096563 0.000000 -0.038069
# 5 0.002376 -0.001525 -0.001627 0.000000 0.026896 0.000000
# 6 0.000000 0.000000 0.000000 -0.038069 0.000000 0.070454
#
#
# Mechanical properties :
#
#
# Convention : Reuss Voigt Hill
#
# Bulk Modulus (GPa) = 47.70246 81.66507 64.68376
# Shear Modulus (GPa) = 20.84645 37.77730 29.31188
#
# Velocity S-wave (km/s) = 2.95886 3.98313 3.50857
# Velocity P-wave (km/s) = 5.63087 7.44651 6.60141
#
# Compressibility (1/GPa) = 0.02096328
#
# Stress axis : x y z
#
# Youngs Moduli (GPa) = 72.08630 94.79486 180.69386
#
# Poissons Ratio (x) = -0.22553 0.57054
# Poissons Ratio (y) = -0.17150 0.67177
# Poissons Ratio (z) = 0.22761 0.35242
#
# Static dielectric constant tensor:
#      x y z
#    x 2.119540 0.000000 0.048160 
#    y 0.000000 1.859110 0.000000 
#    z 0.048160 0.000000 1.935820 
# 
# From -- ./inp_files/122700.got.cif
#   From: 2010.05.17/outbox.cif.g08.bks.cpg/sg12_62_cif.got.tgz:122700.got - 2010.06.03 13:09:07.
