data_PCOD9182152
_publ_section_title
;
Structure prediction by ZEFSAII (Michael W. Deem and Ramdas Pophale) SiO2 
 PCOD9182152
Probable space group: C 2/M
;
_chemical_formula_sum "Si O2"
_cell_formula_units_Z 64
_cell_length_a 20.515569
_cell_length_b 8.909389
_cell_length_c 32.107209
_cell_angle_alpha 90.000000
_cell_angle_beta 38.793036
_cell_angle_gamma 90.000000
_cell_volume 3676.727254
_symmetry_space_group_name_H-M "C 2/M"
_symmetry_group_IT_number 12
_symmetry_cell_setting 'monoclinic'
loop_
_space_group_symop_operation_xyz
x,y,z
-x,y,-z
-x,-y,-z
x,-y,z
1/2+x,1/2+y,z
1/2-x,1/2+y,-z
1/2-x,1/2-y,-z
1/2+x,1/2-y,z
loop_
_atom_site_type_symbol
_atom_site_label
_atom_site_fract_x
_atom_site_fract_y
_atom_site_fract_z
Si Si1 0.673513 0.180283 0.072001
Si Si2 0.934526 0.179292 0.661328
Si Si3 0.028736 0.321361 0.693349
Si Si4 0.292478 0.821590 0.186796
Si Si5 0.312219 0.679379 0.323491
Si Si6 0.302810 0.179453 0.844502
Si Si7 0.913534 0.181115 0.576805
Si Si8 0.946042 0.820264 0.174515
O O1 0.709586 0.218983 0.101042
O O2 0.557990 0.244223 0.123034
O O3 0.671658 0.000000 0.069710
O O4 0.750000 0.250000 0.000000
O O5 0.815566 0.211098 0.734717
O O6 0.946555 0.223331 0.607317
O O7 0.008950 0.262832 0.656620
O O8 0.949976 0.000000 0.657618
O O9 0.042071 0.500000 0.687222
O O10 0.123402 0.243333 0.669721
O O11 0.921638 0.285035 0.771602
O O12 0.272145 0.763675 0.150259
O O13 0.384719 0.738514 0.164723
O O14 0.308893 0.000000 0.179307
O O15 0.306765 0.500000 0.328520
O O16 0.197667 0.747664 0.377729
O O17 0.376427 0.719708 0.249631
O O18 0.289408 0.000000 0.846207
O O19 0.000000 0.224243 0.500000
O O20 0.902706 0.000000 0.581543
O O21 0.957038 0.000000 0.167626
#
# Coordination Sequence:
#
# PCOD9182152 Si02
#       8
#     8   8   8   8   8   8   8   8
#     4  11  23  40  60  84 116 152 187 228 280 335
#     4   9  18  33  53  81 114 145 182 229 282 333
#     4  10  19  33  56  83 111 144 186 232 279 332
#     4  10  19  32  56  85 113 145 183 234 283 328
#     4  11  22  35  56  85 115 146 187 237 280 327
#     4   9  19  35  55  81 114 148 182 227 280 332
#     4  10  21  38  59  82 113 152 189 228 280 340
#     4  11  22  36  57  85 115 148 189 233 278 330
#
# _framework density 17.406784999999999
#
# number of rings (size 3 to 8) (size 9 to 14) (size 15 to 20)
#    0.000    1.875    2.500    1.875    0.000    3.750 
#    0.000    1.250    0.000    3.750    0.000    0.000 
#    0.000    0.000    0.000    0.000    0.000    0.000 
#
# Total GULP energy -178698.150681 kJ/mol
# GULP energy per Si atom -5584.317209 kJ/mol
# Density = 1.736717 g / cm^3
# Si number density = 17.406785 Si / 1000 Ang^3
#
#
#
# Elastic Constant Matrix: (Units=GPa)
#
#
# Indices 1 2 3 4 5 6 
#
# 1 157.3824 56.6787 73.0501 -0.0002 12.9123 -0.0001
# 2 56.6787 44.1130 48.0240 -0.0005 2.7411 -0.0018
# 3 73.0501 48.0240 107.0289 0.0000 10.0141 0.0001
# 4 -0.0002 -0.0005 0.0000 23.2488 0.0000 -3.3819
# 5 12.9123 2.7411 10.0141 0.0000 25.4911 0.0001
# 6 -0.0001 -0.0018 0.0001 -3.3819 0.0001 33.6795
#
#
#
# Elastic Compliance Matrix: (Units=1/GPa)
#
#
# Indices 1 2 3 4 5 6 
#
# 1 0.012558 -0.013619 -0.002079 0.000000 -0.004080 -0.000001
# 2 -0.013619 0.059333 -0.018039 0.000002 0.007605 0.000003
# 3 -0.002079 -0.018039 0.019285 -0.000001 -0.004583 -0.000001
# 4 0.000000 0.000002 -0.000001 0.043651 0.000000 0.004383
# 5 -0.004080 0.007605 -0.004583 0.000000 0.042279 0.000000
# 6 -0.000001 0.000003 -0.000001 0.004383 0.000000 0.030132
#
#
# Mechanical properties :
#
#
# Convention : Reuss Voigt Hill
#
# Bulk Modulus (GPa) = 42.18890 73.78111 57.98500
# Shear Modulus (GPa) = 17.69210 25.20199 21.44704
#
# Velocity S-wave (km/s) = 3.19155 3.80916 3.51395
# Velocity P-wave (km/s) = 6.15394 7.86287 7.06030
#
# Compressibility (1/GPa) = 0.02370292
#
# Stress axis : x y z
#
# Youngs Moduli (GPa) = 79.62968 16.85400 51.85335
#
# Poissons Ratio (x) = 0.22953 0.10779
# Poissons Ratio (y) = 1.08445 0.93540
# Poissons Ratio (z) = 0.16553 0.30403
#
# Static dielectric constant tensor:
#      x y z
#    x 1.571760 0.000000 0.015950 
#    y 0.000000 1.574650 0.000000 
#    z 0.015950 0.000000 1.572800 
# 
# From -- ./inp_files/377977.got.cif
#   From: 2010.05.17/outbox.cif.g08.bks.cpg/sg12_189_cif.got.tgz:377977.got - 2010.06.03 13:09:07.
