data_PCOD9182665
_publ_section_title
;
Structure prediction by ZEFSAII (Michael W. Deem and Ramdas Pophale) SiO2 
 PCOD9182665
Probable space group: C 2/M
;
_chemical_formula_sum "Si O2"
_cell_formula_units_Z 56
_cell_length_a 23.861264
_cell_length_b 11.009083
_cell_length_c 11.927644
_cell_angle_alpha 90.000000
_cell_angle_beta 116.868583
_cell_angle_gamma 90.000000
_cell_volume 2795.028604
_symmetry_space_group_name_H-M "C 2/M"
_symmetry_group_IT_number 12
_symmetry_cell_setting 'monoclinic'
loop_
_space_group_symop_operation_xyz
x,y,z
-x,y,-z
-x,-y,-z
x,-y,z
1/2+x,1/2+y,z
1/2-x,1/2+y,-z
1/2-x,1/2-y,-z
1/2+x,1/2-y,z
loop_
_atom_site_type_symbol
_atom_site_label
_atom_site_fract_x
_atom_site_fract_y
_atom_site_fract_z
Si Si1 0.745232 0.629448 0.597042
Si Si2 0.963454 0.139964 0.581474
Si Si3 0.425267 0.359741 0.140601
Si Si4 0.639032 0.750921 0.379998
Si Si5 0.098719 0.864971 0.125197
Si Si6 0.330226 0.862372 0.079050
Si Si7 0.232808 0.218064 0.170336
O O1 0.736892 0.500000 0.644202
O O2 0.692045 0.649438 0.455901
O O3 0.813986 0.639060 0.602447
O O4 0.740700 0.730096 0.689595
O O5 0.909285 0.235873 0.562237
O O6 0.000000 0.164792 0.500000
O O7 0.014469 0.143473 0.726373
O O8 0.938665 0.000000 0.553047
O O9 0.399704 0.500000 0.125681
O O10 0.379127 0.249903 0.133551
O O11 0.440257 0.339187 0.022575
O O12 0.600578 0.723820 0.232103
O O13 0.170564 0.857802 0.143894
O O14 0.083558 0.000000 0.152093
O O15 0.282952 0.852262 0.141023
O O16 0.355734 0.000000 0.094964
O O17 0.291704 0.828338 0.931237
#
# Coordination Sequence:
#
# PCOD9182665 Si02
#       7
#     8   8   8   8   8   8   8
#     4  10  20  35  56  82 109 144 185 231 287 341
#     4  10  21  37  57  80 110 147 190 236 278 334
#     4   9  20  35  54  80 109 148 192 234 281 335
#     4  10  21  35  55  82 110 142 182 235 285 334
#     4   9  16  31  52  77 108 136 176 229 281 326
#     4  10  19  33  52  80 116 152 190 234 283 335
#     4   9  19  30  50  79 110 148 186 228 275 336
#
# _framework density 20.035572999999999
#
# number of rings (size 3 to 8) (size 9 to 14) (size 15 to 20)
#    0.000    2.429    0.000    2.143    2.000    4.571 
#    0.000    3.571    0.000    0.857    0.000    6.000 
#    0.000    0.000    0.000    0.000    0.000    0.000 
#
# Total GULP energy -155987.783640 kJ/mol
# GULP energy per Si atom -5570.992273 kJ/mol
# Density = 1.998997 g / cm^3
# Si number density = 20.035573 Si / 1000 Ang^3
#
#
#
# Elastic Constant Matrix: (Units=GPa)
#
#
# Indices 1 2 3 4 5 6 
#
# 1 75.7103 19.1629 20.3287 0.0000 -17.5341 0.0000
# 2 19.1629 80.3915 13.1726 0.0000 0.9147 0.0000
# 3 20.3287 13.1726 85.8645 0.0000 -4.2598 0.0000
# 4 0.0000 0.0000 0.0000 6.0583 0.0000 -1.0653
# 5 -17.5341 0.9147 -4.2598 0.0000 21.3546 0.0000
# 6 0.0000 0.0000 0.0000 -1.0653 0.0000 14.5311
#
#
#
# Elastic Compliance Matrix: (Units=1/GPa)
#
#
# Indices 1 2 3 4 5 6 
#
# 1 0.018460 -0.004074 -0.003015 0.000000 0.014731 0.000000
# 2 -0.004074 0.013678 -0.001342 0.000000 -0.004199 0.000000
# 3 -0.003015 -0.001342 0.012570 0.000000 0.000090 0.000000
# 4 0.000000 0.000000 0.000000 0.167218 0.000000 0.012259
# 5 0.014731 -0.004199 0.000090 0.000000 0.059122 0.000000
# 6 0.000000 0.000000 0.000000 0.012259 0.000000 0.069717
#
#
# Mechanical properties :
#
#
# Convention : Reuss Voigt Hill
#
# Bulk Modulus (GPa) = 35.91059 38.58831 37.24945
# Shear Modulus (GPa) = 13.62735 21.00895 17.31815
#
# Velocity S-wave (km/s) = 2.61081 3.24169 2.94321
# Velocity P-wave (km/s) = 5.20104 5.77176 5.49381
#
# Compressibility (1/GPa) = 0.02784694
#
# Stress axis : x y z
#
# Youngs Moduli (GPa) = 54.16972 73.11038 79.55231
#
# Poissons Ratio (x) = 0.29786 0.23983
# Poissons Ratio (y) = 0.22069 0.10677
# Poissons Ratio (z) = 0.16331 0.09812
#
# Static dielectric constant tensor:
#      x y z
#    x 1.746860 0.000000 0.001540 
#    y 0.000000 1.701930 0.000000 
#    z 0.001540 0.000000 1.723870 
# 
# From -- ./inp_files/174797.got.cif
#   From: 2010.05.17/outbox.cif.g08.bks.cpg/sg12_88_cif.got.tgz:174797.got - 2010.06.03 13:09:07.
