data_PCOD9182810
_publ_section_title
;
Structure prediction by ZEFSAII (Michael W. Deem and Ramdas Pophale) SiO2 
 PCOD9182810
Probable space group: C 2/M
;
_chemical_formula_sum "Si O2"
_cell_formula_units_Z 64
_cell_length_a 16.618891
_cell_length_b 14.172446
_cell_length_c 25.989709
_cell_angle_alpha 90.000000
_cell_angle_beta 27.007778
_cell_angle_gamma 90.000000
_cell_volume 2779.781887
_symmetry_space_group_name_H-M "C 2/M"
_symmetry_group_IT_number 12
_symmetry_cell_setting 'monoclinic'
loop_
_space_group_symop_operation_xyz
x,y,z
-x,y,-z
-x,-y,-z
x,-y,z
1/2+x,1/2+y,z
1/2-x,1/2+y,-z
1/2-x,1/2-y,-z
1/2+x,1/2-y,z
loop_
_atom_site_type_symbol
_atom_site_label
_atom_site_fract_x
_atom_site_fract_y
_atom_site_fract_z
Si Si1 0.541234 0.886482 0.788644
Si Si2 0.468458 0.384676 0.258644
Si Si3 0.432516 0.650027 0.593490
Si Si4 0.369436 0.858463 0.613855
Si Si5 0.669041 0.391658 0.554461
Si Si6 0.327930 0.384253 0.954758
Si Si7 0.990308 0.383513 0.700001
Si Si8 0.159343 0.104716 0.832549
O O1 0.721741 0.861697 0.714808
O O2 0.542906 0.856383 0.727971
O O3 0.532543 0.000000 0.792789
O O4 0.363505 0.851920 0.917503
O O5 0.458612 0.500000 0.262506
O O6 0.304451 0.342547 0.320818
O O7 0.437113 0.354430 0.335303
O O8 0.630879 0.360055 0.128274
O O9 0.500000 0.612282 0.500000
O O10 0.463934 0.761786 0.575400
O O11 0.537967 0.608213 0.580649
O O12 0.500000 0.907665 0.500000
O O13 0.296886 0.904044 0.706547
O O14 0.713892 0.500000 0.542555
O O15 0.855563 0.350903 0.427283
O O16 0.333946 0.500000 0.953806
O O17 0.483776 0.353071 0.905931
O O18 0.986453 0.500000 0.700661
O O19 0.790484 0.350215 0.799977
O O20 0.109587 0.000000 0.879662
#
# Coordination Sequence:
#
# PCOD9182810 Si02
#       8
#     8   8   8   8   8   8   8   8
#     4  10  19  33  53  76 103 139 181 216 252 309
#     4   9  18  35  57  79 104 134 174 222 268 312
#     4  11  22  36  49  75 110 143 178 214 262 311
#     4  10  20  33  49  77 107 139 176 210 264 321
#     4  10  19  33  55  80 106 139 178 220 263 308
#     4   8  16  31  53  79 104 133 171 217 265 307
#     4   9  17  28  49  80 104 131 172 211 257 307
#     4   9  17  32  52  76 106 134 168 218 264 312
#
# _framework density 23.023388000000001
#
# number of rings (size 3 to 8) (size 9 to 14) (size 15 to 20)
#    0.000    2.500    1.250    2.250    0.000    3.000 
#    2.250    7.500    0.000    3.000    6.500    0.000 
#    0.000    0.000    0.000    0.000    0.000    0.000 
#
# Total GULP energy -178570.752918 kJ/mol
# GULP energy per Si atom -5580.336029 kJ/mol
# Density = 2.297099 g / cm^3
# Si number density = 23.023388 Si / 1000 Ang^3
#
#
#
# Elastic Constant Matrix: (Units=GPa)
#
#
# Indices 1 2 3 4 5 6 
#
# 1 115.5579 -5.3934 42.0053 0.0051 -0.4220 -0.0061
# 2 -5.3934 59.5013 5.7971 0.0046 9.5295 0.0047
# 3 42.0053 5.7971 144.9409 0.0020 -5.4945 -0.0047
# 4 0.0051 0.0046 0.0020 21.5283 0.0097 0.8489
# 5 -0.4220 9.5295 -5.4945 0.0097 35.0495 0.0050
# 6 -0.0061 0.0047 -0.0047 0.8489 0.0050 7.6592
#
#
#
# Elastic Compliance Matrix: (Units=1/GPa)
#
#
# Indices 1 2 3 4 5 6 
#
# 1 0.009768 0.001279 -0.002908 -0.000002 -0.000686 0.000006
# 2 0.001279 0.017854 -0.001276 -0.000001 -0.005039 -0.000007
# 3 -0.002908 -0.001276 0.007852 -0.000001 0.001543 0.000002
# 4 -0.000002 -0.000001 -0.000001 0.046654 -0.000012 -0.005171
# 5 -0.000686 -0.005039 0.001543 -0.000012 0.030135 -0.000015
# 6 0.000006 -0.000007 0.000002 -0.005171 -0.000015 0.131135
#
#
# Mechanical properties :
#
#
# Convention : Reuss Voigt Hill
#
# Bulk Modulus (GPa) = 33.71211 44.97982 39.34597
# Shear Modulus (GPa) = 19.29797 31.35349 25.32573
#
# Velocity S-wave (km/s) = 2.89829 3.69427 3.32022
# Velocity P-wave (km/s) = 5.08669 6.14621 5.64138
#
# Compressibility (1/GPa) = 0.02966293
#
# Stress axis : x y z
#
# Youngs Moduli (GPa) = 102.37633 56.01139 127.36223
#
# Poissons Ratio (x) = -0.07161 0.37037
# Poissons Ratio (y) = -0.13089 0.16247
# Poissons Ratio (z) = 0.29771 0.07145
#
# Static dielectric constant tensor:
#      x y z
#    x 1.840890 0.000000 0.015590 
#    y 0.000000 1.919350 0.000010 
#    z 0.015590 0.000010 1.886520 
# 
# From -- ./inp_files/340789.got.cif
#   From: 2010.05.17/outbox.cif.g08.bks.cpg/sg12_171_cif.got.tgz:340789.got - 2010.06.03 13:09:07.
