data_PCOD9182099
_publ_section_title
;
Structure prediction by ZEFSAII (Michael W. Deem and Ramdas Pophale) SiO2 
 PCOD9182099
Probable space group: C 2/M
;
_chemical_formula_sum "Si O2"
_cell_formula_units_Z 52
_cell_length_a 25.878909
_cell_length_b 17.735006
_cell_length_c 11.504758
_cell_angle_alpha 90.000000
_cell_angle_beta 31.974610
_cell_angle_gamma 90.000000
_cell_volume 2796.123554
_symmetry_space_group_name_H-M "C 2/M"
_symmetry_group_IT_number 12
_symmetry_cell_setting 'monoclinic'
loop_
_space_group_symop_operation_xyz
x,y,z
-x,y,-z
-x,-y,-z
x,-y,z
1/2+x,1/2+y,z
1/2-x,1/2+y,-z
1/2-x,1/2-y,-z
1/2+x,1/2-y,z
loop_
_atom_site_type_symbol
_atom_site_label
_atom_site_fract_x
_atom_site_fract_y
_atom_site_fract_z
Si Si1 0.417752 0.411884 0.974857
Si Si2 0.616088 0.819498 0.284178
Si Si3 0.271629 0.315318 0.801085
Si Si4 0.445996 0.589174 0.489350
Si Si5 0.500000 0.695719 0.000000
Si Si6 0.304741 0.912491 0.655221
Si Si7 0.677001 0.766328 0.532809
O O1 0.434509 0.500000 0.972972
O O2 0.427410 0.358998 0.067257
O O3 0.313075 0.407609 0.112888
O O4 0.498780 0.383289 0.730266
O O5 0.500000 0.815559 0.500000
O O6 0.664582 0.745249 0.247894
O O7 0.648795 0.884986 0.312004
O O8 0.667051 0.824770 0.060652
O O9 0.333402 0.391026 0.697653
O O10 0.280031 0.284453 0.654773
O O11 0.500000 0.620001 0.500000
O O12 0.459882 0.500000 0.463246
O O13 0.569195 0.743007 0.782235
O O14 0.328610 0.851215 0.509151
O O15 0.329502 0.000000 0.582562
O O16 0.750000 0.750000 0.500000
#
# Coordination Sequence:
#
# PCOD9182099 Si02
#       7
#     8   8   8   8   4   8   8
#     4  10  20  35  60  91 121 155 196 250 317 368
#     4  10  22  38  62  90 116 162 207 250 305 367
#     4  10  21  38  58  87 122 154 202 261 304 359
#     4  10  19  32  55  88 123 154 187 243 316 372
#     4  12  21  38  63  86 118 160 210 258 295 362
#     4  10  22  41  62  89 127 163 202 254 313 371
#     4  11  23  39  61  90 120 165 211 254 300 361
#
# _framework density 18.597175
#
# number of rings (size 3 to 8) (size 9 to 14) (size 15 to 20)
#    0.000    1.692    3.077    1.615    0.000    7.077 
#    0.000    1.154    0.000    0.000    0.000    0.000 
#    0.000    0.000    0.000    0.000    0.000    0.000 
#
# Total GULP energy -144984.130694 kJ/mol
# GULP energy per Si atom -5576.312719 kJ/mol
# Density = 1.855485 g / cm^3
# Si number density = 18.597175 Si / 1000 Ang^3
#
#
#
# Elastic Constant Matrix: (Units=GPa)
#
#
# Indices 1 2 3 4 5 6 
#
# 1 82.6185 26.8051 47.7961 0.0000 4.8339 0.0000
# 2 26.8051 66.4372 34.1130 0.0000 6.7022 0.0000
# 3 47.7961 34.1130 145.0158 0.0000 2.8822 0.0000
# 4 0.0000 0.0000 0.0000 24.0843 0.0000 -4.3408
# 5 4.8339 6.7022 2.8822 0.0000 31.2744 0.0000
# 6 0.0000 0.0000 0.0000 -4.3408 0.0000 15.9374
#
#
#
# Elastic Compliance Matrix: (Units=1/GPa)
#
#
# Indices 1 2 3 4 5 6 
#
# 1 0.015987 -0.004136 -0.004273 0.000000 -0.001191 0.000000
# 2 -0.004136 0.018537 -0.002936 0.000000 -0.003063 0.000000
# 3 -0.004273 -0.002936 0.008986 0.000000 0.000462 0.000000
# 4 0.000000 0.000000 0.000000 0.043664 0.000000 0.011893
# 5 -0.001191 -0.003063 0.000462 0.000000 0.032773 0.000000
# 6 0.000000 0.000000 0.000000 0.011893 0.000000 0.065985
#
#
# Mechanical properties :
#
#
# Convention : Reuss Voigt Hill
#
# Bulk Modulus (GPa) = 48.03205 56.83330 52.43268
# Shear Modulus (GPa) = 23.19510 26.61638 24.90574
#
# Velocity S-wave (km/s) = 3.53546 3.78723 3.66351
# Velocity P-wave (km/s) = 6.52301 7.05342 6.79339
#
# Compressibility (1/GPa) = 0.02081943
#
# Stress axis : x y z
#
# Youngs Moduli (GPa) = 62.54972 53.94491 111.28903
#
# Poissons Ratio (x) = 0.22314 0.47549
# Poissons Ratio (y) = 0.25873 0.32680
# Poissons Ratio (z) = 0.26725 0.15841
#
# Static dielectric constant tensor:
#      x y z
#    x 1.663590 0.000000 0.019790 
#    y 0.000000 1.657560 0.000000 
#    z 0.019790 0.000000 1.650110 
# 
# From -- ./inp_files/184314.got.cif
#   From: 2010.05.17/outbox.cif.g08.bks.cpg/sg12_93_cif.got.tgz:184314.got - 2010.06.03 13:09:07.
