data_PCOD9182446
_publ_section_title
;
Structure prediction by ZEFSAII (Michael W. Deem and Ramdas Pophale) SiO2 
 PCOD9182446
Probable space group: C 2/M
;
_chemical_formula_sum "Si O2"
_cell_formula_units_Z 56
_cell_length_a 26.161547
_cell_length_b 9.075240
_cell_length_c 19.527983
_cell_angle_alpha 90.000000
_cell_angle_beta 131.673889
_cell_angle_gamma 90.000000
_cell_volume 3463.102787
_symmetry_space_group_name_H-M "C 2/M"
_symmetry_group_IT_number 12
_symmetry_cell_setting 'monoclinic'
loop_
_space_group_symop_operation_xyz
x,y,z
-x,y,-z
-x,-y,-z
x,-y,z
1/2+x,1/2+y,z
1/2-x,1/2+y,-z
1/2-x,1/2-y,-z
1/2+x,1/2-y,z
loop_
_atom_site_type_symbol
_atom_site_label
_atom_site_fract_x
_atom_site_fract_y
_atom_site_fract_z
Si Si1 0.996956 0.322851 0.786037
Si Si2 0.641488 0.675814 0.889288
Si Si3 0.945009 0.323854 0.891622
Si Si4 0.298459 0.323423 0.784371
Si Si5 0.355899 0.175579 0.590661
Si Si6 0.760400 0.825080 0.399426
Si Si7 0.752546 0.176456 0.896335
O O1 0.005648 0.500000 0.791308
O O2 0.066734 0.245253 0.827147
O O3 0.976037 0.284208 0.845312
O O4 0.932556 0.284091 0.680614
O O5 0.637529 0.500000 0.879993
O O6 0.686699 0.742164 0.868193
O O7 0.684068 0.711882 0.996601
O O8 0.930983 0.500000 0.878147
O O9 0.874666 0.239958 0.842712
O O10 0.000000 0.294093 0.000000
O O11 0.299714 0.500000 0.779920
O O12 0.252355 0.255149 0.683365
O O13 0.270840 0.283697 0.835085
O O14 0.305895 0.203288 0.611048
O O15 0.324368 0.262335 0.498871
O O16 0.353080 0.000000 0.574809
O O17 0.765851 0.000000 0.394819
O O18 0.741763 0.000000 0.890376
#
# Coordination Sequence:
#
# PCOD9182446 Si02
#       7
#     8   8   8   8   8   8   8
#     4  10  19  33  51  74 106 140 169 206 256 310
#     4  10  20  34  54  78 101 132 178 221 254 297
#     4  10  20  33  49  73 106 141 173 206 252 307
#     4  11  21  33  52  76 105 138 172 211 258 309
#     4   9  18  33  51  73 103 137 174 209 252 309
#     4  10  19  33  52  75 104 134 173 215 255 306
#     4   9  20  37  53  73 103 138 175 214 257 306
#
# _framework density 16.170470999999999
#
# number of rings (size 3 to 8) (size 9 to 14) (size 15 to 20)
#    0.000    2.143    1.429    2.143    0.000    3.714 
#    0.000    0.000    0.000    0.857    0.000    6.000 
#    0.000    0.000    0.000    0.000    0.000    0.000 
#
# Total GULP energy -156290.092516 kJ/mol
# GULP energy per Si atom -5581.789018 kJ/mol
# Density = 1.613367 g / cm^3
# Si number density = 16.170471 Si / 1000 Ang^3
#
#
#
# Elastic Constant Matrix: (Units=GPa)
#
#
# Indices 1 2 3 4 5 6 
#
# 1 128.3228 59.2510 89.8553 0.0000 12.5631 0.0000
# 2 59.2510 45.0645 60.6565 0.0000 4.6520 0.0000
# 3 89.8553 60.6565 126.9085 0.0000 9.9567 0.0000
# 4 0.0000 0.0000 0.0000 24.3971 0.0000 7.1912
# 5 12.5631 4.6520 9.9567 0.0000 21.8420 0.0000
# 6 0.0000 0.0000 0.0000 7.1912 0.0000 27.4237
#
#
#
# Elastic Compliance Matrix: (Units=1/GPa)
#
#
# Indices 1 2 3 4 5 6 
#
# 1 0.021430 -0.021776 -0.004317 0.000000 -0.005721 0.000000
# 2 -0.021776 0.084344 -0.025375 0.000000 0.006128 0.000000
# 3 -0.004317 -0.025375 0.023278 0.000000 -0.002724 0.000000
# 4 0.000000 0.000000 0.000000 0.044422 0.000000 -0.011649
# 5 -0.005721 0.006128 -0.002724 0.000000 0.049010 0.000000
# 6 0.000000 0.000000 0.000000 -0.011649 0.000000 0.039519
#
#
# Mechanical properties :
#
#
# Convention : Reuss Voigt Hill
#
# Bulk Modulus (GPa) = 38.29012 79.98015 59.13514
# Shear Modulus (GPa) = 13.38174 20.76810 17.07492
#
# Velocity S-wave (km/s) = 2.87982 3.58763 3.25304
# Velocity P-wave (km/s) = 5.89816 8.16881 7.12453
#
# Compressibility (1/GPa) = 0.02611639
#
# Stress axis : x y z
#
# Youngs Moduli (GPa) = 46.66326 11.85625 42.95941
#
# Poissons Ratio (x) = 0.25818 0.18544
# Poissons Ratio (y) = 1.01614 1.09010
# Poissons Ratio (z) = 0.20142 0.30085
#
# Static dielectric constant tensor:
#      x y z
#    x 1.509220 0.000000 -0.004980 
#    y 0.000000 1.536420 0.000000 
#    z -0.004980 0.000000 1.532770 
# 
# From -- ./inp_files/288158.got.cif
#   From: 2010.05.17/outbox.cif.g08.bks.cpg/sg12_145_cif.got.tgz:288158.got - 2010.06.03 13:09:07.
