data_PCOD9182980
_publ_section_title
;
Structure prediction by ZEFSAII (Michael W. Deem and Ramdas Pophale) SiO2 
 PCOD9182980
Probable space group: C 2/M
;
_chemical_formula_sum "Si O2"
_cell_formula_units_Z 64
_cell_length_a 29.535219
_cell_length_b 8.535325
_cell_length_c 19.551348
_cell_angle_alpha 90.000000
_cell_angle_beta 40.936170
_cell_angle_gamma 90.000000
_cell_volume 3229.406233
_symmetry_space_group_name_H-M "C 2/M"
_symmetry_group_IT_number 12
_symmetry_cell_setting 'monoclinic'
loop_
_space_group_symop_operation_xyz
x,y,z
-x,y,-z
-x,-y,-z
x,-y,z
1/2+x,1/2+y,z
1/2-x,1/2+y,-z
1/2-x,1/2-y,-z
1/2+x,1/2-y,z
loop_
_atom_site_type_symbol
_atom_site_label
_atom_site_fract_x
_atom_site_fract_y
_atom_site_fract_z
Si Si1 0.325027 0.316547 0.832590
Si Si2 0.895148 0.808455 0.887829
Si Si3 0.821958 0.313904 0.386094
Si Si4 0.699809 0.688326 0.885092
Si Si5 0.072045 0.317438 0.384570
Si Si6 0.716809 0.309832 0.709732
Si Si7 0.951046 0.814070 0.325016
Si Si8 0.871817 0.317861 0.532781
O O1 0.309190 0.500000 0.853728
O O2 0.341059 0.256528 0.890670
O O3 0.266151 0.235212 0.854770
O O4 0.396596 0.286655 0.710414
O O5 0.972834 0.755466 0.782561
O O6 0.895471 0.000000 0.884586
O O7 0.866123 0.761053 0.994718
O O8 0.818306 0.500000 0.392334
O O9 0.750000 0.250000 0.500000
O O10 0.828212 0.254836 0.300814
O O11 0.888391 0.257731 0.352820
O O12 0.699795 0.500000 0.881541
O O13 0.700780 0.744165 0.805416
O O14 0.065383 0.500000 0.369837
O O15 0.122731 0.312464 0.391838
O O16 0.000000 0.268091 0.500000
O O17 0.715102 0.500000 0.710773
O O18 0.795447 0.260665 0.602439
O O19 0.931217 0.773608 0.425665
O O20 0.950221 0.000000 0.316546
O O21 0.878487 0.500000 0.505037
#
# Coordination Sequence:
#
# PCOD9182980 Si02
#       8
#     8   8   8   8   8   8   8   8
#     4  11  21  34  55  86 120 151 193 242 286 337
#     4   9  21  39  59  85 116 153 197 239 283 335
#     4  12  24  39  61  88 117 149 185 231 287 347
#     4  10  20  40  64  83 113 156 199 241 279 329
#     4  10  20  34  52  77 112 155 197 234 280 340
#     4  10  20  36  60  86 112 145 189 235 281 335
#     4  11  22  38  60  86 116 151 190 235 287 344
#     4  10  19  33  53  81 114 148 188 232 279 339
#
# _framework density 19.817883999999999
#
# number of rings (size 3 to 8) (size 9 to 14) (size 15 to 20)
#    0.000    1.625    2.500    3.000    0.000    1.250 
#    0.000    4.375    0.000    3.750    0.000    0.000 
#    0.000    0.000    0.000    0.000    0.000    0.000 
#
# Total GULP energy -178675.195670 kJ/mol
# GULP energy per Si atom -5583.599865 kJ/mol
# Density = 1.977278 g / cm^3
# Si number density = 19.817884 Si / 1000 Ang^3
#
#
#
# Elastic Constant Matrix: (Units=GPa)
#
#
# Indices 1 2 3 4 5 6 
#
# 1 75.6420 8.4604 42.3859 0.0298 15.6763 -0.0167
# 2 8.4604 24.4679 25.0157 0.0358 5.3738 -0.0263
# 3 42.3859 25.0157 117.2947 0.0405 15.8233 -0.0299
# 4 0.0298 0.0358 0.0405 18.2134 -0.0186 -1.0127
# 5 15.6763 5.3738 15.8233 -0.0186 29.2438 0.0121
# 6 -0.0167 -0.0263 -0.0299 -1.0127 0.0121 21.1614
#
#
#
# Elastic Compliance Matrix: (Units=1/GPa)
#
#
# Indices 1 2 3 4 5 6 
#
# 1 0.017675 0.001223 -0.005760 -0.000025 -0.006583 0.000010
# 2 0.001223 0.052757 -0.011108 -0.000083 -0.004340 0.000049
# 3 -0.005760 -0.011108 0.013251 0.000000 -0.002041 0.000002
# 4 -0.000025 -0.000083 0.000000 0.055051 0.000063 0.002634
# 5 -0.006583 -0.004340 -0.002041 0.000063 0.039626 -0.000033
# 6 0.000010 0.000049 0.000002 0.002634 -0.000033 0.047382
#
#
# Mechanical properties :
#
#
# Convention : Reuss Voigt Hill
#
# Bulk Modulus (GPa) = 19.08622 41.01429 30.05025
# Shear Modulus (GPa) = 18.21509 23.15990 20.68750
#
# Velocity S-wave (km/s) = 3.03499 3.42224 3.23442
# Velocity P-wave (km/s) = 4.68330 6.02961 5.39859
#
# Compressibility (1/GPa) = 0.05239383
#
# Stress axis : x y z
#
# Youngs Moduli (GPa) = 56.57622 18.95482 75.46380
#
# Poissons Ratio (x) = -0.02318 0.43467
# Poissons Ratio (y) = -0.06920 0.83826
# Poissons Ratio (z) = 0.32588 0.21055
#
# Static dielectric constant tensor:
#      x y z
#    x 1.721740 -0.000010 0.002570 
#    y -0.000010 1.684560 0.000010 
#    z 0.002570 0.000010 1.720730 
# 
# From -- ./inp_files/295517.got.cif
#   From: 2010.05.17/outbox.cif.g08.bks.cpg/sg12_148_cif.got.tgz:295517.got - 2010.06.03 13:09:07.
