data_PCOD9182857
_publ_section_title
;
Structure prediction by ZEFSAII (Michael W. Deem and Ramdas Pophale) SiO2 
 PCOD9182857
Probable space group: C 2/M
;
_chemical_formula_sum "Si O2"
_cell_formula_units_Z 56
_cell_length_a 29.520364
_cell_length_b 10.525028
_cell_length_c 10.740464
_cell_angle_alpha 90.000000
_cell_angle_beta 74.392831
_cell_angle_gamma 90.000000
_cell_volume 3214.048542
_symmetry_space_group_name_H-M "C 2/M"
_symmetry_group_IT_number 12
_symmetry_cell_setting 'monoclinic'
loop_
_space_group_symop_operation_xyz
x,y,z
-x,y,-z
-x,-y,-z
x,-y,z
1/2+x,1/2+y,z
1/2-x,1/2+y,-z
1/2-x,1/2-y,-z
1/2+x,1/2-y,z
loop_
_atom_site_type_symbol
_atom_site_label
_atom_site_fract_x
_atom_site_fract_y
_atom_site_fract_z
Si Si1 0.924627 0.649666 0.843938
Si Si2 0.898365 0.349682 0.588897
Si Si3 0.958536 0.861259 0.428736
Si Si4 0.113246 0.653164 0.873524
Si Si5 0.286356 0.146819 0.318284
Si Si6 0.517757 0.720537 0.855383
Si Si7 0.788856 0.643487 0.617075
O O1 0.917806 0.500000 0.838752
O O2 0.915155 0.697359 0.712477
O O3 0.977082 0.678046 0.852416
O O4 0.890148 0.694405 0.979236
O O5 0.910488 0.500000 0.561125
O O6 0.923813 0.257394 0.472900
O O7 0.842239 0.339414 0.622334
O O8 0.978184 0.859106 0.273784
O O9 0.000000 0.847368 0.500000
O O10 0.935991 0.000000 0.467160
O O11 0.107514 0.500000 0.871219
O O12 0.163096 0.683322 0.775433
O O13 0.068452 0.717199 0.841867
O O14 0.246260 0.247162 0.311607
O O15 0.290083 0.149403 0.465596
O O16 0.276022 0.000000 0.290018
O O17 0.500000 0.661228 0.000000
O O18 0.773408 0.500000 0.662877
#
# Coordination Sequence:
#
# PCOD9182857 Si02
#       7
#     8   8   8   8   8   8   8
#     4   9  17  30  50  78 107 138 173 216 264 312
#     4  10  20  35  56  80 105 136 178 219 262 311
#     4  11  23  37  52  76 111 145 175 213 261 312
#     4   9  17  30  51  78 108 136 173 223 267 306
#     4   9  17  31  50  72  99 132 170 212 264 318
#     4  10  19  33  53  77 106 142 182 216 258 311
#     4   9  18  32  51  74 100 129 167 219 266 307
#
# _framework density 17.423507000000001
#
# number of rings (size 3 to 8) (size 9 to 14) (size 15 to 20)
#    0.000    2.429    1.429    1.286    0.000    5.143 
#    0.000    4.286    0.000    1.714    0.000    0.000 
#    0.000    0.000    0.000    0.000    0.000    0.000 
#
# Total GULP energy -155925.168355 kJ/mol
# GULP energy per Si atom -5568.756013 kJ/mol
# Density = 1.738385 g / cm^3
# Si number density = 17.423507 Si / 1000 Ang^3
#
#
#
# Elastic Constant Matrix: (Units=GPa)
#
#
# Indices 1 2 3 4 5 6 
#
# 1 65.4368 46.0542 41.0943 0.0000 -11.7772 0.0000
# 2 46.0542 71.6124 44.4515 0.0000 -16.5901 0.0000
# 3 41.0943 44.4515 95.4798 0.0000 -5.5055 0.0000
# 4 0.0000 0.0000 0.0000 5.7846 0.0000 -11.1064
# 5 -11.7772 -16.5901 -5.5055 0.0000 31.4953 0.0000
# 6 0.0000 0.0000 0.0000 -11.1064 0.0000 8.3981
#
#
#
# Elastic Compliance Matrix: (Units=1/GPa)
#
#
# Indices 1 2 3 4 5 6 
#
# 1 0.029967 -0.015243 -0.005675 0.000000 0.002184 0.000000
# 2 -0.015243 0.030172 -0.006969 0.000000 0.008975 0.000000
# 3 -0.005675 -0.006969 0.015987 0.000000 -0.002998 0.000000
# 4 0.000000 0.000000 0.000000 -0.112316 0.000000 -0.148537
# 5 0.002184 0.008975 -0.002998 0.000000 0.036771 0.000000
# 6 0.000000 0.000000 0.000000 -0.148537 0.000000 -0.077363
#
#
# Mechanical properties :
#
#
# Convention : Reuss Voigt Hill
#
# Bulk Modulus (GPa) = 49.13448 55.08102 52.10775
# Shear Modulus (GPa) = -351.53331 15.86418 -167.83456
#
# Velocity S-wave (km/s) = -14.21957 3.02073 -9.82525
# Velocity P-wave (km/s) = 15.53491 6.62179 9.93693
#
# Compressibility (1/GPa) = 0.02035231
#
# Stress axis : x y z
#
# Youngs Moduli (GPa) = 33.36973 33.14351 62.54909
#
# Poissons Ratio (x) = 0.50522 0.35498
# Poissons Ratio (y) = 0.50866 0.43588
# Poissons Ratio (z) = 0.18938 0.23096
#
# Static dielectric constant tensor:
#      x y z
#    x 1.560670 0.000000 0.011320 
#    y 0.000000 1.594210 0.000000 
#    z 0.011320 0.000000 1.633290 
# 
# From -- ./inp_files/103149.got.cif
#   From: 2010.05.17/outbox.cif.g08.bks.cpg/sg12_52_cif.got.tgz:103149.got - 2010.06.03 13:09:07.
