data_PCOD9182611
_publ_section_title
;
Structure prediction by ZEFSAII (Michael W. Deem and Ramdas Pophale) SiO2 
 PCOD9182611
Probable space group: C 2/M
;
_chemical_formula_sum "Si O2"
_cell_formula_units_Z 56
_cell_length_a 27.556317
_cell_length_b 13.561208
_cell_length_c 10.335988
_cell_angle_alpha 90.000000
_cell_angle_beta 71.143707
_cell_angle_gamma 90.000000
_cell_volume 3655.233735
_symmetry_space_group_name_H-M "C 2/M"
_symmetry_group_IT_number 12
_symmetry_cell_setting 'monoclinic'
loop_
_space_group_symop_operation_xyz
x,y,z
-x,y,-z
-x,-y,-z
x,-y,z
1/2+x,1/2+y,z
1/2-x,1/2+y,-z
1/2-x,1/2-y,-z
1/2+x,1/2-y,z
loop_
_atom_site_type_symbol
_atom_site_label
_atom_site_fract_x
_atom_site_fract_y
_atom_site_fract_z
Si Si1 0.176523 0.690422 0.306027
Si Si2 0.599449 0.118914 0.148824
Si Si3 0.492274 0.119563 0.358370
Si Si4 0.623032 0.880947 0.611027
Si Si5 0.724436 0.386660 0.172487
Si Si6 0.286346 0.387383 0.127759
Si Si7 0.162834 0.310556 0.852955
O O1 0.135708 0.655848 0.233837
O O2 0.154621 0.664276 0.464732
O O3 0.190134 0.805357 0.273800
O O4 0.229816 0.633792 0.232734
O O5 0.541185 0.149267 0.231101
O O6 0.602048 0.000000 0.142722
O O7 0.621375 0.160806 0.996692
O O8 0.500000 0.152861 0.500000
O O9 0.436652 0.148362 0.354007
O O10 0.492775 0.000000 0.360712
O O11 0.644886 0.845007 0.728362
O O12 0.626133 0.000000 0.600740
O O13 0.712500 0.500000 0.214382
O O14 0.783646 0.363858 0.155025
O O15 0.717491 0.372457 0.024153
O O16 0.301218 0.500000 0.140045
O O17 0.324220 0.305344 0.151230
#
# Coordination Sequence:
#
# PCOD9182611 Si02
#       7
#     8   8   8   8   8   8   8
#     4  11  19  32  52  77  98 137 175 197 247 306
#     4  11  18  30  53  74  99 133 169 205 245 302
#     4   9  18  31  49  74 100 130 169 206 247 301
#     4  11  22  34  49  75 110 136 161 208 257 298
#     4  10  19  33  52  77 104 131 170 215 244 290
#     4  10  19  33  53  77 101 131 174 213 242 294
#     4  11  21  34  49  77 105 136 168 202 256 298
#
# _framework density 15.320497
#
# number of rings (size 3 to 8) (size 9 to 14) (size 15 to 20)
#    0.000    1.571    4.286    3.429    0.000    2.857 
#    0.000    4.286    0.000    0.000    0.000    6.000 
#    0.000    0.000    0.000    0.000    0.000    0.000 
#
# Total GULP energy -156257.899261 kJ/mol
# GULP energy per Si atom -5580.639259 kJ/mol
# Density = 1.528563 g / cm^3
# Si number density = 15.320497 Si / 1000 Ang^3
#
#
#
# Elastic Constant Matrix: (Units=GPa)
#
#
# Indices 1 2 3 4 5 6 
#
# 1 70.1801 41.5871 63.7270 0.0000 -15.0953 0.0000
# 2 41.5871 101.0267 55.6797 0.0000 -12.6530 0.0000
# 3 63.7270 55.6797 144.4458 0.0000 -6.4048 0.0000
# 4 0.0000 0.0000 0.0000 23.2132 0.0000 0.6275
# 5 -15.0953 -12.6530 -6.4048 0.0000 19.1003 0.0000
# 6 0.0000 0.0000 0.0000 0.6275 0.0000 20.5597
#
#
#
# Elastic Compliance Matrix: (Units=1/GPa)
#
#
# Indices 1 2 3 4 5 6 
#
# 1 0.030667 -0.004299 -0.011089 0.000000 0.017670 0.000000
# 2 -0.004299 0.014107 -0.003327 0.000000 0.004832 0.000000
# 3 -0.011089 -0.003327 0.012802 0.000000 -0.006675 0.000000
# 4 0.000000 0.000000 0.000000 0.043115 0.000000 -0.001316
# 5 0.017670 0.004832 -0.006675 0.000000 0.067283 0.000000
# 6 0.000000 0.000000 0.000000 -0.001316 0.000000 0.048679
#
#
# Mechanical properties :
#
#
# Convention : Reuss Voigt Hill
#
# Bulk Modulus (GPa) = 49.63929 70.84891 60.24410
# Shear Modulus (GPa) = 19.17207 22.88521 21.02864
#
# Velocity S-wave (km/s) = 3.54135 3.86912 3.70886
# Velocity P-wave (km/s) = 7.01373 8.14279 7.59926
#
# Compressibility (1/GPa) = 0.02014533
#
# Stress axis : x y z
#
# Youngs Moduli (GPa) = 32.60880 70.88783 78.11494
#
# Poissons Ratio (x) = 0.30476 0.86621
# Poissons Ratio (y) = 0.14019 0.25987
# Poissons Ratio (z) = 0.36159 0.23583
#
# Static dielectric constant tensor:
#      x y z
#    x 1.495210 0.000000 -0.003110 
#    y 0.000000 1.507120 0.000000 
#    z -0.003110 0.000000 1.499910 
# 
# From -- ./inp_files/96512.got.cif
#   From: 2010.05.17/outbox.cif.g08.bks.cpg/sg12_49_cif.got.tgz:96512.got - 2010.06.03 13:09:07.
