data_PCOD9182898
_publ_section_title
;
Structure prediction by ZEFSAII (Michael W. Deem and Ramdas Pophale) SiO2 
 PCOD9182898
Probable space group: C 2/M
;
_chemical_formula_sum "Si O2"
_cell_formula_units_Z 56
_cell_length_a 19.960757
_cell_length_b 8.989143
_cell_length_c 31.455230
_cell_angle_alpha 90.000000
_cell_angle_beta 31.838703
_cell_angle_gamma 90.000000
_cell_volume 2977.385972
_symmetry_space_group_name_H-M "C 2/M"
_symmetry_group_IT_number 12
_symmetry_cell_setting 'monoclinic'
loop_
_space_group_symop_operation_xyz
x,y,z
-x,y,-z
-x,-y,-z
x,-y,z
1/2+x,1/2+y,z
1/2-x,1/2+y,-z
1/2-x,1/2-y,-z
1/2+x,1/2-y,z
loop_
_atom_site_type_symbol
_atom_site_label
_atom_site_fract_x
_atom_site_fract_y
_atom_site_fract_z
Si Si1 0.615414 0.829130 0.972180
Si Si2 0.215116 0.823933 0.708438
Si Si3 0.539379 0.323541 0.650636
Si Si4 0.409408 0.178668 0.147347
Si Si5 0.283863 0.176215 0.816161
Si Si6 0.514820 0.324695 0.419168
Si Si7 0.770762 0.323402 0.583352
O O1 0.723150 0.728255 0.893527
O O2 0.659618 0.000000 0.951872
O O3 0.500000 0.828617 0.000000
O O4 0.545548 0.781996 0.053187
O O5 0.116883 0.739877 0.791752
O O6 0.355588 0.764350 0.643863
O O7 0.201284 0.797590 0.665658
O O8 0.208081 0.000000 0.720352
O O9 0.520699 0.500000 0.668882
O O10 0.426047 0.233925 0.733597
O O11 0.529763 0.300785 0.605422
O O12 0.674722 0.281970 0.597441
O O13 0.301059 0.247445 0.175103
O O14 0.397673 0.000000 0.152243
O O15 0.276019 0.000000 0.815871
O O16 0.537525 0.500000 0.413359
O O17 0.401188 0.266024 0.509732
O O18 0.799676 0.500000 0.565007
#
# Coordination Sequence:
#
# PCOD9182898 Si02
#       7
#     8   8   8   8   8   8   8
#     4   8  16  30  49  74 107 142 174 215 266 318
#     4  11  22  36  56  81 110 143 180 225 272 318
#     4  10  21  38  57  77 108 147 183 220 268 324
#     4  10  19  33  53  78 108 143 180 218 266 320
#     4  11  20  30  51  82 111 140 176 221 268 314
#     4  11  22  36  58  82 105 140 184 228 270 319
#     4  10  23  40  56  77 108 146 183 223 272 321
#
# _framework density 18.808444000000001
#
# number of rings (size 3 to 8) (size 9 to 14) (size 15 to 20)
#    0.000    1.857    1.429    4.286    0.000    7.143 
#    0.000    0.000    0.000    0.857    0.000    0.000 
#    0.000    0.000    0.000    0.000    0.000    0.000 
#
# Total GULP energy -156367.802170 kJ/mol
# GULP energy per Si atom -5584.564363 kJ/mol
# Density = 1.876564 g / cm^3
# Si number density = 18.808444 Si / 1000 Ang^3
#
#
#
# Elastic Constant Matrix: (Units=GPa)
#
#
# Indices 1 2 3 4 5 6 
#
# 1 26.9247 8.1520 -13.6887 -0.0001 5.4124 0.0013
# 2 8.1520 54.3604 36.9603 -0.0006 6.4835 0.0029
# 3 -13.6887 36.9603 91.0355 -0.0001 15.4502 -0.0001
# 4 -0.0001 -0.0006 -0.0001 29.2483 0.0000 8.0667
# 5 5.4124 6.4835 15.4502 0.0000 16.7237 0.0000
# 6 0.0013 0.0029 -0.0001 8.0667 0.0000 15.7768
#
#
#
# Elastic Compliance Matrix: (Units=1/GPa)
#
#
# Indices 1 2 3 4 5 6 
#
# 1 0.062787 -0.021690 0.024038 0.000000 -0.034119 -0.000001
# 2 -0.021690 0.032905 -0.018557 0.000002 0.011407 -0.000005
# 3 0.024038 -0.018557 0.026367 -0.000001 -0.024944 0.000002
# 4 0.000000 0.000002 -0.000001 0.039803 0.000000 -0.020351
# 5 -0.034119 0.011407 -0.024944 0.000000 0.089461 0.000001
# 6 -0.000001 -0.000005 0.000002 -0.020351 0.000001 0.073790
#
#
# Mechanical properties :
#
#
# Convention : Reuss Voigt Hill
#
# Bulk Modulus (GPa) = 11.15559 26.12975 18.64267
# Shear Modulus (GPa) = 12.90620 21.74288 17.32454
#
# Velocity S-wave (km/s) = 2.62237 3.40371 3.03826
# Velocity P-wave (km/s) = 3.88756 5.41939 4.71608
#
# Compressibility (1/GPa) = 0.08964115
#
# Stress axis : x y z
#
# Youngs Moduli (GPa) = 15.92678 30.39059 37.92657
#
# Poissons Ratio (x) = 0.65917 -0.91167
# Poissons Ratio (y) = 0.34545 0.70379
# Poissons Ratio (z) = -0.38285 0.56395
#
# Static dielectric constant tensor:
#      x y z
#    x 1.648170 0.000000 0.033590 
#    y 0.000000 1.627450 0.000000 
#    z 0.033590 0.000000 1.659990 
# 
# From -- ./inp_files/380595.got.cif
#   From: 2010.05.17/outbox.cif.g08.bks.cpg/sg12_191_cif.got.tgz:380595.got - 2010.06.03 13:09:07.
