data_PCOD9182558
_publ_section_title
;
Structure prediction by ZEFSAII (Michael W. Deem and Ramdas Pophale) SiO2 
 PCOD9182558
Probable space group: C 2/M
;
_chemical_formula_sum "Si O2"
_cell_formula_units_Z 48
_cell_length_a 14.654631
_cell_length_b 8.208995
_cell_length_c 21.960926
_cell_angle_alpha 90.000000
_cell_angle_beta 89.596546
_cell_angle_gamma 90.000000
_cell_volume 2641.829345
_symmetry_space_group_name_H-M "C 2/M"
_symmetry_group_IT_number 12
_symmetry_cell_setting 'monoclinic'
loop_
_space_group_symop_operation_xyz
x,y,z
-x,y,-z
-x,-y,-z
x,-y,z
1/2+x,1/2+y,z
1/2-x,1/2+y,-z
1/2-x,1/2-y,-z
1/2+x,1/2-y,z
loop_
_atom_site_type_symbol
_atom_site_label
_atom_site_fract_x
_atom_site_fract_y
_atom_site_fract_z
Si Si1 0.895709 0.300979 0.666191
Si Si2 0.251771 0.696334 0.235737
Si Si3 0.395904 0.303119 0.997561
Si Si4 0.750762 0.696796 0.902679
Si Si5 0.748401 0.305278 0.569369
Si Si6 0.103557 0.305271 0.667169
O O1 0.897226 0.500000 0.666192
O O2 0.836597 0.248871 0.725143
O O3 0.837244 0.249557 0.607431
O O4 0.999674 0.243790 0.666211
O O5 0.248442 0.500000 0.233876
O O6 0.253419 0.756922 0.166555
O O7 0.339734 0.743760 0.274920
O O8 0.397065 0.500000 0.998513
O O9 0.334307 0.247325 0.055160
O O10 0.500000 0.245015 0.000000
O O11 0.341926 0.248927 0.937641
O O12 0.748284 0.500000 0.901540
O O13 0.747664 0.500000 0.571213
O O14 0.750000 0.250000 0.500000
O O15 0.660689 0.244894 0.607331
O O16 0.101261 0.500000 0.669791
#
# Coordination Sequence:
#
# PCOD9182558 Si02
#       6
#     8   8   8   8   8   8
#     4   8  17  33  51  69  96 130 159 193 242 293
#     4   9  18  34  51  70  98 130 162 200 246 291
#     4   9  18  32  48  69  99 130 161 203 252 293
#     4   9  18  32  50  70  95 129 166 201 241 294
#     4  10  20  36  54  74 101 132 163 199 241 285
#     4  10  19  33  52  74  97 126 163 199 239 289
#
# _framework density 18.169229000000001
#
# number of rings (size 3 to 8) (size 9 to 14) (size 15 to 20)
#    0.000    2.833    0.000    2.000    0.000    3.000 
#    0.000   11.667    0.000    0.000    0.000    0.000 
#    0.000    0.000    0.000    0.000    0.000    0.000 
#
# Total GULP energy -133821.996070 kJ/mol
# GULP energy per Si atom -5575.916503 kJ/mol
# Density = 1.812788 g / cm^3
# Si number density = 18.169229 Si / 1000 Ang^3
#
#
#
# Elastic Constant Matrix: (Units=GPa)
#
#
# Indices 1 2 3 4 5 6 
#
# 1 188.1057 11.0224 106.3699 0.0000 16.7591 0.0000
# 2 11.0224 6.7871 11.4302 0.0000 -2.2661 0.0000
# 3 106.3699 11.4302 191.5737 0.0000 -8.3692 0.0000
# 4 0.0000 0.0000 0.0000 25.9039 0.0000 4.7047
# 5 16.7591 -2.2661 -8.3692 0.0000 10.5143 0.0000
# 6 0.0000 0.0000 0.0000 4.7047 0.0000 20.7791
#
#
#
# Elastic Compliance Matrix: (Units=1/GPa)
#
#
# Indices 1 2 3 4 5 6 
#
# 1 0.013944 -0.020208 -0.007975 0.000000 -0.032929 0.000000
# 2 -0.020208 0.201773 0.002578 0.000000 0.077750 0.000000
# 3 -0.007975 0.002578 0.010437 0.000000 0.021575 0.000000
# 4 0.000000 0.000000 0.000000 0.040260 0.000000 -0.009115
# 5 -0.032929 0.077750 0.021575 0.000000 0.181525 0.000000
# 6 0.000000 0.000000 0.000000 -0.009115 0.000000 0.050189
#
#
# Mechanical properties :
#
#
# Convention : Reuss Voigt Hill
#
# Bulk Modulus (GPa) = 5.71613 71.56795 38.64204
# Shear Modulus (GPa) = 8.22841 28.61573 18.42207
#
# Velocity S-wave (km/s) = 2.13040 3.97288 3.18766
# Velocity P-wave (km/s) = 3.03386 7.77947 5.90443
#
# Compressibility (1/GPa) = 0.17494346
#
# Stress axis : x y z
#
# Youngs Moduli (GPa) = 71.71676 4.95607 95.81624
#
# Poissons Ratio (x) = 0.10015 0.76413
# Poissons Ratio (y) = 1.44928 -0.24706
# Poissons Ratio (z) = 0.57194 -0.01278
#
# Static dielectric constant tensor:
#      x y z
#    x 1.616540 0.000000 -0.003800 
#    y 0.000000 1.639180 0.000000 
#    z -0.003800 0.000000 1.585060 
# 
# From -- ./inp_files/307996.got.cif
#   From: 2010.05.17/outbox.cif.g08.bks.cpg/sg12_154_cif.got.tgz:307996.got - 2010.06.03 13:09:07.
