data_PCOD9182225
_publ_section_title
;
Structure prediction by ZEFSAII (Michael W. Deem and Ramdas Pophale) SiO2 
 PCOD9182225
Probable space group: C 2/M
;
_chemical_formula_sum "Si O2"
_cell_formula_units_Z 48
_cell_length_a 10.211080
_cell_length_b 20.032955
_cell_length_c 24.631683
_cell_angle_alpha 90.000000
_cell_angle_beta 153.740146
_cell_angle_gamma 90.000000
_cell_volume 2229.297570
_symmetry_space_group_name_H-M "C 2/M"
_symmetry_group_IT_number 12
_symmetry_cell_setting 'monoclinic'
loop_
_space_group_symop_operation_xyz
x,y,z
-x,y,-z
-x,-y,-z
x,-y,z
1/2+x,1/2+y,z
1/2-x,1/2+y,-z
1/2-x,1/2-y,-z
1/2+x,1/2-y,z
loop_
_atom_site_type_symbol
_atom_site_label
_atom_site_fract_x
_atom_site_fract_y
_atom_site_fract_z
Si Si1 0.103318 0.114950 0.404865
Si Si2 0.225674 0.392181 0.365227
Si Si3 0.015419 0.259724 0.331464
Si Si4 0.831363 0.390005 0.311001
Si Si5 0.992869 0.290865 0.933658
Si Si6 0.790523 0.925704 0.179975
O O1 0.401876 0.092919 0.547358
O O2 0.819477 0.101389 0.338252
O O3 0.138702 0.194456 0.406775
O O4 0.010595 0.083007 0.313600
O O5 0.500000 0.422256 0.500000
O O6 0.220911 0.313068 0.377450
O O7 0.933274 0.415059 0.288862
O O8 0.802310 0.233810 0.205396
O O9 0.341714 0.190736 0.308033
O O10 0.515157 0.412783 0.213627
O O11 0.966716 0.370467 0.914984
O O12 0.000000 0.277321 0.000000
O O13 0.250000 0.250000 0.000000
O O14 0.671861 0.000000 0.134409
#
# Coordination Sequence:
#
# PCOD9182225 Si02
#       6
#     8   8   8   8   8   8
#     4  10  19  32  57  89 130 164 204 242 291 372
#     4   8  18  30  53  86 123 161 196 238 296 359
#     4   9  20  30  58  86 124 151 198 254 318 352
#     4   9  19  34  56  89 128 164 199 237 299 371
#     4  11  25  42  65  90 116 152 208 273 323 366
#     4  11  25  41  61  87 124 166 207 255 314 377
#
# _framework density 21.531445000000001
#
# number of rings (size 3 to 8) (size 9 to 14) (size 15 to 20)
#    1.000    1.333    0.000    2.000    9.333    1.667 
#    0.000    0.833    0.000    3.500    0.000    0.000 
#    0.000    0.000    0.000    0.000    0.000    0.000 
#
# Total GULP energy -133686.963294 kJ/mol
# GULP energy per Si atom -5570.290137 kJ/mol
# Density = 2.148244 g / cm^3
# Si number density = 21.531445 Si / 1000 Ang^3
#
#
#
# Elastic Constant Matrix: (Units=GPa)
#
#
# Indices 1 2 3 4 5 6 
#
# 1 100.4594 25.9918 26.2038 -0.0070 0.1496 -0.0014
# 2 25.9918 110.0683 32.7458 -0.0083 11.9467 -0.0025
# 3 26.2038 32.7458 44.7752 -0.0035 -7.1638 -0.0070
# 4 -0.0070 -0.0083 -0.0035 1.1000 -0.0082 -1.1143
# 5 0.1496 11.9467 -7.1638 -0.0082 26.5257 -0.0011
# 6 -0.0014 -0.0025 -0.0070 -1.1143 -0.0011 6.0728
#
#
#
# Elastic Compliance Matrix: (Units=1/GPa)
#
#
# Indices 1 2 3 4 5 6 
#
# 1 0.011880 -0.000620 -0.006757 0.000039 -0.001613 0.000002
# 2 -0.000620 0.013458 -0.010921 -0.000015 -0.009007 -0.000011
# 3 -0.006757 -0.010921 0.036652 0.000173 0.014855 0.000070
# 4 0.000039 -0.000015 0.000173 1.116617 0.000405 0.204883
# 5 -0.001613 -0.009007 0.014855 0.000405 0.045777 0.000095
# 6 0.000002 -0.000011 0.000070 0.204883 0.000095 0.202261
#
#
# Mechanical properties :
#
#
# Convention : Reuss Voigt Hill
#
# Bulk Modulus (GPa) = 39.37908 47.24284 43.31096
# Shear Modulus (GPa) = 3.39742 18.09715 10.74729
#
# Velocity S-wave (km/s) = 1.25750 2.90228 2.23658
# Velocity P-wave (km/s) = 4.52075 5.76367 5.17963
#
# Compressibility (1/GPa) = 0.02539419
#
# Stress axis : x y z
#
# Youngs Moduli (GPa) = 84.17837 74.30346 27.28392
#
# Poissons Ratio (x) = 0.04607 0.18435
# Poissons Ratio (y) = 0.05220 0.29796
# Poissons Ratio (z) = 0.56877 0.81145
#
# Static dielectric constant tensor:
#      x y z
#    x 1.769280 -0.000010 -0.012540 
#    y -0.000010 1.876840 -0.000010 
#    z -0.012540 -0.000010 1.753840 
# 
# From -- ./inp_files/334112.got.cif
#   From: 2010.05.17/outbox.cif.g08.bks.cpg/sg12_168_cif.got.tgz:334112.got - 2010.06.03 13:09:07.
