data_PCOD9182787
_publ_section_title
;
Structure prediction by ZEFSAII (Michael W. Deem and Ramdas Pophale) SiO2 
 PCOD9182787
Probable space group: C 2/M
;
_chemical_formula_sum "Si O2"
_cell_formula_units_Z 56
_cell_length_a 15.302672
_cell_length_b 16.863675
_cell_length_c 13.049539
_cell_angle_alpha 90.000000
_cell_angle_beta 112.022221
_cell_angle_gamma 90.000000
_cell_volume 3121.852893
_symmetry_space_group_name_H-M "C 2/M"
_symmetry_group_IT_number 12
_symmetry_cell_setting 'monoclinic'
loop_
_space_group_symop_operation_xyz
x,y,z
-x,y,-z
-x,-y,-z
x,-y,z
1/2+x,1/2+y,z
1/2-x,1/2+y,-z
1/2-x,1/2-y,-z
1/2+x,1/2-y,z
loop_
_atom_site_type_symbol
_atom_site_label
_atom_site_fract_x
_atom_site_fract_y
_atom_site_fract_z
Si Si1 0.589586 0.672501 0.813803
Si Si2 0.773780 0.410494 0.845880
Si Si3 0.111255 0.737543 0.032323
Si Si4 0.696115 0.907372 0.583271
Si Si5 0.096277 0.743268 0.600234
Si Si6 0.714194 0.833317 0.368824
Si Si7 0.874666 0.178444 0.750055
O O1 0.664056 0.603274 0.824781
O O2 0.593255 0.728100 0.715516
O O3 0.481061 0.648772 0.783440
O O4 0.622089 0.720511 0.928291
O O5 0.802768 0.500000 0.879750
O O6 0.832063 0.343827 0.932118
O O7 0.787926 0.388621 0.732328
O O8 0.142034 0.795064 0.139472
O O9 0.000000 0.722294 0.000000
O O10 0.620353 0.849474 0.602624
O O11 0.698295 0.881092 0.465215
O O12 0.796671 0.882484 0.676408
O O13 0.677999 0.000000 0.586404
O O14 0.184016 0.789768 0.586888
O O15 0.000000 0.761840 0.500000
O O16 0.640861 0.761060 0.319188
#
# Coordination Sequence:
#
# PCOD9182787 Si02
#       7
#     8   8   8   8   8   8   8
#     4  10  19  34  55  75  98 129 166 206 243 288
#     4  10  20  32  50  78 105 126 157 207 257 290
#     4   9  19  36  56  73  94 131 172 203 235 290
#     4  11  21  32  49  74 105 134 162 201 248 297
#     4  10  19  33  53  75  99 129 168 206 243 289
#     4   9  18  34  53  71  96 134 173 203 237 289
#     4   9  18  35  55  72  94 131 175 204 235 289
#
# _framework density 17.938064000000001
#
# number of rings (size 3 to 8) (size 9 to 14) (size 15 to 20)
#    0.000    2.286    0.000    5.143    0.000    1.143 
#    0.000    2.857    0.000    8.143    0.000    0.000 
#    0.000    0.000    0.000    0.000    0.000    0.000 
#
# Total GULP energy -156279.225471 kJ/mol
# GULP energy per Si atom -5581.400910 kJ/mol
# Density = 1.789724 g / cm^3
# Si number density = 17.938064 Si / 1000 Ang^3
#
#
#
# Elastic Constant Matrix: (Units=GPa)
#
#
# Indices 1 2 3 4 5 6 
#
# 1 19.5314 -10.0232 0.7975 0.0000 -1.7936 0.0000
# 2 -10.0232 45.2064 5.5961 0.0000 -10.4277 0.0000
# 3 0.7975 5.5961 88.4121 0.0000 -6.1612 0.0000
# 4 0.0000 0.0000 0.0000 9.4360 0.0000 0.4896
# 5 -1.7936 -10.4277 -6.1612 0.0000 24.8909 0.0000
# 6 0.0000 0.0000 0.0000 0.4896 0.0000 7.1531
#
#
#
# Elastic Compliance Matrix: (Units=1/GPa)
#
#
# Indices 1 2 3 4 5 6 
#
# 1 0.060444 0.016007 -0.000801 0.000000 0.010863 0.000000
# 2 0.016007 0.028789 -0.001064 0.000000 0.012951 0.000000
# 3 -0.000801 -0.001064 0.011549 0.000000 0.002355 0.000000
# 4 0.000000 0.000000 0.000000 0.106355 0.000000 -0.007279
# 5 0.010863 0.012951 0.002355 0.000000 0.046967 0.000000
# 6 0.000000 0.000000 0.000000 -0.007279 0.000000 0.140297
#
#
# Mechanical properties :
#
#
# Convention : Reuss Voigt Hill
#
# Bulk Modulus (GPa) = 7.74804 16.21009 11.97906
# Shear Modulus (GPa) = 12.22073 18.74796 15.48435
#
# Velocity S-wave (km/s) = 2.61295 3.23638 2.94123
# Velocity P-wave (km/s) = 3.66498 4.79811 4.26931
#
# Compressibility (1/GPa) = 0.12906491
#
# Stress axis : x y z
#
# Youngs Moduli (GPa) = 16.54416 34.73567 86.58472
#
# Poissons Ratio (x) = -0.55600 0.06939
# Poissons Ratio (y) = -0.26482 0.09213
# Poissons Ratio (z) = 0.01326 0.03696
#
# Static dielectric constant tensor:
#      x y z
#    x 1.633340 0.000000 0.002790 
#    y 0.000000 1.573300 0.000000 
#    z 0.002790 0.000000 1.618860 
# 
# From -- ./inp_files/145681.got.cif
#   From: 2010.05.17/outbox.cif.g08.bks.cpg/sg12_73_cif.got.tgz:145681.got - 2010.06.03 13:09:07.
