data_PCOD9182333
_publ_section_title
;
Structure prediction by ZEFSAII (Michael W. Deem and Ramdas Pophale) SiO2 
 PCOD9182333
Probable space group: C 2/M
;
_chemical_formula_sum "Si O2"
_cell_formula_units_Z 56
_cell_length_a 11.053857
_cell_length_b 19.225478
_cell_length_c 13.149686
_cell_angle_alpha 90.000000
_cell_angle_beta 107.726153
_cell_angle_gamma 90.000000
_cell_volume 2661.838250
_symmetry_space_group_name_H-M "C 2/M"
_symmetry_group_IT_number 12
_symmetry_cell_setting 'monoclinic'
loop_
_space_group_symop_operation_xyz
x,y,z
-x,y,-z
-x,-y,-z
x,-y,z
1/2+x,1/2+y,z
1/2-x,1/2+y,-z
1/2-x,1/2-y,-z
1/2+x,1/2-y,z
loop_
_atom_site_type_symbol
_atom_site_label
_atom_site_fract_x
_atom_site_fract_y
_atom_site_fract_z
Si Si1 0.844688 0.919666 0.758822
Si Si2 0.717716 0.923797 0.952907
Si Si3 0.442033 0.919527 0.797831
Si Si4 0.873500 0.800620 0.003021
Si Si5 0.990410 0.787799 0.234154
Si Si6 0.073858 0.415506 0.617692
Si Si7 0.714807 0.787026 0.217144
O O1 0.784752 0.920289 0.857922
O O2 0.721349 0.895046 0.662945
O O3 0.960140 0.866781 0.770175
O O4 0.877098 0.000000 0.743900
O O5 0.567314 0.917377 0.900540
O O6 0.776933 0.857120 0.019975
O O7 0.746280 0.000000 0.003710
O O8 0.498288 0.898896 0.701478
O O9 0.335186 0.865742 0.802956
O O10 0.399812 0.000000 0.783369
O O11 0.819715 0.758263 0.893760
O O12 0.930137 0.758251 0.112117
O O13 0.000000 0.840144 0.000000
O O14 0.866469 0.783047 0.273217
O O15 0.121756 0.746292 0.278862
O O16 0.077248 0.500000 0.615776
O O17 0.000000 0.389948 0.500000
#
# Coordination Sequence:
#
# PCOD9182333 Si02
#       7
#     8   8   8   8   8   8   8
#     4   9  17  31  52  81 112 137 174 223 274 327
#     4   9  16  30  50  74 103 136 175 223 270 318
#     4   9  19  34  55  80 108 141 178 225 280 331
#     4  10  19  33  49  75 102 144 194 231 271 315
#     4  11  23  35  52  78 103 149 190 232 272 316
#     4   8  15  31  60  92 113 136 173 218 271 338
#     4  11  22  35  53  74 106 146 187 231 270 325
#
# _framework density 21.038094000000001
#
# number of rings (size 3 to 8) (size 9 to 14) (size 15 to 20)
#    0.000    2.429    2.857    3.000    2.000    3.714 
#    0.000    0.000    0.000    7.286    0.000    4.000 
#    0.000    0.000    0.000    0.000    0.000    0.143 
#
# Total GULP energy -155983.006731 kJ/mol
# GULP energy per Si atom -5570.821669 kJ/mol
# Density = 2.099021 g / cm^3
# Si number density = 21.038094 Si / 1000 Ang^3
#
#
#
# Elastic Constant Matrix: (Units=GPa)
#
#
# Indices 1 2 3 4 5 6 
#
# 1 166.4303 62.7299 21.3118 0.0000 8.4634 0.0000
# 2 62.7299 115.4728 1.8230 0.0000 1.7950 0.0000
# 3 21.3118 1.8230 35.6540 0.0000 6.5244 0.0000
# 4 0.0000 0.0000 0.0000 9.4398 0.0000 0.3177
# 5 8.4634 1.7950 6.5244 0.0000 13.2792 0.0000
# 6 0.0000 0.0000 0.0000 0.3177 0.0000 40.9810
#
#
#
# Elastic Compliance Matrix: (Units=1/GPa)
#
#
# Indices 1 2 3 4 5 6 
#
# 1 0.008363 -0.004435 -0.004292 0.000000 -0.002622 0.000000
# 2 -0.004435 0.011032 0.002024 0.000000 0.000341 0.000000
# 3 -0.004292 0.002024 0.033029 0.000000 -0.013766 0.000000
# 4 0.000000 0.000000 0.000000 0.105962 0.000000 -0.000821
# 5 -0.002622 0.000341 -0.013766 0.000000 0.083694 0.000000
# 6 0.000000 0.000000 0.000000 -0.000821 0.000000 0.024408
#
#
# Mechanical properties :
#
#
# Convention : Reuss Voigt Hill
#
# Bulk Modulus (GPa) = 25.62911 54.36519 39.99715
# Shear Modulus (GPa) = 17.07075 28.18616 22.62846
#
# Velocity S-wave (km/s) = 2.85164 3.66425 3.28318
# Velocity P-wave (km/s) = 4.80116 6.61814 5.78147
#
# Compressibility (1/GPa) = 0.03901814
#
# Stress axis : x y z
#
# Youngs Moduli (GPa) = 119.57503 90.64651 30.27684
#
# Poissons Ratio (x) = 0.40198 0.12996
# Poissons Ratio (y) = 0.53027 -0.06129
# Poissons Ratio (z) = 0.51326 -0.18350
#
# Static dielectric constant tensor:
#      x y z
#    x 1.822070 0.000000 -0.023210 
#    y 0.000000 1.825490 0.000000 
#    z -0.023210 0.000000 1.784550 
# 
# From -- ./inp_files/207298.got.cif
#   From: 2010.05.17/outbox.cif.g08.bks.cpg/sg12_104_cif.got.tgz:207298.got - 2010.06.03 13:09:07.
