data_PCOD9182561
_publ_section_title
;
Structure prediction by ZEFSAII (Michael W. Deem and Ramdas Pophale) SiO2 
 PCOD9182561
Probable space group: C 2/M
;
_chemical_formula_sum "Si O2"
_cell_formula_units_Z 64
_cell_length_a 21.235772
_cell_length_b 7.497946
_cell_length_c 23.408968
_cell_angle_alpha 90.000000
_cell_angle_beta 124.232019
_cell_angle_gamma 90.000000
_cell_volume 3081.593951
_symmetry_space_group_name_H-M "C 2/M"
_symmetry_group_IT_number 12
_symmetry_cell_setting 'monoclinic'
loop_
_space_group_symop_operation_xyz
x,y,z
-x,y,-z
-x,-y,-z
x,-y,z
1/2+x,1/2+y,z
1/2-x,1/2+y,-z
1/2-x,1/2-y,-z
1/2+x,1/2-y,z
loop_
_atom_site_type_symbol
_atom_site_label
_atom_site_fract_x
_atom_site_fract_y
_atom_site_fract_z
Si Si1 0.729794 0.718350 0.774597
Si Si2 0.230722 0.287857 0.080824
Si Si3 0.553528 0.717614 0.693573
Si Si4 0.490352 0.714617 0.783857
Si Si5 0.282001 0.713792 0.453522
Si Si6 0.369916 0.285673 0.072729
Si Si7 0.955863 0.218120 0.534539
Si Si8 0.312669 0.212374 0.702843
O O1 0.731341 0.500000 0.774560
O O2 0.767359 0.778324 0.853443
O O3 0.641146 0.771088 0.730157
O O4 0.772908 0.781651 0.740074
O O5 0.241581 0.500000 0.089923
O O6 0.302824 0.218064 0.080847
O O7 0.156185 0.257219 0.004621
O O8 0.553100 0.500000 0.693894
O O9 0.520374 0.777547 0.737432
O O10 0.501126 0.774857 0.614158
O O11 0.494992 0.500000 0.785158
O O12 0.549048 0.778147 0.862506
O O13 0.402801 0.759712 0.748585
O O14 0.285323 0.500000 0.449657
O O15 0.250000 0.750000 0.500000
O O16 0.368537 0.779076 0.490967
O O17 0.227264 0.782570 0.375185
O O18 0.369768 0.500000 0.076561
O O19 0.000000 0.273572 0.500000
O O20 0.955424 0.000000 0.534482
O O21 0.300127 0.000000 0.696494
#
# Coordination Sequence:
#
# PCOD9182561 Si02
#       8
#     8   8   8   8   8   8   8   8
#     4   9  16  30  50  73 100 131 165 204 251 296
#     4   9  16  29  51  76  99 126 162 203 248 295
#     4   9  15  26  48  72  93 122 163 205 242 285
#     4  10  19  33  52  74  99 131 168 204 243 294
#     4  10  20  34  51  74 101 132 168 205 248 297
#     4   9  17  30  49  75 102 127 161 204 247 290
#     4   9  16  26  44  72  99 121 155 205 250 285
#     4  10  21  34  50  73 104 134 163 205 252 296
#
# _framework density 20.768471999999999
#
# number of rings (size 3 to 8) (size 9 to 14) (size 15 to 20)
#    0.000    2.625    1.250    1.500    0.000    5.000 
#    0.000    1.250    0.000    4.875    0.000    0.000 
#    0.000    0.000    0.000    0.000    0.000    0.000 
#
# Total GULP energy -178671.763042 kJ/mol
# GULP energy per Si atom -5583.492595 kJ/mol
# Density = 2.072120 g / cm^3
# Si number density = 20.768472 Si / 1000 Ang^3
#
#
#
# Elastic Constant Matrix: (Units=GPa)
#
#
# Indices 1 2 3 4 5 6 
#
# 1 176.8413 0.8328 116.7812 0.0000 9.9675 0.0000
# 2 0.8328 53.9598 5.6343 0.0000 -2.3249 -0.0002
# 3 116.7812 5.6343 233.0554 0.0000 15.5863 0.0000
# 4 0.0000 0.0000 0.0000 11.3589 0.0000 0.6024
# 5 9.9675 -2.3249 15.5863 0.0000 23.4336 0.0000
# 6 0.0000 -0.0002 0.0000 0.6024 0.0000 4.7017
#
#
#
# Elastic Compliance Matrix: (Units=1/GPa)
#
#
# Indices 1 2 3 4 5 6 
#
# 1 0.008470 0.000274 -0.004199 0.000000 -0.000783 0.000000
# 2 0.000274 0.018701 -0.000739 0.000000 0.002230 0.000001
# 3 -0.004199 -0.000739 0.006591 0.000000 -0.002671 0.000000
# 4 0.000000 0.000000 0.000000 0.088639 0.000000 -0.011358
# 5 -0.000783 0.002230 -0.002671 0.000000 0.045005 0.000000
# 6 0.000000 0.000001 0.000000 -0.011358 0.000000 0.214143
#
#
# Mechanical properties :
#
#
# Convention : Reuss Voigt Hill
#
# Bulk Modulus (GPa) = 40.92262 78.92813 59.92537
# Shear Modulus (GPa) = 12.53064 30.60607 21.56836
#
# Velocity S-wave (km/s) = 2.45898 3.84302 3.22609
# Velocity P-wave (km/s) = 5.27343 7.60119 6.54168
#
# Compressibility (1/GPa) = 0.02443636
#
# Stress axis : x y z
#
# Youngs Moduli (GPa) = 118.05993 53.47228 151.71738
#
# Poissons Ratio (x) = -0.01465 0.63700
# Poissons Ratio (y) = -0.03234 0.11205
# Poissons Ratio (z) = 0.49569 0.03949
#
# Static dielectric constant tensor:
#      x y z
#    x 1.693480 0.000000 0.005620 
#    y 0.000000 1.815540 0.000000 
#    z 0.005620 0.000000 1.773120 
# 
# From -- ./inp_files/315373.got.cif
#   From: 2010.05.17/outbox.cif.g08.bks.cpg/sg12_158_cif.got.tgz:315373.got - 2010.06.03 13:09:07.
