data_PCOD9182165
_publ_section_title
;
Structure prediction by ZEFSAII (Michael W. Deem and Ramdas Pophale) SiO2 
 PCOD9182165
Probable space group: C 2/M
;
_chemical_formula_sum "Si O2"
_cell_formula_units_Z 56
_cell_length_a 20.879156
_cell_length_b 22.424925
_cell_length_c 11.115142
_cell_angle_alpha 90.000000
_cell_angle_beta 32.587079
_cell_angle_gamma 90.000000
_cell_volume 2802.914240
_symmetry_space_group_name_H-M "C 2/M"
_symmetry_group_IT_number 12
_symmetry_cell_setting 'monoclinic'
loop_
_space_group_symop_operation_xyz
x,y,z
-x,y,-z
-x,-y,-z
x,-y,z
1/2+x,1/2+y,z
1/2-x,1/2+y,-z
1/2-x,1/2-y,-z
1/2+x,1/2-y,z
loop_
_atom_site_type_symbol
_atom_site_label
_atom_site_fract_x
_atom_site_fract_y
_atom_site_fract_z
Si Si1 0.480504 0.934843 0.887348
Si Si2 0.362026 0.208491 0.200448
Si Si3 0.251313 0.862753 0.190904
Si Si4 0.668273 0.344344 0.678663
Si Si5 0.295437 0.431814 0.966854
Si Si6 0.789834 0.566794 0.646441
Si Si7 0.440692 0.570424 0.337987
O O1 0.594591 0.928693 0.620920
O O2 0.429603 0.000000 0.940815
O O3 0.500000 0.934214 0.000000
O O4 0.380873 0.889236 0.009793
O O5 0.280827 0.201267 0.206666
O O6 0.365344 0.277398 0.234477
O O7 0.285713 0.166913 0.410994
O O8 0.500000 0.190537 0.000000
O O9 0.221637 0.878533 0.100643
O O10 0.152133 0.900480 0.420449
O O11 0.703765 0.382060 0.737606
O O12 0.578334 0.385714 0.745433
O O13 0.287471 0.500000 0.927947
O O14 0.426763 0.427511 0.817792
O O15 0.199859 0.427885 0.226446
O O16 0.739774 0.500000 0.704437
O O17 0.412759 0.500000 0.358165
#
# Coordination Sequence:
#
# PCOD9182165 Si02
#       7
#     8   8   8   8   8   8   8
#     4  10  19  32  56  86 114 147 189 238 288 341
#     4  10  22  38  59  83 107 149 198 247 285 329
#     4  11  20  36  57  82 117 155 194 237 281 337
#     4  10  21  37  59  84 112 146 191 242 295 336
#     4  10  22  36  54  87 125 157 187 227 286 355
#     4  10  21  36  56  87 121 148 185 236 295 356
#     4  10  20  35  60  90 117 150 191 237 292 350
#
# _framework density 19.979206000000001
#
# number of rings (size 3 to 8) (size 9 to 14) (size 15 to 20)
#    0.000    1.857    0.000    5.143    2.000    2.857 
#    0.000    5.000    0.000    0.429    3.714    0.000 
#    0.000    0.000    0.000    0.000    0.000    0.000 
#
# Total GULP energy -155903.368512 kJ/mol
# GULP energy per Si atom -5567.977447 kJ/mol
# Density = 1.993373 g / cm^3
# Si number density = 19.979206 Si / 1000 Ang^3
#
#
#
# Elastic Constant Matrix: (Units=GPa)
#
#
# Indices 1 2 3 4 5 6 
#
# 1 78.5393 27.0636 30.1145 0.0001 5.4336 0.0000
# 2 27.0636 27.7291 34.9403 0.0001 4.2274 0.0000
# 3 30.1145 34.9403 87.9285 0.0001 3.2257 -0.0006
# 4 0.0001 0.0001 0.0001 5.1090 -0.0001 0.9998
# 5 5.4336 4.2274 3.2257 -0.0001 27.1477 0.0002
# 6 0.0000 0.0000 -0.0006 0.9998 0.0002 8.4586
#
#
#
# Elastic Compliance Matrix: (Units=1/GPa)
#
#
# Indices 1 2 3 4 5 6 
#
# 1 0.019336 -0.020911 0.001717 0.000000 -0.000818 0.000000
# 2 -0.020911 0.096558 -0.030944 0.000000 -0.007174 -0.000002
# 3 0.001717 -0.030944 0.023017 0.000000 0.001740 0.000001
# 4 0.000000 0.000000 0.000000 0.200367 0.000001 -0.023683
# 5 -0.000818 -0.007174 0.001740 0.000001 0.037910 -0.000001
# 6 0.000000 -0.000002 0.000001 -0.023683 -0.000001 0.121022
#
#
# Mechanical properties :
#
#
# Convention : Reuss Voigt Hill
#
# Bulk Modulus (GPa) = 25.88347 42.04820 33.96583
# Shear Modulus (GPa) = 8.17841 14.94830 11.56336
#
# Velocity S-wave (km/s) = 2.02543 2.73828 2.40837
# Velocity P-wave (km/s) = 4.29571 5.57577 4.97707
#
# Compressibility (1/GPa) = 0.03863470
#
# Stress axis : x y z
#
# Youngs Moduli (GPa) = 51.71594 10.35646 43.44527
#
# Poissons Ratio (x) = 0.21657 -0.07460
# Poissons Ratio (y) = 1.08144 1.34439
# Poissons Ratio (z) = -0.08880 0.32048
#
# Static dielectric constant tensor:
#      x y z
#    x 1.743720 0.000000 0.067450 
#    y 0.000000 1.767310 0.000000 
#    z 0.067450 0.000000 1.803890 
# 
# From -- ./inp_files/178257.got.cif
#   From: 2010.05.17/outbox.cif.g08.bks.cpg/sg12_90_cif.got.tgz:178257.got - 2010.06.03 13:09:07.
