data_PCOD9182704
_publ_section_title
;
Structure prediction by ZEFSAII (Michael W. Deem and Ramdas Pophale) SiO2 
 PCOD9182704
Probable space group: C 2/M
;
_chemical_formula_sum "Si O2"
_cell_formula_units_Z 48
_cell_length_a 10.052005
_cell_length_b 14.833685
_cell_length_c 20.290374
_cell_angle_alpha 90.000000
_cell_angle_beta 130.266571
_cell_angle_gamma 90.000000
_cell_volume 2308.565887
_symmetry_space_group_name_H-M "C 2/M"
_symmetry_group_IT_number 12
_symmetry_cell_setting 'monoclinic'
loop_
_space_group_symop_operation_xyz
x,y,z
-x,y,-z
-x,-y,-z
x,-y,z
1/2+x,1/2+y,z
1/2-x,1/2+y,-z
1/2-x,1/2-y,-z
1/2+x,1/2-y,z
loop_
_atom_site_type_symbol
_atom_site_label
_atom_site_fract_x
_atom_site_fract_y
_atom_site_fract_z
Si Si1 0.579825 0.609485 0.718559
Si Si2 0.621652 0.669144 0.476679
Si Si3 0.552703 0.889716 0.205558
Si Si4 0.944517 0.602329 0.644969
Si Si5 0.164774 0.109822 0.094294
Si Si6 0.818480 0.890425 0.746550
O O1 0.581273 0.500000 0.719666
O O2 0.488471 0.638489 0.621226
O O3 0.780968 0.640870 0.783216
O O4 0.462502 0.643238 0.741593
O O5 0.500000 0.688903 0.500000
O O6 0.750000 0.750000 0.500000
O O7 0.768491 0.599602 0.547933
O O8 0.586890 0.859582 0.292234
O O9 0.354439 0.861526 0.127526
O O10 0.555019 0.000000 0.203128
O O11 0.996968 0.500000 0.675748
O O12 0.119425 0.641109 0.667283
O O13 0.151364 0.133117 0.167402
O O14 0.163673 0.000000 0.091515
O O15 0.000000 0.142641 0.000000
O O16 0.829299 0.000000 0.744477
#
# Coordination Sequence:
#
# PCOD9182704 Si02
#       6
#     8   8   8   8   8   8
#     4  10  19  33  53  72  96 134 176 213 245 284
#     4  12  26  37  48  70 102 132 164 214 257 300
#     4   8  14  26  46  70  92 123 169 206 235 286
#     4   9  17  33  54  70  91 131 176 207 237 289
#     4   8  13  24  43  69 104 137 159 191 248 306
#     4   8  16  28  46  73  99 127 167 207 241 289
#
# _framework density 20.79213
#
# number of rings (size 3 to 8) (size 9 to 14) (size 15 to 20)
#    0.000    2.833    1.667    2.500    2.333    0.667 
#    0.000    3.333    0.000    5.000    0.000    0.000 
#    0.000   21.333    0.000    0.000    0.000    0.000 
#
# Total GULP energy -133741.915614 kJ/mol
# GULP energy per Si atom -5572.579817 kJ/mol
# Density = 2.074481 g / cm^3
# Si number density = 20.792130 Si / 1000 Ang^3
#
#
#
# Elastic Constant Matrix: (Units=GPa)
#
#
# Indices 1 2 3 4 5 6 
#
# 1 227.8103 13.0140 72.8520 0.0000 34.2533 0.0000
# 2 13.0140 39.9422 -1.7635 0.0000 2.5985 0.0000
# 3 72.8520 -1.7635 111.7621 0.0000 33.2513 0.0000
# 4 0.0000 0.0000 0.0000 -1.9026 0.0000 4.3507
# 5 34.2533 2.5985 33.2513 0.0000 29.4966 0.0000
# 6 0.0000 0.0000 0.0000 4.3507 0.0000 6.1892
#
#
#
# Elastic Compliance Matrix: (Units=1/GPa)
#
#
# Indices 1 2 3 4 5 6 
#
# 1 0.005935 -0.001831 -0.002851 0.000000 -0.003516 0.000000
# 2 -0.001831 0.025935 0.002482 0.000000 -0.002957 0.000000
# 3 -0.002851 0.002482 0.014934 0.000000 -0.013743 0.000000
# 4 0.000000 0.000000 0.000000 -0.201577 0.000000 0.141698
# 5 -0.003516 -0.002957 -0.013743 0.000000 0.053738 0.000000
# 6 0.000000 0.000000 0.000000 0.141698 0.000000 0.061965
#
#
# Mechanical properties :
#
#
# Convention : Reuss Voigt Hill
#
# Bulk Modulus (GPa) = 23.58261 60.85774 42.22018
# Shear Modulus (GPa) = -243.46394 26.45080 -108.50657
#
# Velocity S-wave (km/s) = -10.83275 3.57060 -7.23185
# Velocity P-wave (km/s) = 12.04566 6.80676 7.02730
#
# Compressibility (1/GPa) = 0.04240412
#
# Stress axis : x y z
#
# Youngs Moduli (GPa) = 168.49987 38.55845 66.96115
#
# Poissons Ratio (x) = 0.07059 0.19092
# Poissons Ratio (y) = 0.30849 -0.16623
# Poissons Ratio (z) = 0.48044 -0.09572
#
# Static dielectric constant tensor:
#      x y z
#    x 1.770210 0.000000 0.029700 
#    y 0.000000 0.817240 0.000000 
#    z 0.029700 0.000000 1.762070 
# 
# From -- ./inp_files/195927.got.cif
#   From: 2010.05.17/outbox.cif.g08.bks.cpg/sg12_98_cif.got.tgz:195927.got - 2010.06.03 13:09:07.
