data_PCOD9182116
_publ_section_title
;
Structure prediction by ZEFSAII (Michael W. Deem and Ramdas Pophale) SiO2 
 PCOD9182116
Probable space group: C 2/M
;
_chemical_formula_sum "Si O2"
_cell_formula_units_Z 52
_cell_length_a 12.082484
_cell_length_b 17.116925
_cell_length_c 18.078322
_cell_angle_alpha 90.000000
_cell_angle_beta 37.646728
_cell_angle_gamma 90.000000
_cell_volume 2283.667164
_symmetry_space_group_name_H-M "C 2/M"
_symmetry_group_IT_number 12
_symmetry_cell_setting 'monoclinic'
loop_
_space_group_symop_operation_xyz
x,y,z
-x,y,-z
-x,-y,-z
x,-y,z
1/2+x,1/2+y,z
1/2-x,1/2+y,-z
1/2-x,1/2-y,-z
1/2+x,1/2-y,z
loop_
_atom_site_type_symbol
_atom_site_label
_atom_site_fract_x
_atom_site_fract_y
_atom_site_fract_z
Si Si1 0.140000 0.364613 0.110875
Si Si2 0.389017 0.159740 0.712126
Si Si3 0.870855 0.193228 0.365556
Si Si4 0.500000 0.835108 0.500000
Si Si5 0.882320 0.412894 0.128176
Si Si6 0.484508 0.406220 0.594508
Si Si7 0.999021 0.810270 0.145669
O O1 0.113599 0.386193 0.210037
O O2 0.061036 0.277809 0.132754
O O3 0.026153 0.418105 0.117683
O O4 0.348678 0.356494 0.978953
O O5 0.520428 0.232829 0.661078
O O6 0.448080 0.121330 0.603213
O O7 0.186027 0.189820 0.802423
O O8 0.677652 0.213015 0.430558
O O9 0.859698 0.132684 0.438571
O O10 0.973175 0.154473 0.241515
O O11 0.832909 0.500000 0.126581
O O12 0.701024 0.380738 0.264254
O O13 0.000000 0.372132 0.000000
O O14 0.500000 0.384017 0.500000
O O15 0.508817 0.500000 0.406609
#
# Coordination Sequence:
#
# PCOD9182116 Si02
#       7
#     8   8   8   4   8   8   8
#     4  10  19  32  56  79 111 144 181 230 284 338
#     4  10  20  33  52  79 109 147 183 228 283 339
#     4  10  20  35  55  75 112 149 185 235 286 338
#     4  10  22  34  49  80 109 140 192 228 278 342
#     4  10  21  37  58  85 113 146 190 239 289 338
#     4  10  22  37  57  84 112 148 195 241 288 342
#     4   9  19  33  51  83 110 143 184 226 282 345
#
# _framework density 22.770392999999999
#
# number of rings (size 3 to 8) (size 9 to 14) (size 15 to 20)
#    0.000    2.154    0.000    2.769    3.231    2.462 
#    0.000    0.385    0.000    5.538    0.000    0.000 
#    0.000    0.000    0.000    0.000    0.000    0.000 
#
# Total GULP energy -144972.697189 kJ/mol
# GULP energy per Si atom -5575.872969 kJ/mol
# Density = 2.271857 g / cm^3
# Si number density = 22.770393 Si / 1000 Ang^3
#
#
#
# Elastic Constant Matrix: (Units=GPa)
#
#
# Indices 1 2 3 4 5 6 
#
# 1 167.1915 19.1683 72.5219 0.0007 14.6901 0.0001
# 2 19.1683 28.4336 12.2786 0.0030 5.7555 -0.0009
# 3 72.5219 12.2786 139.3398 0.0061 23.8569 -0.0021
# 4 0.0007 0.0030 0.0061 -1.3372 -0.0026 0.2430
# 5 14.6901 5.7555 23.8569 -0.0026 62.2042 0.0005
# 6 0.0001 -0.0009 -0.0021 0.2430 0.0005 19.2173
#
#
#
# Elastic Compliance Matrix: (Units=1/GPa)
#
#
# Indices 1 2 3 4 5 6 
#
# 1 0.008099 -0.003773 -0.003869 -0.000022 -0.000080 0.000000
# 2 -0.003773 0.038628 -0.001050 0.000084 -0.002280 0.000001
# 3 -0.003869 -0.001050 0.009750 0.000046 -0.002729 0.000001
# 4 -0.000022 0.000084 0.000046 -0.746106 -0.000051 0.009434
# 5 -0.000080 -0.002280 -0.002729 -0.000051 0.017352 0.000000
# 6 0.000000 0.000001 0.000001 0.009434 0.000000 0.051917
#
#
# Mechanical properties :
#
#
# Convention : Reuss Voigt Hill
#
# Bulk Modulus (GPa) = 25.57970 60.32250 42.95110
# Shear Modulus (GPa) = -8.47538 31.41659 11.47060
#
# Velocity S-wave (km/s) = -1.93137 3.71848 2.24687
# Velocity P-wave (km/s) = 2.50690 6.70710 5.06309
#
# Compressibility (1/GPa) = 0.03909349
#
# Stress axis : x y z
#
# Youngs Moduli (GPa) = 123.47135 25.88790 102.56242
#
# Poissons Ratio (x) = 0.09767 0.39683
# Poissons Ratio (y) = 0.46585 0.10767
# Poissons Ratio (z) = 0.47773 0.02718
#
# Static dielectric constant tensor:
#      x y z
#    x 1.824960 0.000000 -0.004790 
#    y 0.000000 1.801270 0.000000 
#    z -0.004790 0.000000 1.995990 
# 
# From -- ./inp_files/265010.got.cif
#   From: 2010.05.17/outbox.cif.g08.bks.cpg/sg12_133_cif.got.tgz:265010.got - 2010.06.03 13:09:07.
