data_PCOD9182506
_publ_section_title
;
Structure prediction by ZEFSAII (Michael W. Deem and Ramdas Pophale) SiO2 
 PCOD9182506
Probable space group: C 2/M
;
_chemical_formula_sum "Si O2"
_cell_formula_units_Z 48
_cell_length_a 18.645139
_cell_length_b 26.968552
_cell_length_c 7.887271
_cell_angle_alpha 90.000000
_cell_angle_beta 142.119069
_cell_angle_gamma 90.000000
_cell_volume 2435.198318
_symmetry_space_group_name_H-M "C 2/M"
_symmetry_group_IT_number 12
_symmetry_cell_setting 'monoclinic'
loop_
_space_group_symop_operation_xyz
x,y,z
-x,y,-z
-x,-y,-z
x,-y,z
1/2+x,1/2+y,z
1/2-x,1/2+y,-z
1/2-x,1/2-y,-z
1/2+x,1/2-y,z
loop_
_atom_site_type_symbol
_atom_site_label
_atom_site_fract_x
_atom_site_fract_y
_atom_site_fract_z
Si Si1 0.500000 0.712535 0.500000
Si Si2 0.334993 0.555413 0.850845
Si Si3 0.331661 0.756899 0.952401
Si Si4 0.235051 0.341444 0.603120
Si Si5 0.000000 0.695052 0.000000
Si Si6 0.602307 0.553680 0.434485
Si Si7 0.343398 0.341912 0.442100
O O1 0.536429 0.679234 0.408085
O O2 0.606624 0.745919 0.756456
O O3 0.288517 0.500000 0.808663
O O4 0.259951 0.605418 0.737076
O O5 0.361458 0.553282 0.697014
O O6 0.462330 0.560657 0.174805
O O7 0.263370 0.708107 0.761542
O O8 0.255383 0.806254 0.813510
O O9 0.433751 0.770218 0.009803
O O10 0.323995 0.339327 0.607568
O O11 0.103247 0.336282 0.283696
O O12 0.630933 0.500000 0.561809
O O13 0.663936 0.601215 0.627491
#
# Coordination Sequence:
#
# PCOD9182506 Si02
#       7
#     4   8   8   8   4   8   8
#     4  12  22  32  47  72 101 130 160 198 244 292
#     4   8  14  25  45  72  98 123 154 195 241 283
#     4  11  21  34  50  72  99 130 163 200 242 288
#     4  10  19  33  52  72  97 129 165 200 237 286
#     4  10  20  34  51  72  95 128 166 200 238 286
#     4   8  14  27  47  70  95 124 157 195 240 286
#     4  10  20  32  49  73  99 128 161 197 242 289
#
# _framework density 19.710920999999999
#
# number of rings (size 3 to 8) (size 9 to 14) (size 15 to 20)
#    0.000    2.333    0.000    6.500    0.000    2.667 
#    0.000    0.833    0.000    2.000    0.000    0.583 
#    0.000    0.000    0.000    2.167    0.000    2.500 
#
# Total GULP energy -133823.678997 kJ/mol
# GULP energy per Si atom -5575.986625 kJ/mol
# Density = 1.966606 g / cm^3
# Si number density = 19.710921 Si / 1000 Ang^3
#
#
#
# Elastic Constant Matrix: (Units=GPa)
#
#
# Indices 1 2 3 4 5 6 
#
# 1 50.7880 24.7765 7.7027 0.0000 11.4175 0.0000
# 2 24.7765 221.0080 76.8062 0.0000 8.5345 0.0000
# 3 7.7027 76.8062 63.0057 0.0000 1.0561 0.0000
# 4 0.0000 0.0000 0.0000 23.4085 0.0000 15.4211
# 5 11.4175 8.5345 1.0561 0.0000 13.8918 0.0000
# 6 0.0000 0.0000 0.0000 15.4211 0.0000 -6.2071
#
#
#
# Elastic Compliance Matrix: (Units=1/GPa)
#
#
# Indices 1 2 3 4 5 6 
#
# 1 0.025042 -0.001923 -0.000393 0.000000 -0.019370 0.000000
# 2 -0.001923 0.008239 -0.009762 0.000000 -0.002739 0.000000
# 3 -0.000393 -0.009762 0.027750 0.000000 0.004211 0.000000
# 4 0.000000 0.000000 0.000000 0.016202 0.000000 0.040253
# 5 -0.019370 -0.002739 0.004211 0.000000 0.089268 0.000000
# 6 0.000000 0.000000 0.000000 0.040253 0.000000 -0.061102
#
#
# Mechanical properties :
#
#
# Convention : Reuss Voigt Hill
#
# Bulk Modulus (GPa) = 27.11911 61.48584 44.30247
# Shear Modulus (GPa) = 35.24962 21.25306 28.25134
#
# Velocity S-wave (km/s) = 4.23345 3.28722 3.78998
# Velocity P-wave (km/s) = 6.13877 6.75790 6.45576
#
# Compressibility (1/GPa) = 0.03687437
#
# Stress axis : x y z
#
# Youngs Moduli (GPa) = 39.93311 121.37809 36.03655
#
# Poissons Ratio (x) = 0.23339 0.01415
# Poissons Ratio (y) = 0.07679 0.35180
# Poissons Ratio (z) = 0.01568 1.18493
#
# Static dielectric constant tensor:
#      x y z
#    x 1.791660 0.000000 -0.009240 
#    y 0.000000 1.720030 0.000000 
#    z -0.009240 0.000000 1.695180 
# 
# From -- ./inp_files/91464.got.cif
#   From: 2010.05.17/outbox.cif.g08.bks.cpg/sg12_46_cif.got.tgz:91464.got - 2010.06.03 13:09:07.
