data_PCOD9182505
_publ_section_title
;
Structure prediction by ZEFSAII (Michael W. Deem and Ramdas Pophale) SiO2 
 PCOD9182505
Probable space group: C 2/M
;
_chemical_formula_sum "Si O2"
_cell_formula_units_Z 64
_cell_length_a 14.750224
_cell_length_b 8.928268
_cell_length_c 27.984201
_cell_angle_alpha 90.000000
_cell_angle_beta 108.428098
_cell_angle_gamma 90.000000
_cell_volume 3496.369362
_symmetry_space_group_name_H-M "C 2/M"
_symmetry_group_IT_number 12
_symmetry_cell_setting 'monoclinic'
loop_
_space_group_symop_operation_xyz
x,y,z
-x,y,-z
-x,-y,-z
x,-y,z
1/2+x,1/2+y,z
1/2-x,1/2+y,-z
1/2-x,1/2-y,-z
1/2+x,1/2-y,z
loop_
_atom_site_type_symbol
_atom_site_label
_atom_site_fract_x
_atom_site_fract_y
_atom_site_fract_z
Si Si1 0.348037 0.181052 0.997575
Si Si2 0.943268 0.321477 0.638169
Si Si3 0.535556 0.677395 0.743802
Si Si4 0.046768 0.318042 0.079792
Si Si5 0.139056 0.677912 0.616070
Si Si6 0.073303 0.319286 0.192432
Si Si7 0.252410 0.679171 0.448186
Si Si8 0.731919 0.320746 0.722198
O O1 0.378186 0.227970 0.948742
O O2 0.340759 0.000000 0.997172
O O3 0.250000 0.250000 0.000000
O O4 0.439969 0.224024 0.045172
O O5 0.942119 0.500000 0.647607
O O6 0.964079 0.238604 0.691137
O O7 0.845230 0.280520 0.596109
O O8 0.032917 0.290031 0.618269
O O9 0.524948 0.500000 0.746678
O O10 0.511738 0.755675 0.789554
O O11 0.641489 0.709287 0.741499
O O12 0.048640 0.500000 0.080157
O O13 0.069454 0.267079 0.137032
O O14 0.149547 0.500000 0.612823
O O15 0.162779 0.757510 0.570437
O O16 0.210287 0.739127 0.668890
O O17 0.069368 0.500000 0.191841
O O18 0.171373 0.275083 0.235281
O O19 0.257672 0.500000 0.452350
O O20 0.250000 0.750000 0.500000
O O21 0.735414 0.500000 0.713670
#
# Coordination Sequence:
#
# PCOD9182505 Si02
#       8
#     8   8   8   8   8   8   8   8
#     4   9  17  33  55  75  97 130 173 215 255 300
#     4   9  20  38  57  75 101 139 174 203 245 307
#     4  10  20  33  51  78 107 132 165 211 255 293
#     4   8  17  33  51  72 100 136 173 205 247 309
#     4  10  20  36  57  78 101 132 170 209 249 296
#     4  10  19  33  52  72 101 140 173 202 245 304
#     4  11  23  38  55  77 104 133 168 209 255 304
#     4   9  19  34  51  73 102 135 168 202 247 302
#
# _framework density 18.304703
#
# number of rings (size 3 to 8) (size 9 to 14) (size 15 to 20)
#    0.000    2.500    0.000    2.625    0.000    7.000 
#    0.000    6.250    0.000    0.000    0.000    0.000 
#    0.000    0.000    0.000    0.000    0.000    0.000 
#
# Total GULP energy -178602.507062 kJ/mol
# GULP energy per Si atom -5581.328346 kJ/mol
# Density = 1.826304 g / cm^3
# Si number density = 18.304703 Si / 1000 Ang^3
#
#
#
# Elastic Constant Matrix: (Units=GPa)
#
#
# Indices 1 2 3 4 5 6 
#
# 1 82.9804 26.7845 39.5636 0.0000 -18.8390 0.0000
# 2 26.7845 18.0838 26.9378 0.0000 -9.0373 0.0000
# 3 39.5636 26.9378 86.5236 0.0000 -29.5553 0.0000
# 4 0.0000 0.0000 0.0000 23.8915 0.0000 -7.0814
# 5 -18.8390 -9.0373 -29.5553 0.0000 21.0885 0.0000
# 6 0.0000 0.0000 0.0000 -7.0814 0.0000 28.9705
#
#
#
# Elastic Compliance Matrix: (Units=1/GPa)
#
#
# Indices 1 2 3 4 5 6 
#
# 1 0.024701 -0.037063 0.004520 0.000000 0.012518 0.000000
# 2 -0.037063 0.158761 -0.039423 0.000000 -0.020325 0.000000
# 3 0.004520 -0.039423 0.033328 0.000000 0.033852 0.000000
# 4 0.000000 0.000000 0.000000 0.045125 0.000000 0.011030
# 5 0.012518 -0.020325 0.033852 0.000000 0.097336 0.000000
# 6 0.000000 0.000000 0.000000 0.011030 0.000000 0.037214
#
#
# Mechanical properties :
#
#
# Convention : Reuss Voigt Hill
#
# Bulk Modulus (GPa) = 13.72526 41.57329 27.64928
# Shear Modulus (GPa) = 8.85453 21.07690 14.96572
#
# Velocity S-wave (km/s) = 2.20177 3.39698 2.86245
# Velocity P-wave (km/s) = 3.73875 6.17633 5.10516
#
# Compressibility (1/GPa) = 0.07285834
#
# Stress axis : x y z
#
# Youngs Moduli (GPa) = 40.48394 6.29878 30.00502
#
# Poissons Ratio (x) = 0.23345 -0.13563
# Poissons Ratio (y) = 1.50047 1.18288
# Poissons Ratio (z) = -0.18300 0.24832
#
# Static dielectric constant tensor:
#      x y z
#    x 1.633440 0.000000 -0.006710 
#    y 0.000000 1.611630 0.000000 
#    z -0.006710 0.000000 1.612600 
# 
# From -- ./inp_files/359824.got.cif
#   From: 2010.05.17/outbox.cif.g08.bks.cpg/sg12_180_cif.got.tgz:359824.got - 2010.06.03 13:09:07.
