data_PCOD9182709
_publ_section_title
;
Structure prediction by ZEFSAII (Michael W. Deem and Ramdas Pophale) SiO2 
 PCOD9182709
Probable space group: C 2/M
;
_chemical_formula_sum "Si O2"
_cell_formula_units_Z 64
_cell_length_a 14.853283
_cell_length_b 8.470762
_cell_length_c 27.979265
_cell_angle_alpha 90.000000
_cell_angle_beta 110.124829
_cell_angle_gamma 90.000000
_cell_volume 3305.380811
_symmetry_space_group_name_H-M "C 2/M"
_symmetry_group_IT_number 12
_symmetry_cell_setting 'monoclinic'
loop_
_space_group_symop_operation_xyz
x,y,z
-x,y,-z
-x,-y,-z
x,-y,z
1/2+x,1/2+y,z
1/2-x,1/2+y,-z
1/2-x,1/2-y,-z
1/2+x,1/2-y,z
loop_
_atom_site_type_symbol
_atom_site_label
_atom_site_fract_x
_atom_site_fract_y
_atom_site_fract_z
Si Si1 0.380995 0.692065 0.715671
Si Si2 0.912043 0.189532 0.094065
Si Si3 0.781607 0.311611 0.557324
Si Si4 0.609420 0.189824 0.011645
Si Si5 0.479532 0.310275 0.637286
Si Si6 0.394990 0.310181 0.825887
Si Si7 0.819759 0.310493 0.368159
Si Si8 0.260225 0.189672 0.875956
O O1 0.383316 0.500000 0.716718
O O2 0.454053 0.741762 0.687106
O O3 0.403077 0.747795 0.773128
O O4 0.272788 0.737365 0.680702
O O5 0.866783 0.253716 0.037151
O O6 0.846832 0.228576 0.127644
O O7 0.018429 0.249773 0.124703
O O8 0.913681 0.000000 0.089625
O O9 0.785501 0.500000 0.558225
O O10 0.750000 0.250000 0.500000
O O11 0.886700 0.245281 0.590332
O O12 0.706713 0.254756 0.584249
O O13 0.612994 0.000000 0.012592
O O14 0.500000 0.241986 0.000000
O O15 0.674438 0.245509 0.067336
O O16 0.482441 0.500000 0.637018
O O17 0.579635 0.247293 0.634932
O O18 0.401963 0.500000 0.826101
O O19 0.297560 0.262439 0.834048
O O20 0.821229 0.500000 0.370803
O O21 0.268851 0.000000 0.874315
#
# Coordination Sequence:
#
# PCOD9182709 Si02
#       8
#     8   8   8   8   8   8   8   8
#     4   8  18  36  56  77 108 143 179 225 277 328
#     4  10  21  34  52  76 102 131 171 216 261 318
#     4  11  22  38  59  87 122 158 195 236 282 332
#     4  10  19  33  53  72  99 135 168 209 266 323
#     4  10  20  37  60  86 115 151 192 237 284 333
#     4  10  20  36  55  77 104 138 175 218 269 321
#     4  10  20  37  59  84 114 151 193 237 281 333
#     4  10  21  36  51  74 104 134 169 216 268 323
#
# _framework density 19.362369000000001
#
# number of rings (size 3 to 8) (size 9 to 14) (size 15 to 20)
#    0.000    2.125    1.250    3.000    0.000    2.750 
#    0.000    7.500    0.000    0.000    0.000    0.000 
#    0.000    0.000    0.000    0.000    0.000    0.000 
#
# Total GULP energy -178577.772191 kJ/mol
# GULP energy per Si atom -5580.555381 kJ/mol
# Density = 1.931830 g / cm^3
# Si number density = 19.362369 Si / 1000 Ang^3
#
#
#
# Elastic Constant Matrix: (Units=GPa)
#
#
# Indices 1 2 3 4 5 6 
#
# 1 111.8916 21.1577 33.5236 0.0000 -25.1476 0.0000
# 2 21.1577 37.5763 13.5701 0.0000 -6.0457 0.0000
# 3 33.5236 13.5701 108.2565 0.0000 -21.7948 0.0000
# 4 0.0000 0.0000 0.0000 21.1854 0.0000 -5.7576
# 5 -25.1476 -6.0457 -21.7948 0.0000 18.2756 0.0000
# 6 0.0000 0.0000 0.0000 -5.7576 0.0000 27.7972
#
#
#
# Elastic Compliance Matrix: (Units=1/GPa)
#
#
# Indices 1 2 3 4 5 6 
#
# 1 0.013767 -0.004931 -0.000210 0.000000 0.017062 0.000000
# 2 -0.004931 0.030268 -0.002128 0.000000 0.000690 0.000000
# 3 -0.000210 -0.002128 0.012329 0.000000 0.013710 0.000000
# 4 0.000000 0.000000 0.000000 0.050018 0.000000 0.010360
# 5 0.017062 0.000690 0.013710 0.000000 0.094775 0.000000
# 6 0.000000 0.000000 0.000000 0.010360 0.000000 0.038121
#
#
# Mechanical properties :
#
#
# Convention : Reuss Voigt Hill
#
# Bulk Modulus (GPa) = 23.90817 43.80303 33.85560
# Shear Modulus (GPa) = 18.67348 26.08316 22.37832
#
# Velocity S-wave (km/s) = 3.10888 3.67428 3.40334
# Velocity P-wave (km/s) = 5.02607 6.37748 5.74168
#
# Compressibility (1/GPa) = 0.04182671
#
# Stress axis : x y z
#
# Youngs Moduli (GPa) = 72.63597 33.03772 81.10669
#
# Poissons Ratio (x) = 0.16290 0.01704
# Poissons Ratio (y) = 0.35815 0.17263
# Poissons Ratio (z) = 0.01526 0.07032
#
# Static dielectric constant tensor:
#      x y z
#    x 1.680870 0.000000 -0.003210 
#    y 0.000000 1.662180 0.000000 
#    z -0.003210 0.000000 1.673470 
# 
# From -- ./inp_files/359870.got.cif
#   From: 2010.05.17/outbox.cif.g08.bks.cpg/sg12_180_cif.got.tgz:359870.got - 2010.06.03 13:09:07.
