data_PCOD9182454
_publ_section_title
;
Structure prediction by ZEFSAII (Michael W. Deem and Ramdas Pophale) SiO2 
 PCOD9182454
Probable space group: C 2/M
;
_chemical_formula_sum "Si O2"
_cell_formula_units_Z 64
_cell_length_a 29.049712
_cell_length_b 8.969118
_cell_length_c 14.600429
_cell_angle_alpha 90.000000
_cell_angle_beta 93.228137
_cell_angle_gamma 90.000000
_cell_volume 3798.109778
_symmetry_space_group_name_H-M "C 2/M"
_symmetry_group_IT_number 12
_symmetry_cell_setting 'monoclinic'
loop_
_space_group_symop_operation_xyz
x,y,z
-x,y,-z
-x,-y,-z
x,-y,z
1/2+x,1/2+y,z
1/2-x,1/2+y,-z
1/2-x,1/2-y,-z
1/2+x,1/2-y,z
loop_
_atom_site_type_symbol
_atom_site_label
_atom_site_fract_x
_atom_site_fract_y
_atom_site_fract_z
Si Si1 0.426440 0.679127 0.722599
Si Si2 0.525293 0.321267 0.808171
Si Si3 0.446618 0.320590 0.515261
Si Si4 0.258687 0.821730 0.901772
Si Si5 0.091603 0.321941 0.952670
Si Si6 0.861345 0.679559 0.854377
Si Si7 0.592818 0.178305 0.665386
Si Si8 0.171242 0.676644 0.810816
O O1 0.422684 0.500000 0.725439
O O2 0.472507 0.721878 0.784107
O O3 0.434076 0.721415 0.617592
O O4 0.382757 0.751972 0.765822
O O5 0.528682 0.500000 0.805710
O O6 0.548028 0.259742 0.903444
O O7 0.555415 0.253492 0.728549
O O8 0.500000 0.282731 0.500000
O O9 0.442449 0.500000 0.505852
O O10 0.415335 0.241470 0.436136
O O11 0.308803 0.776149 0.869660
O O12 0.217280 0.768343 0.832412
O O13 0.258555 0.000000 0.911316
O O14 0.250000 0.750000 0.000000
O O15 0.083372 0.500000 0.950790
O O16 0.135160 0.294601 0.889858
O O17 0.107072 0.274677 0.055252
O O18 0.862664 0.500000 0.850010
O O19 0.642548 0.211307 0.715889
O O20 0.586644 0.000000 0.667542
O O21 0.181645 0.500000 0.814078
#
# Coordination Sequence:
#
# PCOD9182454 Si02
#       8
#     8   8   8   8   8   8   8   8
#     4  10  22  37  53  76 107 143 180 221 267 315
#     4  10  19  33  51  75 108 143 181 220 260 310
#     4  10  19  36  57  78 109 141 175 225 271 311
#     4  11  21  35  56  81 107 139 179 221 267 315
#     4   9  18  34  51  73 108 144 178 217 263 311
#     4  10  22  38  53  74 109 144 177 222 268 316
#     4  10  20  33  53  82 111 138 175 220 266 319
#     4   9  18  34  53  78 111 137 170 222 267 311
#
# _framework density 16.850486
#
# number of rings (size 3 to 8) (size 9 to 14) (size 15 to 20)
#    0.000    2.125    2.500    1.875    0.000    6.250 
#    0.000    2.500    0.000    0.750    0.000    0.000 
#    0.000    0.000    0.000    0.000    0.000    0.000 
#
# Total GULP energy -178593.577433 kJ/mol
# GULP energy per Si atom -5581.049295 kJ/mol
# Density = 1.681213 g / cm^3
# Si number density = 16.850486 Si / 1000 Ang^3
#
#
#
# Elastic Constant Matrix: (Units=GPa)
#
#
# Indices 1 2 3 4 5 6 
#
# 1 108.9214 42.3136 65.0209 0.0000 -2.0008 0.0000
# 2 42.3136 31.9928 35.8691 0.0000 2.4320 0.0000
# 3 65.0209 35.8691 108.0948 0.0000 0.5286 0.0000
# 4 0.0000 0.0000 0.0000 31.1259 0.0000 3.9388
# 5 -2.0008 2.4320 0.5286 0.0000 23.5124 0.0000
# 6 0.0000 0.0000 0.0000 3.9388 0.0000 26.5251
#
#
#
# Elastic Compliance Matrix: (Units=1/GPa)
#
#
# Indices 1 2 3 4 5 6 
#
# 1 0.021064 -0.022215 -0.005319 0.000000 0.004210 0.000000
# 2 -0.022215 0.073747 -0.011063 0.000000 -0.009270 0.000000
# 3 -0.005319 -0.011063 0.016120 0.000000 0.000329 0.000000
# 4 0.000000 0.000000 0.000000 0.032743 0.000000 -0.004862
# 5 0.004210 -0.009270 0.000329 0.000000 0.043840 0.000000
# 6 0.000000 0.000000 0.000000 -0.004862 0.000000 0.038422
#
#
# Mechanical properties :
#
#
# Convention : Reuss Voigt Hill
#
# Bulk Modulus (GPa) = 29.64211 59.49070 44.56641
# Shear Modulus (GPa) = 15.90446 23.28637 19.59541
#
# Velocity S-wave (km/s) = 3.07556 3.72148 3.41383
# Velocity P-wave (km/s) = 5.49923 7.33809 6.48418
#
# Compressibility (1/GPa) = 0.03373579
#
# Stress axis : x y z
#
# Youngs Moduli (GPa) = 47.47526 13.55982 62.03393
#
# Poissons Ratio (x) = 0.30123 0.32996
# Poissons Ratio (y) = 1.05467 0.68631
# Poissons Ratio (z) = 0.25252 0.15002
#
# Static dielectric constant tensor:
#      x y z
#    x 1.558010 0.000000 0.011880 
#    y 0.000000 1.562620 0.000000 
#    z 0.011880 0.000000 1.570810 
# 
# From -- ./inp_files/248467.got.cif
#   From: 2010.05.17/outbox.cif.g08.bks.cpg/sg12_125_cif.got.tgz:248467.got - 2010.06.03 13:09:07.
