data_PCOD9182232
_publ_section_title
;
Structure prediction by ZEFSAII (Michael W. Deem and Ramdas Pophale) SiO2 
 PCOD9182232
Probable space group: C 2/M
;
_chemical_formula_sum "Si O2"
_cell_formula_units_Z 48
_cell_length_a 17.873542
_cell_length_b 19.092447
_cell_length_c 9.457768
_cell_angle_alpha 90.000000
_cell_angle_beta 132.768508
_cell_angle_gamma 90.000000
_cell_volume 2369.288755
_symmetry_space_group_name_H-M "C 2/M"
_symmetry_group_IT_number 12
_symmetry_cell_setting 'monoclinic'
loop_
_space_group_symop_operation_xyz
x,y,z
-x,y,-z
-x,-y,-z
x,-y,z
1/2+x,1/2+y,z
1/2-x,1/2+y,-z
1/2-x,1/2-y,-z
1/2+x,1/2-y,z
loop_
_atom_site_type_symbol
_atom_site_label
_atom_site_fract_x
_atom_site_fract_y
_atom_site_fract_z
Si Si1 0.221924 0.158564 0.574753
Si Si2 0.182302 0.576901 0.722617
Si Si3 0.598459 0.268154 0.904882
Si Si4 0.615418 0.196289 0.436360
Si Si5 0.390112 0.383477 0.844600
Si Si6 0.761145 0.143992 0.100804
O O1 0.329664 0.162482 0.630719
O O2 0.187508 0.237908 0.567127
O O3 0.140515 0.131747 0.355629
O O4 0.223042 0.116082 0.721258
O O5 0.136566 0.500000 0.647188
O O6 0.119533 0.639012 0.566231
O O7 0.292686 0.579204 0.787231
O O8 0.208492 0.594272 0.918270
O O9 0.493615 0.229408 0.735377
O O10 0.635592 0.324187 0.834649
O O11 0.598360 0.311492 0.050436
O O12 0.683745 0.208731 0.018950
O O13 0.500000 0.418488 0.000000
#
# Coordination Sequence:
#
# PCOD9182232 Si02
#       6
#     8   8   8   8   8   8
#     4  10  19  32  57  91 116 139 189 251 307 341
#     4  10  23  41  55  76 122 168 201 231 276 356
#     4  10  19  34  55  87 118 146 181 244 305 346
#     4  10  19  34  58  85 114 149 190 239 296 352
#     4  10  19  36  60  90 116 147 187 245 308 359
#     4  10  21  34  52  83 117 150 194 240 291 340
#
# _framework density 20.259243999999999
#
# number of rings (size 3 to 8) (size 9 to 14) (size 15 to 20)
#    0.000    2.000    1.667    5.000    0.000    3.000 
#    0.000    5.000    0.000    1.000    0.000    8.167 
#    0.000    0.000    0.000    0.000    0.000    0.000 
#
# Total GULP energy -133981.218182 kJ/mol
# GULP energy per Si atom -5582.550758 kJ/mol
# Density = 2.021313 g / cm^3
# Si number density = 20.259244 Si / 1000 Ang^3
#
#
#
# Elastic Constant Matrix: (Units=GPa)
#
#
# Indices 1 2 3 4 5 6 
#
# 1 57.8240 0.8794 48.5499 0.0000 7.6004 0.0000
# 2 0.8794 69.3007 40.3285 0.0000 -5.8503 0.0000
# 3 48.5499 40.3285 147.8254 0.0000 -18.4968 0.0000
# 4 0.0000 0.0000 0.0000 4.6119 0.0000 1.4322
# 5 7.6004 -5.8503 -18.4968 0.0000 40.4921 0.0000
# 6 0.0000 0.0000 0.0000 1.4322 0.0000 -2.7337
#
#
#
# Elastic Compliance Matrix: (Units=1/GPa)
#
#
# Indices 1 2 3 4 5 6 
#
# 1 0.029004 0.006010 -0.012450 0.000000 -0.010263 0.000000
# 2 0.006010 0.018404 -0.007216 0.000000 -0.001765 0.000000
# 3 -0.012450 -0.007216 0.013771 0.000000 0.007585 0.000000
# 4 0.000000 0.000000 0.000000 0.186489 0.000000 0.097702
# 5 -0.010263 -0.001765 0.007585 0.000000 0.029832 0.000000
# 6 0.000000 0.000000 0.000000 0.097702 0.000000 -0.314622
#
#
# Mechanical properties :
#
#
# Convention : Reuss Voigt Hill
#
# Bulk Modulus (GPa) = 29.52517 50.49617 40.01067
# Shear Modulus (GPa) = 3384.89778 20.82022 1702.85900
#
# Velocity S-wave (km/s) = 40.91966 3.20924 29.02342
# Velocity P-wave (km/s) = 47.40426 6.22185 33.80736
#
# Compressibility (1/GPa) = 0.03386941
#
# Stress axis : x y z
#
# Youngs Moduli (GPa) = 34.47769 54.33724 72.61580
#
# Poissons Ratio (x) = -0.32659 0.90404
# Poissons Ratio (y) = -0.20723 0.52397
# Poissons Ratio (z) = 0.42923 0.39208
#
# Static dielectric constant tensor:
#      x y z
#    x 1.766600 0.000000 -0.019870 
#    y 0.000000 1.717070 0.000000 
#    z -0.019870 0.000000 1.750990 
# 
# From -- ./inp_files/88853.got.cif
#   From: 2010.05.17/outbox.cif.g08.bks.cpg/sg12_45_cif.got.tgz:88853.got - 2010.06.03 13:09:07.
