data_PCOD9182170
_publ_section_title
;
Structure prediction by ZEFSAII (Michael W. Deem and Ramdas Pophale) SiO2 
 PCOD9182170
Probable space group: C 2/M
;
_chemical_formula_sum "Si O2"
_cell_formula_units_Z 48
_cell_length_a 19.423755
_cell_length_b 17.812282
_cell_length_c 13.382820
_cell_angle_alpha 90.000000
_cell_angle_beta 28.119952
_cell_angle_gamma 90.000000
_cell_volume 2182.304606
_symmetry_space_group_name_H-M "C 2/M"
_symmetry_group_IT_number 12
_symmetry_cell_setting 'monoclinic'
loop_
_space_group_symop_operation_xyz
x,y,z
-x,y,-z
-x,-y,-z
x,-y,z
1/2+x,1/2+y,z
1/2-x,1/2+y,-z
1/2-x,1/2-y,-z
1/2+x,1/2-y,z
loop_
_atom_site_type_symbol
_atom_site_label
_atom_site_fract_x
_atom_site_fract_y
_atom_site_fract_z
Si Si1 0.135764 0.116208 0.879956
Si Si2 0.531039 0.695479 0.743644
Si Si3 0.869660 0.202583 0.742145
Si Si4 0.820192 0.358275 0.446574
Si Si5 0.375384 0.918310 0.954989
Si Si6 0.141065 0.615640 0.253682
O O1 0.257002 0.129094 0.639494
O O2 0.220920 0.083056 0.864365
O O3 0.000000 0.077623 0.000000
O O4 0.054177 0.185203 0.042115
O O5 0.429545 0.684027 0.776947
O O6 0.674129 0.642107 0.566395
O O7 0.602261 0.777297 0.647677
O O8 0.846176 0.292730 0.768138
O O9 0.000000 0.185545 0.500000
O O10 0.730624 0.152533 0.887751
O O11 0.953456 0.408814 0.238171
O O12 0.376148 0.915761 0.833680
O O13 0.321268 0.000000 0.059011
O O14 0.000000 0.599365 0.500000
#
# Coordination Sequence:
#
# PCOD9182170 Si02
#       6
#     8   8   8   8   8   8
#     4  10  19  32  56  86 122 150 189 244 293 349
#     4  10  19  35  62  85 117 149 199 251 291 340
#     4  11  22  39  64  88 113 156 206 255 289 342
#     4  10  20  36  56  90 118 154 193 241 300 351
#     4  12  24  38  58  88 126 159 192 244 307 362
#     4  11  19  36  61  88 119 151 199 249 293 344
#
# _framework density 21.995097000000001
#
# number of rings (size 3 to 8) (size 9 to 14) (size 15 to 20)
#    0.000    1.333    5.000    2.500    0.000    0.667 
#    0.000    1.667    0.000    3.000    0.000    0.000 
#    0.000    0.000    0.000    0.000    0.000    0.000 
#
# Total GULP energy -133827.530330 kJ/mol
# GULP energy per Si atom -5576.147097 kJ/mol
# Density = 2.194504 g / cm^3
# Si number density = 21.995097 Si / 1000 Ang^3
#
#
#
# Elastic Constant Matrix: (Units=GPa)
#
#
# Indices 1 2 3 4 5 6 
#
# 1 70.0015 -3.7544 17.6927 -0.0002 -24.8817 0.0002
# 2 -3.7544 90.7585 23.6394 -0.0003 -1.0143 0.0003
# 3 17.6927 23.6394 118.0214 -0.0006 -8.2816 0.0003
# 4 -0.0002 -0.0003 -0.0006 -12.8383 0.0001 20.2241
# 5 -24.8817 -1.0143 -8.2816 0.0001 43.5783 0.0000
# 6 0.0002 0.0003 0.0003 20.2241 0.0000 -107.1334
#
#
#
# Elastic Compliance Matrix: (Units=1/GPa)
#
#
# Indices 1 2 3 4 5 6 
#
# 1 0.018590 0.001501 -0.002372 0.000000 0.010199 0.000000
# 2 0.001501 0.011747 -0.002532 0.000000 0.000649 0.000000
# 3 -0.002372 -0.002532 0.009362 0.000000 0.000366 0.000000
# 4 0.000000 0.000000 0.000000 -0.110859 0.000000 -0.020927
# 5 0.010199 0.000649 0.000366 0.000000 0.028855 0.000000
# 6 0.000000 0.000000 0.000000 -0.020927 0.000000 -0.013285
#
#
# Mechanical properties :
#
#
# Convention : Reuss Voigt Hill
#
# Bulk Modulus (GPa) = 30.40229 39.32630 34.86429
# Shear Modulus (GPa) = -132.20969 0.80158 -65.70405
#
# Velocity S-wave (km/s) = -7.76139 0.60434 -5.47147
# Velocity P-wave (km/s) = 8.15271 4.29015 4.90210
#
# Compressibility (1/GPa) = 0.03289226
#
# Stress axis : x y z
#
# Youngs Moduli (GPa) = 53.79100 85.12683 106.82043
#
# Poissons Ratio (x) = -0.12776 0.25337
# Poissons Ratio (y) = -0.08073 0.27051
# Poissons Ratio (z) = 0.12759 0.21557
#
# Static dielectric constant tensor:
#      x y z
#    x 1.821250 0.000000 -0.042140 
#    y 0.000000 1.907060 0.000000 
#    z -0.042140 0.000000 1.834890 
# 
# From -- ./inp_files/234248.got.cif
#   From: 2010.05.17/outbox.cif.g08.bks.cpg/sg12_118_cif.got.tgz:234248.got - 2010.06.03 13:09:07.
