data_PCOD9182219
_publ_section_title
;
Structure prediction by ZEFSAII (Michael W. Deem and Ramdas Pophale) SiO2 
 PCOD9182219
Probable space group: C 2/M
;
_chemical_formula_sum "Si O2"
_cell_formula_units_Z 56
_cell_length_a 10.416449
_cell_length_b 29.468656
_cell_length_c 9.253052
_cell_angle_alpha 90.000000
_cell_angle_beta 73.862225
_cell_angle_gamma 90.000000
_cell_volume 2728.386226
_symmetry_space_group_name_H-M "C 2/M"
_symmetry_group_IT_number 12
_symmetry_cell_setting 'monoclinic'
loop_
_space_group_symop_operation_xyz
x,y,z
-x,y,-z
-x,-y,-z
x,-y,z
1/2+x,1/2+y,z
1/2-x,1/2+y,-z
1/2-x,1/2-y,-z
1/2+x,1/2-y,z
loop_
_atom_site_type_symbol
_atom_site_label
_atom_site_fract_x
_atom_site_fract_y
_atom_site_fract_z
Si Si1 0.657144 0.379994 0.913644
Si Si2 0.589311 0.450332 0.700328
Si Si3 0.763569 0.291870 0.741885
Si Si4 0.961350 0.285567 0.179988
Si Si5 0.304895 0.050533 0.414068
Si Si6 0.221039 0.949424 0.126556
Si Si7 0.632520 0.846740 0.547341
O O1 0.657444 0.411298 0.771696
O O2 0.722915 0.332381 0.862254
O O3 0.500000 0.374595 0.000000
O O4 0.733090 0.408935 0.010953
O O5 0.622633 0.500000 0.753001
O O6 0.652509 0.449861 0.522255
O O7 0.431479 0.445882 0.767319
O O8 0.648154 0.254427 0.780200
O O9 0.767338 0.315922 0.581089
O O10 0.905611 0.274718 0.764183
O O11 0.889926 0.327642 0.284765
O O12 0.000000 0.293456 0.000000
O O13 0.310963 0.053109 0.239835
O O14 0.354522 0.098872 0.455229
O O15 0.358734 0.000000 0.439980
O O16 0.235989 0.000000 0.057582
O O17 0.500000 0.837302 0.500000
#
# Coordination Sequence:
#
# PCOD9182219 Si02
#       7
#     8   8   8   8   8   8   8
#     4  10  19  32  57  87 125 161 208 253 305 371
#     4   9  16  30  51  81 121 165 202 246 302 361
#     4  11  23  45  65  95 125 163 207 261 314 383
#     4  11  25  44  70  92 125 161 207 266 321 372
#     4  10  19  34  57  86 123 161 207 250 299 364
#     4   9  18  30  50  85 127 164 202 251 305 360
#     4  10  23  43  65  89 122 163 207 255 310 372
#
# _framework density 20.524951999999999
#
# number of rings (size 3 to 8) (size 9 to 14) (size 15 to 20)
#    0.000    2.000    1.429    2.143    2.000    3.714 
#    2.571    0.000    0.000    0.429    0.000    0.000 
#    0.000    0.000    0.000    0.000    0.000    0.000 
#
# Total GULP energy -155924.326062 kJ/mol
# GULP energy per Si atom -5568.725931 kJ/mol
# Density = 2.047824 g / cm^3
# Si number density = 20.524952 Si / 1000 Ang^3
#
#
#
# Elastic Constant Matrix: (Units=GPa)
#
#
# Indices 1 2 3 4 5 6 
#
# 1 46.8571 37.1687 18.5727 0.0000 4.4415 0.0000
# 2 37.1687 131.5216 55.0501 0.0000 -8.5578 0.0000
# 3 18.5727 55.0501 105.3004 0.0000 1.1415 0.0000
# 4 0.0000 0.0000 0.0000 11.9728 0.0000 -10.6576
# 5 4.4415 -8.5578 1.1415 0.0000 16.0723 0.0000
# 6 0.0000 0.0000 0.0000 -10.6576 0.0000 19.6290
#
#
#
# Elastic Compliance Matrix: (Units=1/GPa)
#
#
# Indices 1 2 3 4 5 6 
#
# 1 0.030022 -0.009197 -0.000344 0.000000 -0.013169 0.000000
# 2 -0.009197 0.013071 -0.005319 0.000000 0.009879 0.000000
# 3 -0.000344 -0.005319 0.012377 0.000000 -0.003616 0.000000
# 4 0.000000 0.000000 0.000000 0.161650 0.000000 0.087768
# 5 -0.013169 0.009879 -0.003616 0.000000 0.071375 0.000000
# 6 0.000000 0.000000 0.000000 0.087768 0.000000 0.098599
#
#
# Mechanical properties :
#
#
# Convention : Reuss Voigt Hill
#
# Bulk Modulus (GPa) = 38.83443 56.14025 47.48734
# Shear Modulus (GPa) = 11.75372 21.06066 16.40719
#
# Velocity S-wave (km/s) = 2.39562 3.20675 2.83039
# Velocity P-wave (km/s) = 5.15884 6.41269 5.81963
#
# Compressibility (1/GPa) = 0.02575035
#
# Stress axis : x y z
#
# Youngs Moduli (GPa) = 33.30932 76.50270 80.79465
#
# Poissons Ratio (x) = 0.70360 0.02781
# Poissons Ratio (y) = 0.30635 0.42971
# Poissons Ratio (z) = 0.01147 0.40688
#
# Static dielectric constant tensor:
#      x y z
#    x 1.742050 0.000000 -0.018500 
#    y 0.000000 1.733170 0.000000 
#    z -0.018500 0.000000 1.787190 
# 
# From -- ./inp_files/53151.got.cif
#   From: 2010.05.17/outbox.cif.g08.bks.cpg/sg12_27_cif.got.tgz:53151.got - 2010.06.03 13:09:07.
