data_PCOD9182719
_publ_section_title
;
Structure prediction by ZEFSAII (Michael W. Deem and Ramdas Pophale) SiO2 
 PCOD9182719
Probable space group: C 2/M
;
_chemical_formula_sum "Si O2"
_cell_formula_units_Z 56
_cell_length_a 18.785400
_cell_length_b 9.522441
_cell_length_c 29.661572
_cell_angle_alpha 90.000000
_cell_angle_beta 27.859884
_cell_angle_gamma 90.000000
_cell_volume 2479.526969
_symmetry_space_group_name_H-M "C 2/M"
_symmetry_group_IT_number 12
_symmetry_cell_setting 'monoclinic'
loop_
_space_group_symop_operation_xyz
x,y,z
-x,y,-z
-x,-y,-z
x,-y,z
1/2+x,1/2+y,z
1/2-x,1/2+y,-z
1/2-x,1/2-y,-z
1/2+x,1/2-y,z
loop_
_atom_site_type_symbol
_atom_site_label
_atom_site_fract_x
_atom_site_fract_y
_atom_site_fract_z
Si Si1 0.589599 0.167134 0.584745
Si Si2 0.766652 0.656608 0.060907
Si Si3 0.819583 0.840119 0.113873
Si Si4 0.407399 0.155601 0.316582
Si Si5 0.448754 0.339343 0.208391
Si Si6 0.379444 0.839167 0.165433
Si Si7 0.958327 0.160027 0.472928
O O1 0.750000 0.250000 0.500000
O O2 0.522748 0.178484 0.672830
O O3 0.504012 0.241020 0.590838
O O4 0.611831 0.000000 0.563763
O O5 0.750323 0.500000 0.090881
O O6 0.745396 0.773160 0.111105
O O7 0.632562 0.666687 0.099453
O O8 0.937665 0.663269 0.946711
O O9 0.806013 0.744179 0.165339
O O10 0.775775 0.000000 0.147194
O O11 0.000000 0.840384 0.000000
O O12 0.429343 0.279661 0.269176
O O13 0.224886 0.149160 0.424928
O O14 0.454210 0.000000 0.273143
O O15 0.400398 0.500000 0.230690
O O16 0.362627 0.240581 0.221834
O O17 0.330513 0.000000 0.194439
O O18 0.000000 0.211273 0.500000
O O19 0.019079 0.000000 0.433842
#
# Coordination Sequence:
#
# PCOD9182719 Si02
#       7
#     8   8   8   8   8   8   8
#     4   9  17  31  53  78 103 132 166 202 241 293
#     4   9  19  34  51  73  99 132 175 217 259 308
#     4   9  17  30  50  74  97 122 159 209 258 305
#     4   9  19  35  52  73 103 138 172 206 253 306
#     4  11  22  34  50  74 104 136 173 215 256 302
#     4  10  19  33  53  73  99 135 173 216 264 309
#     4   9  18  34  57  83 108 134 167 207 249 297
#
# _framework density 22.584952999999999
#
# number of rings (size 3 to 8) (size 9 to 14) (size 15 to 20)
#    0.000    2.571    0.000    3.000    0.000    6.571 
#    0.000    1.429    0.000    5.143    0.000    0.000 
#    0.000    0.000    0.000    0.000    0.000    0.000 
#
# Total GULP energy -156386.216451 kJ/mol
# GULP energy per Si atom -5585.222016 kJ/mol
# Density = 2.253355 g / cm^3
# Si number density = 22.584953 Si / 1000 Ang^3
#
#
#
# Elastic Constant Matrix: (Units=GPa)
#
#
# Indices 1 2 3 4 5 6 
#
# 1 136.4044 78.6260 14.5320 0.0000 25.0971 -0.0002
# 2 78.6260 188.7066 24.9493 -0.0002 36.7513 -0.0006
# 3 14.5320 24.9493 41.3865 -0.0008 6.7138 0.0000
# 4 0.0000 -0.0002 -0.0008 23.4699 -0.0001 11.7263
# 5 25.0971 36.7513 6.7138 -0.0001 39.1641 0.0000
# 6 -0.0002 -0.0006 0.0000 11.7263 0.0000 38.2903
#
#
#
# Elastic Compliance Matrix: (Units=1/GPa)
#
#
# Indices 1 2 3 4 5 6 
#
# 1 0.009968 -0.003447 -0.000937 0.000000 -0.002993 0.000000
# 2 -0.003447 0.008061 -0.002860 0.000000 -0.004865 0.000000
# 3 -0.000937 -0.002860 0.026417 0.000001 -0.001244 0.000000
# 4 0.000000 0.000000 0.000001 0.050305 0.000000 -0.015406
# 5 -0.002993 -0.004865 -0.001244 0.000000 0.032231 0.000000
# 6 0.000000 0.000000 0.000000 -0.015406 0.000000 0.030834
#
#
# Mechanical properties :
#
#
# Convention : Reuss Voigt Hill
#
# Bulk Modulus (GPa) = 33.37807 66.96802 50.17304
# Shear Modulus (GPa) = 27.42879 36.74419 32.08649
#
# Velocity S-wave (km/s) = 3.48871 4.03790 3.77331
# Velocity P-wave (km/s) = 5.57127 7.17325 6.42241
#
# Compressibility (1/GPa) = 0.02995979
#
# Stress axis : x y z
#
# Youngs Moduli (GPa) = 100.31766 124.05455 37.85377
#
# Poissons Ratio (x) = 0.42757 0.03546
# Poissons Ratio (y) = 0.34576 0.10826
# Poissons Ratio (z) = 0.09399 0.35479
#
# Static dielectric constant tensor:
#      x y z
#    x 1.827910 0.000000 -0.038310 
#    y 0.000000 1.793040 0.000000 
#    z -0.038310 0.000000 1.909250 
# 
# From -- ./inp_files/363028.got.cif
#   From: 2010.05.17/outbox.cif.g08.bks.cpg/sg12_182_cif.got.tgz:363028.got - 2010.06.03 13:09:07.
