data_PCOD9182335
_publ_section_title
;
Structure prediction by ZEFSAII (Michael W. Deem and Ramdas Pophale) SiO2 
 PCOD9182335
Probable space group: C 2/M
;
_chemical_formula_sum "Si O2"
_cell_formula_units_Z 64
_cell_length_a 10.571429
_cell_length_b 30.181027
_cell_length_c 9.438102
_cell_angle_alpha 90.000000
_cell_angle_beta 89.930105
_cell_angle_gamma 90.000000
_cell_volume 3011.286344
_symmetry_space_group_name_H-M "C 2/M"
_symmetry_group_IT_number 12
_symmetry_cell_setting 'monoclinic'
loop_
_space_group_symop_operation_xyz
x,y,z
-x,y,-z
-x,-y,-z
x,-y,z
1/2+x,1/2+y,z
1/2-x,1/2+y,-z
1/2-x,1/2-y,-z
1/2+x,1/2-y,z
loop_
_atom_site_type_symbol
_atom_site_label
_atom_site_fract_x
_atom_site_fract_y
_atom_site_fract_z
Si Si1 0.098924 0.681239 0.370050
Si Si2 0.402840 0.281256 0.627120
Si Si3 0.095071 0.757647 0.872794
Si Si4 0.192711 0.879406 0.338890
Si Si5 0.251252 0.844338 0.868865
Si Si6 0.881228 0.336299 0.153302
Si Si7 0.540826 0.415996 0.850151
Si Si8 0.858579 0.951478 0.435405
O O1 0.152527 0.731169 0.388328
O O2 0.211041 0.652601 0.298397
O O3 0.000000 0.671774 0.500000
O O4 0.009692 0.677015 0.232145
O O5 0.500000 0.284271 0.500000
O O6 0.495536 0.277627 0.761372
O O7 0.330092 0.327831 0.620438
O O8 0.196174 0.795677 0.896701
O O9 0.175281 0.713829 0.832743
O O10 0.000000 0.745197 0.000000
O O11 0.318467 0.874633 0.246513
O O12 0.203400 0.912392 0.471500
O O13 0.078816 0.896182 0.237346
O O14 0.135058 0.876986 0.895737
O O15 0.355593 0.851165 0.992498
O O16 0.618939 0.443165 0.731457
O O17 0.500000 0.437876 0.000000
O O18 0.000000 0.952904 0.500000
O O19 0.799334 0.000000 0.458129
#
# Coordination Sequence:
#
# PCOD9182335 Si02
#       8
#     8   8   8   8   8   8   8   8
#     4  10  24  38  51  76 115 160 217 245 286 321
#     4  10  19  33  49  76 109 150 198 248 277 332
#     4  11  21  34  53  79 115 160 207 250 287 335
#     4  11  20  36  59  84 117 154 197 237 297 352
#     4  12  21  36  55  78 117 158 201 252 286 338
#     4  11  22  35  54  77 114 158 200 245 286 332
#     4  11  21  36  58  92 116 149 193 236 294 357
#     4   9  21  39  61  88 121 152 184 232 302 375
#
# _framework density 21.253375999999999
#
# number of rings (size 3 to 8) (size 9 to 14) (size 15 to 20)
#    0.000    1.375    2.500    5.250    1.750    0.250 
#    0.000    3.750    0.000    0.000    0.000    1.750 
#    0.000    4.500    0.000    0.000    0.000    0.000 
#
# Total GULP energy -178161.697758 kJ/mol
# GULP energy per Si atom -5567.553055 kJ/mol
# Density = 2.120500 g / cm^3
# Si number density = 21.253376 Si / 1000 Ang^3
#
#
#
# Elastic Constant Matrix: (Units=GPa)
#
#
# Indices 1 2 3 4 5 6 
#
# 1 18.5593 15.3803 18.5433 0.0000 -2.4697 0.0000
# 2 15.3803 86.5203 58.6807 0.0000 -14.5525 0.0000
# 3 18.5433 58.6807 153.6379 0.0000 -23.8563 0.0000
# 4 0.0000 0.0000 0.0000 10.6647 0.0000 -6.1628
# 5 -2.4697 -14.5525 -23.8563 0.0000 36.4291 0.0000
# 6 0.0000 0.0000 0.0000 -6.1628 0.0000 13.6187
#
#
#
# Elastic Compliance Matrix: (Units=1/GPa)
#
#
# Indices 1 2 3 4 5 6 
#
# 1 0.065752 -0.008703 -0.004964 0.000000 -0.002270 0.000000
# 2 -0.008703 0.016974 -0.004978 0.000000 0.002931 0.000000
# 3 -0.004964 -0.004978 0.009627 0.000000 0.003980 0.000000
# 4 0.000000 0.000000 0.000000 0.126969 0.000000 0.057456
# 5 -0.002270 0.002931 0.003980 0.000000 0.031074 0.000000
# 6 0.000000 0.000000 0.000000 0.057456 0.000000 0.099429
#
#
# Mechanical properties :
#
#
# Convention : Reuss Voigt Hill
#
# Bulk Modulus (GPa) = 18.16108 49.32512 33.74310
# Shear Modulus (GPa) = 12.33141 23.21671 17.77406
#
# Velocity S-wave (km/s) = 2.41137 3.30870 2.89501
# Velocity P-wave (km/s) = 4.03937 6.15266 5.20441
#
# Compressibility (1/GPa) = 0.05506279
#
# Stress axis : x y z
#
# Youngs Moduli (GPa) = 15.20868 58.91354 103.87437
#
# Poissons Ratio (x) = 0.51274 0.51566
# Poissons Ratio (y) = 0.13237 0.51704
# Poissons Ratio (z) = 0.07550 0.29324
#
# Static dielectric constant tensor:
#      x y z
#    x 1.818750 0.000000 -0.018570 
#    y 0.000000 1.780180 0.000000 
#    z -0.018570 0.000000 1.853820 
# 
# From -- ./inp_files/54699.got.cif
#   From: 2010.05.17/outbox.cif.g08.bks.cpg/sg12_28_cif.got.tgz:54699.got - 2010.06.03 13:09:07.
