data_PCOD9182738
_publ_section_title
;
Structure prediction by ZEFSAII (Michael W. Deem and Ramdas Pophale) SiO2 
 PCOD9182738
Probable space group: C 2/M
;
_chemical_formula_sum "Si O2"
_cell_formula_units_Z 64
_cell_length_a 18.166606
_cell_length_b 13.620642
_cell_length_c 19.883057
_cell_angle_alpha 90.000000
_cell_angle_beta 55.344763
_cell_angle_gamma 90.000000
_cell_volume 4047.037151
_symmetry_space_group_name_H-M "C 2/M"
_symmetry_group_IT_number 12
_symmetry_cell_setting 'monoclinic'
loop_
_space_group_symop_operation_xyz
x,y,z
-x,y,-z
-x,-y,-z
x,-y,z
1/2+x,1/2+y,z
1/2-x,1/2+y,-z
1/2-x,1/2-y,-z
1/2+x,1/2-y,z
loop_
_atom_site_type_symbol
_atom_site_label
_atom_site_fract_x
_atom_site_fract_y
_atom_site_fract_z
Si Si1 0.151403 0.111879 0.721625
Si Si2 0.906304 0.119590 0.014903
Si Si3 0.080778 0.114681 0.406670
Si Si4 0.629846 0.759907 0.612437
Si Si5 0.575661 0.256185 0.274942
Si Si6 0.297451 0.386358 0.534340
Si Si7 0.256265 0.116542 0.804506
Si Si8 0.439782 0.386171 0.848424
O O1 0.160273 0.191371 0.658816
O O2 0.215302 0.130564 0.751372
O O3 0.047965 0.115429 0.799009
O O4 0.167269 0.000000 0.688719
O O5 0.820704 0.149214 0.103110
O O6 0.908763 0.000000 0.013738
O O7 0.901683 0.150091 0.939431
O O8 0.000000 0.151876 0.000000
O O9 0.083099 0.179173 0.338865
O O10 0.169697 0.123549 0.405918
O O11 0.000000 0.140486 0.500000
O O12 0.067726 0.000000 0.395128
O O13 0.525758 0.784617 0.673317
O O14 0.645685 0.689717 0.539948
O O15 0.695635 0.852420 0.576532
O O16 0.652446 0.175161 0.234919
O O17 0.584935 0.323685 0.203888
O O18 0.312781 0.500000 0.507042
O O19 0.270068 0.000000 0.806593
O O20 0.413893 0.500000 0.851896
#
# Coordination Sequence:
#
# PCOD9182738 Si02
#       8
#     8   8   8   8   8   8   8   8
#     4   9  16  29  49  71  94 122 158 200 241 278
#     4   9  15  29  51  74  98 124 159 199 238 280
#     4  10  19  33  53  74  96 124 159 203 250 285
#     4  10  20  32  48  70  95 123 159 201 242 283
#     4  11  21  32  48  73 105 129 155 196 243 293
#     4  10  20  34  51  68  89 125 166 201 238 284
#     4  10  20  32  49  72 100 134 161 190 236 289
#     4   9  17  29  50  76  98 122 157 203 245 278
#
# _framework density 15.814038999999999
#
# number of rings (size 3 to 8) (size 9 to 14) (size 15 to 20)
#    0.000    2.250    2.500    1.500    0.000    2.000 
#    0.000    0.000    0.000    0.375    0.000    0.000 
#    0.000    1.500    0.000    0.000    0.000    0.000 
#
# Total GULP energy -178371.701646 kJ/mol
# GULP energy per Si atom -5574.115676 kJ/mol
# Density = 1.577805 g / cm^3
# Si number density = 15.814039 Si / 1000 Ang^3
#
#
#
# Elastic Constant Matrix: (Units=GPa)
#
#
# Indices 1 2 3 4 5 6 
#
# 1 99.9107 44.7021 46.6523 0.0000 -3.2703 0.0000
# 2 44.7021 36.8610 22.7312 0.0000 -5.4604 0.0000
# 3 46.6523 22.7312 79.1672 0.0000 0.3865 0.0000
# 4 0.0000 0.0000 0.0000 16.2795 0.0000 -7.1558
# 5 -3.2703 -5.4604 0.3865 0.0000 22.6036 0.0000
# 6 0.0000 0.0000 0.0000 -7.1558 0.0000 16.2233
#
#
#
# Elastic Compliance Matrix: (Units=1/GPa)
#
#
# Indices 1 2 3 4 5 6 
#
# 1 0.025079 -0.026364 -0.007196 0.000000 -0.002617 0.000000
# 2 -0.026364 0.062245 -0.002391 0.000000 0.011263 0.000000
# 3 -0.007196 -0.002391 0.017568 0.000000 -0.001919 0.000000
# 4 0.000000 0.000000 0.000000 0.076201 0.000000 0.033611
# 5 -0.002617 0.011263 -0.001919 0.000000 0.046616 0.000000
# 6 0.000000 0.000000 0.000000 0.033611 0.000000 0.076465
#
#
# Mechanical properties :
#
#
# Convention : Reuss Voigt Hill
#
# Bulk Modulus (GPa) = 30.31335 49.34558 39.82947
# Shear Modulus (GPa) = 12.91744 17.81148 15.36446
#
# Velocity S-wave (km/s) = 2.86113 3.35969 3.12038
# Velocity P-wave (km/s) = 5.48862 6.80599 6.18249
#
# Compressibility (1/GPa) = 0.03298877
#
# Stress axis : x y z
#
# Youngs Moduli (GPa) = 39.87329 16.06567 56.92148
#
# Poissons Ratio (x) = 0.42356 0.40962
# Poissons Ratio (y) = 1.05123 0.13610
# Poissons Ratio (z) = 0.28694 0.03841
#
# Static dielectric constant tensor:
#      x y z
#    x 1.527540 0.000000 0.002520 
#    y 0.000000 1.505390 0.000000 
#    z 0.002520 0.000000 1.536930 
# 
# From -- ./inp_files/270298.got.cif
#   From: 2010.05.17/outbox.cif.g08.bks.cpg/sg12_136_cif.got.tgz:270298.got - 2010.06.03 13:09:07.
