data_PCOD9182690
_publ_section_title
;
Structure prediction by ZEFSAII (Michael W. Deem and Ramdas Pophale) SiO2 
 PCOD9182690
Probable space group: C 2/M
;
_chemical_formula_sum "Si O2"
_cell_formula_units_Z 42
_cell_length_a 19.457888
_cell_length_b 11.408913
_cell_length_c 10.759504
_cell_angle_alpha 90.000000
_cell_angle_beta 120.716566
_cell_angle_gamma 90.000000
_cell_volume 2053.437460
_symmetry_space_group_name_H-M "C 2/M"
_symmetry_group_IT_number 12
_symmetry_cell_setting 'monoclinic'
loop_
_space_group_symop_operation_xyz
x,y,z
-x,y,-z
-x,-y,-z
x,-y,z
1/2+x,1/2+y,z
1/2-x,1/2+y,-z
1/2-x,1/2-y,-z
1/2+x,1/2-y,z
loop_
_atom_site_type_symbol
_atom_site_label
_atom_site_fract_x
_atom_site_fract_y
_atom_site_fract_z
Si Si1 0.319238 0.770058 0.466418
Si Si2 0.000000 0.500000 0.000000
Si Si3 0.093960 0.500000 0.745474
Si Si4 0.413136 0.801557 0.086874
Si Si5 0.688756 0.638254 0.175422
Si Si6 0.561576 0.634301 0.288286
Si Si7 0.409107 0.000000 0.554766
O O1 0.250000 0.750000 0.500000
O O2 0.270769 0.801664 0.298046
O O3 0.385074 0.669015 0.541750
O O4 0.364892 0.884973 0.556241
O O5 0.944227 0.395814 0.014041
O O6 0.123145 0.381488 0.836519
O O7 0.095519 0.500000 0.598833
O O8 0.998409 0.500000 0.685752
O O9 0.488702 0.723896 0.202773
O O10 0.350278 0.711790 0.970434
O O11 0.702659 0.500000 0.162967
O O12 0.622711 0.642805 0.227081
O O13 0.533777 0.500000 0.268784
#
# Coordination Sequence:
#
# PCOD9182690 Si02
#       7
#     8   2   4   8   8   8   4
#     4  10  21  35  60  86 113 149 191 248 298 356
#     4  10  20  30  50  82 120 144 190 256 280 322
#     4  10  24  36  64  84 114 165 199 244 284 357
#     4  11  19  34  52  87 112 153 200 239 291 341
#     4  10  19  33  53  84 117 156 183 239 311 345
#     4  10  19  33  52  84 119 149 189 243 298 351
#     4  11  20  44  62  84 117 153 204 236 302 362
#
# _framework density 20.453509
#
# number of rings (size 3 to 8) (size 9 to 14) (size 15 to 20)
#    0.000    1.714    4.762    0.571    1.333    1.524 
#    3.429    0.952    0.000    3.429    0.000    0.000 
#    0.000    0.000    0.000    0.000    0.000    0.000 
#
# Total GULP energy -116912.467516 kJ/mol
# GULP energy per Si atom -5567.260358 kJ/mol
# Density = 2.040696 g / cm^3
# Si number density = 20.453509 Si / 1000 Ang^3
#
#
#
# Elastic Constant Matrix: (Units=GPa)
#
#
# Indices 1 2 3 4 5 6 
#
# 1 19.8667 13.4597 9.3339 0.0000 5.6128 0.0000
# 2 13.4597 136.1747 63.8337 0.0000 8.3567 0.0000
# 3 9.3339 63.8337 131.0837 0.0000 23.0832 0.0000
# 4 0.0000 0.0000 0.0000 38.4925 0.0000 6.2068
# 5 5.6128 8.3567 23.0832 0.0000 22.1141 0.0000
# 6 0.0000 0.0000 0.0000 6.2068 0.0000 15.4678
#
#
#
# Elastic Compliance Matrix: (Units=1/GPa)
#
#
# Indices 1 2 3 4 5 6 
#
# 1 0.057281 -0.005228 0.000832 0.000000 -0.013432 0.000000
# 2 -0.005228 0.010035 -0.004999 0.000000 0.002753 0.000000
# 3 0.000832 -0.004999 0.011895 0.000000 -0.010738 0.000000
# 4 0.000000 0.000000 0.000000 0.027776 0.000000 -0.011146
# 5 -0.013432 0.002753 -0.010738 0.000000 0.058798 0.000000
# 6 0.000000 0.000000 0.000000 -0.011146 0.000000 0.069123
#
#
# Mechanical properties :
#
#
# Convention : Reuss Voigt Hill
#
# Bulk Modulus (GPa) = 16.55045 51.15331 33.85188
# Shear Modulus (GPa) = 18.25908 28.58140 23.42024
#
# Velocity S-wave (km/s) = 2.99107 3.74222 3.38753
# Velocity P-wave (km/s) = 4.47638 6.61333 5.64686
#
# Compressibility (1/GPa) = 0.06042131
#
# Stress axis : x y z
#
# Youngs Moduli (GPa) = 17.45786 99.65457 84.07017
#
# Poissons Ratio (x) = 0.52095 -0.06996
# Poissons Ratio (y) = 0.09126 0.42028
# Poissons Ratio (z) = -0.01453 0.49819
#
# Static dielectric constant tensor:
#      x y z
#    x 1.835180 0.000000 -0.095540 
#    y 0.000000 1.729060 0.000000 
#    z -0.095540 0.000000 1.835530 
# 
# From -- ./inp_files/164398.got.cif
#   From: 2010.05.17/outbox.cif.g08.bks.cpg/sg12_83_cif.got.tgz:164398.got - 2010.06.03 13:09:07.
