data_PCOD9182319
_publ_section_title
;
Structure prediction by ZEFSAII (Michael W. Deem and Ramdas Pophale) SiO2 
 PCOD9182319
Probable space group: C 2/M
;
_chemical_formula_sum "Si O2"
_cell_formula_units_Z 48
_cell_length_a 29.130561
_cell_length_b 8.897134
_cell_length_c 22.092452
_cell_angle_alpha 90.000000
_cell_angle_beta 31.604443
_cell_angle_gamma 90.000000
_cell_volume 3000.663134
_symmetry_space_group_name_H-M "C 2/M"
_symmetry_group_IT_number 12
_symmetry_cell_setting 'monoclinic'
loop_
_space_group_symop_operation_xyz
x,y,z
-x,y,-z
-x,-y,-z
x,-y,z
1/2+x,1/2+y,z
1/2-x,1/2+y,-z
1/2-x,1/2-y,-z
1/2+x,1/2-y,z
loop_
_atom_site_type_symbol
_atom_site_label
_atom_site_fract_x
_atom_site_fract_y
_atom_site_fract_z
Si Si1 0.634999 0.318822 0.962778
Si Si2 0.614290 0.821088 0.433127
Si Si3 0.546884 0.326694 0.881301
Si Si4 0.294063 0.177514 0.241676
Si Si5 0.259150 0.320694 0.923595
Si Si6 0.083665 0.679535 0.324724
O O1 0.642677 0.500000 0.954917
O O2 0.531550 0.280353 0.075251
O O3 0.679348 0.258759 0.851217
O O4 0.684835 0.246766 0.962913
O O5 0.696606 0.732191 0.366388
O O6 0.519025 0.783704 0.567118
O O7 0.607356 0.792113 0.368599
O O8 0.628109 0.000000 0.424713
O O9 0.571145 0.500000 0.842276
O O10 0.633173 0.227666 0.791267
O O11 0.500000 0.323223 0.000000
O O12 0.296971 0.000000 0.229414
O O13 0.252760 0.500000 0.933080
O O14 0.351228 0.270272 0.790706
O O15 0.250000 0.250000 0.000000
O O16 0.094791 0.500000 0.302347
#
# Coordination Sequence:
#
# PCOD9182319 Si02
#       6
#     8   8   8   8   8   8
#     4  10  19  33  49  66  94 129 166 205 244 289
#     4   9  17  30  50  71  98 133 163 196 244 296
#     4   8  16  29  45  64  91 129 163 195 240 292
#     4  11  19  26  43  73 103 130 160 197 242 293
#     4  12  24  36  52  73  98 131 167 206 246 288
#     4   9  18  33  51  71  95 129 167 203 243 290
#
# _framework density 15.996465000000001
#
# number of rings (size 3 to 8) (size 9 to 14) (size 15 to 20)
#    0.000    2.167    1.667    5.500    0.000    4.333 
#    0.000    1.667    0.000    0.000    0.000    1.167 
#    0.000    0.000    0.000    0.000    0.000    0.000 
#
# Total GULP energy -133845.466724 kJ/mol
# GULP energy per Si atom -5576.894447 kJ/mol
# Density = 1.596006 g / cm^3
# Si number density = 15.996465 Si / 1000 Ang^3
#
#
#
# Elastic Constant Matrix: (Units=GPa)
#
#
# Indices 1 2 3 4 5 6 
#
# 1 102.9448 61.0398 66.4613 0.0005 -25.5914 0.0003
# 2 61.0398 95.4785 60.5967 0.0007 -19.9387 -0.0006
# 3 66.4613 60.5967 79.3429 0.0000 -21.5858 -0.0020
# 4 0.0005 0.0007 0.0000 14.5705 -0.0001 6.1059
# 5 -25.5914 -19.9387 -21.5858 -0.0001 30.9147 0.0002
# 6 0.0003 -0.0006 -0.0020 6.1059 0.0002 12.1889
#
#
#
# Elastic Compliance Matrix: (Units=1/GPa)
#
#
# Indices 1 2 3 4 5 6 
#
# 1 0.023112 -0.004386 -0.014289 0.000001 0.006327 -0.000004
# 2 -0.004386 0.021357 -0.012194 -0.000001 0.001629 -0.000001
# 3 -0.014289 -0.012194 0.035218 -0.000001 0.004897 0.000006
# 4 0.000001 -0.000001 -0.000001 0.086867 0.000000 -0.043515
# 5 0.006327 0.001629 0.004897 0.000000 0.042055 0.000000
# 6 -0.000004 -0.000001 0.000006 -0.043515 0.000000 0.103840
#
#
# Mechanical properties :
#
#
# Convention : Reuss Voigt Hill
#
# Bulk Modulus (GPa) = 55.71190 72.66241 64.18716
# Shear Modulus (GPa) = 13.15206 17.51274 15.33240
#
# Velocity S-wave (km/s) = 2.87049 3.31235 3.09930
# Velocity P-wave (km/s) = 6.77418 7.75574 7.28152
#
# Compressibility (1/GPa) = 0.01794949
#
# Stress axis : x y z
#
# Youngs Moduli (GPa) = 43.26706 46.82412 28.39479
#
# Poissons Ratio (x) = 0.20536 0.40574
# Poissons Ratio (y) = 0.18976 0.34623
# Poissons Ratio (z) = 0.61825 0.57095
#
# Static dielectric constant tensor:
#      x y z
#    x 1.542100 0.000000 -0.035510 
#    y 0.000000 1.527470 0.000000 
#    z -0.035510 0.000000 1.528150 
# 
# From -- ./inp_files/329017.got.cif
#   From: 2010.05.17/outbox.cif.g08.bks.cpg/sg12_165_cif.got.tgz:329017.got - 2010.06.03 13:09:07.
