data_PCOD9182536
_publ_section_title
;
Structure prediction by ZEFSAII (Michael W. Deem and Ramdas Pophale) SiO2 
 PCOD9182536
Probable space group: C 2/M
;
_chemical_formula_sum "Si O2"
_cell_formula_units_Z 64
_cell_length_a 14.618216
_cell_length_b 8.425319
_cell_length_c 32.230913
_cell_angle_alpha 90.000000
_cell_angle_beta 115.235271
_cell_angle_gamma 90.000000
_cell_volume 3590.814802
_symmetry_space_group_name_H-M "C 2/M"
_symmetry_group_IT_number 12
_symmetry_cell_setting 'monoclinic'
loop_
_space_group_symop_operation_xyz
x,y,z
-x,y,-z
-x,-y,-z
x,-y,z
1/2+x,1/2+y,z
1/2-x,1/2+y,-z
1/2-x,1/2-y,-z
1/2+x,1/2-y,z
loop_
_atom_site_type_symbol
_atom_site_label
_atom_site_fract_x
_atom_site_fract_y
_atom_site_fract_z
Si Si1 0.512649 0.191873 0.871445
Si Si2 0.228310 0.691727 0.878384
Si Si3 0.268421 0.806765 0.625055
Si Si4 0.939133 0.308291 0.947879
Si Si5 0.978273 0.690371 0.626282
Si Si6 0.689164 0.309904 0.698814
Si Si7 0.551195 0.691998 0.552419
Si Si8 0.698362 0.689939 0.198097
O O1 0.620499 0.246678 0.874925
O O2 0.492233 0.242831 0.915056
O O3 0.417152 0.251208 0.826598
O O4 0.512008 0.000000 0.870536
O O5 0.228395 0.500000 0.878885
O O6 0.323889 0.749955 0.923401
O O7 0.249158 0.743532 0.834950
O O8 0.373274 0.751372 0.625775
O O9 0.249892 0.757628 0.669116
O O10 0.168255 0.757746 0.580349
O O11 0.270424 0.000000 0.625102
O O12 0.938318 0.500000 0.948143
O O13 0.000000 0.252790 0.000000
O O14 0.977558 0.500000 0.625817
O O15 0.075395 0.747136 0.671075
O O16 0.993776 0.750507 0.582418
O O17 0.685917 0.500000 0.697893
O O18 0.742851 0.252234 0.750673
O O19 0.500000 0.747446 0.500000
O O20 0.549626 0.500000 0.552351
O O21 0.699064 0.500000 0.198759
#
# Coordination Sequence:
#
# PCOD9182536 Si02
#       8
#     8   8   8   8   8   8   8   8
#     4   9  18  34  52  70  97 133 166 196 242 299
#     4   9  19  34  51  71  98 132 166 200 242 295
#     4   8  17  33  51  71  98 131 162 197 244 293
#     4   9  18  32  50  73 100 128 162 206 249 289
#     4  10  19  33  52  74 100 128 163 206 246 284
#     4  10  20  36  54  72  98 132 165 196 243 301
#     4   9  18  34  53  73 101 136 169 200 241 295
#     4  10  20  34  51  74 100 125 161 206 245 282
#
# _framework density 17.823252
#
# number of rings (size 3 to 8) (size 9 to 14) (size 15 to 20)
#    0.000    2.750    0.000    1.875    0.000    3.500 
#    0.000   11.250    0.000    0.000    0.000    0.000 
#    0.000    0.000    0.000    0.000    0.000    0.000 
#
# Total GULP energy -178455.151869 kJ/mol
# GULP energy per Si atom -5576.723496 kJ/mol
# Density = 1.778269 g / cm^3
# Si number density = 17.823252 Si / 1000 Ang^3
#
#
#
# Elastic Constant Matrix: (Units=GPa)
#
#
# Indices 1 2 3 4 5 6 
#
# 1 184.4554 21.9045 91.2975 0.0000 16.9235 0.0000
# 2 21.9045 13.8556 22.2180 0.0000 2.8798 0.0000
# 3 91.2975 22.2180 179.4035 0.0000 16.3536 0.0000
# 4 0.0000 0.0000 0.0000 26.5395 0.0000 5.5072
# 5 16.9235 2.8798 16.3536 0.0000 8.4553 0.0000
# 6 0.0000 0.0000 0.0000 5.5072 0.0000 16.5261
#
#
#
# Elastic Compliance Matrix: (Units=1/GPa)
#
#
# Indices 1 2 3 4 5 6 
#
# 1 0.008397 -0.007285 -0.002507 0.000000 -0.009476 0.000000
# 2 -0.007285 0.097236 -0.008067 0.000000 -0.002934 0.000000
# 3 -0.002507 -0.008067 0.008670 0.000000 -0.009002 0.000000
# 4 0.000000 0.000000 0.000000 0.040479 0.000000 -0.013489
# 5 -0.009476 -0.002934 -0.009002 0.000000 0.155647 0.000000
# 6 0.000000 0.000000 0.000000 -0.013489 0.000000 0.065006
#
#
# Mechanical properties :
#
#
# Convention : Reuss Voigt Hill
#
# Bulk Modulus (GPa) = 12.72534 72.06162 42.39348
# Shear Modulus (GPa) = 11.43258 26.45713 18.94486
#
# Velocity S-wave (km/s) = 2.53542 3.85699 3.26380
# Velocity P-wave (km/s) = 3.96565 7.76880 6.16768
#
# Compressibility (1/GPa) = 0.07858339
#
# Stress axis : x y z
#
# Youngs Moduli (GPa) = 119.09317 10.28430 115.34580
#
# Poissons Ratio (x) = 0.07492 0.28918
# Poissons Ratio (y) = 0.86757 0.93054
# Poissons Ratio (z) = 0.29858 0.08297
#
# Static dielectric constant tensor:
#      x y z
#    x 1.601220 0.000000 -0.009560 
#    y 0.000000 1.614690 0.000000 
#    z -0.009560 0.000000 1.588190 
# 
# From -- ./inp_files/375117.got.cif
#   From: 2010.05.17/outbox.cif.g08.bks.cpg/sg12_188_cif.got.tgz:375117.got - 2010.06.03 13:09:07.
