data_PCOD9182125
_publ_section_title
;
Structure prediction by ZEFSAII (Michael W. Deem and Ramdas Pophale) SiO2 
 PCOD9182125
Probable space group: C 2/M
;
_chemical_formula_sum "Si O2"
_cell_formula_units_Z 56
_cell_length_a 16.466657
_cell_length_b 7.567476
_cell_length_c 24.178178
_cell_angle_alpha 90.000000
_cell_angle_beta 59.421146
_cell_angle_gamma 90.000000
_cell_volume 2593.867707
_symmetry_space_group_name_H-M "C 2/M"
_symmetry_group_IT_number 12
_symmetry_cell_setting 'monoclinic'
loop_
_space_group_symop_operation_xyz
x,y,z
-x,y,-z
-x,-y,-z
x,-y,z
1/2+x,1/2+y,z
1/2-x,1/2+y,-z
1/2-x,1/2-y,-z
1/2+x,1/2-y,z
loop_
_atom_site_type_symbol
_atom_site_label
_atom_site_fract_x
_atom_site_fract_y
_atom_site_fract_z
Si Si1 0.453268 0.712505 0.844409
Si Si2 0.449988 0.787363 0.073175
Si Si3 0.266567 0.287744 0.841522
Si Si4 0.915743 0.284603 0.568409
Si Si5 0.229399 0.211388 0.570839
Si Si6 0.426210 0.698281 0.293177
Si Si7 0.897161 0.710215 0.701044
O O1 0.452204 0.500000 0.837896
O O2 0.484227 0.747879 0.896424
O O3 0.351116 0.774534 0.854738
O O4 0.539873 0.783029 0.775972
O O5 0.340881 0.722752 0.113571
O O6 0.444184 0.000000 0.072267
O O7 0.500000 0.722744 0.000000
O O8 0.264683 0.500000 0.847493
O O9 0.300679 0.241941 0.767459
O O10 0.920036 0.500000 0.567556
O O11 0.820686 0.230607 0.572032
O O12 0.909466 0.229123 0.633971
O O13 0.000000 0.222685 0.500000
O O14 0.250000 0.250000 0.500000
O O15 0.142423 0.282645 0.637292
O O16 0.219783 0.000000 0.575570
O O17 0.389475 0.500000 0.293146
O O18 0.525043 0.690450 0.290513
O O19 0.915729 0.500000 0.696196
#
# Coordination Sequence:
#
# PCOD9182125 Si02
#       7
#     8   8   8   8   8   8   8
#     4   9  19  36  58  82 111 149 190 229 278 337
#     4  10  22  39  59  85 117 151 187 231 283 336
#     4   9  20  39  58  80 116 154 181 224 288 339
#     4   9  18  31  48  72 102 135 172 220 270 313
#     4  10  20  34  51  72 102 141 180 221 273 326
#     4   9  19  35  54  75 107 145 176 220 283 335
#     4  10  19  32  56  82 102 133 182 230 268 324
#
# _framework density 21.589379999999998
#
# number of rings (size 3 to 8) (size 9 to 14) (size 15 to 20)
#    0.000    2.571    0.000    2.143    2.000    5.429 
#    0.000    1.429    0.000    3.857    0.000    0.000 
#    0.000    0.000    0.000    0.000    0.000    0.000 
#
# Total GULP energy -156001.315006 kJ/mol
# GULP energy per Si atom -5571.475536 kJ/mol
# Density = 2.154024 g / cm^3
# Si number density = 21.589380 Si / 1000 Ang^3
#
#
#
# Elastic Constant Matrix: (Units=GPa)
#
#
# Indices 1 2 3 4 5 6 
#
# 1 80.0901 4.0593 83.2462 0.0001 8.6486 0.0002
# 2 4.0593 56.6227 4.1923 0.0002 -3.9086 0.0003
# 3 83.2462 4.1923 202.2306 0.0000 6.4945 0.0001
# 4 0.0001 0.0002 0.0000 19.1119 0.0000 9.4068
# 5 8.6486 -3.9086 6.4945 0.0000 48.8591 0.0000
# 6 0.0002 0.0003 0.0001 9.4068 0.0000 42.1122
#
#
#
# Elastic Compliance Matrix: (Units=1/GPa)
#
#
# Indices 1 2 3 4 5 6 
#
# 1 0.022249 -0.001120 -0.009045 0.000000 -0.002826 0.000000
# 2 -0.001120 0.017850 0.000039 0.000000 0.001621 0.000000
# 3 -0.009045 0.000039 0.008653 0.000000 0.000454 0.000000
# 4 0.000000 0.000000 0.000000 0.058787 0.000000 -0.013131
# 5 -0.002826 0.001621 0.000454 0.000000 0.021037 0.000000
# 6 0.000000 0.000000 0.000000 -0.013131 0.000000 0.026679
#
#
# Mechanical properties :
#
#
# Convention : Reuss Voigt Hill
#
# Bulk Modulus (GPa) = 35.08802 57.99322 46.54062
# Shear Modulus (GPa) = 27.02623 38.51303 32.76963
#
# Velocity S-wave (km/s) = 3.54196 4.22819 3.90020
# Velocity P-wave (km/s) = 5.74587 7.12440 6.47194
#
# Compressibility (1/GPa) = 0.02849976
#
# Stress axis : x y z
#
# Youngs Moduli (GPa) = 44.94624 56.02211 115.57297
#
# Poissons Ratio (x) = 0.06277 1.04530
# Poissons Ratio (y) = 0.05036 -0.00452
# Poissons Ratio (z) = 0.40652 -0.00219
#
# Static dielectric constant tensor:
#      x y z
#    x 0.866900 0.000000 -2.083640 
#    y 0.000000 1.847790 -0.000010 
#    z -2.083640 -0.000010 -4.571750 
# 
# From -- ./inp_files/342244.got.cif
#   From: 2010.05.17/outbox.cif.g08.bks.cpg/sg12_172_cif.got.tgz:342244.got - 2010.06.03 13:09:07.
