data_PCOD9182641
_publ_section_title
;
Structure prediction by ZEFSAII (Michael W. Deem and Ramdas Pophale) SiO2 
 PCOD9182641
Probable space group: C 2/M
;
_chemical_formula_sum "Si O2"
_cell_formula_units_Z 50
_cell_length_a 19.460777
_cell_length_b 7.522786
_cell_length_c 16.149813
_cell_angle_alpha 90.000000
_cell_angle_beta 103.300756
_cell_angle_gamma 90.000000
_cell_volume 2300.899762
_symmetry_space_group_name_H-M "C 2/M"
_symmetry_group_IT_number 12
_symmetry_cell_setting 'monoclinic'
loop_
_space_group_symop_operation_xyz
x,y,z
-x,y,-z
-x,-y,-z
x,-y,z
1/2+x,1/2+y,z
1/2-x,1/2+y,-z
1/2-x,1/2-y,-z
1/2+x,1/2-y,z
loop_
_atom_site_type_symbol
_atom_site_label
_atom_site_fract_x
_atom_site_fract_y
_atom_site_fract_z
Si Si1 0.485041 0.716459 0.259260
Si Si2 0.500000 0.000000 0.500000
Si Si3 0.169380 0.787414 0.729911
Si Si4 0.966078 0.209072 0.907329
Si Si5 0.132800 0.294565 0.367871
Si Si6 0.121945 0.799895 0.541910
Si Si7 0.180176 0.284419 0.200338
O O1 0.488003 0.500000 0.263480
O O2 0.407153 0.777930 0.262803
O O3 0.503902 0.778888 0.171597
O O4 0.547075 0.784802 0.336193
O O5 0.438870 0.845145 0.472964
O O6 0.174439 0.760949 0.632468
O O7 0.240280 0.721560 0.793319
O O8 0.167858 0.000000 0.743844
O O9 0.881679 0.228442 0.878481
O O10 0.983266 0.000000 0.910898
O O11 0.000000 0.285285 0.000000
O O12 0.153927 0.500000 0.378566
O O13 0.154440 0.205211 0.459184
O O14 0.158743 0.221752 0.286972
O O15 0.094358 0.000000 0.549858
O O16 0.179193 0.500000 0.201736
#
# Coordination Sequence:
#
# PCOD9182641 Si02
#       7
#     8   2   8   8   8   8   8
#     4   9  17  32  54  74 102 143 184 228 281 335
#     4  12  22  36  52  82 112 144 198 246 280 326
#     4   9  19  35  53  77 108 148 187 230 283 336
#     4   9  18  34  56  82 106 135 180 230 281 346
#     4  10  19  33  52  78 108 144 191 239 277 327
#     4  11  22  35  54  79 114 155 194 242 286 327
#     4   9  19  36  56  78 109 143 184 231 281 337
#
# _framework density 21.730629
#
# number of rings (size 3 to 8) (size 9 to 14) (size 15 to 20)
#    0.000    2.400    0.800    1.680    0.000    2.880 
#    1.440    0.800    0.000    0.000    0.000    0.000 
#    0.000    0.000    0.000    0.000    0.000    0.000 
#
# Total GULP energy -139326.291102 kJ/mol
# GULP energy per Si atom -5573.051644 kJ/mol
# Density = 2.168117 g / cm^3
# Si number density = 21.730629 Si / 1000 Ang^3
#
#
#
# Elastic Constant Matrix: (Units=GPa)
#
#
# Indices 1 2 3 4 5 6 
#
# 1 65.8519 -15.3280 24.2287 0.0000 16.8462 0.0000
# 2 -15.3280 83.4905 4.9574 0.0000 1.5952 0.0000
# 3 24.2287 4.9574 106.8460 0.0000 11.7768 0.0000
# 4 0.0000 0.0000 0.0000 12.1585 0.0000 0.8240
# 5 16.8462 1.5952 11.7768 0.0000 20.2218 0.0000
# 6 0.0000 0.0000 0.0000 0.8240 0.0000 13.9239
#
#
#
# Elastic Compliance Matrix: (Units=1/GPa)
#
#
# Indices 1 2 3 4 5 6 
#
# 1 0.021660 0.004488 -0.003304 0.000000 -0.016474 0.000000
# 2 0.004488 0.012949 -0.001169 0.000000 -0.004079 0.000000
# 3 -0.003304 -0.001169 0.010525 0.000000 -0.003285 0.000000
# 4 0.000000 0.000000 0.000000 0.082578 0.000000 -0.004887
# 5 -0.016474 -0.004079 -0.003285 0.000000 0.065410 0.000000
# 6 0.000000 0.000000 0.000000 -0.004887 0.000000 0.072108
#
#
# Mechanical properties :
#
#
# Convention : Reuss Voigt Hill
#
# Bulk Modulus (GPa) = 22.14206 31.54495 26.84350
# Shear Modulus (GPa) = 17.84086 25.41619 21.62852
#
# Velocity S-wave (km/s) = 2.86842 3.42365 3.15826
# Velocity P-wave (km/s) = 4.60238 5.49331 5.06746
#
# Compressibility (1/GPa) = 0.04516292
#
# Stress axis : x y z
#
# Youngs Moduli (GPa) = 46.16758 77.22836 95.01379
#
# Poissons Ratio (x) = -0.34656 0.31394
# Poissons Ratio (y) = -0.20718 0.11105
# Poissons Ratio (z) = 0.15254 0.09026
#
# Static dielectric constant tensor:
#      x y z
#    x 1.825590 0.000000 -0.026550 
#    y 0.000000 1.807510 0.000000 
#    z -0.026550 0.000000 1.800960 
# 
# From -- ./inp_files/274528.got.cif
#   From: 2010.05.17/outbox.cif.g08.bks.cpg/sg12_138_cif.got.tgz:274528.got - 2010.06.03 13:09:07.
