data_PCOD9182848
_publ_section_title
;
Structure prediction by ZEFSAII (Michael W. Deem and Ramdas Pophale) SiO2 
 PCOD9182848
Probable space group: C 2/M
;
_chemical_formula_sum "Si O2"
_cell_formula_units_Z 64
_cell_length_a 21.153972
_cell_length_b 8.315615
_cell_length_c 19.998968
_cell_angle_alpha 90.000000
_cell_angle_beta 89.999983
_cell_angle_gamma 90.000000
_cell_volume 3517.984200
_symmetry_space_group_name_H-M "C 2/M"
_symmetry_group_IT_number 12
_symmetry_cell_setting 'monoclinic'
loop_
_space_group_symop_operation_xyz
x,y,z
-x,y,-z
-x,-y,-z
x,-y,z
1/2+x,1/2+y,z
1/2-x,1/2+y,-z
1/2-x,1/2-y,-z
1/2+x,1/2-y,z
loop_
_atom_site_type_symbol
_atom_site_label
_atom_site_fract_x
_atom_site_fract_y
_atom_site_fract_z
Si Si1 0.888473 0.692319 0.323594
Si Si2 0.888473 0.807681 0.176406
Si Si3 0.563324 0.305643 0.537423
Si Si4 0.688321 0.194425 0.039747
Si Si5 0.242403 0.693619 0.177145
Si Si6 0.311679 0.694425 0.539747
Si Si7 0.436676 0.194357 0.037423
Si Si8 0.242403 0.806381 0.322855
O O1 0.888182 0.500000 0.324172
O O2 0.908827 0.750000 0.250000
O O3 0.929268 0.753033 0.385826
O O4 0.815304 0.749267 0.333209
O O5 0.815304 0.750733 0.166791
O O6 0.929268 0.746967 0.114174
O O7 0.888182 0.000000 0.175828
O O8 0.500000 0.250336 0.500000
O O9 0.563404 0.500000 0.536367
O O10 0.625099 0.247784 0.496758
O O11 0.698724 0.248526 0.116122
O O12 0.686813 0.000000 0.039449
O O13 0.750000 0.250000 0.000000
O O14 0.625099 0.252216 0.003242
O O15 0.243671 0.500000 0.176659
O O16 0.221642 0.750000 0.250000
O O17 0.313187 0.500000 0.539449
O O18 0.250000 0.750000 0.500000
O O19 0.301276 0.748526 0.616122
O O20 0.563404 0.000000 0.963632
O O21 0.500000 0.249664 0.000000
O O22 0.243671 0.000000 0.323341
#
# Coordination Sequence:
#
# PCOD9182848 Si02
#       8
#     8   8   8   8   8   8   8   8
#     4  10  19  33  54  79 106 137 178 221 265 318
#     4  10  19  33  54  79 106 137 178 221 265 318
#     4  10  21  36  54  78 110 146 179 217 266 318
#     4  10  19  33  53  77 105 135 174 219 263 311
#     4   9  18  31  49  76 104 132 169 217 264 310
#     4  10  19  33  53  77 105 135 174 219 263 311
#     4  10  21  36  54  78 110 146 179 217 266 318
#     4   9  18  31  49  76 104 132 169 217 264 310
#
# _framework density 18.192235
#
# number of rings (size 3 to 8) (size 9 to 14) (size 15 to 20)
#    0.000    2.250    2.500    0.750    0.000    2.500 
#    0.000    1.250    0.000    3.000    0.000    0.000 
#    0.000    0.000    0.000    0.000    0.000    0.000 
#
# Total GULP energy -178516.063985 kJ/mol
# GULP energy per Si atom -5578.627000 kJ/mol
# Density = 1.815083 g / cm^3
# Si number density = 18.192235 Si / 1000 Ang^3
#
#
#
# Elastic Constant Matrix: (Units=GPa)
#
#
# Indices 1 2 3 4 5 6 
#
# 1 116.6493 16.7180 88.4550 0.0000 0.0000 0.0000
# 2 16.7180 7.4951 17.8179 0.0000 0.0000 0.0000
# 3 88.4550 17.8179 196.2287 0.0000 0.0000 0.0000
# 4 0.0000 0.0000 0.0000 30.4934 0.0000 0.0000
# 5 0.0000 0.0000 0.0000 0.0000 29.7209 0.0000
# 6 0.0000 0.0000 0.0000 0.0000 0.0000 14.0762
#
#
#
# Elastic Compliance Matrix: (Units=1/GPa)
#
#
# Indices 1 2 3 4 5 6 
#
# 1 0.015640 -0.023115 -0.004951 0.000000 0.000000 0.000000
# 2 -0.023115 0.204313 -0.008132 0.000000 0.000000 0.000000
# 3 -0.004951 -0.008132 0.008066 0.000000 0.000000 0.000000
# 4 0.000000 0.000000 0.000000 0.032794 0.000000 0.000000
# 5 0.000000 0.000000 0.000000 0.000000 0.033646 0.000000
# 6 0.000000 0.000000 0.000000 0.000000 0.000000 0.071042
#
#
# Mechanical properties :
#
#
# Convention : Reuss Voigt Hill
#
# Bulk Modulus (GPa) = 6.42583 62.92835 34.67709
# Shear Modulus (GPa) = 10.20881 28.01690 19.11286
#
# Velocity S-wave (km/s) = 2.37146 3.92860 3.24482
# Velocity P-wave (km/s) = 3.32239 7.43266 5.75685
#
# Compressibility (1/GPa) = 0.15562196
#
# Stress axis : x y z
#
# Youngs Moduli (GPa) = 63.93828 4.89445 123.97073
#
# Poissons Ratio (x) = 0.11314 0.61381
# Poissons Ratio (y) = 1.47795 1.00816
# Poissons Ratio (z) = 0.31657 0.03980
#
# Static dielectric constant tensor:
#      x y z
#    x 1.614790 0.000000 0.000000 
#    y 0.000000 1.635260 0.000000 
#    z 0.000000 0.000000 1.627630 
# 
# From -- ./inp_files/314111.got.cif
#   From: 2010.05.17/outbox.cif.g08.bks.cpg/sg12_158_cif.got.tgz:314111.got - 2010.06.03 13:09:07.
