data_PCOD9182043
_publ_section_title
;
Structure prediction by ZEFSAII (Michael W. Deem and Ramdas Pophale) SiO2 
 PCOD9182043
Probable space group: C 2/M
;
_chemical_formula_sum "Si O2"
_cell_formula_units_Z 40
_cell_length_a 19.589375
_cell_length_b 9.716414
_cell_length_c 14.468212
_cell_angle_alpha 90.000000
_cell_angle_beta 45.713045
_cell_angle_gamma 90.000000
_cell_volume 1971.353613
_symmetry_space_group_name_H-M "C 2/M"
_symmetry_group_IT_number 12
_symmetry_cell_setting 'monoclinic'
loop_
_space_group_symop_operation_xyz
x,y,z
-x,y,-z
-x,-y,-z
x,-y,z
1/2+x,1/2+y,z
1/2-x,1/2+y,-z
1/2-x,1/2-y,-z
1/2+x,1/2-y,z
loop_
_atom_site_type_symbol
_atom_site_label
_atom_site_fract_x
_atom_site_fract_y
_atom_site_fract_z
Si Si1 0.895303 0.161452 0.142633
Si Si2 0.628176 0.848420 0.180761
Si Si3 0.234604 0.334759 0.609020
Si Si4 0.152046 0.849719 0.011674
Si Si5 0.887525 0.844823 0.627676
O O1 0.857443 0.266003 0.254503
O O2 0.834129 0.187191 0.107951
O O3 0.884585 0.000000 0.180242
O O4 0.000000 0.181362 0.000000
O O5 0.740758 0.865275 0.053377
O O6 0.621594 0.763113 0.280836
O O7 0.584999 0.000000 0.228749
O O8 0.593366 0.757305 0.127760
O O9 0.225188 0.500000 0.603234
O O10 0.250000 0.250000 0.500000
O O11 0.323089 0.314328 0.597969
O O12 0.104647 0.000000 0.059979
O O13 0.000000 0.847587 0.500000
O O14 0.859242 0.000000 0.685798
#
# Coordination Sequence:
#
# PCOD9182043 Si02
#       5
#     8   8   8   8   8
#     4  10  21  39  63  89 120 159 203 250 301 362
#     4  10  19  32  55  84 112 144 184 235 289 343
#     4  11  24  42  65  89 122 165 207 256 308 366
#     4   9  18  33  54  81 113 147 182 227 286 350
#     4  10  22  40  61  85 115 156 203 247 297 358
#
# _framework density 20.290626
#
# number of rings (size 3 to 8) (size 9 to 14) (size 15 to 20)
#    0.000    2.000    2.000    1.200    0.000    4.800 
#    0.000    8.000    0.000    0.000    0.000    0.000 
#    0.000    0.000    0.000    0.000    0.000    0.000 
#
# Total GULP energy -111391.710441 kJ/mol
# GULP energy per Si atom -5569.585522 kJ/mol
# Density = 2.024444 g / cm^3
# Si number density = 20.290626 Si / 1000 Ang^3
#
#
#
# Elastic Constant Matrix: (Units=GPa)
#
#
# Indices 1 2 3 4 5 6 
#
# 1 32.0843 36.5828 35.2360 0.0000 2.3010 0.0000
# 2 36.5828 176.0656 106.5432 0.0000 43.4230 0.0000
# 3 35.2360 106.5432 102.3109 0.0000 19.4124 0.0000
# 4 0.0000 0.0000 0.0000 -34.8790 0.0000 18.0363
# 5 2.3010 43.4230 19.4124 0.0000 32.0467 0.0000
# 6 0.0000 0.0000 0.0000 18.0363 0.0000 21.1404
#
#
#
# Elastic Compliance Matrix: (Units=1/GPa)
#
#
# Indices 1 2 3 4 5 6 
#
# 1 0.052606 -0.003965 -0.016147 0.000000 0.011377 0.000000
# 2 -0.003965 0.021979 -0.017994 0.000000 -0.018596 0.000000
# 3 -0.016147 -0.017994 0.033023 0.000000 0.005537 0.000000
# 4 0.000000 0.000000 0.000000 -0.019894 0.000000 0.016973
# 5 0.011377 -0.018596 0.005537 0.000000 0.052231 0.000000
# 6 0.000000 0.000000 0.000000 0.016973 0.000000 0.032822
#
#
# Mechanical properties :
#
#
# Convention : Reuss Voigt Hill
#
# Bulk Modulus (GPa) = 31.85153 74.13164 52.99159
# Shear Modulus (GPa) = 19.27195 12.46822 15.87009
#
# Velocity S-wave (km/s) = 3.08522 2.48156 2.79971
# Velocity P-wave (km/s) = 5.33134 6.69516 6.05179
#
# Compressibility (1/GPa) = 0.03139566
#
# Stress axis : x y z
#
# Youngs Moduli (GPa) = 19.00908 45.49888 30.28224
#
# Poissons Ratio (x) = 0.18041 0.48897
# Poissons Ratio (y) = 0.07538 0.54489
# Poissons Ratio (z) = 0.30694 0.81869
#
# Static dielectric constant tensor:
#      x y z
#    x 1.830480 0.000000 -0.022220 
#    y 0.000000 1.807830 0.000000 
#    z -0.022220 0.000000 1.711600 
# 
# From -- ./inp_files/220607.got.cif
#   From: 2010.05.17/outbox.cif.g08.bks.cpg/sg12_111_cif.got.tgz:220607.got - 2010.06.03 13:09:07.
