data_PCOD9182903
_publ_section_title
;
Structure prediction by ZEFSAII (Michael W. Deem and Ramdas Pophale) SiO2 
 PCOD9182903
Probable space group: C 2/M
;
_chemical_formula_sum "Si O2"
_cell_formula_units_Z 64
_cell_length_a 24.864177
_cell_length_b 20.490550
_cell_length_c 11.206462
_cell_angle_alpha 90.000000
_cell_angle_beta 146.768676
_cell_angle_gamma 90.000000
_cell_volume 3128.910324
_symmetry_space_group_name_H-M "C 2/M"
_symmetry_group_IT_number 12
_symmetry_cell_setting 'monoclinic'
loop_
_space_group_symop_operation_xyz
x,y,z
-x,y,-z
-x,-y,-z
x,-y,z
1/2+x,1/2+y,z
1/2-x,1/2+y,-z
1/2-x,1/2-y,-z
1/2+x,1/2-y,z
loop_
_atom_site_type_symbol
_atom_site_label
_atom_site_fract_x
_atom_site_fract_y
_atom_site_fract_z
Si Si1 0.163872 0.339957 0.088431
Si Si2 0.531419 0.073714 0.694803
Si Si3 0.142059 0.075048 0.194654
Si Si4 0.971332 0.155518 0.216179
Si Si5 0.281826 0.711045 0.941846
Si Si6 0.840196 0.626959 0.463556
Si Si7 0.021714 0.278140 0.165190
Si Si8 0.850009 0.077340 0.509899
O O1 0.200473 0.268126 0.122507
O O2 0.250062 0.384187 0.298236
O O3 0.115809 0.375428 0.885162
O O4 0.069750 0.328357 0.997399
O O5 0.500000 0.080303 0.500000
O O6 0.435026 0.087477 0.595424
O O7 0.566306 0.000000 0.781078
O O8 0.256031 0.085308 0.371025
O O9 0.126409 0.087981 0.305650
O O10 0.112746 0.000000 0.116687
O O11 0.084924 0.123040 0.000557
O O12 0.014347 0.225118 0.255677
O O13 0.062697 0.108018 0.407786
O O14 0.884897 0.172122 0.149062
O O15 0.205227 0.662041 0.738094
O O16 0.250000 0.750000 0.000000
O O17 0.879715 0.681932 0.628470
O O18 0.000000 0.243809 0.000000
O O19 0.840067 0.000000 0.472616
#
# Coordination Sequence:
#
# PCOD9182903 Si02
#       8
#     8   8   8   8   8   8   8   8
#     4  10  21  35  53  80 108 140 181 221 273 334
#     4  10  20  35  55  76 101 137 181 231 279 322
#     4  10  20  34  54  80 112 151 188 222 267 326
#     4  10  21  35  54  81 108 141 186 224 264 325
#     4  10  21  38  59  80 104 138 180 232 284 325
#     4  10  20  34  54  81 108 138 183 232 278 329
#     4  10  19  33  53  78 110 141 175 225 278 327
#     4  11  21  35  55  80 116 154 182 217 269 331
#
# _framework density 20.454405000000001
#
# number of rings (size 3 to 8) (size 9 to 14) (size 15 to 20)
#    0.000    1.875    0.000    4.500    0.000    1.000 
#    0.000    9.375    0.000    9.000    0.000    0.000 
#    0.000    0.000    0.000    0.000    0.000    0.000 
#
# Total GULP energy -178583.170848 kJ/mol
# GULP energy per Si atom -5580.724089 kJ/mol
# Density = 2.040785 g / cm^3
# Si number density = 20.454405 Si / 1000 Ang^3
#
#
#
# Elastic Constant Matrix: (Units=GPa)
#
#
# Indices 1 2 3 4 5 6 
#
# 1 55.9391 4.8923 4.2018 0.0000 9.7861 0.0000
# 2 4.8923 74.2846 20.1853 0.0000 12.9876 0.0000
# 3 4.2018 20.1853 41.5524 0.0000 19.1865 0.0000
# 4 0.0000 0.0000 0.0000 33.3642 0.0000 0.3288
# 5 9.7861 12.9876 19.1865 0.0000 24.2789 0.0000
# 6 0.0000 0.0000 0.0000 0.3288 0.0000 12.8584
#
#
#
# Elastic Compliance Matrix: (Units=1/GPa)
#
#
# Indices 1 2 3 4 5 6 
#
# 1 0.019415 -0.000301 0.002711 0.000000 -0.009807 0.000000
# 2 -0.000301 0.015726 -0.005953 0.000000 -0.003587 0.000000
# 3 0.002711 -0.005953 0.040494 0.000000 -0.029909 0.000000
# 4 0.000000 0.000000 0.000000 0.029980 0.000000 -0.000767
# 5 -0.009807 -0.003587 -0.029909 0.000000 0.070695 0.000000
# 6 0.000000 0.000000 0.000000 -0.000767 0.000000 0.077790
#
#
# Mechanical properties :
#
#
# Convention : Reuss Voigt Hill
#
# Bulk Modulus (GPa) = 14.58780 25.59275 20.09027
# Shear Modulus (GPa) = 17.60352 23.60009 20.60181
#
# Velocity S-wave (km/s) = 2.93682 3.40043 3.17709
# Velocity P-wave (km/s) = 4.31824 5.28739 4.82720
#
# Compressibility (1/GPa) = 0.06855045
#
# Stress axis : x y z
#
# Youngs Moduli (GPa) = 51.50668 63.58800 24.69521
#
# Poissons Ratio (x) = 0.01912 -0.06696
# Poissons Ratio (y) = 0.01549 0.14701
# Poissons Ratio (z) = -0.13965 0.37853
#
# Static dielectric constant tensor:
#      x y z
#    x 1.772290 0.000000 0.007380 
#    y 0.000000 1.700890 0.000000 
#    z 0.007380 0.000000 1.728180 
# 
# From -- ./inp_files/184741.got.cif
#   From: 2010.05.17/outbox.cif.g08.bks.cpg/sg12_93_cif.got.tgz:184741.got - 2010.06.03 13:09:07.
