data_PCOD9182729
_publ_section_title
;
Structure prediction by ZEFSAII (Michael W. Deem and Ramdas Pophale) SiO2 
 PCOD9182729
Probable space group: C 2/M
;
_chemical_formula_sum "Si O2"
_cell_formula_units_Z 40
_cell_length_a 16.993384
_cell_length_b 14.234928
_cell_length_c 12.433864
_cell_angle_alpha 90.000000
_cell_angle_beta 50.177656
_cell_angle_gamma 90.000000
_cell_volume 2310.051240
_symmetry_space_group_name_H-M "C 2/M"
_symmetry_group_IT_number 12
_symmetry_cell_setting 'monoclinic'
loop_
_space_group_symop_operation_xyz
x,y,z
-x,y,-z
-x,-y,-z
x,-y,z
1/2+x,1/2+y,z
1/2-x,1/2+y,-z
1/2-x,1/2-y,-z
1/2+x,1/2-y,z
loop_
_atom_site_type_symbol
_atom_site_label
_atom_site_fract_x
_atom_site_fract_y
_atom_site_fract_z
Si Si1 0.820817 0.891425 0.729412
Si Si2 0.569360 0.243779 0.224439
Si Si3 0.411558 0.893313 0.988201
Si Si4 0.880074 0.603627 0.638554
Si Si5 0.162050 0.752599 0.488333
O O1 0.877572 0.839399 0.779666
O O2 0.838228 0.834371 0.602649
O O3 0.853425 0.000000 0.690992
O O4 0.699867 0.889455 0.860115
O O5 0.579326 0.195445 0.099743
O O6 0.622951 0.166590 0.253924
O O7 0.449633 0.251779 0.359181
O O8 0.421518 0.000000 0.929331
O O9 0.500000 0.887082 0.000000
O O10 0.841027 0.500000 0.690813
O O11 0.825304 0.657254 0.590763
O O12 0.000000 0.599880 0.500000
O O13 0.250000 0.750000 0.500000
#
# Coordination Sequence:
#
# PCOD9182729 Si02
#       5
#     8   8   8   8   8
#     4  10  21  36  53  75 105 141 177 209 250 310
#     4  10  19  33  53  74 101 135 172 212 252 304
#     4  10  20  34  55  81 105 131 167 217 270 309
#     4   8  15  28  46  68  93 123 160 202 248 293
#     4  10  20  32  49  75 104 135 170 211 257 301
#
# _framework density 17.315633999999999
#
# number of rings (size 3 to 8) (size 9 to 14) (size 15 to 20)
#    0.000    2.400    0.000    4.200    0.000    3.200 
#    0.000    0.000    0.000    0.600    0.000    0.000 
#    0.000    0.000    0.000    0.000    0.000    0.000 
#
# Total GULP energy -111363.863073 kJ/mol
# GULP energy per Si atom -5568.193154 kJ/mol
# Density = 1.727622 g / cm^3
# Si number density = 17.315634 Si / 1000 Ang^3
#
#
#
# Elastic Constant Matrix: (Units=GPa)
#
#
# Indices 1 2 3 4 5 6 
#
# 1 106.4751 33.1499 7.1631 0.0000 2.7483 0.0000
# 2 33.1499 121.4689 17.8117 0.0000 9.1747 0.0000
# 3 7.1631 17.8117 47.6835 0.0000 2.1887 0.0000
# 4 0.0000 0.0000 0.0000 20.1875 0.0000 -3.3765
# 5 2.7483 9.1747 2.1887 0.0000 22.7491 0.0000
# 6 0.0000 0.0000 0.0000 -3.3765 0.0000 18.7560
#
#
#
# Elastic Compliance Matrix: (Units=1/GPa)
#
#
# Indices 1 2 3 4 5 6 
#
# 1 0.010277 -0.002721 -0.000523 0.000000 -0.000094 0.000000
# 2 -0.002721 0.009670 -0.003053 0.000000 -0.003278 0.000000
# 3 -0.000523 -0.003053 0.022229 0.000000 -0.000844 0.000000
# 4 0.000000 0.000000 0.000000 0.051073 0.000000 0.009194
# 5 -0.000094 -0.003278 -0.000844 0.000000 0.045372 0.000000
# 6 0.000000 0.000000 0.000000 0.009194 0.000000 0.054971
#
#
# Mechanical properties :
#
#
# Convention : Reuss Voigt Hill
#
# Bulk Modulus (GPa) = 33.80397 43.54187 38.67292
# Shear Modulus (GPa) = 23.14298 26.83871 24.99084
#
# Velocity S-wave (km/s) = 3.65983 3.94124 3.80314
# Velocity P-wave (km/s) = 6.11750 6.77582 6.45506
#
# Compressibility (1/GPa) = 0.02958232
#
# Stress axis : x y z
#
# Youngs Moduli (GPa) = 97.30881 103.40909 44.98546
#
# Poissons Ratio (x) = 0.28135 0.02353
# Poissons Ratio (y) = 0.26475 0.13734
# Poissons Ratio (z) = 0.05091 0.31572
#
# Static dielectric constant tensor:
#      x y z
#    x 1.567280 0.000000 0.012120 
#    y 0.000000 1.624510 0.000000 
#    z 0.012120 0.000000 1.595840 
# 
# From -- ./inp_files/141820.got.cif
#   From: 2010.05.17/outbox.cif.g08.bks.cpg/sg12_71_cif.got.tgz:141820.got - 2010.06.03 13:09:07.
