data_PCOD9182526
_publ_section_title
;
Structure prediction by ZEFSAII (Michael W. Deem and Ramdas Pophale) SiO2 
 PCOD9182526
Probable space group: C 2/M
;
_chemical_formula_sum "Si O2"
_cell_formula_units_Z 40
_cell_length_a 16.797630
_cell_length_b 9.698222
_cell_length_c 31.683463
_cell_angle_alpha 90.000000
_cell_angle_beta 27.904622
_cell_angle_gamma 90.000000
_cell_volume 2415.570153
_symmetry_space_group_name_H-M "C 2/M"
_symmetry_group_IT_number 12
_symmetry_cell_setting 'monoclinic'
loop_
_space_group_symop_operation_xyz
x,y,z
-x,y,-z
-x,-y,-z
x,-y,z
1/2+x,1/2+y,z
1/2-x,1/2+y,-z
1/2-x,1/2-y,-z
1/2+x,1/2-y,z
loop_
_atom_site_type_symbol
_atom_site_label
_atom_site_fract_x
_atom_site_fract_y
_atom_site_fract_z
Si Si1 0.959969 0.000000 0.236665
Si Si2 0.263204 0.234852 0.695105
Si Si3 0.997985 0.500000 0.695160
Si Si4 0.536935 0.000000 0.577871
Si Si5 0.609731 0.500000 0.634142
Si Si6 0.178566 0.218462 0.236568
Si Si7 0.322086 0.000000 0.106780
Si Si8 0.183609 0.000000 0.389824
O O1 0.893013 0.137828 0.245697
O O2 0.160823 0.000000 0.150707
O O3 0.872706 0.000000 0.323733
O O4 0.241687 0.272586 0.754364
O O5 0.294444 0.365225 0.650303
O O6 0.426667 0.133672 0.617286
O O7 0.879500 0.365211 0.754384
O O8 0.060276 0.500000 0.617325
O O9 0.159565 0.500000 0.650364
O O10 0.714067 0.000000 0.471616
O O11 0.495475 0.631625 0.676383
O O12 0.293106 0.132111 0.150597
O O13 0.500000 0.000000 0.000000
O O14 0.000000 0.000000 0.500000
#
# Coordination Sequence:
#
# PCOD9182526 Si02
#       8
#     4   8   4   4   4   8   4   4
#     4   9  20  37  58  74 106 143 177 216 272 320
#     4  10  21  36  50  77 108 147 176 222 266 310
#     4  10  21  36  50  77 108 147 176 222 266 310
#     4   9  22  34  54  67 104 157 201 210 249 312
#     4  10  19  33  52  73 105 154 193 222 246 300
#     4   9  20  37  58  74 106 143 177 216 272 320
#     4  10  20  40  66  84  96 132 180 214 263 349
#     4  12  24  27  45  78 112 134 187 235 260 274
#
# _framework density 16.559238000000001
#
# number of rings (size 3 to 8) (size 9 to 14) (size 15 to 20)
#    0.000    2.400    0.000    4.200    8.400    2.400 
#    0.000    1.500    0.000    0.000    0.000    0.000 
#    0.000    0.000    0.000    0.000    0.000    0.000 
#
# Total GULP energy -111556.717975 kJ/mol
# GULP energy per Si atom -5577.835899 kJ/mol
# Density = 1.652155 g / cm^3
# Si number density = 16.559238 Si / 1000 Ang^3
#
#
#
# Elastic Constant Matrix: (Units=GPa)
#
#
# Indices 1 2 3 4 5 6 
#
# 1 151.8876 78.3604 61.3310 0.0000 -0.3728 0.0004
# 2 78.3604 151.9381 61.6671 -0.0001 -3.2977 0.0005
# 3 61.3310 61.6671 146.7988 -0.0012 3.5258 -0.0004
# 4 0.0000 -0.0001 -0.0012 -3.9675 0.0000 -4.2159
# 5 -0.3728 -3.2977 3.5258 0.0000 -4.1805 0.0000
# 6 0.0004 0.0005 -0.0004 -4.2159 0.0000 36.4316
#
#
#
# Elastic Compliance Matrix: (Units=1/GPa)
#
#
# Indices 1 2 3 4 5 6 
#
# 1 0.009586 -0.003988 -0.002337 0.000001 0.000320 0.000000
# 2 -0.003988 0.009270 -0.002020 0.000000 -0.008661 0.000000
# 3 -0.002337 -0.002020 0.008423 -0.000002 0.008906 0.000000
# 4 0.000001 0.000000 -0.000002 -0.224447 -0.000003 -0.025973
# 5 0.000320 -0.008661 0.008906 -0.000003 -0.224893 0.000000
# 6 0.000000 0.000000 0.000000 -0.025973 0.000000 0.024443
#
#
# Mechanical properties :
#
#
# Convention : Reuss Voigt Hill
#
# Bulk Modulus (GPa) = 94.44205 94.81573 94.62889
# Shear Modulus (GPa) = -13.24863 22.27445 4.51291
#
# Velocity S-wave (km/s) = -2.83163 3.67159 1.65264
# Velocity P-wave (km/s) = 6.81659 8.68084 7.80457
#
# Compressibility (1/GPa) = 0.01058850
#
# Stress axis : x y z
#
# Youngs Moduli (GPa) = 104.31928 107.86962 118.72007
#
# Poissons Ratio (x) = 0.43022 0.27747
# Poissons Ratio (y) = 0.41606 0.23982
# Poissons Ratio (z) = 0.24381 0.21790
#
# Static dielectric constant tensor:
#      x y z
#    x 1.606400 0.000000 -0.003640 
#    y 0.000000 1.606570 0.000000 
#    z -0.003640 0.000000 1.499560 
# 
# From -- ./inp_files/249562.got.cif
#   From: 2010.05.17/outbox.cif.g08.bks.cpg/sg12_125_cif.got.tgz:249562.got - 2010.06.03 13:09:07.
