data_PCOD9182899
_publ_section_title
;
Structure prediction by ZEFSAII (Michael W. Deem and Ramdas Pophale) SiO2 
 PCOD9182899
Probable space group: C 2/M
;
_chemical_formula_sum "Si O2"
_cell_formula_units_Z 60
_cell_length_a 15.606738
_cell_length_b 14.710781
_cell_length_c 32.648378
_cell_angle_alpha 90.000000
_cell_angle_beta 28.558610
_cell_angle_gamma 90.000000
_cell_volume 3583.353078
_symmetry_space_group_name_H-M "C 2/M"
_symmetry_group_IT_number 12
_symmetry_cell_setting 'monoclinic'
loop_
_space_group_symop_operation_xyz
x,y,z
-x,y,-z
-x,-y,-z
x,-y,z
1/2+x,1/2+y,z
1/2-x,1/2+y,-z
1/2-x,1/2-y,-z
1/2+x,1/2-y,z
loop_
_atom_site_type_symbol
_atom_site_label
_atom_site_fract_x
_atom_site_fract_y
_atom_site_fract_z
Si Si1 0.127100 0.249191 0.180641
Si Si2 0.000000 0.662950 0.000000
Si Si3 0.515112 0.890903 0.596664
Si Si4 0.183354 0.894653 0.679338
Si Si5 0.703415 0.895162 0.993304
Si Si6 0.522585 0.229978 0.136765
Si Si7 0.380757 0.767268 0.722200
Si Si8 0.348251 0.394234 0.400991
O O1 0.332745 0.222406 0.086059
O O2 0.053983 0.299165 0.170789
O O3 0.116277 0.289977 0.230694
O O4 0.997020 0.161275 0.237442
O O5 0.077056 0.608048 0.006172
O O6 0.348193 0.863108 0.637838
O O7 0.482945 0.842948 0.653102
O O8 0.700479 0.867067 0.496374
O O9 0.511233 0.000000 0.601760
O O10 0.234088 0.888307 0.610192
O O11 0.148423 0.000000 0.703399
O O12 0.598244 0.847866 0.074991
O O13 0.756033 0.000000 0.978937
O O14 0.864206 0.823748 0.916971
O O15 0.320479 0.253402 0.209370
O O16 0.484654 0.672916 0.670364
O O17 0.398111 0.500000 0.386494
#
# Coordination Sequence:
#
# PCOD9182899 Si02
#       8
#     8   4   8   8   8   8   8   8
#     4  10  20  34  53  77 110 140 178 218 258 312
#     4  10  19  34  54  82 109 136 167 222 276 318
#     4  10  19  33  53  78 109 141 175 217 267 320
#     4   9  17  30  51  78 108 136 169 218 275 324
#     4  10  21  36  56  80 106 139 177 220 269 316
#     4  10  21  37  53  78 110 140 176 218 265 314
#     4  11  20  35  55  79 107 144 176 219 264 313
#     4   9  19  33  53  81 107 135 174 222 274 322
#
# _framework density 16.744094
#
# number of rings (size 3 to 8) (size 9 to 14) (size 15 to 20)
#    0.000    2.133    2.667    1.000    0.000    5.333 
#    0.000    0.667    0.000    0.800    0.000    1.867 
#    0.000    0.000    0.000    0.000    0.000    0.000 
#
# Total GULP energy -167177.106734 kJ/mol
# GULP energy per Si atom -5572.570224 kJ/mol
# Density = 1.670598 g / cm^3
# Si number density = 16.744094 Si / 1000 Ang^3
#
#
#
# Elastic Constant Matrix: (Units=GPa)
#
#
# Indices 1 2 3 4 5 6 
#
# 1 108.5866 35.0545 56.4511 0.0000 14.0058 -0.0001
# 2 35.0545 50.6698 29.0951 -0.0003 5.6212 -0.0001
# 3 56.4511 29.0951 102.3050 -0.0009 17.8066 -0.0014
# 4 0.0000 -0.0003 -0.0009 8.4321 -0.0002 -0.2697
# 5 14.0058 5.6212 17.8066 -0.0002 28.9738 0.0001
# 6 -0.0001 -0.0001 -0.0014 -0.2697 0.0001 13.6029
#
#
#
# Elastic Compliance Matrix: (Units=1/GPa)
#
#
# Indices 1 2 3 4 5 6 
#
# 1 0.014636 -0.006530 -0.005832 -0.000001 -0.002224 0.000000
# 2 -0.006530 0.026508 -0.004020 0.000001 0.000484 0.000000
# 3 -0.005832 -0.004020 0.015128 0.000001 -0.005698 0.000001
# 4 -0.000001 0.000001 0.000001 0.118670 0.000000 0.002353
# 5 -0.002224 0.000484 -0.005698 0.000000 0.038997 -0.000001
# 6 0.000000 0.000000 0.000001 0.002353 -0.000001 0.073560
#
#
# Mechanical properties :
#
#
# Convention : Reuss Voigt Hill
#
# Bulk Modulus (GPa) = 42.53854 55.86253 49.20053
# Shear Modulus (GPa) = 15.23934 19.59913 17.41924
#
# Velocity S-wave (km/s) = 3.02011 3.42498 3.22890
# Velocity P-wave (km/s) = 6.13365 7.00540 6.58397
#
# Compressibility (1/GPa) = 0.02350809
#
# Stress axis : x y z
#
# Youngs Moduli (GPa) = 68.32498 37.72483 66.10428
#
# Poissons Ratio (x) = 0.24635 0.38551
# Poissons Ratio (y) = 0.44617 0.26572
# Poissons Ratio (z) = 0.39846 0.15164
#
# Static dielectric constant tensor:
#      x y z
#    x 1.574420 0.000000 0.020690 
#    y 0.000000 1.541090 0.000000 
#    z 0.020690 0.000000 1.571470 
# 
# From -- ./inp_files/376496.got.cif
#   From: 2010.05.17/outbox.cif.g08.bks.cpg/sg12_189_cif.got.tgz:376496.got - 2010.06.03 13:09:07.
