data_PCOD9182928
_publ_section_title
;
Structure prediction by ZEFSAII (Michael W. Deem and Ramdas Pophale) SiO2 
 PCOD9182928
Probable space group: C 2/M
;
_chemical_formula_sum "Si O2"
_cell_formula_units_Z 56
_cell_length_a 29.300762
_cell_length_b 8.682587
_cell_length_c 17.934176
_cell_angle_alpha 90.000000
_cell_angle_beta 137.794515
_cell_angle_gamma 90.000000
_cell_volume 3065.095379
_symmetry_space_group_name_H-M "C 2/M"
_symmetry_group_IT_number 12
_symmetry_cell_setting 'monoclinic'
loop_
_space_group_symop_operation_xyz
x,y,z
-x,y,-z
-x,-y,-z
x,-y,z
1/2+x,1/2+y,z
1/2-x,1/2+y,-z
1/2-x,1/2-y,-z
1/2+x,1/2-y,z
loop_
_atom_site_type_symbol
_atom_site_label
_atom_site_fract_x
_atom_site_fract_y
_atom_site_fract_z
Si Si1 0.780799 0.315093 0.731176
Si Si2 0.636255 0.684765 0.734749
Si Si3 0.629911 0.184105 0.568474
Si Si4 0.938208 0.684747 0.668334
Si Si5 0.293454 0.186765 0.913463
Si Si6 0.682385 0.682871 0.379136
Si Si7 0.910285 0.313583 0.166782
O O1 0.780874 0.500000 0.725917
O O2 0.702982 0.256833 0.636627
O O3 0.809061 0.269697 0.846820
O O4 0.818613 0.244727 0.706437
O O5 0.634186 0.500000 0.730132
O O6 0.609280 0.749802 0.623740
O O7 0.715953 0.734353 0.836507
O O8 0.598759 0.747804 0.761604
O O9 0.580015 0.219843 0.439858
O O10 0.637006 0.000000 0.582332
O O11 0.931357 0.500000 0.669359
O O12 0.883284 0.764124 0.654455
O O13 0.016096 0.728854 0.776428
O O14 0.293871 0.000000 0.916340
O O15 0.348681 0.241302 0.039643
O O16 0.687768 0.500000 0.385667
O O17 0.750000 0.750000 0.500000
O O18 0.907918 0.500000 0.168139
#
# Coordination Sequence:
#
# PCOD9182928 Si02
#       7
#     8   8   8   8   8   8   8
#     4  10  19  34  57  85 112 139 177 228 274 320
#     4  10  20  34  54  81 110 142 185 232 276 324
#     4  10  19  33  53  79 109 142 182 227 274 325
#     4  10  22  37  55  80 111 144 183 226 273 327
#     4   8  17  34  57  82 108 141 185 228 269 317
#     4  12  23  36  58  84 111 143 179 221 271 325
#     4  10  20  37  57  78 108 147 186 228 273 321
#
# _framework density 18.270230999999999
#
# number of rings (size 3 to 8) (size 9 to 14) (size 15 to 20)
#    0.000    2.000    1.429    3.857    0.000    1.714 
#    0.000    7.143    0.000    4.286    0.000    0.000 
#    0.000    0.000    0.000    0.000    0.000    0.000 
#
# Total GULP energy -156331.707302 kJ/mol
# GULP energy per Si atom -5583.275261 kJ/mol
# Density = 1.822865 g / cm^3
# Si number density = 18.270231 Si / 1000 Ang^3
#
#
#
# Elastic Constant Matrix: (Units=GPa)
#
#
# Indices 1 2 3 4 5 6 
#
# 1 106.7716 30.3248 15.0921 0.0000 -5.1565 0.0000
# 2 30.3248 47.0209 14.1981 0.0000 0.4685 0.0000
# 3 15.0921 14.1981 13.6380 0.0000 -1.5394 0.0000
# 4 0.0000 0.0000 0.0000 17.2861 0.0000 -3.0538
# 5 -5.1565 0.4685 -1.5394 0.0000 19.5887 0.0000
# 6 0.0000 0.0000 0.0000 -3.0538 0.0000 33.5146
#
#
#
# Elastic Compliance Matrix: (Units=1/GPa)
#
#
# Indices 1 2 3 4 5 6 
#
# 1 0.012129 -0.005675 -0.007202 0.000000 0.002763 0.000000
# 2 -0.005675 0.033887 -0.029520 0.000000 -0.004624 0.000000
# 3 -0.007202 -0.029520 0.112894 0.000000 0.007682 0.000000
# 4 0.000000 0.000000 0.000000 0.058796 0.000000 0.005357
# 5 0.002763 -0.004624 0.007682 0.000000 0.052492 0.000000
# 6 0.000000 0.000000 0.000000 0.005357 0.000000 0.030326
#
#
# Mechanical properties :
#
#
# Convention : Reuss Voigt Hill
#
# Bulk Modulus (GPa) = 13.49257 31.85118 22.67188
# Shear Modulus (GPa) = 12.19439 21.26559 16.72999
#
# Velocity S-wave (km/s) = 2.58630 3.41537 3.02933
# Velocity P-wave (km/s) = 4.03976 5.74667 4.96708
#
# Compressibility (1/GPa) = 0.07411485
#
# Stress axis : x y z
#
# Youngs Moduli (GPa) = 82.44673 29.50985 8.85783
#
# Poissons Ratio (x) = 0.16747 0.06380
# Poissons Ratio (y) = 0.46789 0.26149
# Poissons Ratio (z) = 0.59380 0.87115
#
# Static dielectric constant tensor:
#      x y z
#    x 1.609020 0.000000 -0.007780 
#    y 0.000000 1.618040 0.000000 
#    z -0.007780 0.000000 1.633020 
# 
# From -- ./inp_files/288257.got.cif
#   From: 2010.05.17/outbox.cif.g08.bks.cpg/sg12_145_cif.got.tgz:288257.got - 2010.06.03 13:09:07.
