data_PCOD9182519
_publ_section_title
;
Structure prediction by ZEFSAII (Michael W. Deem and Ramdas Pophale) SiO2 
 PCOD9182519
Probable space group: C 2/M
;
_chemical_formula_sum "Si O2"
_cell_formula_units_Z 50
_cell_length_a 18.358330
_cell_length_b 9.642900
_cell_length_c 12.919666
_cell_angle_alpha 90.000000
_cell_angle_beta 107.422464
_cell_angle_gamma 90.000000
_cell_volume 2182.209747
_symmetry_space_group_name_H-M "C 2/M"
_symmetry_group_IT_number 12
_symmetry_cell_setting 'monoclinic'
loop_
_space_group_symop_operation_xyz
x,y,z
-x,y,-z
-x,-y,-z
x,-y,z
1/2+x,1/2+y,z
1/2-x,1/2+y,-z
1/2-x,1/2-y,-z
1/2+x,1/2-y,z
loop_
_atom_site_type_symbol
_atom_site_label
_atom_site_fract_x
_atom_site_fract_y
_atom_site_fract_z
Si Si1 0.629522 0.355445 0.925047
Si Si2 0.000000 0.000000 0.000000
Si Si3 0.226091 0.654987 0.859690
Si Si4 0.664119 0.346534 0.567230
Si Si5 0.949736 0.658104 0.372876
Si Si6 0.811870 0.658703 0.735109
Si Si7 0.430874 0.657785 0.686071
O O1 0.631319 0.500000 0.860791
O O2 0.556110 0.380220 0.967221
O O3 0.646255 0.214586 0.869830
O O4 0.706575 0.358728 0.026988
O O5 0.218532 0.500000 0.810966
O O6 0.260586 0.771971 0.800422
O O7 0.644355 0.500000 0.602540
O O8 0.628538 0.224611 0.620536
O O9 0.755558 0.338964 0.610896
O O10 0.623723 0.344620 0.438632
O O11 0.946571 0.500000 0.334673
O O12 0.000000 0.656090 0.500000
O O13 0.993361 0.763447 0.315986
O O14 0.831680 0.500000 0.764707
O O15 0.885034 0.753436 0.749389
O O16 0.443612 0.500000 0.727123
#
# Coordination Sequence:
#
# PCOD9182519 Si02
#       7
#     8   2   8   8   8   8   8
#     4   8  17  35  62  86 111 144 178 221 266 334
#     4   8  16  36  66  92 112 142 184 224 264 332
#     4  10  19  34  56  85 114 147 184 219 278 336
#     4   9  19  34  51  72 100 139 188 238 286 329
#     4   9  17  30  50  72  96 130 175 226 284 340
#     4  11  22  34  51  76 110 145 186 227 273 333
#     4  10  19  33  52  73 100 139 187 242 286 327
#
# _framework density 22.912555000000001
#
# number of rings (size 3 to 8) (size 9 to 14) (size 15 to 20)
#    0.480    2.080    0.000    2.400    0.000    4.480 
#    0.000    2.000    0.000    1.920    0.000    0.000 
#    0.000    0.000    0.000    0.000    0.000    0.000 
#
# Total GULP energy -139207.304827 kJ/mol
# GULP energy per Si atom -5568.292193 kJ/mol
# Density = 2.286040 g / cm^3
# Si number density = 22.912555 Si / 1000 Ang^3
#
#
#
# Elastic Constant Matrix: (Units=GPa)
#
#
# Indices 1 2 3 4 5 6 
#
# 1 118.9656 76.1666 12.3882 0.0000 -20.0215 0.0000
# 2 76.1666 217.3759 14.7457 0.0000 -26.2703 0.0000
# 3 12.3882 14.7457 26.6701 0.0000 6.4274 0.0000
# 4 0.0000 0.0000 0.0000 22.1466 0.0000 -13.7340
# 5 -20.0215 -26.2703 6.4274 0.0000 34.7302 0.0000
# 6 0.0000 0.0000 0.0000 -13.7340 0.0000 39.1972
#
#
#
# Elastic Compliance Matrix: (Units=1/GPa)
#
#
# Indices 1 2 3 4 5 6 
#
# 1 0.011864 -0.003163 -0.005059 0.000000 0.005383 0.000000
# 2 -0.003163 0.006325 -0.002870 0.000000 0.003492 0.000000
# 3 -0.005059 -0.002870 0.044649 0.000000 -0.013350 0.000000
# 4 0.000000 0.000000 0.000000 0.057689 0.000000 0.020213
# 5 0.005383 0.003492 -0.013350 0.000000 0.037009 0.000000
# 6 0.000000 0.000000 0.000000 0.020213 0.000000 0.032594
#
#
# Mechanical properties :
#
#
# Convention : Reuss Voigt Hill
#
# Bulk Modulus (GPa) = 24.59750 63.29030 43.94390
# Shear Modulus (GPa) = 22.13716 36.52887 29.33301
#
# Velocity S-wave (km/s) = 3.11168 3.99717 3.58189
# Velocity P-wave (km/s) = 4.86506 6.99897 6.02720
#
# Compressibility (1/GPa) = 0.04065453
#
# Stress axis : x y z
#
# Youngs Moduli (GPa) = 84.29034 158.09338 22.39695
#
# Poissons Ratio (x) = 0.50009 0.11331
# Poissons Ratio (y) = 0.26663 0.06427
# Poissons Ratio (z) = 0.42643 0.45365
#
# Static dielectric constant tensor:
#      x y z
#    x 1.819700 0.000000 0.041240 
#    y 0.000000 1.847840 0.000000 
#    z 0.041240 0.000000 1.986180 
# 
# From -- ./inp_files/230296.got.cif
#   From: 2010.05.17/outbox.cif.g08.bks.cpg/sg12_116_cif.got.tgz:230296.got - 2010.06.03 13:09:07.
