data_PCOD9182864
_publ_section_title
;
Structure prediction by ZEFSAII (Michael W. Deem and Ramdas Pophale) SiO2 
 PCOD9182864
Probable space group: C 2/M
;
_chemical_formula_sum "Si O2"
_cell_formula_units_Z 48
_cell_length_a 8.932727
_cell_length_b 19.763136
_cell_length_c 12.312929
_cell_angle_alpha 90.000000
_cell_angle_beta 79.919583
_cell_angle_gamma 90.000000
_cell_volume 2140.153055
_symmetry_space_group_name_H-M "C 2/M"
_symmetry_group_IT_number 12
_symmetry_cell_setting 'monoclinic'
loop_
_space_group_symop_operation_xyz
x,y,z
-x,y,-z
-x,-y,-z
x,-y,z
1/2+x,1/2+y,z
1/2-x,1/2+y,-z
1/2-x,1/2-y,-z
1/2+x,1/2-y,z
loop_
_atom_site_type_symbol
_atom_site_label
_atom_site_fract_x
_atom_site_fract_y
_atom_site_fract_z
Si Si1 0.424760 0.315408 0.894167
Si Si2 0.477267 0.227523 0.699288
Si Si3 0.340768 0.572520 0.202952
Si Si4 0.156279 0.604751 0.429805
Si Si5 0.823288 0.578454 0.001336
Si Si6 0.788444 0.192835 0.583994
O O1 0.406720 0.249057 0.822587
O O2 0.546429 0.364675 0.819800
O O3 0.279291 0.363358 0.931114
O O4 0.500000 0.297878 0.000000
O O5 0.401213 0.168946 0.636447
O O6 0.651884 0.205867 0.687281
O O7 0.444359 0.292668 0.625559
O O8 0.419933 0.500000 0.171674
O O9 0.257952 0.569034 0.328206
O O10 0.219229 0.580544 0.121021
O O11 0.257543 0.625532 0.520802
O O12 0.000000 0.576107 0.500000
O O13 0.790079 0.500000 0.040844
O O14 0.000000 0.590497 0.000000
O O15 0.750000 0.250000 0.500000
#
# Coordination Sequence:
#
# PCOD9182864 Si02
#       6
#     8   8   8   8   8   8
#     4  10  20  35  56  83 111 144 181 223 274 330
#     4  10  19  33  53  77 108 143 178 219 269 323
#     4  10  20  36  58  81 109 146 186 227 272 323
#     4   9  19  34  54  81 109 143 187 226 269 322
#     4   9  19  36  56  79 107 142 185 229 273 323
#     4   9  17  31  51  73 101 140 179 217 259 313
#
# _framework density 22.428301000000001
#
# number of rings (size 3 to 8) (size 9 to 14) (size 15 to 20)
#    0.000    2.500    0.000    4.000    0.000    5.000 
#    0.000    8.333    0.000    3.000    0.000    0.000 
#    0.000    0.000    0.000    0.000    0.000    0.000 
#
# Total GULP energy -133858.225612 kJ/mol
# GULP energy per Si atom -5577.426067 kJ/mol
# Density = 2.237725 g / cm^3
# Si number density = 22.428301 Si / 1000 Ang^3
#
#
#
# Elastic Constant Matrix: (Units=GPa)
#
#
# Indices 1 2 3 4 5 6 
#
# 1 95.1070 23.3254 36.5390 0.0000 -3.7940 0.0000
# 2 23.3254 59.3287 36.4975 0.0000 0.6436 0.0000
# 3 36.5390 36.4975 113.9178 0.0000 -11.5142 0.0000
# 4 0.0000 0.0000 0.0000 -16.4061 0.0000 -5.2559
# 5 -3.7940 0.6436 -11.5142 0.0000 25.2459 0.0000
# 6 0.0000 0.0000 0.0000 -5.2559 0.0000 6.1138
#
#
#
# Elastic Compliance Matrix: (Units=1/GPa)
#
#
# Indices 1 2 3 4 5 6 
#
# 1 0.012423 -0.003085 -0.002935 0.000000 0.000607 0.000000
# 2 -0.003085 0.022108 -0.006497 0.000000 -0.003990 0.000000
# 3 -0.002935 -0.006497 0.012342 0.000000 0.005354 0.000000
# 4 0.000000 0.000000 0.000000 -0.047791 0.000000 -0.041085
# 5 0.000607 -0.003990 0.005354 0.000000 0.042245 0.000000
# 6 0.000000 0.000000 0.000000 -0.041085 0.000000 0.128244
#
#
# Mechanical properties :
#
#
# Convention : Reuss Voigt Hill
#
# Bulk Modulus (GPa) = 45.78873 51.23082 48.50978
# Shear Modulus (GPa) = 24.76654 14.45684 19.61169
#
# Velocity S-wave (km/s) = 3.32664 2.54161 2.96026
# Velocity P-wave (km/s) = 5.93425 5.61290 5.77581
#
# Compressibility (1/GPa) = 0.02183944
#
# Stress axis : x y z
#
# Youngs Moduli (GPa) = 80.49663 45.23194 81.02285
#
# Poissons Ratio (x) = 0.13955 0.23778
# Poissons Ratio (y) = 0.24836 0.52639
# Poissons Ratio (z) = 0.23624 0.29387
#
# Static dielectric constant tensor:
#      x y z
#    x 1.832880 0.000000 -0.048020 
#    y 0.000000 1.875180 0.000000 
#    z -0.048020 0.000000 1.853680 
# 
# From -- ./inp_files/121877.got.cif
#   From: 2010.05.17/outbox.cif.g08.bks.cpg/sg12_61_cif.got.tgz:121877.got - 2010.06.03 13:09:07.
