data_PCOD9182591
_publ_section_title
;
Structure prediction by ZEFSAII (Michael W. Deem and Ramdas Pophale) SiO2 
 PCOD9182591
Probable space group: C 2/M
;
_chemical_formula_sum "Si O2"
_cell_formula_units_Z 64
_cell_length_a 14.580863
_cell_length_b 8.530103
_cell_length_c 29.141142
_cell_angle_alpha 90.000000
_cell_angle_beta 89.894907
_cell_angle_gamma 90.000000
_cell_volume 3624.460251
_symmetry_space_group_name_H-M "C 2/M"
_symmetry_group_IT_number 12
_symmetry_cell_setting 'monoclinic'
loop_
_space_group_symop_operation_xyz
x,y,z
-x,y,-z
-x,-y,-z
x,-y,z
1/2+x,1/2+y,z
1/2-x,1/2+y,-z
1/2-x,1/2-y,-z
1/2+x,1/2-y,z
loop_
_atom_site_type_symbol
_atom_site_label
_atom_site_fract_x
_atom_site_fract_y
_atom_site_fract_z
Si Si1 0.352811 0.309626 0.125867
Si Si2 0.000531 0.190789 0.447792
Si Si3 0.646011 0.311874 0.627068
Si Si4 0.500997 0.688222 0.199770
Si Si5 0.501396 0.186575 0.302658
Si Si6 0.351939 0.688109 0.626767
Si Si7 0.003193 0.189897 0.052850
Si Si8 0.356917 0.188501 0.873797
O O1 0.350979 0.500000 0.125770
O O2 0.411262 0.262187 0.170513
O O3 0.412560 0.262111 0.081513
O O4 0.248259 0.255958 0.125755
O O5 0.089731 0.238100 0.418276
O O6 0.000000 0.247743 0.500000
O O7 0.911816 0.237906 0.418044
O O8 0.000571 0.000000 0.449005
O O9 0.587595 0.250151 0.670237
O O10 0.749152 0.250866 0.626493
O O11 0.853896 0.000000 0.371379
O O12 0.501558 0.500000 0.202319
O O13 0.501656 0.757677 0.250363
O O14 0.587234 0.743811 0.169426
O O15 0.589432 0.251950 0.330019
O O16 0.502233 0.000000 0.304886
O O17 0.350773 0.500000 0.627918
O O18 0.088962 0.256736 0.080954
O O19 0.008501 0.000000 0.054309
O O20 0.000000 0.239135 0.000000
O O21 0.358534 0.000000 0.871398
#
# Coordination Sequence:
#
# PCOD9182591 Si02
#       8
#     8   8   8   8   8   8   8   8
#     4   8  17  33  52  73 101 135 166 205 255 306
#     4   8  16  32  53  77 107 142 179 220 266 316
#     4  10  20  35  55  79 109 143 178 219 267 316
#     4  10  20  37  56  75 103 137 172 209 259 317
#     4  11  22  37  56  79 107 138 177 222 268 318
#     4  10  20  35  55  79 108 142 180 221 267 319
#     4   9  18  34  53  73 101 138 175 210 257 315
#     4  10  19  33  52  76 104 133 171 215 259 305
#
# _framework density 17.657802
#
# number of rings (size 3 to 8) (size 9 to 14) (size 15 to 20)
#    0.000    2.500    0.000    4.125    0.000    2.250 
#    0.000   10.000    0.000   12.750    0.000    0.000 
#    0.000    0.000    0.000    0.000    0.000    0.000 
#
# Total GULP energy -178527.821151 kJ/mol
# GULP energy per Si atom -5578.994411 kJ/mol
# Density = 1.761761 g / cm^3
# Si number density = 17.657802 Si / 1000 Ang^3
#
#
#
# Elastic Constant Matrix: (Units=GPa)
#
#
# Indices 1 2 3 4 5 6 
#
# 1 275.4205 86.3431 161.8922 0.0000 30.2725 0.0000
# 2 86.3431 86.8418 74.1699 0.0000 20.5935 0.0000
# 3 161.8922 74.1699 229.4236 0.0000 34.2368 0.0000
# 4 0.0000 0.0000 0.0000 20.1178 0.0000 0.0643
# 5 30.2725 20.5935 34.2368 0.0000 23.2207 0.0000
# 6 0.0000 0.0000 0.0000 0.0643 0.0000 25.2445
#
#
#
# Elastic Compliance Matrix: (Units=1/GPa)
#
#
# Indices 1 2 3 4 5 6 
#
# 1 0.007006 -0.003729 -0.003678 0.000000 -0.000404 0.000000
# 2 -0.003729 0.019269 -0.002274 0.000000 -0.008875 0.000000
# 3 -0.003678 -0.002274 0.008555 0.000000 -0.005802 0.000000
# 4 0.000000 0.000000 0.000000 0.049708 0.000000 -0.000127
# 5 -0.000404 -0.008875 -0.005802 0.000000 0.060018 0.000000
# 6 0.000000 0.000000 0.000000 -0.000127 0.000000 0.039613
#
#
# Mechanical properties :
#
#
# Convention : Reuss Voigt Hill
#
# Bulk Modulus (GPa) = 64.64494 137.38848 101.01671
# Shear Modulus (GPa) = 23.95938 31.66865 27.81402
#
# Velocity S-wave (km/s) = 3.68757 4.23953 3.97315
# Velocity P-wave (km/s) = 7.40407 10.09652 8.85325
#
# Compressibility (1/GPa) = 0.01546912
#
# Stress axis : x y z
#
# Youngs Moduli (GPa) = 142.73152 51.89610 116.88794
#
# Poissons Ratio (x) = 0.19351 0.42993
# Poissons Ratio (y) = 0.53220 0.26579
# Poissons Ratio (z) = 0.52499 0.11801
#
# Static dielectric constant tensor:
#      x y z
#    x 1.507990 0.000000 0.007150 
#    y 0.000000 1.598060 0.000000 
#    z 0.007150 0.000000 1.583080 
# 
# From -- ./inp_files/359857.got.cif
#   From: 2010.05.17/outbox.cif.g08.bks.cpg/sg12_180_cif.got.tgz:359857.got - 2010.06.03 13:09:07.
