data_PCOD9182631
_publ_section_title
;
Structure prediction by ZEFSAII (Michael W. Deem and Ramdas Pophale) SiO2 
 PCOD9182631
Probable space group: C 2/M
;
_chemical_formula_sum "Si O2"
_cell_formula_units_Z 56
_cell_length_a 20.177952
_cell_length_b 24.987776
_cell_length_c 5.675787
_cell_angle_alpha 90.000000
_cell_angle_beta 120.478896
_cell_angle_gamma 90.000000
_cell_volume 2466.296879
_symmetry_space_group_name_H-M "C 2/M"
_symmetry_group_IT_number 12
_symmetry_cell_setting 'monoclinic'
loop_
_space_group_symop_operation_xyz
x,y,z
-x,y,-z
-x,-y,-z
x,-y,z
1/2+x,1/2+y,z
1/2-x,1/2+y,-z
1/2-x,1/2-y,-z
1/2+x,1/2-y,z
loop_
_atom_site_type_symbol
_atom_site_label
_atom_site_fract_x
_atom_site_fract_y
_atom_site_fract_z
Si Si1 0.693882 0.059590 0.815225
Si Si2 0.186072 0.261395 0.633908
Si Si3 0.643674 0.737575 0.063271
Si Si4 0.282913 0.637081 0.260411
Si Si5 0.930724 0.865235 0.195203
Si Si6 0.342945 0.441245 0.762650
Si Si7 0.534744 0.935676 0.311267
O O1 0.775296 0.053877 0.833083
O O2 0.626227 0.072020 0.508780
O O3 0.676083 0.000000 0.889550
O O4 0.707355 0.108482 0.018650
O O5 0.269594 0.289330 0.790977
O O6 0.142109 0.269546 0.308306
O O7 0.215953 0.199541 0.677774
O O8 0.140899 0.266184 0.800125
O O9 0.579593 0.691318 0.955999
O O10 0.354466 0.632653 0.214392
O O11 0.308499 0.601254 0.523039
O O12 0.000000 0.866256 0.500000
O O13 0.920348 0.915697 0.007219
O O14 0.355290 0.500000 0.680033
O O15 0.500000 0.915895 0.500000
O O16 0.521125 0.000000 0.283824
O O17 0.500000 0.915078 0.000000
#
# Coordination Sequence:
#
# PCOD9182631 Si02
#       7
#     8   8   8   8   8   8   8
#     4   9  19  32  50  74 105 145 188 235 274 324
#     4   9  17  31  56  78 107 124 170 219 280 331
#     4   9  17  33  53  82 101 132 163 225 274 334
#     4  10  19  33  52  78 105 146 187 239 281 337
#     4  10  21  36  52  76 110 146 193 240 290 343
#     4  10  20  34  51  74 107 148 198 242 284 327
#     4   9  18  31  48  73 101 130 171 221 273 325
#
# _framework density 22.706105999999998
#
# number of rings (size 3 to 8) (size 9 to 14) (size 15 to 20)
#    0.000    2.571    1.429    0.429    2.000    1.429 
#    0.000    0.714    0.000    0.857    0.000    0.000 
#    0.000    0.000    0.000    0.000    0.000    0.000 
#
# Total GULP energy -155950.470772 kJ/mol
# GULP energy per Si atom -5569.659670 kJ/mol
# Density = 2.265443 g / cm^3
# Si number density = 22.706106 Si / 1000 Ang^3
#
#
#
# Elastic Constant Matrix: (Units=GPa)
#
#
# Indices 1 2 3 4 5 6 
#
# 1 44.0716 11.4936 35.5203 0.0000 -2.3446 0.0000
# 2 11.4936 72.2479 42.8567 0.0000 10.1659 0.0000
# 3 35.5203 42.8567 171.8223 0.0000 3.5340 0.0000
# 4 0.0000 0.0000 0.0000 23.0923 0.0000 4.4723
# 5 -2.3446 10.1659 3.5340 0.0000 42.2967 0.0000
# 6 0.0000 0.0000 0.0000 4.4723 0.0000 -5.0626
#
#
#
# Elastic Compliance Matrix: (Units=1/GPa)
#
#
# Indices 1 2 3 4 5 6 
#
# 1 0.027533 -0.001531 -0.005358 0.000000 0.002342 0.000000
# 2 -0.001531 0.016887 -0.003817 0.000000 -0.003825 0.000000
# 3 -0.005358 -0.003817 0.007880 0.000000 -0.000038 0.000000
# 4 0.000000 0.000000 0.000000 0.036978 0.000000 0.032666
# 5 0.002342 -0.003825 -0.000038 0.000000 0.024695 0.000000
# 6 0.000000 0.000000 0.000000 0.032666 0.000000 -0.168669
#
#
# Mechanical properties :
#
#
# Convention : Reuss Voigt Hill
#
# Bulk Modulus (GPa) = 32.37503 51.98699 42.18101
# Shear Modulus (GPa) = -217.50654 25.28333 -96.11161
#
# Velocity S-wave (km/s) = -9.79796 3.34054 -6.51310
# Velocity P-wave (km/s) = 10.66353 6.15014 6.15981
#
# Compressibility (1/GPa) = 0.03088800
#
# Stress axis : x y z
#
# Youngs Moduli (GPa) = 36.32049 59.21666 126.89711
#
# Poissons Ratio (x) = 0.09068 0.67991
# Poissons Ratio (y) = 0.05562 0.48435
# Poissons Ratio (z) = 0.19460 0.22602
#
# Static dielectric constant tensor:
#      x y z
#    x 1.871670 0.000000 -0.055760 
#    y 0.000000 2.000220 0.000000 
#    z -0.055760 0.000000 1.943920 
# 
# From -- ./inp_files/26519.got.cif
#   From: 2010.05.17/outbox.cif.g08.bks.cpg/sg12_14_cif.got.tgz:26519.got - 2010.06.03 13:09:07.
