data_PCOD9182193
_publ_section_title
;
Structure prediction by ZEFSAII (Michael W. Deem and Ramdas Pophale) SiO2 
 PCOD9182193
Probable space group: C 2/M
;
_chemical_formula_sum "Si O2"
_cell_formula_units_Z 36
_cell_length_a 16.129054
_cell_length_b 18.077389
_cell_length_c 12.351314
_cell_angle_alpha 90.000000
_cell_angle_beta 26.128583
_cell_angle_gamma 90.000000
_cell_volume 1585.960486
_symmetry_space_group_name_H-M "C 2/M"
_symmetry_group_IT_number 12
_symmetry_cell_setting 'monoclinic'
loop_
_space_group_symop_operation_xyz
x,y,z
-x,y,-z
-x,-y,-z
x,-y,z
1/2+x,1/2+y,z
1/2-x,1/2+y,-z
1/2-x,1/2-y,-z
1/2+x,1/2-y,z
loop_
_atom_site_type_symbol
_atom_site_label
_atom_site_fract_x
_atom_site_fract_y
_atom_site_fract_z
Si Si1 0.500000 0.182161 0.000000
Si Si2 0.407668 0.146713 0.764133
Si Si3 0.239181 0.339674 0.519642
Si Si4 0.918888 0.912516 0.978262
Si Si5 0.827186 0.804853 0.767314
O O1 0.370685 0.141305 0.240667
O O2 0.341983 0.222705 0.113226
O O3 0.613090 0.128570 0.568497
O O4 0.411201 0.232785 0.726321
O O5 0.274936 0.143802 0.026200
O O6 0.296989 0.105925 0.798586
O O7 0.250000 0.250000 0.500000
O O8 0.446076 0.371474 0.265606
O O9 0.944204 0.000000 0.939918
O O10 0.000000 0.889184 0.000000
O O11 0.000000 0.839825 0.500000
#
# Coordination Sequence:
#
# PCOD9182193 Si02
#       5
#     4   8   8   8   8
#     4  10  20  34  57  90 123 152 198 256 318 370
#     4  10  22  35  57  89 119 162 208 250 314 374
#     4  11  23  39  65  97 127 163 210 271 320 374
#     4  11  26  44  62  88 129 175 217 258 313 384
#     4  10  19  32  56  90 121 151 192 257 314 369
#
# _framework density 22.699179000000001
#
# number of rings (size 3 to 8) (size 9 to 14) (size 15 to 20)
#    0.000    1.556    0.000    6.667    9.333    0.889 
#    0.000    2.778    0.000   12.667    0.000    0.000 
#    0.000    0.000    0.000    0.000    0.000    0.000 
#
# Total GULP energy -100525.805457 kJ/mol
# GULP energy per Si atom -5584.766970 kJ/mol
# Density = 2.264751 g / cm^3
# Si number density = 22.699179 Si / 1000 Ang^3
#
#
#
# Elastic Constant Matrix: (Units=GPa)
#
#
# Indices 1 2 3 4 5 6 
#
# 1 140.6361 7.1542 36.5733 -0.0023 -25.6129 0.0010
# 2 7.1542 29.6993 1.0979 -0.0110 -2.2288 0.0079
# 3 36.5733 1.0979 118.3975 -0.0049 -5.0392 0.0043
# 4 -0.0023 -0.0110 -0.0049 5.9581 0.0028 -1.0118
# 5 -25.6129 -2.2288 -5.0392 0.0028 51.3357 -0.0015
# 6 0.0010 0.0079 0.0043 -1.0118 -0.0015 18.8427
#
#
#
# Elastic Compliance Matrix: (Units=1/GPa)
#
#
# Indices 1 2 3 4 5 6 
#
# 1 0.008555 -0.001673 -0.002459 -0.000003 0.003954 0.000001
# 2 -0.001673 0.034116 0.000229 0.000060 0.000669 -0.000011
# 3 -0.002459 0.000229 0.009190 0.000007 -0.000315 -0.000002
# 4 -0.000003 0.000060 0.000007 0.169384 -0.000007 0.009095
# 5 0.003954 0.000669 -0.000315 -0.000007 0.021451 0.000001
# 6 0.000001 -0.000011 -0.000002 0.009095 0.000001 0.053559
#
#
# Mechanical properties :
#
#
# Convention : Reuss Voigt Hill
#
# Bulk Modulus (GPa) = 22.69903 42.04265 32.37084
# Shear Modulus (GPa) = 15.68645 31.48780 23.58713
#
# Velocity S-wave (km/s) = 2.63165 3.72852 3.22703
# Velocity P-wave (km/s) = 4.38814 6.09079 5.30818
#
# Compressibility (1/GPa) = 0.04405475
#
# Stress axis : x y z
#
# Youngs Moduli (GPa) = 116.88619 29.31211 108.81182
#
# Poissons Ratio (x) = 0.04905 0.26756
# Poissons Ratio (y) = 0.19558 -0.02492
# Poissons Ratio (z) = 0.28742 -0.00671
#
# Static dielectric constant tensor:
#      x y z
#    x 1.936850 0.000000 0.047260 
#    y 0.000000 1.781780 0.000010 
#    z 0.047260 0.000010 1.859790 
# 
# From -- ./inp_files/147433.got.cif
#   From: 2010.05.17/outbox.cif.g08.bks.cpg/sg12_74_cif.got.tgz:147433.got - 2010.06.03 13:09:07.
