data_PCOD9182761
_publ_section_title
;
Structure prediction by ZEFSAII (Michael W. Deem and Ramdas Pophale) SiO2 
 PCOD9182761
Probable space group: C 2/M
;
_chemical_formula_sum "Si O2"
_cell_formula_units_Z 48
_cell_length_a 15.007707
_cell_length_b 7.443305
_cell_length_c 18.718285
_cell_angle_alpha 90.000000
_cell_angle_beta 103.393943
_cell_angle_gamma 90.000000
_cell_volume 2034.088951
_symmetry_space_group_name_H-M "C 2/M"
_symmetry_group_IT_number 12
_symmetry_cell_setting 'monoclinic'
loop_
_space_group_symop_operation_xyz
x,y,z
-x,y,-z
-x,-y,-z
x,-y,z
1/2+x,1/2+y,z
1/2-x,1/2+y,-z
1/2-x,1/2-y,-z
1/2+x,1/2-y,z
loop_
_atom_site_type_symbol
_atom_site_label
_atom_site_fract_x
_atom_site_fract_y
_atom_site_fract_z
Si Si1 0.407232 0.217524 0.525665
Si Si2 0.898696 0.789329 0.997169
Si Si3 0.410058 0.283135 0.260591
Si Si4 0.106274 0.204182 0.311838
Si Si5 0.719196 0.717364 0.889199
Si Si6 0.297989 0.787432 0.374806
O O1 0.500000 0.259292 0.500000
O O2 0.405234 0.296759 0.604103
O O3 0.326993 0.282405 0.457561
O O4 0.402745 0.000000 0.532139
O O5 0.824331 0.773411 0.919919
O O6 0.912363 0.000000 0.015188
O O7 0.842986 0.716840 0.055490
O O8 0.000000 0.714670 0.000000
O O9 0.413881 0.500000 0.257704
O O10 0.512602 0.215007 0.264272
O O11 0.332681 0.221195 0.191344
O O12 0.379936 0.233794 0.334487
O O13 0.206022 0.290518 0.322560
O O14 0.110958 0.000000 0.284847
O O15 0.719559 0.500000 0.890152
O O16 0.282256 0.000000 0.381268
#
# Coordination Sequence:
#
# PCOD9182761 Si02
#       6
#     8   8   8   8   8   8
#     4  10  19  33  53  75 102 134 172 222 271 309
#     4   9  18  34  58  84 106 135 173 209 249 299
#     4  10  21  36  52  74 106 140 171 211 259 307
#     4  10  21  35  53  76 101 134 177 219 262 311
#     4   9  19  35  53  77 110 139 168 209 255 303
#     4  10  21  36  53  75 102 136 177 220 264 312
#
# _framework density 23.597788999999999
#
# number of rings (size 3 to 8) (size 9 to 14) (size 15 to 20)
#    0.000    2.333    1.667    0.500    0.000    4.000 
#    0.000    3.333    0.000    0.000    0.000    0.000 
#    0.000    0.000    0.000    0.000    0.000    0.000 
#
# Total GULP energy -134014.649169 kJ/mol
# GULP energy per Si atom -5583.943715 kJ/mol
# Density = 2.354408 g / cm^3
# Si number density = 23.597789 Si / 1000 Ang^3
#
#
#
# Elastic Constant Matrix: (Units=GPa)
#
#
# Indices 1 2 3 4 5 6 
#
# 1 139.5317 1.2548 16.8137 0.0000 41.3100 0.0000
# 2 1.2548 73.4548 -14.2336 0.0000 -2.1225 0.0000
# 3 16.8137 -14.2336 76.6822 0.0000 30.7183 0.0000
# 4 0.0000 0.0000 0.0000 10.3605 0.0000 -6.6210
# 5 41.3100 -2.1225 30.7183 0.0000 32.4184 0.0000
# 6 0.0000 0.0000 0.0000 -6.6210 0.0000 -9.4101
#
#
#
# Elastic Compliance Matrix: (Units=1/GPa)
#
#
# Indices 1 2 3 4 5 6 
#
# 1 0.013095 0.000332 0.006232 0.000000 -0.022570 0.000000
# 2 0.000332 0.014258 0.003819 0.000000 -0.003108 0.000000
# 3 0.006232 0.003819 0.024925 0.000000 -0.031309 0.000000
# 4 0.000000 0.000000 0.000000 0.066582 0.000000 -0.046848
# 5 -0.022570 -0.003108 -0.031309 0.000000 0.089070 0.000000
# 6 0.000000 0.000000 0.000000 -0.046848 0.000000 -0.073307
#
#
# Mechanical properties :
#
#
# Convention : Reuss Voigt Hill
#
# Bulk Modulus (GPa) = 13.69063 33.03760 23.36412
# Shear Modulus (GPa) = 36.17746 25.72936 30.95341
#
# Velocity S-wave (km/s) = 3.91971 3.30560 3.62568
# Velocity P-wave (km/s) = 5.12833 5.34789 5.23926
#
# Compressibility (1/GPa) = 0.07304263
#
# Stress axis : x y z
#
# Youngs Moduli (GPa) = 76.36556 70.13443 40.11959
#
# Poissons Ratio (x) = -0.02326 -0.25001
# Poissons Ratio (y) = -0.02533 -0.15321
# Poissons Ratio (z) = -0.47587 -0.26783
#
# Static dielectric constant tensor:
#      x y z
#    x 1.924230 0.000000 0.048430 
#    y 0.000000 1.891850 0.000000 
#    z 0.048430 0.000000 1.885240 
# 
# From -- ./inp_files/308300.got.cif
#   From: 2010.05.17/outbox.cif.g08.bks.cpg/sg12_155_cif.got.tgz:308300.got - 2010.06.03 13:09:07.
