data_PCOD9182843
_publ_section_title
;
Structure prediction by ZEFSAII (Michael W. Deem and Ramdas Pophale) SiO2 
 PCOD9182843
Probable space group: C 2/M
;
_chemical_formula_sum "Si O2"
_cell_formula_units_Z 56
_cell_length_a 28.864272
_cell_length_b 13.552753
_cell_length_c 27.005838
_cell_angle_alpha 90.000000
_cell_angle_beta 19.802677
_cell_angle_gamma 90.000000
_cell_volume 3579.035151
_symmetry_space_group_name_H-M "C 2/M"
_symmetry_group_IT_number 12
_symmetry_cell_setting 'monoclinic'
loop_
_space_group_symop_operation_xyz
x,y,z
-x,y,-z
-x,-y,-z
x,-y,z
1/2+x,1/2+y,z
1/2-x,1/2+y,-z
1/2-x,1/2-y,-z
1/2+x,1/2-y,z
loop_
_atom_site_type_symbol
_atom_site_label
_atom_site_fract_x
_atom_site_fract_y
_atom_site_fract_z
Si Si1 0.500942 0.619621 0.859412
Si Si2 0.371811 0.386107 0.165822
Si Si3 0.612588 0.113355 0.147931
Si Si4 0.860128 0.614422 0.670471
Si Si5 0.117144 0.114921 0.189370
Si Si6 0.905239 0.783269 0.334507
Si Si7 0.808453 0.301467 0.827779
O O1 0.485416 0.500000 0.875372
O O2 0.582145 0.651887 0.827163
O O3 0.577806 0.655319 0.733012
O O4 0.351110 0.668660 0.011345
O O5 0.329987 0.500000 0.217249
O O6 0.250660 0.339989 0.255744
O O7 0.500000 0.386485 0.000000
O O8 0.503851 0.187357 0.233356
O O9 0.624409 0.138490 0.194133
O O10 0.574011 0.000000 0.179396
O O11 0.762929 0.127865 0.972660
O O12 0.819603 0.500000 0.722536
O O13 0.866112 0.669056 0.716564
O O14 0.000000 0.613002 0.500000
O O15 0.162004 0.188116 0.187979
O O16 0.975636 0.151798 0.307235
O O17 0.111267 0.000000 0.208317
O O18 0.750000 0.750000 0.500000
#
# Coordination Sequence:
#
# PCOD9182843 Si02
#       7
#     8   8   8   8   8   8   8
#     4  11  19  31  53  77 105 140 176 209 253 311
#     4   9  17  28  45  71 100 133 169 202 247 307
#     4  10  19  33  53  77 103 134 178 218 251 307
#     4  10  20  32  48  76 110 135 164 214 267 309
#     4  10  20  36  56  78 104 135 178 222 255 305
#     4  11  22  34  49  76 110 140 172 213 264 312
#     4  11  18  32  56  79  98 136 179 212 252 309
#
# _framework density 15.646675999999999
#
# number of rings (size 3 to 8) (size 9 to 14) (size 15 to 20)
#    0.000    1.714    4.286    2.571    0.000    3.429 
#    0.000    1.429    0.000    0.429    0.000    3.000 
#    0.000    0.000    0.000    0.000    0.000    0.000 
#
# Total GULP energy -156084.379618 kJ/mol
# GULP energy per Si atom -5574.442129 kJ/mol
# Density = 1.561106 g / cm^3
# Si number density = 15.646676 Si / 1000 Ang^3
#
#
#
# Elastic Constant Matrix: (Units=GPa)
#
#
# Indices 1 2 3 4 5 6 
#
# 1 120.8928 46.4933 35.5415 0.0002 6.6068 0.0003
# 2 46.4933 100.1666 28.4994 -0.0022 -1.1517 -0.0007
# 3 35.5415 28.4994 66.6451 -0.0009 -1.9779 0.0000
# 4 0.0002 -0.0022 -0.0009 -12.4057 -0.0003 -26.8451
# 5 6.6068 -1.1517 -1.9779 -0.0003 23.1594 -0.0001
# 6 0.0003 -0.0007 0.0000 -26.8451 -0.0001 -7.4760
#
#
#
# Elastic Compliance Matrix: (Units=1/GPa)
#
#
# Indices 1 2 3 4 5 6 
#
# 1 0.011339 -0.004047 -0.004430 0.000000 -0.003814 0.000001
# 2 -0.004047 0.012811 -0.003275 0.000000 0.001512 -0.000001
# 3 -0.004430 -0.003275 0.018848 0.000000 0.002711 -0.000001
# 4 0.000000 0.000000 0.000000 0.011906 0.000000 -0.042753
# 5 -0.003814 0.001512 0.002711 0.000000 0.044574 -0.000001
# 6 0.000001 -0.000001 -0.000001 -0.042753 -0.000001 0.019757
#
#
# Mechanical properties :
#
#
# Convention : Reuss Voigt Hill
#
# Bulk Modulus (GPa) = 51.29617 56.53031 53.91324
# Shear Modulus (GPa) = 33.50388 12.46690 22.98539
#
# Velocity S-wave (km/s) = 4.63241 2.82578 3.83695
# Velocity P-wave (km/s) = 7.84013 6.84503 7.35942
#
# Compressibility (1/GPa) = 0.01949463
#
# Stress axis : x y z
#
# Youngs Moduli (GPa) = 88.19325 78.05845 53.05514
#
# Poissons Ratio (x) = 0.31586 0.23502
# Poissons Ratio (y) = 0.35687 0.17378
# Poissons Ratio (z) = 0.39067 0.25568
#
# Static dielectric constant tensor:
#      x y z
#    x 1.534980 0.000000 -0.050070 
#    y 0.000000 1.527720 0.000000 
#    z -0.050070 0.000000 1.792060 
# 
# From -- ./inp_files/96506.got.cif
#   From: 2010.05.17/outbox.cif.g08.bks.cpg/sg12_49_cif.got.tgz:96506.got - 2010.06.03 13:09:07.
