data_PCOD9182572
_publ_section_title
;
Structure prediction by ZEFSAII (Michael W. Deem and Ramdas Pophale) SiO2 
 PCOD9182572
Probable space group: C 2/M
;
_chemical_formula_sum "Si O2"
_cell_formula_units_Z 56
_cell_length_a 17.177297
_cell_length_b 15.421043
_cell_length_c 11.763738
_cell_angle_alpha 90.000000
_cell_angle_beta 126.141698
_cell_angle_gamma 90.000000
_cell_volume 2516.455093
_symmetry_space_group_name_H-M "C 2/M"
_symmetry_group_IT_number 12
_symmetry_cell_setting 'monoclinic'
loop_
_space_group_symop_operation_xyz
x,y,z
-x,y,-z
-x,-y,-z
x,-y,z
1/2+x,1/2+y,z
1/2-x,1/2+y,-z
1/2-x,1/2-y,-z
1/2+x,1/2-y,z
loop_
_atom_site_type_symbol
_atom_site_label
_atom_site_fract_x
_atom_site_fract_y
_atom_site_fract_z
Si Si1 0.918319 0.277683 0.012359
Si Si2 0.739025 0.097634 0.048381
Si Si3 0.422256 0.404144 0.074244
Si Si4 0.356548 0.097418 0.282289
Si Si5 0.697755 0.099442 0.516237
Si Si6 0.516147 0.778438 0.345538
Si Si7 0.411000 0.597531 0.613087
O O1 0.819757 0.331779 0.931418
O O2 0.902601 0.175942 0.975206
O O3 0.964645 0.276198 0.177742
O O4 0.000000 0.314139 0.000000
O O5 0.699295 0.103478 0.884738
O O6 0.720545 0.000000 0.074841
O O7 0.852383 0.108838 0.124640
O O8 0.400348 0.500000 0.008822
O O9 0.529634 0.404775 0.216859
O O10 0.291980 0.105981 0.338300
O O11 0.438248 0.170047 0.352609
O O12 0.399962 0.000000 0.322674
O O13 0.612810 0.165218 0.413246
O O14 0.798857 0.114249 0.541687
O O15 0.667791 0.000000 0.465452
O O16 0.545391 0.682147 0.409468
O O17 0.421928 0.500000 0.572669
#
# Coordination Sequence:
#
# PCOD9182572 Si02
#       7
#     8   8   8   8   8   8   8
#     4  10  21  34  50  77 107 132 165 208 249 297
#     4   9  18  33  53  76 104 136 166 201 247 298
#     4   9  18  34  54  74 100 135 171 207 250 295
#     4   9  18  32  53  82 105 123 160 212 259 300
#     4  10  19  33  55  79 101 126 163 214 261 297
#     4  10  19  33  52  75 103 135 165 201 255 305
#     4   9  19  34  51  74 104 136 170 205 243 295
#
# _framework density 22.253526000000001
#
# number of rings (size 3 to 8) (size 9 to 14) (size 15 to 20)
#    0.000    2.571    0.000    1.714    0.000    4.571 
#    0.000    4.286    0.000    1.714    0.000   14.000 
#    0.000    0.000    0.000    0.000    0.000    0.000 
#
# Total GULP energy -156267.009688 kJ/mol
# GULP energy per Si atom -5580.964632 kJ/mol
# Density = 2.220288 g / cm^3
# Si number density = 22.253526 Si / 1000 Ang^3
#
#
#
# Elastic Constant Matrix: (Units=GPa)
#
#
# Indices 1 2 3 4 5 6 
#
# 1 55.5428 26.4789 0.8819 0.0000 13.0286 0.0000
# 2 26.4789 113.5457 15.1239 0.0000 19.3116 0.0000
# 3 0.8819 15.1239 30.6199 0.0000 17.7511 0.0000
# 4 0.0000 0.0000 0.0000 13.7875 0.0000 12.5062
# 5 13.0286 19.3116 17.7511 0.0000 29.9479 0.0000
# 6 0.0000 0.0000 0.0000 12.5062 0.0000 23.4553
#
#
#
# Elastic Compliance Matrix: (Units=1/GPa)
#
#
# Indices 1 2 3 4 5 6 
#
# 1 0.022817 -0.004392 0.008570 0.000000 -0.012174 0.000000
# 2 -0.004392 0.010804 -0.003472 0.000000 -0.002998 0.000000
# 3 0.008570 -0.003472 0.053308 0.000000 -0.033087 0.000000
# 4 0.000000 0.000000 0.000000 0.140464 0.000000 -0.074895
# 5 -0.012174 -0.002998 -0.033087 0.000000 0.060233 0.000000
# 6 0.000000 0.000000 0.000000 -0.074895 0.000000 0.082568
#
#
# Mechanical properties :
#
#
# Convention : Reuss Voigt Hill
#
# Bulk Modulus (GPa) = 11.31976 31.63086 21.47531
# Shear Modulus (GPa) = 12.55563 23.91972 18.23767
#
# Velocity S-wave (km/s) = 2.37788 3.28208 2.86587
# Velocity P-wave (km/s) = 3.55484 5.34860 4.54116
#
# Compressibility (1/GPa) = 0.08834113
#
# Stress axis : x y z
#
# Youngs Moduli (GPa) = 43.82601 92.56207 18.75903
#
# Poissons Ratio (x) = 0.40653 -0.16076
# Poissons Ratio (y) = 0.19248 0.06512
# Poissons Ratio (z) = -0.37558 0.32133
#
# Static dielectric constant tensor:
#      x y z
#    x 1.798300 0.000000 0.015130 
#    y 0.000000 1.880330 0.000000 
#    z 0.015130 0.000000 1.809580 
# 
# From -- ./inp_files/225390.got.cif
#   From: 2010.05.17/outbox.cif.g08.bks.cpg/sg12_113_cif.got.tgz:225390.got - 2010.06.03 13:09:07.
