data_PCOD9182659
_publ_section_title
;
Structure prediction by ZEFSAII (Michael W. Deem and Ramdas Pophale) SiO2 
 PCOD9182659
Probable space group: C 2/M
;
_chemical_formula_sum "Si O2"
_cell_formula_units_Z 56
_cell_length_a 24.777213
_cell_length_b 16.810252
_cell_length_c 9.365222
_cell_angle_alpha 90.000000
_cell_angle_beta 50.189249
_cell_angle_gamma 90.000000
_cell_volume 2996.390183
_symmetry_space_group_name_H-M "C 2/M"
_symmetry_group_IT_number 12
_symmetry_cell_setting 'monoclinic'
loop_
_space_group_symop_operation_xyz
x,y,z
-x,y,-z
-x,-y,-z
x,-y,z
1/2+x,1/2+y,z
1/2-x,1/2+y,-z
1/2-x,1/2-y,-z
1/2+x,1/2-y,z
loop_
_atom_site_type_symbol
_atom_site_label
_atom_site_fract_x
_atom_site_fract_y
_atom_site_fract_z
Si Si1 0.691867 0.117657 0.339731
Si Si2 0.177143 0.199724 0.399236
Si Si3 0.084337 0.090986 0.072867
Si Si4 0.309794 0.413169 0.362503
Si Si5 0.525473 0.088482 0.621519
Si Si6 0.012290 0.231566 0.650643
Si Si7 0.288034 0.587769 0.917355
O O1 0.703146 0.211013 0.343389
O O2 0.741866 0.082015 0.375894
O O3 0.610259 0.095107 0.487094
O O4 0.721398 0.096311 0.133914
O O5 0.197890 0.154098 0.507043
O O6 0.092943 0.207608 0.537266
O O7 0.205578 0.152302 0.215193
O O8 0.144897 0.093422 0.091290
O O9 0.033424 0.164035 0.194101
O O10 0.054276 0.000000 0.127013
O O11 0.124350 0.101480 0.854730
O O12 0.320490 0.500000 0.412830
O O13 0.500000 0.087354 0.500000
O O14 0.499585 0.175949 0.720466
O O15 0.505331 0.000000 0.715334
O O16 0.000000 0.228854 0.500000
O O17 0.287692 0.500000 0.852753
#
# Coordination Sequence:
#
# PCOD9182659 Si02
#       7
#     8   8   8   8   8   8   8
#     4  10  20  36  57  78 110 145 176 220 282 329
#     4  11  21  33  53  83 110 141 186 228 261 317
#     4   9  19  34  53  78 111 152 181 213 272 333
#     4  10  21  37  55  78 111 146 183 220 267 331
#     4   9  18  33  56  83 106 134 180 229 272 321
#     4  10  19  33  52  79 115 145 179 225 274 317
#     4  10  19  33  54  81 110 141 179 222 271 323
#
# _framework density 18.689155
#
# number of rings (size 3 to 8) (size 9 to 14) (size 15 to 20)
#    0.000    2.143    1.429    3.429    0.000    2.000 
#    0.000    1.429    0.000    0.000    0.000    9.000 
#    0.000    0.000    0.000    0.000    0.000    0.000 
#
# Total GULP energy -156069.219581 kJ/mol
# GULP energy per Si atom -5573.900699 kJ/mol
# Density = 1.864662 g / cm^3
# Si number density = 18.689155 Si / 1000 Ang^3
#
#
#
# Elastic Constant Matrix: (Units=GPa)
#
#
# Indices 1 2 3 4 5 6 
#
# 1 38.8967 19.5078 11.0598 0.0000 2.4457 0.0000
# 2 19.5078 162.8024 38.4554 0.0000 3.3953 0.0000
# 3 11.0598 38.4554 32.7355 0.0000 10.2939 0.0000
# 4 0.0000 0.0000 0.0000 25.8640 0.0000 -9.1226
# 5 2.4457 3.3953 10.2939 0.0000 21.7115 0.0000
# 6 0.0000 0.0000 0.0000 -9.1226 0.0000 12.6782
#
#
#
# Elastic Compliance Matrix: (Units=1/GPa)
#
#
# Indices 1 2 3 4 5 6 
#
# 1 0.028750 -0.001527 -0.008199 0.000000 0.000887 0.000000
# 2 -0.001527 0.008889 -0.011215 0.000000 0.004099 0.000000
# 3 -0.008199 -0.011215 0.053650 0.000000 -0.022759 0.000000
# 4 0.000000 0.000000 0.000000 0.051814 0.000000 0.037283
# 5 0.000887 0.004099 -0.022759 0.000000 0.056108 0.000000
# 6 0.000000 0.000000 0.000000 0.037283 0.000000 0.105703
#
#
# Mechanical properties :
#
#
# Convention : Reuss Voigt Hill
#
# Bulk Modulus (GPa) = 20.24008 41.38671 30.81339
# Shear Modulus (GPa) = 13.76406 23.07819 18.42112
#
# Velocity S-wave (km/s) = 2.71675 3.51785 3.14293
# Velocity P-wave (km/s) = 4.54910 6.22038 5.44920
#
# Compressibility (1/GPa) = 0.04940693
#
# Stress axis : x y z
#
# Youngs Moduli (GPa) = 34.78221 112.49767 18.63944
#
# Poissons Ratio (x) = 0.17177 0.15282
# Poissons Ratio (y) = 0.05311 0.20905
# Poissons Ratio (z) = 0.28517 1.26171
#
# Static dielectric constant tensor:
#      x y z
#    x 1.632960 0.000000 -0.012470 
#    y 0.000000 1.682070 0.000000 
#    z -0.012470 0.000000 1.604430 
# 
# From -- ./inp_files/96749.got.cif
#   From: 2010.05.17/outbox.cif.g08.bks.cpg/sg12_49_cif.got.tgz:96749.got - 2010.06.03 13:09:07.
