data_PCOD9182180
_publ_section_title
;
Structure prediction by ZEFSAII (Michael W. Deem and Ramdas Pophale) SiO2 
 PCOD9182180
Probable space group: C 2/M
;
_chemical_formula_sum "Si O2"
_cell_formula_units_Z 48
_cell_length_a 29.059989
_cell_length_b 15.434160
_cell_length_c 22.228287
_cell_angle_alpha 90.000000
_cell_angle_beta 165.518399
_cell_angle_gamma 90.000000
_cell_volume 2493.127357
_symmetry_space_group_name_H-M "C 2/M"
_symmetry_group_IT_number 12
_symmetry_cell_setting 'monoclinic'
loop_
_space_group_symop_operation_xyz
x,y,z
-x,y,-z
-x,-y,-z
x,-y,z
1/2+x,1/2+y,z
1/2-x,1/2+y,-z
1/2-x,1/2-y,-z
1/2+x,1/2-y,z
loop_
_atom_site_type_symbol
_atom_site_label
_atom_site_fract_x
_atom_site_fract_y
_atom_site_fract_z
Si Si1 0.168839 0.599266 0.667213
Si Si2 0.431363 0.147688 0.253063
Si Si3 0.470946 0.320470 0.231319
Si Si4 0.357353 0.903951 0.714664
Si Si5 0.809626 0.591514 0.511412
Si Si6 0.505262 0.724102 0.880287
O O1 0.238093 0.500000 0.755878
O O2 0.995912 0.598711 0.275195
O O3 0.000000 0.604990 0.500000
O O4 0.079249 0.621334 0.489908
O O5 0.451961 0.247418 0.258591
O O6 0.225278 0.130773 0.015028
O O7 0.177116 0.168389 0.120129
O O8 0.650276 0.377627 0.471755
O O9 0.491942 0.280088 0.189980
O O10 0.339197 0.909638 0.619629
O O11 0.489475 0.820256 0.888267
O O12 0.410637 0.000000 0.804734
O O13 0.720128 0.500000 0.380283
O O14 0.677419 0.671972 0.330751
#
# Coordination Sequence:
#
# PCOD9182180 Si02
#       6
#     8   8   8   8   8   8
#     4  11  24  38  57  89 125 160 188 229 300 369
#     4  11  20  36  58  88 122 154 191 241 289 350
#     4  10  20  36  61  84 118 160 195 239 294 343
#     4  10  20  36  60  86 111 152 202 244 290 338
#     4  10  19  32  56  88 118 149 191 242 290 344
#     4  11  19  40  57  81 122 160 192 237 291 356
#
# _framework density 19.252928000000001
#
# number of rings (size 3 to 8) (size 9 to 14) (size 15 to 20)
#    0.000    1.500    5.000    2.000    0.000    2.667 
#    0.000    1.667    0.000    2.500    0.000    0.000 
#    0.000    0.000    0.000    0.000    0.000    0.000 
#
# Total GULP energy -133780.690293 kJ/mol
# GULP energy per Si atom -5574.195429 kJ/mol
# Density = 1.920911 g / cm^3
# Si number density = 19.252928 Si / 1000 Ang^3
#
#
#
# Elastic Constant Matrix: (Units=GPa)
#
#
# Indices 1 2 3 4 5 6 
#
# 1 48.0874 9.6313 12.8277 -0.0011 25.6460 0.0007
# 2 9.6313 150.2898 53.3193 -0.0040 10.9581 0.0089
# 3 12.8277 53.3193 81.1355 -0.0067 19.2362 -0.0283
# 4 -0.0011 -0.0040 -0.0067 19.9285 -0.0009 3.2797
# 5 25.6460 10.9581 19.2362 -0.0009 26.6768 0.0029
# 6 0.0007 0.0089 -0.0283 3.2797 0.0029 -70.0910
#
#
#
# Elastic Compliance Matrix: (Units=1/GPa)
#
#
# Indices 1 2 3 4 5 6 
#
# 1 0.043704 -0.001109 0.004430 0.000002 -0.044754 -0.000003
# 2 -0.001109 0.008715 -0.005978 -0.000001 0.001797 0.000004
# 3 0.004430 -0.005978 0.019276 0.000006 -0.015703 -0.000009
# 4 0.000002 -0.000001 0.000006 0.049796 -0.000005 0.002330
# 5 -0.044754 0.001797 -0.015703 -0.000005 0.091095 0.000010
# 6 -0.000003 0.000004 -0.000009 0.002330 0.000010 -0.014158
#
#
# Mechanical properties :
#
#
# Convention : Reuss Voigt Hill
#
# Bulk Modulus (GPa) = 15.06464 47.89657 31.48061
# Shear Modulus (GPa) = 22.13680 8.88517 15.51098
#
# Velocity S-wave (km/s) = 3.39453 2.15058 2.84146
# Velocity P-wave (km/s) = 4.81720 5.57658 5.21074
#
# Compressibility (1/GPa) = 0.06638061
#
# Stress axis : x y z
#
# Youngs Moduli (GPa) = 22.88116 114.75030 51.87834
#
# Poissons Ratio (x) = 0.12728 -0.22981
# Poissons Ratio (y) = 0.02538 0.31011
# Poissons Ratio (z) = -0.10136 0.68593
#
# Static dielectric constant tensor:
#      x y z
#    x 1.694560 0.000000 0.013870 
#    y 0.000000 1.759220 0.000000 
#    z 0.013870 0.000000 1.658550 
# 
# From -- ./inp_files/328249.got.cif
#   From: 2010.05.17/outbox.cif.g08.bks.cpg/sg12_165_cif.got.tgz:328249.got - 2010.06.03 13:09:07.
