data_PCOD9182757
_publ_section_title
;
Structure prediction by ZEFSAII (Michael W. Deem and Ramdas Pophale) SiO2 
 PCOD9182757
Probable space group: C 2/M
;
_chemical_formula_sum "Si O2"
_cell_formula_units_Z 56
_cell_length_a 20.614405
_cell_length_b 8.943440
_cell_length_c 19.485595
_cell_angle_alpha 90.000000
_cell_angle_beta 96.444066
_cell_angle_gamma 90.000000
_cell_volume 3569.738889
_symmetry_space_group_name_H-M "C 2/M"
_symmetry_group_IT_number 12
_symmetry_cell_setting 'monoclinic'
loop_
_space_group_symop_operation_xyz
x,y,z
-x,y,-z
-x,-y,-z
x,-y,z
1/2+x,1/2+y,z
1/2-x,1/2+y,-z
1/2-x,1/2-y,-z
1/2+x,1/2-y,z
loop_
_atom_site_type_symbol
_atom_site_label
_atom_site_fract_x
_atom_site_fract_y
_atom_site_fract_z
Si Si1 0.208951 0.177331 0.597361
Si Si2 0.609639 0.677835 0.831521
Si Si3 0.988019 0.820516 0.578986
Si Si4 0.306258 0.173846 0.050003
Si Si5 0.451160 0.174917 0.052514
Si Si6 0.602910 0.178332 0.681331
Si Si7 0.162041 0.178040 0.436100
O O1 0.166608 0.262857 0.648529
O O2 0.176506 0.205758 0.518596
O O3 0.283132 0.234149 0.599559
O O4 0.206414 0.000000 0.609614
O O5 0.611158 0.500000 0.827234
O O6 0.674650 0.740653 0.877542
O O7 0.552849 0.732845 0.877359
O O8 0.601847 0.751702 0.756910
O O9 0.912983 0.782742 0.587425
O O10 0.000000 0.787579 0.500000
O O11 0.040409 0.736433 0.631406
O O12 0.996688 0.000000 0.588384
O O13 0.375844 0.180820 0.018427
O O14 0.291938 0.000000 0.061853
O O15 0.250000 0.250000 0.000000
O O16 0.465799 0.000000 0.068905
O O17 0.500000 0.229301 0.000000
O O18 0.603152 0.000000 0.684890
O O19 0.170360 0.000000 0.426232
#
# Coordination Sequence:
#
# PCOD9182757 Si02
#       7
#     8   8   8   8   8   8   8
#     4  10  19  33  53  75 101 135 173 215 268 320
#     4  10  20  34  54  79 108 141 178 217 264 315
#     4  10  19  35  55  77 105 138 178 223 271 319
#     4   9  17  31  53  81 108 136 169 208 252 302
#     4   8  16  32  54  79 108 139 171 210 253 303
#     4  12  23  35  53  77 106 140 181 224 271 322
#     4   9  18  33  52  75 102 131 169 220 269 317
#
# _framework density 15.687421000000001
#
# number of rings (size 3 to 8) (size 9 to 14) (size 15 to 20)
#    0.857    1.429    1.429    3.000    0.000    1.714 
#    0.000    0.000    3.143    0.000    0.000    0.000 
#    0.000    0.000    0.000    0.000    0.000    0.000 
#
# Total GULP energy -155917.116044 kJ/mol
# GULP energy per Si atom -5568.468430 kJ/mol
# Density = 1.565172 g / cm^3
# Si number density = 15.687421 Si / 1000 Ang^3
#
#
#
# Elastic Constant Matrix: (Units=GPa)
#
#
# Indices 1 2 3 4 5 6 
#
# 1 104.1130 66.4522 68.1244 0.0000 -7.1562 0.0000
# 2 66.4522 116.2917 79.0972 0.0000 -5.9249 0.0000
# 3 68.1244 79.0972 119.7854 0.0000 -3.8674 0.0000
# 4 0.0000 0.0000 0.0000 25.7362 0.0000 1.7627
# 5 -7.1562 -5.9249 -3.8674 0.0000 20.2566 0.0000
# 6 0.0000 0.0000 0.0000 1.7627 0.0000 27.9977
#
#
#
# Elastic Compliance Matrix: (Units=1/GPa)
#
#
# Indices 1 2 3 4 5 6 
#
# 1 0.017409 -0.005658 -0.006057 0.000000 0.003339 0.000000
# 2 -0.005658 0.017588 -0.008345 0.000000 0.001552 0.000000
# 3 -0.006057 -0.008345 0.017262 0.000000 -0.001285 0.000000
# 4 0.000000 0.000000 0.000000 0.039024 0.000000 -0.002457
# 5 0.003339 0.001552 -0.001285 0.000000 0.050755 0.000000
# 6 0.000000 0.000000 0.000000 -0.002457 0.000000 0.035872
#
#
# Mechanical properties :
#
#
# Convention : Reuss Voigt Hill
#
# Bulk Modulus (GPa) = 82.38751 85.28194 83.83473
# Shear Modulus (GPa) = 22.51472 23.23252 22.87362
#
# Velocity S-wave (km/s) = 3.79252 3.85251 3.82263
# Velocity P-wave (km/s) = 8.47407 8.61802 8.54635
#
# Compressibility (1/GPa) = 0.01213776
#
# Stress axis : x y z
#
# Youngs Moduli (GPa) = 57.44109 56.85779 57.93031
#
# Poissons Ratio (x) = 0.32172 0.35087
# Poissons Ratio (y) = 0.32502 0.48346
# Poissons Ratio (z) = 0.34791 0.47451
#
# Static dielectric constant tensor:
#      x y z
#    x 1.521930 0.000000 -0.005190 
#    y 0.000000 1.523630 0.000000 
#    z -0.005190 0.000000 1.495910 
# 
# From -- ./inp_files/280378.got.cif
#   From: 2010.05.17/outbox.cif.g08.bks.cpg/sg12_141_cif.got.tgz:280378.got - 2010.06.03 13:09:07.
