data_PCOD9182012
_publ_section_title
;
Structure prediction by ZEFSAII (Michael W. Deem and Ramdas Pophale) SiO2 
 PCOD9182012
Probable space group: C 2/M
;
_chemical_formula_sum "Si O2"
_cell_formula_units_Z 48
_cell_length_a 19.823556
_cell_length_b 9.529879
_cell_length_c 19.353576
_cell_angle_alpha 90.000000
_cell_angle_beta 45.439787
_cell_angle_gamma 90.000000
_cell_volume 2605.093068
_symmetry_space_group_name_H-M "C 2/M"
_symmetry_group_IT_number 12
_symmetry_cell_setting 'monoclinic'
loop_
_space_group_symop_operation_xyz
x,y,z
-x,y,-z
-x,-y,-z
x,-y,z
1/2+x,1/2+y,z
1/2-x,1/2+y,-z
1/2-x,1/2-y,-z
1/2+x,1/2-y,z
loop_
_atom_site_type_symbol
_atom_site_label
_atom_site_fract_x
_atom_site_fract_y
_atom_site_fract_z
Si Si1 0.236476 0.163454 0.612977
Si Si2 0.425887 0.834420 0.910690
Si Si3 0.105940 0.165162 0.571198
Si Si4 0.928599 0.334654 0.744239
Si Si5 0.397997 0.663639 0.161645
Si Si6 0.211597 0.164696 0.902377
O O1 0.160822 0.183544 0.605218
O O2 0.325257 0.262080 0.533707
O O3 0.182806 0.190148 0.723043
O O4 0.266003 0.000000 0.589799
O O5 0.438549 0.813513 0.819650
O O6 0.514091 0.762799 0.885785
O O7 0.421890 0.000000 0.926926
O O8 0.332134 0.759129 0.006262
O O9 0.005875 0.242089 0.649921
O O10 0.095642 0.000000 0.566118
O O11 0.944484 0.500000 0.718435
O O12 0.819665 0.300012 0.806155
O O13 0.427891 0.500000 0.147558
O O14 0.353941 0.681464 0.117839
O O15 0.210840 0.000000 0.923385
#
# Coordination Sequence:
#
# PCOD9182012 Si02
#       6
#     8   8   8   8   8   8
#     4   9  18  33  54  80 107 135 174 221 265 313
#     4  11  22  35  55  81 109 141 179 223 269 314
#     4  10  19  32  55  83 107 136 175 221 268 313
#     4  10  21  37  55  79 109 143 180 219 264 315
#     4  10  20  37  58  80 106 141 182 221 262 313
#     4  10  22  38  56  77 107 145 183 220 261 314
#
# _framework density 18.425446000000001
#
# number of rings (size 3 to 8) (size 9 to 14) (size 15 to 20)
#    0.000    2.000    1.667    2.000    0.000    5.333 
#    0.000    0.833    0.000    5.000    0.000    0.000 
#    0.000    0.000    0.000    0.000    0.000    0.000 
#
# Total GULP energy -134056.254473 kJ/mol
# GULP energy per Si atom -5585.677270 kJ/mol
# Density = 1.838351 g / cm^3
# Si number density = 18.425446 Si / 1000 Ang^3
#
#
#
# Elastic Constant Matrix: (Units=GPa)
#
#
# Indices 1 2 3 4 5 6 
#
# 1 37.8353 18.2384 -1.8191 0.0000 -13.0612 0.0000
# 2 18.2384 42.8367 27.6552 0.0000 -2.8746 0.0000
# 3 -1.8191 27.6552 53.8480 0.0000 -1.2139 0.0000
# 4 0.0000 0.0000 0.0000 38.7848 0.0000 -5.8996
# 5 -13.0612 -2.8746 -1.2139 0.0000 19.3699 0.0000
# 6 0.0000 0.0000 0.0000 -5.8996 0.0000 17.6610
#
#
#
# Elastic Compliance Matrix: (Units=1/GPa)
#
#
# Indices 1 2 3 4 5 6 
#
# 1 0.055799 -0.034708 0.020472 0.000000 0.033758 0.000000
# 2 -0.034708 0.056836 -0.030743 0.000000 -0.016896 0.000000
# 3 0.020472 -0.030743 0.035310 0.000000 0.011454 0.000000
# 4 0.000000 0.000000 0.000000 0.027164 0.000000 0.009074
# 5 0.033758 -0.016896 0.011454 0.000000 0.072600 0.000000
# 6 0.000000 0.000000 0.000000 0.009074 0.000000 0.059653
#
#
# Mechanical properties :
#
#
# Convention : Reuss Voigt Hill
#
# Bulk Modulus (GPa) = 17.24591 24.74100 20.99346
# Shear Modulus (GPa) = 12.00048 21.19282 16.59665
#
# Velocity S-wave (km/s) = 2.55483 3.39513 3.00450
# Velocity P-wave (km/s) = 4.25241 5.36898 4.84298
#
# Compressibility (1/GPa) = 0.05798477
#
# Stress axis : x y z
#
# Youngs Moduli (GPa) = 17.92136 17.59449 28.32092
#
# Poissons Ratio (x) = 0.61068 -0.57977
# Poissons Ratio (y) = 0.62202 0.87067
# Poissons Ratio (z) = -0.36688 0.54091
#
# Static dielectric constant tensor:
#      x y z
#    x 1.627230 0.000000 -0.001390 
#    y 0.000000 1.612980 0.000000 
#    z -0.001390 0.000000 1.619240 
# 
# From -- ./inp_files/230427.got.cif
#   From: 2010.05.17/outbox.cif.g08.bks.cpg/sg12_116_cif.got.tgz:230427.got - 2010.06.03 13:09:07.
