data_PCOD9182884
_publ_section_title
;
Structure prediction by ZEFSAII (Michael W. Deem and Ramdas Pophale) SiO2 
 PCOD9182884
Probable space group: C 2/M
;
_chemical_formula_sum "Si O2"
_cell_formula_units_Z 56
_cell_length_a 19.730515
_cell_length_b 8.321991
_cell_length_c 25.548537
_cell_angle_alpha 90.000000
_cell_angle_beta 45.345515
_cell_angle_gamma 90.000000
_cell_volume 2984.145051
_symmetry_space_group_name_H-M "C 2/M"
_symmetry_group_IT_number 12
_symmetry_cell_setting 'monoclinic'
loop_
_space_group_symop_operation_xyz
x,y,z
-x,y,-z
-x,-y,-z
x,-y,z
1/2+x,1/2+y,z
1/2-x,1/2+y,-z
1/2-x,1/2-y,-z
1/2+x,1/2-y,z
loop_
_atom_site_type_symbol
_atom_site_label
_atom_site_fract_x
_atom_site_fract_y
_atom_site_fract_z
Si Si1 0.510115 0.196120 0.734662
Si Si2 0.990331 0.682804 0.567101
Si Si3 0.804444 0.181826 0.709522
Si Si4 0.701337 0.815891 0.177027
Si Si5 0.591737 0.305813 0.917956
Si Si6 0.900455 0.309799 0.205439
Si Si7 0.358777 0.691926 0.434213
O O1 0.400553 0.253066 0.785759
O O2 0.544256 0.250667 0.773669
O O3 0.582641 0.251802 0.649571
O O4 0.510235 0.000000 0.732761
O O5 0.968456 0.500000 0.596094
O O6 0.082096 0.740380 0.548718
O O7 0.000000 0.682253 0.500000
O O8 0.903316 0.798077 0.627648
O O9 0.804290 0.305323 0.757188
O O10 0.712688 0.212001 0.723756
O O11 0.794468 0.000000 0.736184
O O12 0.807889 0.745180 0.111376
O O13 0.703369 0.000000 0.157182
O O14 0.595608 0.500000 0.918309
O O15 0.582328 0.260291 0.861822
O O16 0.500000 0.249926 0.000000
O O17 0.919669 0.500000 0.191319
O O18 0.359872 0.500000 0.433905
O O19 0.250000 0.750000 0.500000
#
# Coordination Sequence:
#
# PCOD9182884 Si02
#       7
#     8   8   8   8   8   8   8
#     4  10  20  37  58  81 112 149 190 235 285 341
#     4  11  24  40  57  80 110 145 189 236 286 342
#     4  10  19  33  53  78 105 138 182 231 279 331
#     4   9  17  32  56  78 104 145 185 226 276 334
#     4   9  18  34  56  83 113 147 188 232 279 334
#     4   9  20  35  54  82 112 144 184 229 281 335
#     4  12  26  42  60  83 114 152 193 239 292 341
#
# _framework density 18.765843
#
# number of rings (size 3 to 8) (size 9 to 14) (size 15 to 20)
#    0.000    2.000    1.429    2.143    2.000    2.571 
#    0.000    0.714    0.000    0.000    0.000    0.000 
#    0.000    0.000    0.000    0.000    0.000    0.000 
#
# Total GULP energy -155985.607498 kJ/mol
# GULP energy per Si atom -5570.914554 kJ/mol
# Density = 1.872313 g / cm^3
# Si number density = 18.765843 Si / 1000 Ang^3
#
#
#
# Elastic Constant Matrix: (Units=GPa)
#
#
# Indices 1 2 3 4 5 6 
#
# 1 173.5747 24.6504 81.6259 0.0000 -18.1860 0.0003
# 2 24.6504 39.4944 13.2316 0.0001 -1.9833 0.0002
# 3 81.6259 13.2316 108.3197 0.0000 -28.3659 0.0000
# 4 0.0000 0.0001 0.0000 19.6330 0.0000 3.9605
# 5 -18.1860 -1.9833 -28.3659 0.0000 28.2039 0.0000
# 6 0.0003 0.0002 0.0000 3.9605 0.0000 17.5258
#
#
#
# Elastic Compliance Matrix: (Units=1/GPa)
#
#
# Indices 1 2 3 4 5 6 
#
# 1 0.009430 -0.003608 -0.006977 0.000000 -0.001190 0.000000
# 2 -0.003608 0.027855 -0.001059 0.000000 -0.001433 0.000000
# 3 -0.006977 -0.001059 0.018220 0.000000 0.013751 0.000000
# 4 0.000000 0.000000 0.000000 0.053368 0.000000 -0.012060
# 5 -0.001190 -0.001433 0.013751 0.000000 0.048418 0.000000
# 6 0.000000 0.000000 0.000000 -0.012060 0.000000 0.059784
#
#
# Mechanical properties :
#
#
# Convention : Reuss Voigt Hill
#
# Bulk Modulus (GPa) = 31.03958 62.26717 46.65338
# Shear Modulus (GPa) = 19.91227 26.53126 23.22177
#
# Velocity S-wave (km/s) = 3.26097 3.76414 3.52155
# Velocity P-wave (km/s) = 5.54572 7.22114 6.43816
#
# Compressibility (1/GPa) = 0.03221693
#
# Stress axis : x y z
#
# Youngs Moduli (GPa) = 106.04521 35.90047 54.88463
#
# Poissons Ratio (x) = 0.12953 0.38293
# Poissons Ratio (y) = 0.38261 0.05812
# Poissons Ratio (z) = 0.73988 0.03801
#
# Static dielectric constant tensor:
#      x y z
#    x 1.448520 0.000000 -0.258980 
#    y 0.000000 1.683860 0.000000 
#    z -0.258980 0.000000 1.421730 
# 
# From -- ./inp_files/342351.got.cif
#   From: 2010.05.17/outbox.cif.g08.bks.cpg/sg12_172_cif.got.tgz:342351.got - 2010.06.03 13:09:07.
