data_PCOD9182919
_publ_section_title
;
Structure prediction by ZEFSAII (Michael W. Deem and Ramdas Pophale) SiO2 
 PCOD9182919
Probable space group: C 2/M
;
_chemical_formula_sum "Si O2"
_cell_formula_units_Z 56
_cell_length_a 18.897947
_cell_length_b 17.020615
_cell_length_c 21.513124
_cell_angle_alpha 90.000000
_cell_angle_beta 23.711241
_cell_angle_gamma 90.000000
_cell_volume 2782.640088
_symmetry_space_group_name_H-M "C 2/M"
_symmetry_group_IT_number 12
_symmetry_cell_setting 'monoclinic'
loop_
_space_group_symop_operation_xyz
x,y,z
-x,y,-z
-x,-y,-z
x,-y,z
1/2+x,1/2+y,z
1/2-x,1/2+y,-z
1/2-x,1/2-y,-z
1/2+x,1/2-y,z
loop_
_atom_site_type_symbol
_atom_site_label
_atom_site_fract_x
_atom_site_fract_y
_atom_site_fract_z
Si Si1 0.533759 0.784488 0.300094
Si Si2 0.952098 0.317650 0.125224
Si Si3 0.198872 0.255917 0.627518
Si Si4 0.636635 0.589204 0.333907
Si Si5 0.603584 0.355656 0.976169
Si Si6 0.183599 0.880809 0.160102
Si Si7 0.530737 0.585287 0.785168
O O1 0.409466 0.751090 0.454396
O O2 0.389384 0.798555 0.361673
O O3 0.683597 0.846081 0.199199
O O4 0.641745 0.711446 0.186234
O O5 0.872853 0.303705 0.256905
O O6 0.793259 0.348178 0.211367
O O7 0.022754 0.232443 0.048195
O O8 0.106763 0.381943 0.001817
O O9 0.140103 0.164394 0.681765
O O10 0.500000 0.605918 0.500000
O O11 0.698841 0.500000 0.296319
O O12 0.586351 0.590871 0.301126
O O13 0.500000 0.389784 0.000000
O O14 0.556501 0.400115 0.077603
O O15 0.112643 0.917541 0.154357
O O16 0.623916 0.500000 0.710450
#
# Coordination Sequence:
#
# PCOD9182919 Si02
#       7
#     8   8   8   8   8   8   8
#     4   9  17  33  56  83 106 135 179 224 271 318
#     4  10  19  33  53  79 106 138 180 219 261 317
#     4   9  18  33  57  81 108 140 177 226 270 319
#     4  11  23  35  49  76 114 149 177 212 263 320
#     4  10  20  35  56  80 105 137 180 226 270 318
#     4  10  19  34  56  77 105 140 179 222 264 320
#     4  10  21  36  54  77 105 140 180 224 276 325
#
# _framework density 20.124772
#
# number of rings (size 3 to 8) (size 9 to 14) (size 15 to 20)
#    0.000    2.143    0.000    4.286    0.000    5.429 
#    0.000    2.857    0.000    0.857    0.000    0.000 
#    0.000    0.000    0.000    0.000    0.000    0.000 
#
# Total GULP energy -155889.112501 kJ/mol
# GULP energy per Si atom -5567.468304 kJ/mol
# Density = 2.007897 g / cm^3
# Si number density = 20.124772 Si / 1000 Ang^3
#
#
#
# Elastic Constant Matrix: (Units=GPa)
#
#
# Indices 1 2 3 4 5 6 
#
# 1 128.2960 13.2413 43.6586 -0.0003 19.4258 0.0008
# 2 13.2413 57.7812 5.9834 -0.0031 -2.7056 0.0017
# 3 43.6586 5.9834 85.6825 0.0119 4.9161 -0.0015
# 4 -0.0003 -0.0031 0.0119 6.1110 -0.0049 -0.4666
# 5 19.4258 -2.7056 4.9161 -0.0049 30.2859 -0.0008
# 6 0.0008 0.0017 -0.0015 -0.4666 -0.0008 2.2271
#
#
#
# Elastic Compliance Matrix: (Units=1/GPa)
#
#
# Indices 1 2 3 4 5 6 
#
# 1 0.010636 -0.002221 -0.004907 0.000003 -0.006224 -0.000007
# 2 -0.002221 0.017991 -0.000302 0.000011 0.003081 -0.000009
# 3 -0.004907 -0.000302 0.014145 -0.000027 0.000825 0.000006
# 4 0.000003 0.000011 -0.000027 0.166300 0.000031 0.034843
# 5 -0.006224 0.003081 0.000825 0.000031 0.037152 0.000021
# 6 -0.000007 -0.000009 0.000006 0.034843 0.000021 0.456320
#
#
# Mechanical properties :
#
#
# Convention : Reuss Voigt Hill
#
# Bulk Modulus (GPa) = 35.82538 44.16958 39.99748
# Shear Modulus (GPa) = 6.88034 21.64989 14.26511
#
# Velocity S-wave (km/s) = 1.85102 3.28347 2.66528
# Velocity P-wave (km/s) = 4.73378 6.03079 5.42121
#
# Compressibility (1/GPa) = 0.02791317
#
# Stress axis : x y z
#
# Youngs Moduli (GPa) = 94.02057 55.58323 70.69542
#
# Poissons Ratio (x) = 0.12343 0.34692
# Poissons Ratio (y) = 0.20879 0.02132
# Poissons Ratio (z) = 0.46138 0.01676
#
# Static dielectric constant tensor:
#      x y z
#    x 1.772820 0.000000 0.006910 
#    y 0.000000 1.725800 0.000010 
#    z 0.006910 0.000010 1.736630 
# 
# From -- ./inp_files/98038.got.cif
#   From: 2010.05.17/outbox.cif.g08.bks.cpg/sg12_50_cif.got.tgz:98038.got - 2010.06.03 13:09:07.
