data_PCOD9182789
_publ_section_title
;
Structure prediction by ZEFSAII (Michael W. Deem and Ramdas Pophale) SiO2 
 PCOD9182789
Probable space group: C 2/M
;
_chemical_formula_sum "Si O2"
_cell_formula_units_Z 48
_cell_length_a 5.374941
_cell_length_b 14.477944
_cell_length_c 30.095316
_cell_angle_alpha 90.000000
_cell_angle_beta 64.840831
_cell_angle_gamma 90.000000
_cell_volume 2119.778975
_symmetry_space_group_name_H-M "C 2/M"
_symmetry_group_IT_number 12
_symmetry_cell_setting 'monoclinic'
loop_
_space_group_symop_operation_xyz
x,y,z
-x,y,-z
-x,-y,-z
x,-y,z
1/2+x,1/2+y,z
1/2-x,1/2+y,-z
1/2-x,1/2-y,-z
1/2+x,1/2-y,z
loop_
_atom_site_type_symbol
_atom_site_label
_atom_site_fract_x
_atom_site_fract_y
_atom_site_fract_z
Si Si1 0.014430 0.613378 0.189940
Si Si2 0.703348 0.612746 0.302584
Si Si3 0.317842 0.887151 0.471623
Si Si4 0.851732 0.219106 0.943548
Si Si5 0.143204 0.891426 0.136270
Si Si6 0.930614 0.387118 0.640937
O O1 0.017740 0.500000 0.189520
O O2 0.855345 0.643487 0.246279
O O3 0.843959 0.643392 0.159496
O O4 0.332144 0.642970 0.166578
O O5 0.704097 0.500000 0.301785
O O6 0.385412 0.641063 0.328577
O O7 0.874832 0.640471 0.333028
O O8 0.500000 0.858990 0.500000
O O9 0.449429 0.855325 0.415314
O O10 0.000000 0.859725 0.500000
O O11 0.321283 0.000000 0.470659
O O12 0.677513 0.288776 0.925706
O O13 0.766151 0.130032 0.921418
O O14 0.750000 0.250000 0.000000
O O15 0.135704 0.000000 0.142091
O O16 0.931941 0.500000 0.640069
#
# Coordination Sequence:
#
# PCOD9182789 Si02
#       6
#     8   8   8   8   8   8
#     4   9  17  28  45  69  94 118 149 194 244 293
#     4   9  15  23  34  51  75 100 129 171 231 293
#     4   9  15  21  27  36  53  82 127 180 227 271
#     4  10  21  38  56  77 105 136 166 201 245 289
#     4  10  19  33  53  76 100 129 165 202 244 293
#     4   9  15  21  30  43  63  95 131 172 231 291
#
# _framework density 22.643868999999999
#
# number of rings (size 3 to 8) (size 9 to 14) (size 15 to 20)
#    0.000    2.667    0.000    3.000    0.000    8.000 
#    0.000    3.333    0.000    0.000    0.000    0.000 
#    0.000    0.000    0.000    0.000    0.000    0.000 
#
# Total GULP energy -133810.435293 kJ/mol
# GULP energy per Si atom -5575.434804 kJ/mol
# Density = 2.259233 g / cm^3
# Si number density = 22.643869 Si / 1000 Ang^3
#
#
#
# Elastic Constant Matrix: (Units=GPa)
#
#
# Indices 1 2 3 4 5 6 
#
# 1 210.5297 7.8494 100.4368 0.0000 18.6913 0.0000
# 2 7.8494 49.0307 19.2986 0.0000 1.3951 0.0000
# 3 100.4368 19.2986 166.1635 0.0001 0.6979 0.0000
# 4 0.0000 0.0000 0.0001 -12.3601 0.0000 2.2589
# 5 18.6913 1.3951 0.6979 0.0000 44.7441 0.0000
# 6 0.0000 0.0000 0.0000 2.2589 0.0000 -2.5088
#
#
#
# Elastic Compliance Matrix: (Units=1/GPa)
#
#
# Indices 1 2 3 4 5 6 
#
# 1 0.007044 0.000656 -0.004322 0.000000 -0.002896 0.000000
# 2 0.000656 0.021451 -0.002884 0.000000 -0.000898 0.000000
# 3 -0.004322 -0.002884 0.008958 0.000000 0.001756 0.000000
# 4 0.000000 0.000000 0.000000 -0.096842 0.000000 -0.087199
# 5 -0.002896 -0.000898 0.001756 0.000000 0.023560 0.000000
# 6 0.000000 0.000000 0.000000 -0.087199 0.000000 -0.477120
#
#
# Mechanical properties :
#
#
# Convention : Reuss Voigt Hill
#
# Bulk Modulus (GPa) = 41.06218 75.65484 58.35851
# Shear Modulus (GPa) = -10.16816 25.85098 7.84141
#
# Velocity S-wave (km/s) = -2.12137 3.38247 1.86291
# Velocity P-wave (km/s) = 3.48898 6.98127 5.51865
#
# Compressibility (1/GPa) = 0.02435331
#
# Stress axis : x y z
#
# Youngs Moduli (GPa) = 141.95585 46.61764 111.63016
#
# Poissons Ratio (x) = -0.03057 0.48246
# Poissons Ratio (y) = -0.09309 0.32194
# Poissons Ratio (z) = 0.61353 0.13444
#
# Static dielectric constant tensor:
#      x y z
#    x 1.857330 0.000000 -0.075450 
#    y 0.000000 1.922130 0.000000 
#    z -0.075450 0.000000 1.913860 
# 
# From -- ./inp_files/331053.got.cif
#   From: 2010.05.17/outbox.cif.g08.bks.cpg/sg12_166_cif.got.tgz:331053.got - 2010.06.03 13:09:07.
