data_PCOD9182936
_publ_section_title
;
Structure prediction by ZEFSAII (Michael W. Deem and Ramdas Pophale) SiO2 
 PCOD9182936
Probable space group: C 2/M
;
_chemical_formula_sum "Si O2"
_cell_formula_units_Z 64
_cell_length_a 33.444918
_cell_length_b 8.738122
_cell_length_c 12.555536
_cell_angle_alpha 90.000000
_cell_angle_beta 91.001861
_cell_angle_gamma 90.000000
_cell_volume 3668.741399
_symmetry_space_group_name_H-M "C 2/M"
_symmetry_group_IT_number 12
_symmetry_cell_setting 'monoclinic'
loop_
_space_group_symop_operation_xyz
x,y,z
-x,y,-z
-x,-y,-z
x,-y,z
1/2+x,1/2+y,z
1/2-x,1/2+y,-z
1/2-x,1/2-y,-z
1/2+x,1/2-y,z
loop_
_atom_site_type_symbol
_atom_site_label
_atom_site_fract_x
_atom_site_fract_y
_atom_site_fract_z
Si Si1 0.856033 0.815036 0.863694
Si Si2 0.366708 0.316301 0.418093
Si Si3 0.513712 0.816576 0.381265
Si Si4 0.811994 0.316297 0.243507
Si Si5 0.061247 0.183380 0.738079
Si Si6 0.735883 0.314920 0.112438
Si Si7 0.883545 0.316726 0.085587
Si Si8 0.601888 0.314730 0.353977
O O1 0.809453 0.767980 0.865414
O O2 0.876611 0.768929 0.754178
O O3 0.857361 0.000000 0.870727
O O4 0.878028 0.746276 0.967163
O O5 0.364157 0.500000 0.415606
O O6 0.328818 0.250315 0.353895
O O7 0.406037 0.272234 0.351053
O O8 0.373524 0.266617 0.539604
O O9 0.500000 0.770410 0.500000
O O10 0.480954 0.752094 0.298137
O O11 0.557467 0.751435 0.360380
O O12 0.514299 0.000000 0.376496
O O13 0.812395 0.500000 0.250957
O O14 0.768292 0.266621 0.202587
O O15 0.844056 0.272734 0.152900
O O16 0.079125 0.247152 0.848776
O O17 0.059088 0.000000 0.741482
O O18 0.736974 0.500000 0.106984
O O19 0.750000 0.250000 0.000000
O O20 0.886171 0.500000 0.084977
O O21 0.599395 0.500000 0.356006
#
# Coordination Sequence:
#
# PCOD9182936 Si02
#       8
#     8   8   8   8   8   8   8   8
#     4  10  21  36  56  79 109 146 184 223 267 323
#     4   9  18  32  52  77 105 139 178 218 263 314
#     4  11  22  35  55  84 112 139 177 224 271 319
#     4   9  18  31  50  77 108 139 173 220 271 313
#     4  10  19  33  56  82 108 140 180 223 267 317
#     4  10  19  33  53  80 108 140 181 225 269 315
#     4  10  19  33  53  79 112 143 177 222 274 324
#     4  10  21  38  56  78 109 146 183 221 267 321
#
# _framework density 17.444673999999999
#
# number of rings (size 3 to 8) (size 9 to 14) (size 15 to 20)
#    0.000    2.125    2.500    1.125    0.000    3.000 
#    0.000    1.250    0.000    3.750    0.000    0.000 
#    0.000    0.000    0.000    0.000    0.000    0.000 
#
# Total GULP energy -178582.835488 kJ/mol
# GULP energy per Si atom -5580.713609 kJ/mol
# Density = 1.740497 g / cm^3
# Si number density = 17.444674 Si / 1000 Ang^3
#
#
#
# Elastic Constant Matrix: (Units=GPa)
#
#
# Indices 1 2 3 4 5 6 
#
# 1 132.3390 32.8067 100.0258 0.0000 19.2584 0.0000
# 2 32.8067 16.8969 39.5809 0.0000 3.1307 0.0000
# 3 100.0258 39.5809 171.2138 0.0000 22.3568 0.0000
# 4 0.0000 0.0000 0.0000 26.0228 0.0000 7.7306
# 5 19.2584 3.1307 22.3568 0.0000 35.0539 0.0000
# 6 0.0000 0.0000 0.0000 7.7306 0.0000 22.5158
#
#
#
# Elastic Compliance Matrix: (Units=1/GPa)
#
#
# Indices 1 2 3 4 5 6 
#
# 1 0.016841 -0.022276 -0.004080 0.000000 -0.004660 0.000000
# 2 -0.022276 0.160743 -0.026038 0.000000 0.014489 0.000000
# 3 -0.004080 -0.026038 0.014887 0.000000 -0.004928 0.000000
# 4 0.000000 0.000000 0.000000 0.042793 0.000000 -0.014692
# 5 -0.004660 0.014489 -0.004928 0.000000 0.032937 0.000000
# 6 0.000000 0.000000 0.000000 -0.014692 0.000000 0.049458
#
#
# Mechanical properties :
#
#
# Convention : Reuss Voigt Hill
#
# Bulk Modulus (GPa) = 11.40485 73.91960 42.66223
# Shear Modulus (GPa) = 11.06991 26.58757 18.82874
#
# Velocity S-wave (km/s) = 2.52180 3.90822 3.28890
# Velocity P-wave (km/s) = 3.87702 7.92662 6.23949
#
# Compressibility (1/GPa) = 0.08768202
#
# Stress axis : x y z
#
# Youngs Moduli (GPa) = 59.37962 6.22111 67.17069
#
# Poissons Ratio (x) = 0.13858 0.27408
# Poissons Ratio (y) = 1.32273 1.74901
# Poissons Ratio (z) = 0.24229 0.16199
#
# Static dielectric constant tensor:
#      x y z
#    x 1.579260 0.000000 0.006390 
#    y 0.000000 1.587880 0.000000 
#    z 0.006390 0.000000 1.580680 
# 
# From -- ./inp_files/187452.got.cif
#   From: 2010.05.17/outbox.cif.g08.bks.cpg/sg12_94_cif.got.tgz:187452.got - 2010.06.03 13:09:07.
