data_PCOD9182275
_publ_section_title
;
Structure prediction by ZEFSAII (Michael W. Deem and Ramdas Pophale) SiO2 
 PCOD9182275
Probable space group: C 2/M
;
_chemical_formula_sum "Si O2"
_cell_formula_units_Z 40
_cell_length_a 24.623075
_cell_length_b 16.703474
_cell_length_c 8.538107
_cell_angle_alpha 90.000000
_cell_angle_beta 146.829665
_cell_angle_gamma 90.000000
_cell_volume 1921.326383
_symmetry_space_group_name_H-M "C 2/M"
_symmetry_group_IT_number 12
_symmetry_cell_setting 'monoclinic'
loop_
_space_group_symop_operation_xyz
x,y,z
-x,y,-z
-x,-y,-z
x,-y,z
1/2+x,1/2+y,z
1/2-x,1/2+y,-z
1/2-x,1/2-y,-z
1/2+x,1/2-y,z
loop_
_atom_site_type_symbol
_atom_site_label
_atom_site_fract_x
_atom_site_fract_y
_atom_site_fract_z
Si Si1 0.615575 0.500000 0.587941
Si Si2 0.588967 0.650551 0.323273
Si Si3 0.957381 0.733077 0.223440
Si Si4 0.622353 0.500000 0.960240
Si Si5 0.092562 0.591444 0.107624
Si Si6 0.206002 0.838344 0.303663
O O1 0.636652 0.580789 0.542859
O O2 0.657777 0.500000 0.865076
O O3 0.496413 0.500000 0.322045
O O4 0.534000 0.717681 0.295554
O O5 0.667589 0.681789 0.386391
O O6 0.500000 0.615544 0.000000
O O7 0.000000 0.737633 0.500000
O O8 0.941637 0.643446 0.123450
O O9 0.850281 0.776534 0.945962
O O10 0.660081 0.422382 0.138838
O O11 0.124842 0.500000 0.149701
O O12 0.178710 0.641528 0.402363
O O13 0.000000 0.587349 0.000000
#
# Coordination Sequence:
#
# PCOD9182275 Si02
#       6
#     4   8   8   4   8   8
#     4  11  18  29  52  96 138 161 181 254 330 390
#     4  10  19  32  59  93 127 160 196 249 317 386
#     4  11  23  41  66  98 132 158 199 264 327 374
#     4  11  19  30  56  93 134 159 198 248 328 376
#     4  11  25  46  68  86 119 173 228 257 293 366
#     4  11  21  39  65  95 123 163 214 255 308 377
#
# _framework density 20.818950999999998
#
# number of rings (size 3 to 8) (size 9 to 14) (size 15 to 20)
#    0.000    1.200    5.000    4.500    0.000    0.400 
#    0.000    6.000    0.000    0.000    0.000    0.000 
#    0.000    0.000    0.000    0.000    0.000    0.000 
#
# Total GULP energy -111694.071820 kJ/mol
# GULP energy per Si atom -5584.703591 kJ/mol
# Density = 2.077157 g / cm^3
# Si number density = 20.818951 Si / 1000 Ang^3
#
#
#
# Elastic Constant Matrix: (Units=GPa)
#
#
# Indices 1 2 3 4 5 6 
#
# 1 61.0926 27.4205 61.3304 0.0000 -16.7968 0.0000
# 2 27.4205 152.1622 51.6684 0.0000 -21.8886 0.0000
# 3 61.3304 51.6684 120.9114 0.0000 -12.9759 0.0000
# 4 0.0000 0.0000 0.0000 38.4503 0.0000 -48.0413
# 5 -16.7968 -21.8886 -12.9759 0.0000 38.9083 0.0000
# 6 0.0000 0.0000 0.0000 -48.0413 0.0000 -13.1383
#
#
#
# Elastic Compliance Matrix: (Units=1/GPa)
#
#
# Indices 1 2 3 4 5 6 
#
# 1 0.036877 0.000971 -0.017997 0.000000 0.010464 0.000000
# 2 0.000971 0.008158 -0.003569 0.000000 0.003818 0.000000
# 3 -0.017997 -0.003569 0.018539 0.000000 -0.003595 0.000000
# 4 0.000000 0.000000 0.000000 0.004670 0.000000 -0.017077
# 5 0.010464 0.003818 -0.003595 0.000000 0.031168 0.000000
# 6 0.000000 0.000000 0.000000 -0.017077 0.000000 -0.013668
#
#
# Mechanical properties :
#
#
# Convention : Reuss Voigt Hill
#
# Bulk Modulus (GPa) = 44.67575 68.33386 56.50481
# Shear Modulus (GPa) = 37.20360 25.76054 31.48207
#
# Velocity S-wave (km/s) = 4.23189 3.52143 3.89290
# Velocity P-wave (km/s) = 6.73678 7.03051 6.88521
#
# Compressibility (1/GPa) = 0.02238351
#
# Stress axis : x y z
#
# Youngs Moduli (GPa) = 27.11713 122.57763 53.94145
#
# Poissons Ratio (x) = -0.11902 0.97080
# Poissons Ratio (y) = -0.02633 0.19251
# Poissons Ratio (z) = 0.48803 0.43746
#
# Static dielectric constant tensor:
#      x y z
#    x 1.770340 0.000000 0.032150 
#    y 0.000000 1.776380 0.000000 
#    z 0.032150 0.000000 1.726640 
# 
# From -- ./inp_files/105897.got.cif
#   From: 2010.05.17/outbox.cif.g08.bks.cpg/sg12_53_cif.got.tgz:105897.got - 2010.06.03 13:09:07.
