data_PCOD9182415
_publ_section_title
;
Structure prediction by ZEFSAII (Michael W. Deem and Ramdas Pophale) SiO2 
 PCOD9182415
Probable space group: C 2/M
;
_chemical_formula_sum "Si O2"
_cell_formula_units_Z 64
_cell_length_a 13.834036
_cell_length_b 13.873590
_cell_length_c 27.710141
_cell_angle_alpha 90.000000
_cell_angle_beta 41.531329
_cell_angle_gamma 90.000000
_cell_volume 3526.219377
_symmetry_space_group_name_H-M "C 2/M"
_symmetry_group_IT_number 12
_symmetry_cell_setting 'monoclinic'
loop_
_space_group_symop_operation_xyz
x,y,z
-x,y,-z
-x,-y,-z
x,-y,z
1/2+x,1/2+y,z
1/2-x,1/2+y,-z
1/2-x,1/2-y,-z
1/2+x,1/2-y,z
loop_
_atom_site_type_symbol
_atom_site_label
_atom_site_fract_x
_atom_site_fract_y
_atom_site_fract_z
Si Si1 0.967426 0.883573 0.090475
Si Si2 0.285437 0.710237 0.237950
Si Si3 0.058910 0.615532 0.784803
Si Si4 0.344696 0.388107 0.391242
Si Si5 0.337122 0.883632 0.453554
Si Si6 0.728600 0.383600 0.928265
Si Si7 0.528382 0.800301 0.689187
Si Si8 0.851611 0.612309 0.623330
O O1 0.916110 0.837532 0.159351
O O2 0.852391 0.854751 0.091203
O O3 0.963996 0.000000 0.095731
O O4 0.125572 0.853109 0.011073
O O5 0.320818 0.822992 0.231382
O O6 0.136980 0.681022 0.265884
O O7 0.260438 0.668287 0.300659
O O8 0.078362 0.500000 0.779117
O O9 0.897971 0.641827 0.865330
O O10 0.056390 0.653430 0.730540
O O11 0.391269 0.500000 0.373961
O O12 0.300528 0.356474 0.461845
O O13 0.451987 0.314184 0.325379
O O14 0.198899 0.382300 0.412836
O O15 0.357793 0.844987 0.392003
O O16 0.485985 0.853520 0.425384
O O17 0.334754 0.000000 0.453108
O O18 0.723484 0.500000 0.929950
O O19 0.845029 0.500000 0.639735
#
# Coordination Sequence:
#
# PCOD9182415 Si02
#       8
#     8   8   8   8   8   8   8   8
#     4   9  16  30  54  83 109 131 168 220 265 306
#     4  11  21  32  53  81 105 138 177 214 257 311
#     4  11  22  37  54  76 110 145 178 216 261 311
#     4  10  19  33  51  72 102 134 168 216 268 312
#     4   9  18  31  52  77  98 128 171 219 265 310
#     4   8  16  31  53  79 106 137 169 213 265 306
#     4  11  21  35  53  76 103 141 181 216 257 317
#     4   9  17  30  49  77 104 125 161 214 267 312
#
# _framework density 18.149750999999998
#
# number of rings (size 3 to 8) (size 9 to 14) (size 15 to 20)
#    0.000    2.250    2.500    2.250    0.000    3.500 
#    0.000    0.000    0.000    0.000    0.000    6.125 
#    0.000    0.000    0.000    0.000    0.000    0.000 
#
# Total GULP energy -178249.086457 kJ/mol
# GULP energy per Si atom -5570.283952 kJ/mol
# Density = 1.810844 g / cm^3
# Si number density = 18.149751 Si / 1000 Ang^3
#
#
#
# Elastic Constant Matrix: (Units=GPa)
#
#
# Indices 1 2 3 4 5 6 
#
# 1 16.1468 1.1630 -2.7288 0.0000 5.7241 0.0000
# 2 1.1630 55.7236 30.2962 0.0000 8.1046 0.0000
# 3 -2.7288 30.2962 85.2179 0.0000 18.0988 0.0000
# 4 0.0000 0.0000 0.0000 22.1358 0.0000 -3.3047
# 5 5.7241 8.1046 18.0988 0.0000 13.6632 0.0000
# 6 0.0000 0.0000 0.0000 -3.3047 0.0000 17.7388
#
#
#
# Elastic Compliance Matrix: (Units=1/GPa)
#
#
# Indices 1 2 3 4 5 6 
#
# 1 0.083420 -0.001981 0.014678 0.000000 -0.053215 0.000000
# 2 -0.001981 0.022434 -0.007499 0.000000 -0.002544 0.000000
# 3 0.014678 -0.007499 0.021194 0.000000 -0.029776 0.000000
# 4 0.000000 0.000000 0.000000 0.046468 0.000000 0.008657
# 5 -0.053215 -0.002544 -0.029776 0.000000 0.136435 0.000000
# 6 0.000000 0.000000 0.000000 0.008657 0.000000 0.057986
#
#
# Mechanical properties :
#
#
# Convention : Reuss Voigt Hill
#
# Bulk Modulus (GPa) = 7.27571 23.83880 15.55726
# Shear Modulus (GPa) = 12.39594 19.26475 15.83035
#
# Velocity S-wave (km/s) = 2.61623 3.26150 2.95652
# Velocity P-wave (km/s) = 3.62541 5.22936 4.49943
#
# Compressibility (1/GPa) = 0.13744356
#
# Stress axis : x y z
#
# Youngs Moduli (GPa) = 11.98754 44.57510 47.18207
#
# Poissons Ratio (x) = 0.08832 -0.69252
# Poissons Ratio (y) = 0.02375 0.35381
# Poissons Ratio (z) = -0.17595 0.33426
#
# Static dielectric constant tensor:
#      x y z
#    x 1.622860 0.000000 -0.007010 
#    y 0.000000 1.627180 0.000000 
#    z -0.007010 0.000000 1.646810 
# 
# From -- ./inp_files/361248.got.cif
#   From: 2010.05.17/outbox.cif.g08.bks.cpg/sg12_181_cif.got.tgz:361248.got - 2010.06.03 13:09:07.
