data_PCOD9182110
_publ_section_title
;
Structure prediction by ZEFSAII (Michael W. Deem and Ramdas Pophale) SiO2 
 PCOD9182110
Probable space group: C 2/M
;
_chemical_formula_sum "Si O2"
_cell_formula_units_Z 40
_cell_length_a 27.571192
_cell_length_b 7.806798
_cell_length_c 19.267791
_cell_angle_alpha 90.000000
_cell_angle_beta 147.503867
_cell_angle_gamma 90.000000
_cell_volume 2228.080730
_symmetry_space_group_name_H-M "C 2/M"
_symmetry_group_IT_number 12
_symmetry_cell_setting 'monoclinic'
loop_
_space_group_symop_operation_xyz
x,y,z
-x,y,-z
-x,-y,-z
x,-y,z
1/2+x,1/2+y,z
1/2-x,1/2+y,-z
1/2-x,1/2-y,-z
1/2+x,1/2-y,z
loop_
_atom_site_type_symbol
_atom_site_label
_atom_site_fract_x
_atom_site_fract_y
_atom_site_fract_z
Si Si1 0.918222 0.797353 0.559828
Si Si2 0.070293 0.295113 0.645118
Si Si3 0.137028 0.000000 0.113721
Si Si4 0.145671 0.305879 0.369049
Si Si5 0.436191 0.500000 0.818518
Si Si6 0.277090 0.301929 0.265753
O O1 0.894736 0.703547 0.602299
O O2 0.845514 0.753083 0.411691
O O3 0.018249 0.757746 0.651765
O O4 0.910255 0.000000 0.562420
O O5 0.079209 0.500000 0.654101
O O6 0.164500 0.216191 0.734451
O O7 0.000000 0.240872 0.500000
O O8 0.196267 0.832226 0.168933
O O9 0.111653 0.000000 0.164344
O O10 0.043286 0.000000 0.959317
O O11 0.140040 0.500000 0.335436
O O12 0.250000 0.250000 0.500000
O O13 0.095212 0.168007 0.260808
O O14 0.250342 0.500000 0.242889
#
# Coordination Sequence:
#
# PCOD9182110 Si02
#       6
#     8   8   4   8   4   8
#     4  10  19  32  55  91 126 152 190 244 298 348
#     4   9  16  28  50  86 122 154 190 235 296 346
#     4  11  24  42  63  80 118 158 197 242 281 352
#     4  12  23  39  62  89 119 152 190 241 296 353
#     4  11  26  44  60  88 115 155 198 238 294 342
#     4  10  20  34  58  89 120 156 194 240 290 347
#
# _framework density 17.952672
#
# number of rings (size 3 to 8) (size 9 to 14) (size 15 to 20)
#    0.000    1.600    3.000    2.400    2.800    5.600 
#    0.000    2.000    0.000    1.200    0.000    0.000 
#    0.000    0.000    0.000    0.000    0.000    0.000 
#
# Total GULP energy -111658.246479 kJ/mol
# GULP energy per Si atom -5582.912324 kJ/mol
# Density = 1.791181 g / cm^3
# Si number density = 17.952672 Si / 1000 Ang^3
#
#
#
# Elastic Constant Matrix: (Units=GPa)
#
#
# Indices 1 2 3 4 5 6 
#
# 1 99.4637 49.7644 57.3541 0.0000 15.8890 0.0000
# 2 49.7644 131.6470 71.7398 0.0000 12.6185 0.0000
# 3 57.3541 71.7398 99.9335 0.0000 16.6396 0.0000
# 4 0.0000 0.0000 0.0000 22.6208 0.0000 2.7701
# 5 15.8890 12.6185 16.6396 0.0000 24.2362 0.0000
# 6 0.0000 0.0000 0.0000 2.7701 0.0000 27.8677
#
#
#
# Elastic Compliance Matrix: (Units=1/GPa)
#
#
# Indices 1 2 3 4 5 6 
#
# 1 0.015675 -0.001642 -0.007055 0.000000 -0.004578 0.000000
# 2 -0.001642 0.012652 -0.008155 0.000000 0.000088 0.000000
# 3 -0.007055 -0.008155 0.020812 0.000000 -0.005417 0.000000
# 4 0.000000 0.000000 0.000000 0.044752 0.000000 -0.004448
# 5 -0.004578 0.000088 -0.005417 0.000000 0.047935 0.000000
# 6 0.000000 0.000000 0.000000 -0.004448 0.000000 0.036326
#
#
# Mechanical properties :
#
#
# Convention : Reuss Voigt Hill
#
# Bulk Modulus (GPa) = 64.78824 76.52897 70.65860
# Shear Modulus (GPa) = 23.04121 25.09069 24.06595
#
# Velocity S-wave (km/s) = 3.58640 3.74251 3.66529
# Velocity P-wave (km/s) = 7.30181 7.83555 7.57338
#
# Compressibility (1/GPa) = 0.01543490
#
# Stress axis : x y z
#
# Youngs Moduli (GPa) = 63.79581 79.03671 48.04841
#
# Poissons Ratio (x) = 0.12976 0.33900
# Poissons Ratio (y) = 0.10474 0.39184
# Poissons Ratio (z) = 0.45011 0.64456
#
# Static dielectric constant tensor:
#      x y z
#    x 1.640090 0.000000 0.008390 
#    y 0.000000 1.623320 0.000000 
#    z 0.008390 0.000000 1.583330 
# 
# From -- ./inp_files/274679.got.cif
#   From: 2010.05.17/outbox.cif.g08.bks.cpg/sg12_138_cif.got.tgz:274679.got - 2010.06.03 13:09:07.
