data_PCOD9182353
_publ_section_title
;
Structure prediction by ZEFSAII (Michael W. Deem and Ramdas Pophale) SiO2 
 PCOD9182353
Probable space group: C 2/M
;
_chemical_formula_sum "Si O2"
_cell_formula_units_Z 40
_cell_length_a 8.001788
_cell_length_b 25.893419
_cell_length_c 13.756937
_cell_angle_alpha 90.000000
_cell_angle_beta 141.126081
_cell_angle_gamma 90.000000
_cell_volume 1788.904552
_symmetry_space_group_name_H-M "C 2/M"
_symmetry_group_IT_number 12
_symmetry_cell_setting 'monoclinic'
loop_
_space_group_symop_operation_xyz
x,y,z
-x,y,-z
-x,-y,-z
x,-y,z
1/2+x,1/2+y,z
1/2-x,1/2+y,-z
1/2-x,1/2-y,-z
1/2+x,1/2-y,z
loop_
_atom_site_type_symbol
_atom_site_label
_atom_site_fract_x
_atom_site_fract_y
_atom_site_fract_z
Si Si1 0.181878 0.371346 0.870406
Si Si2 0.913272 0.125882 0.166218
Si Si3 0.119098 0.439909 0.659526
Si Si4 0.873849 0.705205 0.304562
Si Si5 0.024047 0.821057 0.399086
O O1 0.049845 0.408418 0.727836
O O2 0.121434 0.313956 0.804821
O O3 0.500000 0.380629 0.000000
O O4 0.169534 0.374105 0.981021
O O5 0.071533 0.073050 0.218314
O O6 0.120912 0.173306 0.231111
O O7 0.897183 0.136407 0.272623
O O8 0.063388 0.500000 0.648320
O O9 0.000000 0.423652 0.500000
O O10 0.877506 0.766227 0.317427
O O11 0.160623 0.688105 0.477596
O O12 0.000000 0.835658 0.500000
#
# Coordination Sequence:
#
# PCOD9182353 Si02
#       5
#     8   8   8   8   8
#     4   8  17  30  48  71  98 124 152 195 245 284
#     4  10  19  33  50  70 100 129 157 200 243 280
#     4   9  16  28  51  78  97 117 152 199 244 283
#     4   9  17  32  49  66  92 127 165 204 239 276
#     4  11  20  29  46  69  94 130 169 198 232 280
#
# _framework density 22.360054000000002
#
# number of rings (size 3 to 8) (size 9 to 14) (size 15 to 20)
#    0.000    3.000    0.000    5.400    0.000    5.200 
#    0.000    3.000    0.000    0.600    0.000    0.000 
#    0.000   27.200    0.000    0.000    0.000    0.000 
#
# Total GULP energy -111335.636271 kJ/mol
# GULP energy per Si atom -5566.781814 kJ/mol
# Density = 2.230916 g / cm^3
# Si number density = 22.360054 Si / 1000 Ang^3
#
#
#
# Elastic Constant Matrix: (Units=GPa)
#
#
# Indices 1 2 3 4 5 6 
#
# 1 73.3681 29.3652 43.3379 0.0000 -40.0597 0.0000
# 2 29.3652 61.8013 24.4302 0.0000 -17.7688 0.0000
# 3 43.3379 24.4302 119.8407 0.0000 -44.2062 0.0000
# 4 0.0000 0.0000 0.0000 16.6076 0.0000 -10.9925
# 5 -40.0597 -17.7688 -44.2062 0.0000 71.0432 0.0000
# 6 0.0000 0.0000 0.0000 -10.9925 0.0000 5.4862
#
#
#
# Elastic Compliance Matrix: (Units=1/GPa)
#
#
# Indices 1 2 3 4 5 6 
#
# 1 0.023759 -0.007151 -0.003702 0.000000 0.009306 0.000000
# 2 -0.007151 0.020196 -0.001499 0.000000 0.000086 0.000000
# 3 -0.003702 -0.001499 0.011786 0.000000 0.004871 0.000000
# 4 0.000000 0.000000 0.000000 -0.184569 0.000000 -0.369818
# 5 0.009306 0.000086 0.004871 0.000000 0.022376 0.000000
# 6 0.000000 0.000000 0.000000 -0.369818 0.000000 -0.558724
#
#
# Mechanical properties :
#
#
# Convention : Reuss Voigt Hill
#
# Bulk Modulus (GPa) = 32.21920 49.91964 41.06942
# Shear Modulus (GPa) = -7.93492 29.15251 10.60880
#
# Velocity S-wave (km/s) = -1.88584 3.61470 2.18056
# Velocity P-wave (km/s) = 3.11427 6.30835 4.97463
#
# Compressibility (1/GPa) = 0.03103739
#
# Stress axis : x y z
#
# Youngs Moduli (GPa) = 42.08847 49.51460 84.84929
#
# Poissons Ratio (x) = 0.35406 0.31410
# Poissons Ratio (y) = 0.30096 0.12722
# Poissons Ratio (z) = 0.15581 0.07424
#
# Static dielectric constant tensor:
#      x y z
#    x 2.054130 0.000000 -0.017150 
#    y 0.000000 1.780980 0.000000 
#    z -0.017150 0.000000 1.898050 
# 
# From -- ./inp_files/201422.got.cif
#   From: 2010.05.17/outbox.cif.g08.bks.cpg/sg12_101_cif.got.tgz:201422.got - 2010.06.03 13:09:07.
