data_PCOD9182880
_publ_section_title
;
Structure prediction by ZEFSAII (Michael W. Deem and Ramdas Pophale) SiO2 
 PCOD9182880
Probable space group: C 2/M
;
_chemical_formula_sum "Si O2"
_cell_formula_units_Z 56
_cell_length_a 30.020887
_cell_length_b 7.447787
_cell_length_c 11.752171
_cell_angle_alpha 90.000000
_cell_angle_beta 54.532012
_cell_angle_gamma 90.000000
_cell_volume 2140.069506
_symmetry_space_group_name_H-M "C 2/M"
_symmetry_group_IT_number 12
_symmetry_cell_setting 'monoclinic'
loop_
_space_group_symop_operation_xyz
x,y,z
-x,y,-z
-x,-y,-z
x,-y,z
1/2+x,1/2+y,z
1/2-x,1/2+y,-z
1/2-x,1/2-y,-z
1/2+x,1/2-y,z
loop_
_atom_site_type_symbol
_atom_site_label
_atom_site_fract_x
_atom_site_fract_y
_atom_site_fract_z
Si Si1 0.301303 0.698366 0.751863
Si Si2 0.969432 0.719939 0.238689
Si Si3 0.681041 0.219457 0.930761
Si Si4 0.201198 0.297435 0.490504
Si Si5 0.573906 0.781901 0.210704
Si Si6 0.924701 0.705263 0.548429
Si Si7 0.111909 0.292028 0.815279
O O1 0.306553 0.500000 0.795153
O O2 0.242272 0.781967 0.869758
O O3 0.295839 0.679441 0.623869
O O4 0.359521 0.795920 0.670364
O O5 0.965992 0.500000 0.238431
O O6 0.938577 0.778794 0.402461
O O7 0.943522 0.784429 0.158189
O O8 0.032107 0.769240 0.172597
O O9 0.651980 0.278871 0.855144
O O10 0.685569 0.000000 0.919351
O O11 0.635432 0.270454 0.089870
O O12 0.206459 0.500000 0.440316
O O13 0.250000 0.250000 0.500000
O O14 0.148119 0.289166 0.646888
O O15 0.554143 0.715877 0.363325
O O16 0.573302 0.000000 0.215803
O O17 0.944211 0.500000 0.512911
O O18 0.101037 0.500000 0.866117
#
# Coordination Sequence:
#
# PCOD9182880 Si02
#       7
#     8   8   8   8   8   8   8
#     4  11  21  33  51  76 107 141 174 213 260 310
#     4   9  16  28  49  76 101 130 170 217 267 310
#     4   9  18  31  45  70 107 140 170 209 258 311
#     4  11  19  31  51  79 110 139 171 214 262 308
#     4   9  18  31  49  72 101 138 175 216 265 311
#     4  10  19  33  53  78 104 130 172 225 265 304
#     4   9  16  27  46  73 105 131 157 205 257 303
#
# _framework density 26.167376000000001
#
# number of rings (size 3 to 8) (size 9 to 14) (size 15 to 20)
#    0.000    2.286    2.857    1.286    0.000    2.857 
#    0.000    2.857    0.000    2.571    0.000    0.000 
#    0.000    2.286    0.000    0.000    0.000    0.000 
#
# Total GULP energy -156305.484805 kJ/mol
# GULP energy per Si atom -5582.338743 kJ/mol
# Density = 2.610782 g / cm^3
# Si number density = 26.167376 Si / 1000 Ang^3
#
#
#
# Elastic Constant Matrix: (Units=GPa)
#
#
# Indices 1 2 3 4 5 6 
#
# 1 88.8710 3.2253 8.1166 0.0000 -10.8427 0.0000
# 2 3.2253 81.9573 11.0335 0.0000 -2.0767 0.0000
# 3 8.1166 11.0335 83.6715 0.0000 -18.4660 0.0000
# 4 0.0000 0.0000 0.0000 3.5705 0.0000 -1.0828
# 5 -10.8427 -2.0767 -18.4660 0.0000 54.1425 0.0000
# 6 0.0000 0.0000 0.0000 -1.0828 0.0000 5.7894
#
#
#
# Elastic Compliance Matrix: (Units=1/GPa)
#
#
# Indices 1 2 3 4 5 6 
#
# 1 0.011576 -0.000319 -0.000618 0.000000 0.002095 0.000000
# 2 -0.000319 0.012431 -0.001641 0.000000 -0.000147 0.000000
# 3 -0.000618 -0.001641 0.013179 0.000000 0.004308 0.000000
# 4 0.000000 0.000000 0.000000 0.296910 0.000000 0.055531
# 5 0.002095 -0.000147 0.004308 0.000000 0.020353 0.000000
# 6 0.000000 0.000000 0.000000 0.055531 0.000000 0.183116
#
#
# Mechanical properties :
#
#
# Convention : Reuss Voigt Hill
#
# Bulk Modulus (GPa) = 31.22165 33.25005 32.23585
# Shear Modulus (GPa) = 9.03509 28.17545 18.60527
#
# Velocity S-wave (km/s) = 1.86019 3.28493 2.66937
# Velocity P-wave (km/s) = 4.07077 5.20787 4.67403
#
# Compressibility (1/GPa) = 0.03202906
#
# Stress axis : x y z
#
# Youngs Moduli (GPa) = 86.38606 80.44278 75.88061
#
# Poissons Ratio (x) = 0.02568 0.04693
# Poissons Ratio (y) = 0.02757 0.12450
# Poissons Ratio (z) = 0.05343 0.13198
#
# Static dielectric constant tensor:
#      x y z
#    x 2.140780 0.000000 -0.039980 
#    y 0.000000 1.960100 0.000000 
#    z -0.039980 0.000000 2.015440 
# 
# From -- ./inp_files/187134.got.cif
#   From: 2010.05.17/outbox.cif.g08.bks.cpg/sg12_94_cif.got.tgz:187134.got - 2010.06.03 13:09:07.
