data_PCOD9182403
_publ_section_title
;
Structure prediction by ZEFSAII (Michael W. Deem and Ramdas Pophale) SiO2 
 PCOD9182403
Probable space group: C 2/M
;
_chemical_formula_sum "Si O2"
_cell_formula_units_Z 64
_cell_length_a 23.393266
_cell_length_b 7.545456
_cell_length_c 18.660966
_cell_angle_alpha 90.000000
_cell_angle_beta 82.680507
_cell_angle_gamma 90.000000
_cell_volume 3267.058984
_symmetry_space_group_name_H-M "C 2/M"
_symmetry_group_IT_number 12
_symmetry_cell_setting 'monoclinic'
loop_
_space_group_symop_operation_xyz
x,y,z
-x,y,-z
-x,-y,-z
x,-y,z
1/2+x,1/2+y,z
1/2-x,1/2+y,-z
1/2-x,1/2-y,-z
1/2+x,1/2-y,z
loop_
_atom_site_type_symbol
_atom_site_label
_atom_site_fract_x
_atom_site_fract_y
_atom_site_fract_z
Si Si1 0.709957 0.287985 0.247490
Si Si2 0.799764 0.712062 0.908244
Si Si3 0.816613 0.210758 0.474008
Si Si4 0.658523 0.218693 0.795863
Si Si5 0.371634 0.714450 0.612967
Si Si6 0.333360 0.797814 0.050402
Si Si7 0.999194 0.709286 0.419508
Si Si8 0.101786 0.705445 0.663145
O O1 0.713080 0.500000 0.253966
O O2 0.680701 0.247954 0.175582
O O3 0.775944 0.223787 0.232656
O O4 0.673667 0.221056 0.320531
O O5 0.792970 0.500000 0.917618
O O6 0.736095 0.795848 0.925645
O O7 0.837916 0.777739 0.969298
O O8 0.750000 0.250000 0.500000
O O9 0.853372 0.276050 0.536520
O O10 0.841987 0.288170 0.396848
O O11 0.823474 0.000000 0.467800
O O12 0.643327 0.279897 0.878865
O O13 0.617733 0.279950 0.738169
O O14 0.659000 0.000000 0.797065
O O15 0.369586 0.500000 0.612299
O O16 0.436477 0.769436 0.619907
O O17 0.354268 0.000000 0.043669
O O18 0.985984 0.500000 0.428930
O O19 0.950255 0.785167 0.375180
O O20 0.000000 0.785679 0.500000
O O21 0.087018 0.500000 0.678438
#
# Coordination Sequence:
#
# PCOD9182403 Si02
#       8
#     8   8   8   8   8   8   8   8
#     4   9  17  30  45  64  91 121 153 187 224 270
#     4   9  15  23  39  64  91 119 149 182 222 266
#     4  11  22  34  49  69  93 122 154 187 228 276
#     4   8  14  27  47  66  90 123 153 181 217 270
#     4  10  21  35  51  68  89 123 162 193 227 277
#     4   8  14  25  40  60  89 123 154 180 212 264
#     4  10  20  34  51  71  93 117 150 199 247 275
#     4  10  19  33  51  69  92 122 155 190 232 277
#
# _framework density 19.589485
#
# number of rings (size 3 to 8) (size 9 to 14) (size 15 to 20)
#    0.000    2.625    1.250    2.250    0.000    4.250 
#    0.000    5.000    0.000    0.000    0.000    0.875 
#    0.000    7.000    0.000    0.000    0.000    0.000 
#
# Total GULP energy -178376.422489 kJ/mol
# GULP energy per Si atom -5574.263203 kJ/mol
# Density = 1.954490 g / cm^3
# Si number density = 19.589485 Si / 1000 Ang^3
#
#
#
# Elastic Constant Matrix: (Units=GPa)
#
#
# Indices 1 2 3 4 5 6 
#
# 1 69.9125 -1.4196 20.9291 0.0000 30.5174 0.0000
# 2 -1.4196 53.1031 2.0305 0.0000 3.7900 0.0000
# 3 20.9291 2.0305 106.1124 0.0000 48.3342 0.0000
# 4 0.0000 0.0000 0.0000 14.6963 0.0000 -3.9847
# 5 30.5174 3.7900 48.3342 0.0000 33.7449 0.0000
# 6 0.0000 0.0000 0.0000 -3.9847 0.0000 10.6537
#
#
#
# Elastic Compliance Matrix: (Units=1/GPa)
#
#
# Indices 1 2 3 4 5 6 
#
# 1 0.036604 0.004855 0.023058 0.000000 -0.066676 0.000000
# 2 0.004855 0.019741 0.004818 0.000000 -0.013509 0.000000
# 3 0.023058 0.004818 0.041801 0.000000 -0.081268 0.000000
# 4 0.000000 0.000000 0.000000 0.075723 0.000000 0.028322
# 5 -0.066676 -0.013509 -0.081268 0.000000 0.207853 0.000000
# 6 0.000000 0.000000 0.000000 0.028322 0.000000 0.104457
#
#
# Mechanical properties :
#
#
# Convention : Reuss Voigt Hill
#
# Bulk Modulus (GPa) = 6.11210 30.24535 18.17872
# Shear Modulus (GPa) = 10.52072 25.65818 18.08945
#
# Velocity S-wave (km/s) = 2.31997 3.62303 3.04209
# Velocity P-wave (km/s) = 3.20986 5.74238 4.65178
#
# Compressibility (1/GPa) = 0.16360998
#
# Stress axis : x y z
#
# Youngs Moduli (GPa) = 27.31942 50.65598 23.92267
#
# Poissons Ratio (x) = -0.24596 -0.55162
# Poissons Ratio (y) = -0.13265 -0.11526
# Poissons Ratio (z) = -0.62994 -0.24407
#
# Static dielectric constant tensor:
#      x y z
#    x 1.665420 0.000000 0.046720 
#    y 0.000000 1.771330 0.000000 
#    z 0.046720 0.000000 1.737120 
# 
# From -- ./inp_files/287496.got.cif
#   From: 2010.05.17/outbox.cif.g08.bks.cpg/sg12_144_cif.got.tgz:287496.got - 2010.06.03 13:09:07.
