data_PCOD9182300
_publ_section_title
;
Structure prediction by ZEFSAII (Michael W. Deem and Ramdas Pophale) SiO2 
 PCOD9182300
Probable space group: C 2/M
;
_chemical_formula_sum "Si O2"
_cell_formula_units_Z 64
_cell_length_a 27.154706
_cell_length_b 15.919918
_cell_length_c 23.510083
_cell_angle_alpha 90.000000
_cell_angle_beta 158.834892
_cell_angle_gamma 90.000000
_cell_volume 3669.573121
_symmetry_space_group_name_H-M "C 2/M"
_symmetry_group_IT_number 12
_symmetry_cell_setting 'monoclinic'
loop_
_space_group_symop_operation_xyz
x,y,z
-x,y,-z
-x,-y,-z
x,-y,z
1/2+x,1/2+y,z
1/2-x,1/2+y,-z
1/2-x,1/2-y,-z
1/2+x,1/2-y,z
loop_
_atom_site_type_symbol
_atom_site_label
_atom_site_fract_x
_atom_site_fract_y
_atom_site_fract_z
Si Si1 0.237060 0.310303 0.592582
Si Si2 0.592246 0.643723 0.388249
Si Si3 0.634814 0.906701 0.380534
Si Si4 0.561463 0.091442 0.129218
Si Si5 0.215554 0.217094 0.674081
Si Si6 0.989882 0.238927 0.176596
Si Si7 0.198673 0.317858 0.107334
Si Si8 0.981100 0.904853 0.387707
O O1 0.153083 0.230835 0.477896
O O2 0.177432 0.387084 0.491830
O O3 0.215290 0.302337 0.636841
O O4 0.392954 0.294339 0.740662
O O5 0.723239 0.598757 0.501854
O O6 0.490601 0.672351 0.228711
O O7 0.523497 0.598462 0.367114
O O8 0.543614 0.828781 0.259623
O O9 0.575697 0.000000 0.310714
O O10 0.680958 0.157708 0.250477
O O11 0.611005 0.000000 0.201600
O O12 0.500000 0.083678 0.000000
O O13 0.436292 0.125162 0.030616
O O14 0.268504 0.222457 0.795547
O O15 0.076476 0.163646 0.521847
O O16 0.848640 0.252563 0.991632
O O17 0.326634 0.374487 0.228626
O O18 0.001665 0.000000 0.431099
#
# Coordination Sequence:
#
# PCOD9182300 Si02
#       8
#     8   8   8   8   8   8   8   8
#     4   8  15  30  48  68  92 120 157 198 228 276
#     4   8  17  32  48  64  91 127 160 189 230 284
#     4   9  16  28  50  75  95 118 152 195 244 281
#     4   9  17  28  42  61  86 118 157 190 220 266
#     4  10  19  33  48  64  92 132 163 187 227 280
#     4   9  17  31  47  69  95 118 154 203 235 272
#     4  11  21  30  45  69  96 124 160 192 235 269
#     4  11  22  33  45  66  98 132 162 193 227 272
#
# _framework density 17.440719999999999
#
# number of rings (size 3 to 8) (size 9 to 14) (size 15 to 20)
#    0.000    2.625    1.250    3.000    0.000    3.500 
#    0.000    0.000    0.000    0.000    0.000    7.875 
#    0.000   18.000    0.000    0.000    0.000    0.000 
#
# Total GULP energy -178260.714438 kJ/mol
# GULP energy per Si atom -5570.647326 kJ/mol
# Density = 1.740102 g / cm^3
# Si number density = 17.440720 Si / 1000 Ang^3
#
#
#
# Elastic Constant Matrix: (Units=GPa)
#
#
# Indices 1 2 3 4 5 6 
#
# 1 75.5286 13.2135 21.8415 -0.0006 -16.5351 -0.0005
# 2 13.2135 28.4227 7.9359 0.0000 -9.9890 -0.0001
# 3 21.8415 7.9359 59.6100 0.0017 -6.0924 0.0012
# 4 -0.0006 0.0000 0.0017 13.8102 0.0006 -2.7792
# 5 -16.5351 -9.9890 -6.0924 0.0006 35.5579 0.0004
# 6 -0.0005 -0.0001 0.0012 -2.7792 0.0004 3.8955
#
#
#
# Elastic Compliance Matrix: (Units=1/GPa)
#
#
# Indices 1 2 3 4 5 6 
#
# 1 0.016680 -0.004377 -0.004949 0.000002 0.005679 0.000004
# 2 -0.004377 0.041221 -0.002960 0.000000 0.009037 0.000001
# 3 -0.004949 -0.002960 0.018995 -0.000004 0.000122 -0.000009
# 4 0.000002 0.000000 -0.000004 0.084549 -0.000002 0.060319
# 5 0.005679 0.009037 0.000122 -0.000002 0.033324 -0.000004
# 6 0.000004 0.000001 -0.000009 0.060319 -0.000004 0.299737
#
#
# Mechanical properties :
#
#
# Convention : Reuss Voigt Hill
#
# Bulk Modulus (GPa) = 19.11149 27.72700 23.41924
# Shear Modulus (GPa) = 9.31934 18.69076 14.00505
#
# Velocity S-wave (km/s) = 2.31410 3.27719 2.83681
# Velocity P-wave (km/s) = 4.25697 5.50022 4.91804
#
# Compressibility (1/GPa) = 0.05232456
#
# Stress axis : x y z
#
# Youngs Moduli (GPa) = 59.95176 24.25976 52.64411
#
# Poissons Ratio (x) = 0.10618 0.26051
# Poissons Ratio (y) = 0.26240 0.15584
# Poissons Ratio (z) = 0.29668 0.07182
#
# Static dielectric constant tensor:
#      x y z
#    x 1.655000 0.000000 -0.038100 
#    y 0.000000 1.607630 0.000000 
#    z -0.038100 0.000000 1.606560 
# 
# From -- ./inp_files/352290.got.cif
#   From: 2010.05.17/outbox.cif.g08.bks.cpg/sg12_177_cif.got.tgz:352290.got - 2010.06.03 13:09:07.
