data_PCOD9182007
_publ_section_title
;
Structure prediction by ZEFSAII (Michael W. Deem and Ramdas Pophale) SiO2 
 PCOD9182007
Probable space group: C 2/M
;
_chemical_formula_sum "Si O2"
_cell_formula_units_Z 48
_cell_length_a 9.912129
_cell_length_b 26.962680
_cell_length_c 9.365364
_cell_angle_alpha 90.000000
_cell_angle_beta 61.585743
_cell_angle_gamma 90.000000
_cell_volume 2201.432726
_symmetry_space_group_name_H-M "C 2/M"
_symmetry_group_IT_number 12
_symmetry_cell_setting 'monoclinic'
loop_
_space_group_symop_operation_xyz
x,y,z
-x,y,-z
-x,-y,-z
x,-y,z
1/2+x,1/2+y,z
1/2-x,1/2+y,-z
1/2-x,1/2-y,-z
1/2+x,1/2-y,z
loop_
_atom_site_type_symbol
_atom_site_label
_atom_site_fract_x
_atom_site_fract_y
_atom_site_fract_z
Si Si1 0.104394 0.586657 0.567616
Si Si2 0.351217 0.556420 0.667547
Si Si3 0.248077 0.221684 0.328160
Si Si4 0.694286 0.674130 0.656589
Si Si5 0.642303 0.649725 0.134085
Si Si6 0.954530 0.663121 0.857404
O O1 0.213848 0.557688 0.621336
O O2 0.207667 0.625781 0.426866
O O3 0.000000 0.560763 0.500000
O O4 0.005287 0.620380 0.724475
O O5 0.500000 0.571707 0.500000
O O6 0.372130 0.500000 0.708442
O O7 0.333227 0.595705 0.804685
O O8 0.221104 0.279426 0.313714
O O9 0.174056 0.200584 0.510398
O O10 0.180603 0.188871 0.238008
O O11 0.432431 0.209391 0.236287
O O12 0.535608 0.658345 0.808063
O O13 0.770467 0.662346 0.952733
O O14 0.000000 0.651293 0.000000
#
# Coordination Sequence:
#
# PCOD9182007 Si02
#       6
#     8   8   8   8   8   8
#     4  11  22  39  59  89 126 157 197 257 310 358
#     4  11  21  38  68  95 114 157 214 254 300 364
#     4   9  18  30  51  82 112 157 195 246 289 350
#     4  10  19  32  55  82 115 161 200 237 297 360
#     4  11  18  37  60  83 123 151 206 263 292 342
#     4   9  18  35  59  83 123 158 201 250 297 352
#
# _framework density 21.803981
#
# number of rings (size 3 to 8) (size 9 to 14) (size 15 to 20)
#    0.000    1.833    6.667    0.500    0.000    5.000 
#    0.000    5.833    0.000    0.000    0.000    2.333 
#    0.000    0.000    0.000    0.000    0.000    0.000 
#
# Total GULP energy -133937.838909 kJ/mol
# GULP energy per Si atom -5580.743288 kJ/mol
# Density = 2.175435 g / cm^3
# Si number density = 21.803981 Si / 1000 Ang^3
#
#
#
# Elastic Constant Matrix: (Units=GPa)
#
#
# Indices 1 2 3 4 5 6 
#
# 1 66.2217 -4.0774 16.8044 0.0000 -6.6537 0.0000
# 2 -4.0774 76.1676 6.9344 0.0000 -1.2700 0.0000
# 3 16.8044 6.9344 105.7709 0.0000 -31.9150 0.0000
# 4 0.0000 0.0000 0.0000 12.2442 0.0000 -1.5797
# 5 -6.6537 -1.2700 -31.9150 0.0000 33.3074 0.0000
# 6 0.0000 0.0000 0.0000 -1.5797 0.0000 -0.3401
#
#
#
# Elastic Compliance Matrix: (Units=1/GPa)
#
#
# Indices 1 2 3 4 5 6 
#
# 1 0.015848 0.001073 -0.002280 0.000000 0.001022 0.000000
# 2 0.001073 0.013285 -0.001159 0.000000 -0.000390 0.000000
# 3 -0.002280 -0.001159 0.013704 0.000000 0.012631 0.000000
# 4 0.000000 0.000000 0.000000 0.051066 0.000000 -0.237223
# 5 0.001022 -0.000390 0.012631 0.000000 0.042316 0.000000
# 6 0.000000 0.000000 0.000000 -0.237223 0.000000 -1.838688
#
#
# Mechanical properties :
#
#
# Convention : Reuss Voigt Hill
#
# Bulk Modulus (GPa) = 26.24272 31.94257 29.09265
# Shear Modulus (GPa) = -2.96730 24.27557 10.65414
#
# Velocity S-wave (km/s) = -1.16784 3.34032 2.21290
# Velocity P-wave (km/s) = 3.20053 5.43679 4.46106
#
# Compressibility (1/GPa) = 0.03810581
#
# Stress axis : x y z
#
# Youngs Moduli (GPa) = 63.09915 75.27060 72.97170
#
# Poissons Ratio (x) = -0.08076 0.16636
# Poissons Ratio (y) = -0.06770 0.08458
# Poissons Ratio (z) = 0.14385 0.08724
#
# Static dielectric constant tensor:
#      x y z
#    x 1.893750 0.000000 -0.014120 
#    y 0.000000 1.767150 0.000000 
#    z -0.014120 0.000000 1.793090 
# 
# From -- ./inp_files/136490.got.cif
#   From: 2010.05.17/outbox.cif.g08.bks.cpg/sg12_69_cif.got.tgz:136490.got - 2010.06.03 13:09:07.
