data_PCOD9182362
_publ_section_title
;
Structure prediction by ZEFSAII (Michael W. Deem and Ramdas Pophale) SiO2 
 PCOD9182362
Probable space group: C 2/M
;
_chemical_formula_sum "Si O2"
_cell_formula_units_Z 64
_cell_length_a 33.769507
_cell_length_b 11.466822
_cell_length_c 19.149196
_cell_angle_alpha 90.000000
_cell_angle_beta 28.216268
_cell_angle_gamma 90.000000
_cell_volume 3505.877190
_symmetry_space_group_name_H-M "C 2/M"
_symmetry_group_IT_number 12
_symmetry_cell_setting 'monoclinic'
loop_
_space_group_symop_operation_xyz
x,y,z
-x,y,-z
-x,-y,-z
x,-y,z
1/2+x,1/2+y,z
1/2-x,1/2+y,-z
1/2-x,1/2-y,-z
1/2+x,1/2-y,z
loop_
_atom_site_type_symbol
_atom_site_label
_atom_site_fract_x
_atom_site_fract_y
_atom_site_fract_z
Si Si1 0.990830 0.359725 0.159142
Si Si2 0.033979 0.364849 0.644240
Si Si3 0.140171 0.698106 0.148656
Si Si4 0.829918 0.638389 0.179472
Si Si5 0.818479 0.743791 0.674671
Si Si6 0.591209 0.365016 0.345157
Si Si7 0.807386 0.641624 0.380755
Si Si8 0.739055 0.376125 0.921642
O O1 0.997632 0.500000 0.151049
O O2 0.984686 0.318704 0.248835
O O3 0.902108 0.335736 0.260500
O O4 0.075627 0.321766 0.987818
O O5 0.060069 0.500000 0.608944
O O6 0.107040 0.294898 0.492135
O O7 0.946806 0.358172 0.737538
O O8 0.124848 0.805968 0.224024
O O9 0.202098 0.623705 0.100765
O O10 0.184460 0.758764 0.013973
O O11 0.822897 0.500000 0.173276
O O12 0.761180 0.710458 0.243563
O O13 0.810992 0.649915 0.291174
O O14 0.853276 0.841469 0.673516
O O15 0.793664 0.641097 0.767167
O O16 0.500000 0.311237 0.500000
O O17 0.416976 0.500000 0.655073
O O18 0.787442 0.500000 0.428192
O O19 0.750000 0.750000 0.500000
O O20 0.693289 0.500000 0.989485
#
# Coordination Sequence:
#
# PCOD9182362 Si02
#       8
#     8   8   8   8   8   8   8   8
#     4   9  19  35  57  84 111 145 185 226 269 322
#     4  11  21  34  53  77 106 139 180 225 272 324
#     4  10  20  35  52  74  98 138 183 225 272 328
#     4  10  20  36  59  85 113 146 188 229 268 322
#     4  11  21  34  52  79 109 141 180 225 277 329
#     4  10  19  33  50  71 101 135 178 227 273 318
#     4  10  20  37  63  92 121 151 185 229 281 335
#     4  10  21  35  52  74 105 140 178 225 281 337
#
# _framework density 18.255061000000001
#
# number of rings (size 3 to 8) (size 9 to 14) (size 15 to 20)
#    0.000    1.875    1.250    3.375    0.000    1.500 
#    0.000    6.250    0.000    6.750    0.000    0.000 
#    0.000    0.000    0.000    0.000    0.000    0.000 
#
# Total GULP energy -178241.909445 kJ/mol
# GULP energy per Si atom -5570.059670 kJ/mol
# Density = 1.821351 g / cm^3
# Si number density = 18.255061 Si / 1000 Ang^3
#
#
#
# Elastic Constant Matrix: (Units=GPa)
#
#
# Indices 1 2 3 4 5 6 
#
# 1 83.4113 7.6936 30.3587 0.0000 -5.2265 0.0000
# 2 7.6936 56.9246 28.0196 0.0005 5.3345 0.0002
# 3 30.3587 28.0196 111.6785 0.0002 0.8082 0.0001
# 4 0.0000 0.0005 0.0002-2197.2482 0.0000 -770.2510
# 5 -5.2265 5.3345 0.8082 0.0000 31.4754 0.0000
# 6 0.0000 0.0002 0.0001 -770.2510 0.0000 -259.9985
#
#
#
# Elastic Compliance Matrix: (Units=1/GPa)
#
#
# Indices 1 2 3 4 5 6 
#
# 1 0.013478 -0.000265 -0.003614 0.000000 0.002376 0.000000
# 2 -0.000265 0.020389 -0.005019 0.000000 -0.003371 0.000000
# 3 -0.003614 -0.005019 0.011196 0.000000 -0.000037 0.000000
# 4 0.000000 0.000000 0.000000 0.011815 0.000000 -0.035003
# 5 0.002376 -0.003371 -0.000037 0.000000 0.032738 0.000000
# 6 0.000000 0.000000 0.000000 -0.035003 0.000000 0.099850
#
#
# Mechanical properties :
#
#
# Convention : Reuss Voigt Hill
#
# Bulk Modulus (GPa) = 36.67567 42.68422 39.67995
# Shear Modulus (GPa) = 23.11047 -472.75809 -224.82381
#
# Velocity S-wave (km/s) = 3.56192 -16.11012 -11.10965
# Velocity P-wave (km/s) = 6.08692 17.96149 11.94915
#
# Compressibility (1/GPa) = 0.02726603
#
# Stress axis : x y z
#
# Youngs Moduli (GPa) = 74.19706 49.04525 89.31462
#
# Poissons Ratio (x) = 0.01300 0.32282
# Poissons Ratio (y) = 0.01967 0.44828
# Poissons Ratio (z) = 0.26818 0.24616
#
# Static dielectric constant tensor:
#      x y z
#    x 1.623190 0.000000 0.010330 
#    y 0.000000 1.612030 0.000000 
#    z 0.010330 0.000000 1.682500 
# 
# From -- ./inp_files/296444.got.cif
#   From: 2010.05.17/outbox.cif.g08.bks.cpg/sg12_149_cif.got.tgz:296444.got - 2010.06.03 13:09:07.
