data_PCOD9182866
_publ_section_title
;
Structure prediction by ZEFSAII (Michael W. Deem and Ramdas Pophale) SiO2 
 PCOD9182866
Probable space group: C 2/M
;
_chemical_formula_sum "Si O2"
_cell_formula_units_Z 64
_cell_length_a 12.670277
_cell_length_b 17.729620
_cell_length_c 30.212132
_cell_angle_alpha 90.000000
_cell_angle_beta 30.241707
_cell_angle_gamma 90.000000
_cell_volume 3418.179261
_symmetry_space_group_name_H-M "C 2/M"
_symmetry_group_IT_number 12
_symmetry_cell_setting 'monoclinic'
loop_
_space_group_symop_operation_xyz
x,y,z
-x,y,-z
-x,-y,-z
x,-y,z
1/2+x,1/2+y,z
1/2-x,1/2+y,-z
1/2-x,1/2-y,-z
1/2+x,1/2-y,z
loop_
_atom_site_type_symbol
_atom_site_label
_atom_site_fract_x
_atom_site_fract_y
_atom_site_fract_z
Si Si1 0.274272 0.824454 0.290372
Si Si2 0.144533 0.619647 0.906869
Si Si3 0.476883 0.410414 0.938599
Si Si4 0.735334 0.411958 0.396460
Si Si5 0.288845 0.220773 0.833053
Si Si6 0.556685 0.585463 0.806877
Si Si7 0.480876 0.085269 0.870524
Si Si8 0.076594 0.697228 0.315030
O O1 0.235037 0.877980 0.346794
O O2 0.484847 0.777820 0.226205
O O3 0.355364 0.871633 0.219191
O O4 0.084849 0.768881 0.344970
O O5 0.148926 0.710076 0.899552
O O6 0.377575 0.595677 0.835654
O O7 0.064380 0.586148 0.890310
O O8 0.000000 0.596858 0.000000
O O9 0.507849 0.500000 0.935813
O O10 0.670364 0.358597 0.883141
O O11 0.463353 0.400233 0.890102
O O12 0.257994 0.384788 0.039571
O O13 0.500000 0.411840 0.500000
O O14 0.811275 0.500000 0.369232
O O15 0.876591 0.354103 0.374509
O O16 0.334524 0.226859 0.764224
O O17 0.632554 0.500000 0.779761
O O18 0.750069 0.639909 0.729688
O O19 0.464020 0.000000 0.860127
#
# Coordination Sequence:
#
# PCOD9182866 Si02
#       8
#     8   8   8   8   8   8   8   8
#     4  11  22  38  61  87 117 145 187 236 292 345
#     4  12  22  32  51  75 112 158 205 241 279 326
#     4   9  20  35  50  72 106 152 206 249 282 331
#     4  10  23  44  68  93 119 148 183 229 291 364
#     4  10  22  35  53  79 110 151 193 238 288 332
#     4  10  19  33  53  77 108 153 199 241 280 324
#     4  11  23  36  52  77 111 154 201 246 292 334
#     4  10  20  38  62  87 116 147 188 233 287 351
#
# _framework density 18.723417999999999
#
# number of rings (size 3 to 8) (size 9 to 14) (size 15 to 20)
#    0.000    1.625    3.750    1.125    1.750    5.000 
#    0.000    1.250    0.000    0.000    0.000    0.000 
#    0.000   10.500    0.000    0.000    0.000    0.000 
#
# Total GULP energy -178560.554729 kJ/mol
# GULP energy per Si atom -5580.017335 kJ/mol
# Density = 1.868080 g / cm^3
# Si number density = 18.723418 Si / 1000 Ang^3
#
#
#
# Elastic Constant Matrix: (Units=GPa)
#
#
# Indices 1 2 3 4 5 6 
#
# 1 75.9321 22.4807 17.9344 0.0024 -8.9718 0.0011
# 2 22.4807 83.5360 28.2186 0.0012 -4.5476 0.0010
# 3 17.9344 28.2186 54.2894 -0.0102 -4.4026 0.0033
# 4 0.0024 0.0012 -0.0102 25.2626 0.0064 -6.1734
# 5 -8.9718 -4.5476 -4.4026 0.0064 15.3644 -0.0023
# 6 0.0011 0.0010 0.0033 -6.1734 -0.0023 15.0832
#
#
#
# Elastic Compliance Matrix: (Units=1/GPa)
#
#
# Indices 1 2 3 4 5 6 
#
# 1 0.015593 -0.002737 -0.003129 -0.000005 0.007399 -0.000001
# 2 -0.002737 0.015073 -0.006858 -0.000004 0.000898 -0.000001
# 3 -0.003129 -0.006858 0.023245 0.000009 0.002804 0.000000
# 4 -0.000005 -0.000004 0.000009 0.043983 -0.000017 0.018002
# 5 0.007399 0.000898 0.002804 -0.000017 0.070475 0.000002
# 6 -0.000001 -0.000001 0.000000 0.018002 0.000002 0.073667
#
#
# Mechanical properties :
#
#
# Convention : Reuss Voigt Hill
#
# Bulk Modulus (GPa) = 35.13072 39.00276 37.06674
# Shear Modulus (GPa) = 18.05244 20.81697 19.43470
#
# Velocity S-wave (km/s) = 3.10847 3.33801 3.22528
# Velocity P-wave (km/s) = 5.62913 5.97768 5.80602
#
# Compressibility (1/GPa) = 0.02846511
#
# Stress axis : x y z
#
# Youngs Moduli (GPa) = 64.13117 66.34479 43.01960
#
# Poissons Ratio (x) = 0.18156 0.13459
# Poissons Ratio (y) = 0.17550 0.29501
# Poissons Ratio (z) = 0.20064 0.45497
#
# Static dielectric constant tensor:
#      x y z
#    x 1.668890 0.000000 0.001000 
#    y 0.000000 1.681340 0.000000 
#    z 0.001000 0.000000 1.610820 
# 
# From -- ./inp_files/306248.got.cif
#   From: 2010.05.17/outbox.cif.g08.bks.cpg/sg12_154_cif.got.tgz:306248.got - 2010.06.03 13:09:07.
