data_PCOD9182011
_publ_section_title
;
Structure prediction by ZEFSAII (Michael W. Deem and Ramdas Pophale) SiO2 
 PCOD9182011
Probable space group: C 2/M
;
_chemical_formula_sum "Si O2"
_cell_formula_units_Z 64
_cell_length_a 21.204945
_cell_length_b 8.099605
_cell_length_c 19.709182
_cell_angle_alpha 90.000000
_cell_angle_beta 89.996032
_cell_angle_gamma 90.000000
_cell_volume 3385.085083
_symmetry_space_group_name_H-M "C 2/M"
_symmetry_group_IT_number 12
_symmetry_cell_setting 'monoclinic'
loop_
_space_group_symop_operation_xyz
x,y,z
-x,y,-z
-x,-y,-z
x,-y,z
1/2+x,1/2+y,z
1/2-x,1/2+y,-z
1/2-x,1/2-y,-z
1/2+x,1/2-y,z
loop_
_atom_site_type_symbol
_atom_site_label
_atom_site_fract_x
_atom_site_fract_y
_atom_site_fract_z
Si Si1 0.940292 0.303441 0.706572
Si Si2 0.052952 0.298214 0.447531
Si Si3 0.377828 0.699110 0.082262
Si Si4 0.748979 0.199702 0.842737
Si Si5 0.804805 0.693634 0.549924
Si Si6 0.298993 0.693904 0.701822
Si Si7 0.995435 0.800246 0.843559
Si Si8 0.128446 0.201807 0.073431
O O1 0.929632 0.500000 0.705868
O O2 0.961240 0.254186 0.630766
O O3 0.872669 0.219455 0.720105
O O4 0.987485 0.258593 0.766564
O O5 0.053418 0.500000 0.450595
O O6 0.124326 0.237347 0.462413
O O7 0.000000 0.240164 0.500000
O O8 0.381143 0.500000 0.079656
O O9 0.315958 0.747527 0.123629
O O10 0.441094 0.757831 0.119736
O O11 0.373672 0.757760 0.004482
O O12 0.759051 0.258664 0.765480
O O13 0.808265 0.256274 0.888244
O O14 0.751385 0.000000 0.841032
O O15 0.810687 0.500000 0.540513
O O16 0.750000 0.750000 0.500000
O O17 0.788509 0.726831 0.628553
O O18 0.286733 0.500000 0.694273
O O19 0.933749 0.746001 0.885674
O O20 0.995605 0.000000 0.843396
O O21 0.128616 0.000000 0.073306
#
# Coordination Sequence:
#
# PCOD9182011 Si02
#       8
#     8   8   8   8   8   8   8   8
#     4  10  19  32  55  83 106 136 178 225 267 313
#     4   8  16  33  55  78 104 135 174 213 255 312
#     4  10  21  34  53  79 108 140 176 226 275 317
#     4  10  20  35  55  77 106 141 178 222 272 328
#     4  10  20  35  57  84 113 143 180 223 265 316
#     4  10  19  35  58  80 105 144 186 222 265 321
#     4  10  19  35  55  76 106 142 180 219 264 323
#     4   9  17  34  57  78  99 138 187 220 262 327
#
# _framework density 18.906466000000002
#
# number of rings (size 3 to 8) (size 9 to 14) (size 15 to 20)
#    0.000    2.375    1.250    2.625    0.000    3.000 
#    2.250    0.625    0.000   14.250    0.000    0.000 
#    0.000    0.000    0.000    0.000    0.000    0.000 
#
# Total GULP energy -178554.817658 kJ/mol
# GULP energy per Si atom -5579.838052 kJ/mol
# Density = 1.886343 g / cm^3
# Si number density = 18.906466 Si / 1000 Ang^3
#
#
#
# Elastic Constant Matrix: (Units=GPa)
#
#
# Indices 1 2 3 4 5 6 
#
# 1 143.3939 6.4170 97.2259 0.0000 -1.1417 0.0000
# 2 6.4170 7.6131 4.2410 0.0000 -0.2928 0.0000
# 3 97.2259 4.2410 153.2843 0.0000 -3.8933 0.0000
# 4 0.0000 0.0000 0.0000 22.2837 0.0000 -0.1832
# 5 -1.1417 -0.2928 -3.8933 0.0000 34.5493 0.0000
# 6 0.0000 0.0000 0.0000 -0.1832 0.0000 20.9136
#
#
#
# Elastic Compliance Matrix: (Units=1/GPa)
#
#
# Indices 1 2 3 4 5 6 
#
# 1 0.012529 -0.006242 -0.007787 0.000000 -0.000516 0.000000
# 2 -0.006242 0.136536 0.000207 0.000000 0.000974 0.000000
# 3 -0.007787 0.000207 0.011484 0.000000 0.001039 0.000000
# 4 0.000000 0.000000 0.000000 0.044879 0.000000 0.000393
# 5 -0.000516 0.000974 0.001039 0.000000 0.029052 0.000000
# 6 0.000000 0.000000 0.000000 0.000393 0.000000 0.047819
#
#
# Mechanical properties :
#
#
# Convention : Reuss Voigt Hill
#
# Bulk Modulus (GPa) = 7.52431 57.78436 32.65433
# Shear Modulus (GPa) = 14.11443 28.64315 21.37879
#
# Velocity S-wave (km/s) = 2.73525 3.89651 3.36633
# Velocity P-wave (km/s) = 3.73683 7.13256 5.69374
#
# Compressibility (1/GPa) = 0.13290256
#
# Stress axis : x y z
#
# Youngs Moduli (GPa) = 79.81344 7.32407 87.07789
#
# Poissons Ratio (x) = 0.04572 0.67812
# Poissons Ratio (y) = 0.49823 -0.01799
# Poissons Ratio (z) = 0.62155 -0.00151
#
# Static dielectric constant tensor:
#      x y z
#    x 1.641080 0.000000 0.002760 
#    y 0.000000 1.685470 0.000000 
#    z 0.002760 0.000000 1.650340 
# 
# From -- ./inp_files/281239.got.cif
#   From: 2010.05.17/outbox.cif.g08.bks.cpg/sg12_141_cif.got.tgz:281239.got - 2010.06.03 13:09:07.
