data_PCOD9182646
_publ_section_title
;
Structure prediction by ZEFSAII (Michael W. Deem and Ramdas Pophale) SiO2 
 PCOD9182646
Probable space group: C 2/M
;
_chemical_formula_sum "Si O2"
_cell_formula_units_Z 56
_cell_length_a 25.922195
_cell_length_b 14.206825
_cell_length_c 9.449028
_cell_angle_alpha 90.000000
_cell_angle_beta 133.839331
_cell_angle_gamma 90.000000
_cell_volume 2509.936881
_symmetry_space_group_name_H-M "C 2/M"
_symmetry_group_IT_number 12
_symmetry_cell_setting 'monoclinic'
loop_
_space_group_symop_operation_xyz
x,y,z
-x,y,-z
-x,-y,-z
x,-y,z
1/2+x,1/2+y,z
1/2-x,1/2+y,-z
1/2-x,1/2-y,-z
1/2+x,1/2-y,z
loop_
_atom_site_type_symbol
_atom_site_label
_atom_site_fract_x
_atom_site_fract_y
_atom_site_fract_z
Si Si1 0.094522 0.254910 0.616765
Si Si2 0.794506 0.817093 0.380897
Si Si3 0.217660 0.606738 0.968147
Si Si4 0.873246 0.892612 0.112159
Si Si5 0.183868 0.810126 0.269716
Si Si6 0.614622 0.893913 0.177584
Si Si7 0.018377 0.604211 0.278633
O O1 0.131977 0.195411 0.562296
O O2 0.078973 0.180736 0.710809
O O3 0.036592 0.319364 0.430114
O O4 0.157298 0.322293 0.799664
O O5 0.741154 0.870804 0.173742
O O6 0.806963 0.857815 0.560753
O O7 0.759847 0.713472 0.341194
O O8 0.192190 0.500000 0.906596
O O9 0.292546 0.615542 0.024550
O O10 0.896255 0.000000 0.172149
O O11 0.865326 0.863609 0.933993
O O12 0.156605 0.703607 0.245240
O O13 0.571688 0.888374 0.244853
O O14 0.647612 0.000000 0.237949
O O15 0.559026 0.889978 0.941008
O O16 0.027218 0.500000 0.356982
#
# Coordination Sequence:
#
# PCOD9182646 Si02
#       7
#     8   8   8   8   8   8   8
#     4  11  17  36  55  80 110 146 187 219 265 325
#     4  10  20  31  51  78 107 144 183 219 258 325
#     4  10  19  33  52  78 110 147 181 218 268 331
#     4  10  21  35  53  75 108 147 183 226 273 319
#     4  11  19  35  53  76 113 142 180 225 276 318
#     4   9  19  35  56  84 115 143 177 222 273 330
#     4   9  18  34  58  86 110 142 183 218 268 336
#
# _framework density 22.311318
#
# number of rings (size 3 to 8) (size 9 to 14) (size 15 to 20)
#    0.000    2.000    4.286    2.143    0.000    1.143 
#    0.000    2.857    0.000    3.429    0.000    2.000 
#    0.000    0.000    0.000    0.000    0.000    0.000 
#
# Total GULP energy -156423.669527 kJ/mol
# GULP energy per Si atom -5586.559626 kJ/mol
# Density = 2.226054 g / cm^3
# Si number density = 22.311318 Si / 1000 Ang^3
#
#
#
# Elastic Constant Matrix: (Units=GPa)
#
#
# Indices 1 2 3 4 5 6 
#
# 1 32.7941 13.6810 22.5724 0.0000 -13.0319 0.0000
# 2 13.6810 129.6510 71.4771 0.0000 -3.8765 0.0000
# 3 22.5724 71.4771 143.3003 0.0000 -29.1230 0.0000
# 4 0.0000 0.0000 0.0000 20.9469 0.0000 0.0800
# 5 -13.0319 -3.8765 -29.1230 0.0000 29.8135 0.0000
# 6 0.0000 0.0000 0.0000 0.0800 0.0000 22.5121
#
#
#
# Elastic Compliance Matrix: (Units=1/GPa)
#
#
# Indices 1 2 3 4 5 6 
#
# 1 0.038721 -0.002684 -0.001737 0.000000 0.014880 0.000000
# 2 -0.002684 0.011390 -0.006483 0.000000 -0.006025 0.000000
# 3 -0.001737 -0.006483 0.012677 0.000000 0.010781 0.000000
# 4 0.000000 0.000000 0.000000 0.047741 0.000000 -0.000170
# 5 0.014880 -0.006025 0.010781 0.000000 0.049794 0.000000
# 6 0.000000 0.000000 0.000000 -0.000170 0.000000 0.044421
#
#
# Mechanical properties :
#
#
# Convention : Reuss Voigt Hill
#
# Bulk Modulus (GPa) = 24.40123 57.91180 41.15651
# Shear Modulus (GPa) = 20.81503 27.85549 24.33526
#
# Velocity S-wave (km/s) = 3.05771 3.53723 3.30618
# Velocity P-wave (km/s) = 4.84010 6.53416 5.74986
#
# Compressibility (1/GPa) = 0.04098155
#
# Stress axis : x y z
#
# Youngs Moduli (GPa) = 25.82556 87.79482 78.88526
#
# Poissons Ratio (x) = 0.23561 0.13699
# Poissons Ratio (y) = 0.06931 0.51142
# Poissons Ratio (z) = 0.04485 0.56918
#
# Static dielectric constant tensor:
#      x y z
#    x 1.944930 0.000000 0.013440 
#    y 0.000000 1.800480 0.000000 
#    z 0.013440 0.000000 1.824020 
# 
# From -- ./inp_files/86381.got.cif
#   From: 2010.05.17/outbox.cif.g08.bks.cpg/sg12_44_cif.got.tgz:86381.got - 2010.06.03 13:09:07.
