data_PCOD9182366
_publ_section_title
;
Structure prediction by ZEFSAII (Michael W. Deem and Ramdas Pophale) SiO2 
 PCOD9182366
Probable space group: C 2/M
;
_chemical_formula_sum "Si O2"
_cell_formula_units_Z 56
_cell_length_a 15.686085
_cell_length_b 24.080095
_cell_length_c 9.351535
_cell_angle_alpha 90.000000
_cell_angle_beta 58.678814
_cell_angle_gamma 90.000000
_cell_volume 3017.512839
_symmetry_space_group_name_H-M "C 2/M"
_symmetry_group_IT_number 12
_symmetry_cell_setting 'monoclinic'
loop_
_space_group_symop_operation_xyz
x,y,z
-x,y,-z
-x,-y,-z
x,-y,z
1/2+x,1/2+y,z
1/2-x,1/2+y,-z
1/2-x,1/2-y,-z
1/2+x,1/2-y,z
loop_
_atom_site_type_symbol
_atom_site_label
_atom_site_fract_x
_atom_site_fract_y
_atom_site_fract_z
Si Si1 0.058621 0.063943 0.301591
Si Si2 0.774527 0.156978 0.913826
Si Si3 0.889031 0.312250 0.155450
Si Si4 0.267140 0.304646 0.249977
Si Si5 0.444021 0.368953 0.197724
Si Si6 0.454456 0.720698 0.690709
Si Si7 0.562462 0.831476 0.576180
O O1 0.151953 0.104647 0.183438
O O2 0.000000 0.076198 0.500000
O O3 0.973984 0.076601 0.257734
O O4 0.090172 0.000000 0.274444
O O5 0.674521 0.154550 0.908659
O O6 0.838214 0.209167 0.798589
O O7 0.761453 0.172534 0.091609
O O8 0.831352 0.252276 0.217042
O O9 0.897587 0.346294 0.298847
O O10 0.000000 0.302055 0.000000
O O11 0.330265 0.352788 0.275997
O O12 0.158908 0.304041 0.416673
O O13 0.494858 0.318038 0.237114
O O14 0.500000 0.371898 0.000000
O O15 0.500000 0.703709 0.500000
O O16 0.485387 0.783215 0.686468
O O17 0.500000 0.862247 0.500000
#
# Coordination Sequence:
#
# PCOD9182366 Si02
#       7
#     8   8   8   8   8   8   8
#     4  10  23  41  63  88 115 142 188 243 292 347
#     4  11  22  38  57  79 112 157 189 239 289 336
#     4  12  23  35  54  78 117 157 202 232 271 333
#     4  12  22  34  51  81 118 156 196 228 274 338
#     4  11  19  34  55  83 113 149 185 231 282 340
#     4  10  19  33  50  71 108 150 194 223 270 328
#     4  11  23  34  48  75 112 153 201 235 268 325
#
# _framework density 18.558330000000002
#
# number of rings (size 3 to 8) (size 9 to 14) (size 15 to 20)
#    0.000    1.000    4.286    6.429    4.000    0.286 
#    0.000    0.000    0.000    0.429    0.000    0.000 
#    0.000    2.857    0.000    0.000    0.000    0.000 
#
# Total GULP energy -155986.283524 kJ/mol
# GULP energy per Si atom -5570.938697 kJ/mol
# Density = 1.851609 g / cm^3
# Si number density = 18.558330 Si / 1000 Ang^3
#
#
#
# Elastic Constant Matrix: (Units=GPa)
#
#
# Indices 1 2 3 4 5 6 
#
# 1 132.3661 10.7472 37.2978 0.0000 8.5651 0.0000
# 2 10.7472 47.6667 1.0749 0.0000 0.9893 0.0000
# 3 37.2978 1.0749 91.4689 0.0000 20.3795 0.0000
# 4 0.0000 0.0000 0.0000 15.5140 0.0000 -4.5046
# 5 8.5651 0.9893 20.3795 0.0000 44.3190 0.0000
# 6 0.0000 0.0000 0.0000 -4.5046 0.0000 17.4449
#
#
#
# Elastic Compliance Matrix: (Units=1/GPa)
#
#
# Indices 1 2 3 4 5 6 
#
# 1 0.008701 -0.001882 -0.003521 0.000000 -0.000020 0.000000
# 2 -0.001882 0.021398 0.000603 0.000000 -0.000391 0.000000
# 3 -0.003521 0.000603 0.013607 0.000000 -0.005590 0.000000
# 4 0.000000 0.000000 0.000000 0.069682 0.000000 0.017993
# 5 -0.000020 -0.000391 -0.005590 0.000000 0.025147 0.000000
# 6 0.000000 0.000000 0.000000 0.017993 0.000000 0.061970
#
#
# Mechanical properties :
#
#
# Convention : Reuss Voigt Hill
#
# Bulk Modulus (GPa) = 29.32081 41.08237 35.20159
# Shear Modulus (GPa) = 22.57605 30.28103 26.42854
#
# Velocity S-wave (km/s) = 3.49161 4.04377 3.77779
# Velocity P-wave (km/s) = 5.66469 6.63233 6.16751
#
# Compressibility (1/GPa) = 0.03410547
#
# Stress axis : x y z
#
# Youngs Moduli (GPa) = 114.92706 46.73365 73.49198
#
# Poissons Ratio (x) = 0.08795 0.25879
# Poissons Ratio (y) = 0.21629 -0.04432
# Poissons Ratio (z) = 0.40470 -0.02819
#
# Static dielectric constant tensor:
#      x y z
#    x 1.709300 0.000000 0.018780 
#    y 0.000000 1.631760 0.000000 
#    z 0.018780 0.000000 1.649740 
# 
# From -- ./inp_files/67800.got.cif
#   From: 2010.05.17/outbox.cif.g08.bks.cpg/sg12_34_cif.got.tgz:67800.got - 2010.06.03 13:09:07.
