data_PCOD9182504
_publ_section_title
;
Structure prediction by ZEFSAII (Michael W. Deem and Ramdas Pophale) SiO2 
 PCOD9182504
Probable space group: C 2/M
;
_chemical_formula_sum "Si O2"
_cell_formula_units_Z 64
_cell_length_a 20.421834
_cell_length_b 7.503171
_cell_length_c 19.578459
_cell_angle_alpha 90.000000
_cell_angle_beta 89.788234
_cell_angle_gamma 90.000000
_cell_volume 2999.957662
_symmetry_space_group_name_H-M "C 2/M"
_symmetry_group_IT_number 12
_symmetry_cell_setting 'monoclinic'
loop_
_space_group_symop_operation_xyz
x,y,z
-x,y,-z
-x,-y,-z
x,-y,z
1/2+x,1/2+y,z
1/2-x,1/2+y,-z
1/2-x,1/2-y,-z
1/2+x,1/2-y,z
loop_
_atom_site_type_symbol
_atom_site_label
_atom_site_fract_x
_atom_site_fract_y
_atom_site_fract_z
Si Si1 0.220733 0.783559 0.345421
Si Si2 0.446153 0.291328 0.051599
Si Si3 0.054991 0.716000 0.795922
Si Si4 0.025809 0.282566 0.649179
Si Si5 0.655642 0.783205 0.569772
Si Si6 0.295703 0.207721 0.213084
Si Si7 0.598166 0.794033 0.428607
Si Si8 0.798053 0.788416 0.062077
O O1 0.274599 0.724894 0.401427
O O2 0.248042 0.722011 0.271871
O O3 0.150409 0.713749 0.367558
O O4 0.216638 0.000000 0.346169
O O5 0.439559 0.500000 0.033905
O O6 0.468897 0.276749 0.130075
O O7 0.371975 0.216002 0.049626
O O8 0.500000 0.213887 0.000000
O O9 0.055499 0.500000 0.797772
O O10 0.017432 0.772785 0.727813
O O11 0.130287 0.781051 0.787469
O O12 0.023139 0.500000 0.648600
O O13 0.097649 0.234335 0.622060
O O14 0.969818 0.216389 0.598254
O O15 0.633257 0.717271 0.495559
O O16 0.659070 0.000000 0.568140
O O17 0.272188 0.221114 0.135282
O O18 0.303705 0.000000 0.230738
O O19 0.583911 0.000000 0.446484
O O20 0.803441 0.000000 0.069611
O O21 0.750000 0.750000 0.000000
#
# Coordination Sequence:
#
# PCOD9182504 Si02
#       8
#     8   8   8   8   8   8   8   8
#     4  10  19  33  52  72 100 136 173 209 252 306
#     4   9  19  36  55  76 104 134 164 201 246 300
#     4   9  16  30  54  77  97 127 171 215 246 286
#     4   9  16  30  51  75 101 129 169 215 254 295
#     4   9  16  30  53  75  95 132 178 212 249 301
#     4   9  17  32  54  75  97 133 176 212 246 293
#     4  10  20  31  48  76 107 132 163 214 264 302
#     4  10  20  35  56  80 106 134 167 207 248 297
#
# _framework density 21.333635000000001
#
# number of rings (size 3 to 8) (size 9 to 14) (size 15 to 20)
#    0.000    2.625    1.250    1.125    0.000    2.750 
#    2.250    0.625    0.000    3.000    0.000    0.000 
#    0.000    0.000    0.000    0.000    0.000    0.000 
#
# Total GULP energy -178563.813643 kJ/mol
# GULP energy per Si atom -5580.119176 kJ/mol
# Density = 2.128508 g / cm^3
# Si number density = 21.333635 Si / 1000 Ang^3
#
#
#
# Elastic Constant Matrix: (Units=GPa)
#
#
# Indices 1 2 3 4 5 6 
#
# 1 33.8514 -7.1386 -2.7927 0.0000 4.2982 0.0000
# 2 -7.1386 54.3462 -15.3042 0.0000 -0.1727 0.0000
# 3 -2.7927 -15.3042 91.8761 0.0000 -2.9974 0.0000
# 4 0.0000 0.0000 0.0000 7.2941 0.0000 -7.2248
# 5 4.2982 -0.1727 -2.9974 0.0000 33.4870 0.0000
# 6 0.0000 0.0000 0.0000 -7.2248 0.0000 3.9453
#
#
#
# Elastic Compliance Matrix: (Units=1/GPa)
#
#
# Indices 1 2 3 4 5 6 
#
# 1 0.031109 0.004517 0.001573 0.000000 -0.003829 0.000000
# 2 0.004517 0.019967 0.003458 0.000000 -0.000167 0.000000
# 3 0.001573 0.003458 0.011536 0.000000 0.000848 0.000000
# 4 0.000000 0.000000 0.000000 -0.168452 0.000000 -0.308480
# 5 -0.003829 -0.000167 0.000848 0.000000 0.030429 0.000000
# 6 0.000000 0.000000 0.000000 -0.308480 0.000000 -0.311437
#
#
# Mechanical properties :
#
#
# Convention : Reuss Voigt Hill
#
# Bulk Modulus (GPa) = 12.23863 14.40031 13.31947
# Shear Modulus (GPa) = -13.20275 22.63256 4.71491
#
# Velocity S-wave (km/s) = -2.49041 3.26066 1.48825
# Velocity P-wave (km/s) = 1.58754 4.57609 3.03482
#
# Compressibility (1/GPa) = 0.08170850
#
# Stress axis : x y z
#
# Youngs Moduli (GPa) = 32.14467 50.08237 86.68732
#
# Poissons Ratio (x) = -0.22623 -0.13637
# Poissons Ratio (y) = -0.14520 -0.29975
# Poissons Ratio (z) = -0.05057 -0.17318
#
# Static dielectric constant tensor:
#      x y z
#    x 1.748190 0.000000 0.001930 
#    y 0.000000 1.834990 0.000000 
#    z 0.001930 0.000000 1.785480 
# 
# From -- ./inp_files/281309.got.cif
#   From: 2010.05.17/outbox.cif.g08.bks.cpg/sg12_141_cif.got.tgz:281309.got - 2010.06.03 13:09:07.
