data_PCOD9182586
_publ_section_title
;
Structure prediction by ZEFSAII (Michael W. Deem and Ramdas Pophale) SiO2 
 PCOD9182586
Probable space group: C 2/M
;
_chemical_formula_sum "Si O2"
_cell_formula_units_Z 56
_cell_length_a 22.803504
_cell_length_b 13.987729
_cell_length_c 23.567237
_cell_angle_alpha 90.000000
_cell_angle_beta 160.254075
_cell_angle_gamma 90.000000
_cell_volume 2539.692309
_symmetry_space_group_name_H-M "C 2/M"
_symmetry_group_IT_number 12
_symmetry_cell_setting 'monoclinic'
loop_
_space_group_symop_operation_xyz
x,y,z
-x,y,-z
-x,-y,-z
x,-y,z
1/2+x,1/2+y,z
1/2-x,1/2+y,-z
1/2-x,1/2-y,-z
1/2+x,1/2-y,z
loop_
_atom_site_type_symbol
_atom_site_label
_atom_site_fract_x
_atom_site_fract_y
_atom_site_fract_z
Si Si1 0.493671 0.238590 0.170145
Si Si2 0.780684 0.756307 0.243776
Si Si3 0.298753 0.387193 0.920024
Si Si4 0.753117 0.110828 0.118095
Si Si5 0.416818 0.889042 0.594370
Si Si6 0.571484 0.611508 0.336264
Si Si7 0.184437 0.245553 0.594868
O O1 0.507657 0.299739 0.239874
O O2 0.673225 0.190614 0.312797
O O3 0.447416 0.324938 0.084044
O O4 0.345946 0.160590 0.024708
O O5 0.737586 0.654568 0.175593
O O6 0.700737 0.834232 0.127927
O O7 0.738675 0.750474 0.271542
O O8 0.985126 0.781012 0.424305
O O9 0.329875 0.500000 0.949988
O O10 0.116794 0.361873 0.786572
O O11 0.958960 0.119617 0.290804
O O12 0.710881 0.000000 0.083458
O O13 0.341910 0.837001 0.470605
O O14 0.279738 0.877455 0.520525
O O15 0.424600 0.000000 0.587734
O O16 0.537105 0.500000 0.285017
#
# Coordination Sequence:
#
# PCOD9182586 Si02
#       7
#     8   8   8   8   8   8   8
#     4  10  19  33  52  76 103 132 162 204 254 301
#     4   9  19  36  53  70  97 133 172 213 247 289
#     4   9  17  29  47  75 107 134 162 197 244 301
#     4  10  21  36  52  73 101 133 169 209 253 297
#     4   8  15  29  50  76 104 135 167 199 241 296
#     4   9  17  32  54  77 103 134 166 200 243 298
#     4   9  18  34  53  72  97 130 171 213 252 293
#
# _framework density 22.049914999999999
#
# number of rings (size 3 to 8) (size 9 to 14) (size 15 to 20)
#    0.000    2.857    0.000    0.857    0.000    3.429 
#    0.000   20.000    0.000    3.429    0.000    0.000 
#    0.000    0.000    0.000    0.000    0.000    0.000 
#
# Total GULP energy -155881.355684 kJ/mol
# GULP energy per Si atom -5567.191274 kJ/mol
# Density = 2.199973 g / cm^3
# Si number density = 22.049915 Si / 1000 Ang^3
#
#
#
# Elastic Constant Matrix: (Units=GPa)
#
#
# Indices 1 2 3 4 5 6 
#
# 1 81.4696 40.5834 4.1253 -0.0010 8.0836 -0.0002
# 2 40.5834 101.5767 14.9959 0.0161 -3.8223 0.0055
# 3 4.1253 14.9959 50.2094 0.0238 15.8896 0.0117
# 4 -0.0010 0.0161 0.0238 17.3842 0.0075 3.1947
# 5 8.0836 -3.8223 15.8896 0.0075 24.1382 0.0021
# 6 -0.0002 0.0055 0.0117 3.1947 0.0021 3.5698
#
#
#
# Elastic Compliance Matrix: (Units=1/GPa)
#
#
# Indices 1 2 3 4 5 6 
#
# 1 0.016819 -0.007645 0.003874 0.000007 -0.009393 -0.000001
# 2 -0.007645 0.014198 -0.006485 -0.000009 0.009078 0.000002
# 3 0.003874 -0.006485 0.028131 -0.000013 -0.020842 -0.000059
# 4 0.000007 -0.000009 -0.000013 0.068846 -0.000012 -0.061614
# 5 -0.009393 0.009078 -0.020842 -0.000012 0.059731 0.000030
# 6 -0.000001 0.000002 -0.000059 -0.061614 0.000030 0.335272
#
#
# Mechanical properties :
#
#
# Convention : Reuss Voigt Hill
#
# Bulk Modulus (GPa) = 25.88277 39.18500 32.53388
# Shear Modulus (GPa) = 8.98654 20.58851 14.78752
#
# Velocity S-wave (km/s) = 2.02099 3.05900 2.59248
# Velocity P-wave (km/s) = 4.14845 5.50330 4.87319
#
# Compressibility (1/GPa) = 0.03863574
#
# Stress axis : x y z
#
# Youngs Moduli (GPa) = 59.45781 70.43133 35.54788
#
# Poissons Ratio (x) = 0.53845 -0.13771
# Poissons Ratio (y) = 0.45456 0.23053
# Poissons Ratio (z) = -0.23034 0.45676
#
# Static dielectric constant tensor:
#      x y z
#    x 1.820150 0.000000 0.012520 
#    y 0.000000 1.775650 -0.000010 
#    z 0.012520 -0.000010 1.944500 
# 
# From -- ./inp_files/368090.got.cif
#   From: 2010.05.17/outbox.cif.g08.bks.cpg/sg12_185_cif.got.tgz:368090.got - 2010.06.03 13:09:07.
