data_PCOD9182576
_publ_section_title
;
Structure prediction by ZEFSAII (Michael W. Deem and Ramdas Pophale) SiO2 
 PCOD9182576
Probable space group: C 2/M
;
_chemical_formula_sum "Si O2"
_cell_formula_units_Z 56
_cell_length_a 14.307869
_cell_length_b 26.553768
_cell_length_c 15.171097
_cell_angle_alpha 90.000000
_cell_angle_beta 152.497062
_cell_angle_gamma 90.000000
_cell_volume 2661.745163
_symmetry_space_group_name_H-M "C 2/M"
_symmetry_group_IT_number 12
_symmetry_cell_setting 'monoclinic'
loop_
_space_group_symop_operation_xyz
x,y,z
-x,y,-z
-x,-y,-z
x,-y,z
1/2+x,1/2+y,z
1/2-x,1/2+y,-z
1/2-x,1/2-y,-z
1/2+x,1/2-y,z
loop_
_atom_site_type_symbol
_atom_site_label
_atom_site_fract_x
_atom_site_fract_y
_atom_site_fract_z
Si Si1 0.629378 0.696460 0.803827
Si Si2 0.741155 0.724168 0.714291
Si Si3 0.594140 0.500000 0.229424
Si Si4 0.368212 0.895043 0.208702
Si Si5 0.504351 0.799533 0.242414
Si Si6 0.995126 0.895588 0.778405
Si Si7 0.678067 0.000000 0.761832
Si Si8 0.242443 0.659116 0.717492
O O1 0.766126 0.699703 0.831166
O O2 0.494952 0.747587 0.700655
O O3 0.511380 0.643721 0.711526
O O4 0.777146 0.697797 0.012033
O O5 0.500000 0.721153 0.500000
O O6 0.799180 0.782637 0.770411
O O7 0.849929 0.702785 0.719407
O O8 0.595095 0.451293 0.292743
O O9 0.761568 0.500000 0.291101
O O10 0.387340 0.500000 0.995580
O O11 0.525374 0.850826 0.315585
O O12 0.432482 0.948481 0.302512
O O13 0.228267 0.870025 0.166916
O O14 0.225458 0.904210 0.005390
O O15 0.866083 0.866042 0.743534
O O16 0.000000 0.655927 0.500000
#
# Coordination Sequence:
#
# PCOD9182576 Si02
#       8
#     8   8   4   8   8   8   4   8
#     4  10  20  33  53  77 101 131 170 213 252 296
#     4  11  23  35  50  73 106 140 169 206 253 306
#     4   9  16  28  52  79 102 131 165 204 250 300
#     4  10  19  33  52  75 103 136 169 204 248 300
#     4  10  20  33  53  77 101 131 170 213 252 296
#     4  10  19  33  52  75 103 136 169 204 248 300
#     4   9  16  28  52  79 102 131 165 204 250 300
#     4  11  21  30  46  75 107 137 166 204 247 298
#
# _framework density 21.038827999999999
#
# number of rings (size 3 to 8) (size 9 to 14) (size 15 to 20)
#    0.000    1.857    4.286    0.857    0.000    2.857 
#    0.000    1.429    0.000    0.857    0.000    6.000 
#    0.000    0.000    0.000    0.000    0.000    0.000 
#
# Total GULP energy -156386.931184 kJ/mol
# GULP energy per Si atom -5585.247542 kJ/mol
# Density = 2.099094 g / cm^3
# Si number density = 21.038828 Si / 1000 Ang^3
#
#
#
# Elastic Constant Matrix: (Units=GPa)
#
#
# Indices 1 2 3 4 5 6 
#
# 1 128.1207 88.0125 -8.4329 0.0001 10.6450 0.0001
# 2 88.0125 214.2543 1.8635 0.0000 6.8667 0.0000
# 3 -8.4329 1.8635 54.6069 0.0003 5.1499 0.0002
# 4 0.0001 0.0000 0.0003 8.8519 0.0002 4.7787
# 5 10.6450 6.8667 5.1499 0.0002 24.8509 0.0002
# 6 0.0001 0.0000 0.0002 4.7787 0.0002 42.0758
#
#
#
# Elastic Compliance Matrix: (Units=1/GPa)
#
#
# Indices 1 2 3 4 5 6 
#
# 1 0.011455 -0.004594 0.002314 0.000000 -0.004117 0.000000
# 2 -0.004594 0.006551 -0.000967 0.000000 0.000358 0.000000
# 3 0.002314 -0.000967 0.019146 -0.000001 -0.004692 0.000000
# 4 0.000000 0.000000 -0.000001 0.120349 -0.000001 -0.013668
# 5 -0.004117 0.000358 -0.004692 -0.000001 0.042877 0.000000
# 6 0.000000 0.000000 0.000000 -0.013668 0.000000 0.025319
#
#
# Mechanical properties :
#
#
# Convention : Reuss Voigt Hill
#
# Bulk Modulus (GPa) = 32.61670 62.20758 47.41214
# Shear Modulus (GPa) = 20.62626 36.19165 28.40895
#
# Velocity S-wave (km/s) = 3.13451 4.15207 3.67864
# Velocity P-wave (km/s) = 5.35135 7.25385 6.37399
#
# Compressibility (1/GPa) = 0.03065914
#
# Stress axis : x y z
#
# Youngs Moduli (GPa) = 87.29613 152.63992 52.23158
#
# Poissons Ratio (x) = 0.70120 -0.12087
# Poissons Ratio (y) = 0.40102 0.05049
# Poissons Ratio (z) = -0.20201 0.14756
#
# Static dielectric constant tensor:
#      x y z
#    x 1.714720 0.000000 -0.013260 
#    y 0.000000 1.791540 0.000000 
#    z -0.013260 0.000000 1.881810 
# 
# From -- ./inp_files/209199.got.cif
#   From: 2010.05.17/outbox.cif.g08.bks.cpg/sg12_105_cif.got.tgz:209199.got - 2010.06.03 13:09:07.
