data_PCOD9182732
_publ_section_title
;
Structure prediction by ZEFSAII (Michael W. Deem and Ramdas Pophale) SiO2 
 PCOD9182732
Probable space group: C 2/M
;
_chemical_formula_sum "Si O2"
_cell_formula_units_Z 64
_cell_length_a 19.930351
_cell_length_b 7.354321
_cell_length_c 27.044771
_cell_angle_alpha 90.000000
_cell_angle_beta 135.443700
_cell_angle_gamma 90.000000
_cell_volume 2781.227225
_symmetry_space_group_name_H-M "C 2/M"
_symmetry_group_IT_number 12
_symmetry_cell_setting 'monoclinic'
loop_
_space_group_symop_operation_xyz
x,y,z
-x,y,-z
-x,-y,-z
x,-y,z
1/2+x,1/2+y,z
1/2-x,1/2+y,-z
1/2-x,1/2-y,-z
1/2+x,1/2-y,z
loop_
_atom_site_type_symbol
_atom_site_label
_atom_site_fract_x
_atom_site_fract_y
_atom_site_fract_z
Si Si1 0.271330 0.716929 0.568656
Si Si2 0.511536 0.213808 0.899632
Si Si3 0.798131 0.278654 0.947979
Si Si4 0.912784 0.218126 0.162646
Si Si5 0.634745 0.720009 0.681757
Si Si6 0.606722 0.790130 0.554569
Si Si7 0.314853 0.778312 0.842095
Si Si8 0.012227 0.222136 0.315020
O O1 0.275130 0.500000 0.579097
O O2 0.250000 0.750000 0.500000
O O3 0.186579 0.788509 0.559475
O O4 0.379080 0.784861 0.634584
O O5 0.514408 0.234614 0.842410
O O6 0.414799 0.287200 0.872253
O O7 0.511731 0.000000 0.911744
O O8 0.610395 0.288858 0.973843
O O9 0.798069 0.500000 0.951159
O O10 0.692678 0.215098 0.908074
O O11 0.807562 0.228409 0.895468
O O12 0.947710 0.280441 0.234601
O O13 0.907233 0.000000 0.162810
O O14 0.634801 0.500000 0.680134
O O15 0.641696 0.785133 0.629434
O O16 0.724627 0.779132 0.762118
O O17 0.538638 0.776976 0.660510
O O18 0.500000 0.707570 0.500000
O O19 0.594131 0.000000 0.531954
O O20 0.313562 0.000000 0.840297
O O21 0.012692 0.000000 0.315381
#
# Coordination Sequence:
#
# PCOD9182732 Si02
#       8
#     8   8   8   8   8   8   8   8
#     4  10  21  37  57  80 106 137 171 207 249 302
#     4  10  20  31  49  77 106 132 168 219 265 305
#     4   9  16  31  53  74  98 136 178 213 255 306
#     4  10  19  33  53  74 101 139 176 210 254 309
#     4  10  19  34  57  79 101 133 178 222 250 289
#     4  10  22  38  55  79 112 141 164 201 260 317
#     4   9  17  31  51  76 103 133 173 218 259 299
#     4   9  18  34  55  76 100 135 177 214 249 297
#
# _framework density 23.011424999999999
#
# number of rings (size 3 to 8) (size 9 to 14) (size 15 to 20)
#    0.000    2.375    1.250    1.500    1.750    2.250 
#    0.000    1.250    0.000    3.000    0.000    0.000 
#    0.000    0.000    0.000    0.000    0.000    0.000 
#
# Total GULP energy -178843.058014 kJ/mol
# GULP energy per Si atom -5588.845563 kJ/mol
# Density = 2.295905 g / cm^3
# Si number density = 23.011425 Si / 1000 Ang^3
#
#
#
# Elastic Constant Matrix: (Units=GPa)
#
#
# Indices 1 2 3 4 5 6 
#
# 1 180.9926 -0.6304 54.0826 0.0000 11.3468 0.0000
# 2 -0.6304 85.7758 -4.3118 0.0000 12.2705 -0.0001
# 3 54.0826 -4.3118 91.9958 0.0000 3.7944 0.0000
# 4 0.0000 0.0000 0.0000 -0.9426 0.0000 -13.8555
# 5 11.3468 12.2705 3.7944 0.0000 37.2206 0.0000
# 6 0.0000 -0.0001 0.0000 -13.8555 0.0000 -0.8916
#
#
#
# Elastic Compliance Matrix: (Units=1/GPa)
#
#
# Indices 1 2 3 4 5 6 
#
# 1 0.006806 0.000097 -0.003926 0.000000 -0.001706 0.000000
# 2 0.000097 0.012287 0.000690 0.000000 -0.004151 0.000000
# 3 -0.003926 0.000690 0.013226 0.000000 -0.000379 0.000000
# 4 0.000000 0.000000 0.000000 0.004665 0.000000 -0.072491
# 5 -0.001706 -0.004151 -0.000379 0.000000 0.028794 0.000000
# 6 0.000000 0.000000 0.000000 -0.072491 0.000000 0.004932
#
#
# Mechanical properties :
#
#
# Convention : Reuss Voigt Hill
#
# Bulk Modulus (GPa) = 38.40079 50.78278 44.59179
# Shear Modulus (GPa) = 58.36510 27.71886 43.04198
#
# Velocity S-wave (km/s) = 5.04169 3.47446 4.32957
# Velocity P-wave (km/s) = 7.11445 6.18160 6.66437
#
# Compressibility (1/GPa) = 0.02604113
#
# Stress axis : x y z
#
# Youngs Moduli (GPa) = 146.93986 81.38368 75.60854
#
# Poissons Ratio (x) = -0.00787 0.29683
# Poissons Ratio (y) = -0.01422 -0.05219
# Poissons Ratio (z) = 0.57687 -0.05617
#
# Static dielectric constant tensor:
#      x y z
#    x 1.836330 0.000000 0.028320 
#    y 0.000000 1.891970 0.000000 
#    z 0.028320 0.000000 1.812230 
# 
# From -- ./inp_files/343053.got.cif
#   From: 2010.05.17/outbox.cif.g08.bks.cpg/sg12_172_cif.got.tgz:343053.got - 2010.06.03 13:09:07.
