data_PCOD9182812
_publ_section_title
;
Structure prediction by ZEFSAII (Michael W. Deem and Ramdas Pophale) SiO2 
 PCOD9182812
Probable space group: C 2/M
;
_chemical_formula_sum "Si O2"
_cell_formula_units_Z 64
_cell_length_a 15.678661
_cell_length_b 13.884352
_cell_length_c 21.784766
_cell_angle_alpha 90.000000
_cell_angle_beta 136.030345
_cell_angle_gamma 90.000000
_cell_volume 3292.459552
_symmetry_space_group_name_H-M "C 2/M"
_symmetry_group_IT_number 12
_symmetry_cell_setting 'monoclinic'
loop_
_space_group_symop_operation_xyz
x,y,z
-x,y,-z
-x,-y,-z
x,-y,z
1/2+x,1/2+y,z
1/2-x,1/2+y,-z
1/2-x,1/2-y,-z
1/2+x,1/2-y,z
loop_
_atom_site_type_symbol
_atom_site_label
_atom_site_fract_x
_atom_site_fract_y
_atom_site_fract_z
Si Si1 0.282835 0.385633 0.144440
Si Si2 0.119795 0.738343 0.525983
Si Si3 0.681645 0.114026 0.353518
Si Si4 0.493955 0.885633 0.355560
Si Si5 0.741718 0.114703 0.696277
Si Si6 0.474608 0.385974 0.146482
Si Si7 0.849163 0.385297 0.803723
Si Si8 0.932172 0.261657 0.025983
O O1 0.256116 0.500000 0.122327
O O2 0.414688 0.367937 0.182111
O O3 0.260261 0.364869 0.204535
O O4 0.184417 0.322344 0.056489
O O5 0.213846 0.823286 0.559746
O O6 0.187655 0.667016 0.608752
O O7 0.000000 0.776991 0.500000
O O8 0.071440 0.677656 0.443511
O O9 0.550465 0.132063 0.317889
O O10 0.680993 0.141121 0.281565
O O11 0.707010 0.000000 0.371465
O O12 0.351192 0.864869 0.295465
O O13 0.511462 0.000000 0.377673
O O14 0.882138 0.141121 0.781565
O O15 0.739638 0.000000 0.684401
O O16 0.464080 0.500000 0.128535
O O17 0.405646 0.323286 0.059746
O O18 0.870836 0.500000 0.815599
O O19 0.970151 0.332984 0.891248
O O20 0.000000 0.223009 0.000000
#
# Coordination Sequence:
#
# PCOD9182812 Si02
#       8
#     8   8   8   8   8   8   8   8
#     4   9  18  34  56  79 102 133 174 216 256 302
#     4  10  19  33  53  76 104 137 172 210 256 306
#     4  10  20  34  52  77 109 139 170 210 257 309
#     4   9  18  34  56  79 102 133 174 216 256 302
#     4   9  18  34  55  77 101 132 173 218 257 298
#     4  10  20  34  52  77 109 139 170 210 257 309
#     4   9  18  34  55  77 101 132 173 218 257 298
#     4  10  19  33  53  76 104 137 172 210 256 306
#
# _framework density 19.438354
#
# number of rings (size 3 to 8) (size 9 to 14) (size 15 to 20)
#    0.000    2.500    0.000    2.250    0.000    3.500 
#    0.000   12.500    0.000    6.000    0.000    0.000 
#    0.000    0.000    0.000    0.000    0.000    0.000 
#
# Total GULP energy -178542.881296 kJ/mol
# GULP energy per Si atom -5579.465040 kJ/mol
# Density = 1.939411 g / cm^3
# Si number density = 19.438354 Si / 1000 Ang^3
#
#
#
# Elastic Constant Matrix: (Units=GPa)
#
#
# Indices 1 2 3 4 5 6 
#
# 1 155.4734 43.6523 51.7093 0.0000 -6.8383 0.0000
# 2 43.6523 61.7250 18.7897 0.0000 -3.0627 0.0000
# 3 51.7093 18.7897 49.1790 0.0000 -6.2558 0.0000
# 4 0.0000 0.0000 0.0000 27.3492 0.0000 2.7094
# 5 -6.8383 -3.0627 -6.2558 0.0000 24.1980 0.0000
# 6 0.0000 0.0000 0.0000 2.7094 0.0000 5.3547
#
#
#
# Elastic Compliance Matrix: (Units=1/GPa)
#
#
# Indices 1 2 3 4 5 6 
#
# 1 0.011033 -0.004834 -0.009756 0.000000 -0.000016 0.000000
# 2 -0.004834 0.020457 -0.002666 0.000000 0.000534 0.000000
# 3 -0.009756 -0.002666 0.032278 0.000000 0.005250 0.000000
# 4 0.000000 0.000000 0.000000 0.038494 0.000000 -0.019478
# 5 -0.000016 0.000534 0.005250 0.000000 0.042746 0.000000
# 6 0.000000 0.000000 0.000000 -0.019478 0.000000 0.196608
#
#
# Mechanical properties :
#
#
# Convention : Reuss Voigt Hill
#
# Bulk Modulus (GPa) = 34.17900 54.96443 44.57172
# Shear Modulus (GPa) = 12.95737 21.52878 17.24308
#
# Velocity S-wave (km/s) = 2.58464 3.33159 2.98159
# Velocity P-wave (km/s) = 5.15059 6.56787 5.90193
#
# Compressibility (1/GPa) = 0.02925773
#
# Stress axis : x y z
#
# Youngs Moduli (GPa) = 90.63519 48.88228 30.98050
#
# Poissons Ratio (x) = 0.23628 0.30225
# Poissons Ratio (y) = 0.43810 0.08259
# Poissons Ratio (z) = 0.88425 0.13031
#
# Static dielectric constant tensor:
#      x y z
#    x 1.711690 0.000000 -0.008410 
#    y 0.000000 1.675800 0.000000 
#    z -0.008410 0.000000 1.643460 
# 
# From -- ./inp_files/270703.got.cif
#   From: 2010.05.17/outbox.cif.g08.bks.cpg/sg12_136_cif.got.tgz:270703.got - 2010.06.03 13:09:07.
