data_PCOD9182329
_publ_section_title
;
Structure prediction by ZEFSAII (Michael W. Deem and Ramdas Pophale) SiO2 
 PCOD9182329
Probable space group: C 2/M
;
_chemical_formula_sum "Si O2"
_cell_formula_units_Z 56
_cell_length_a 18.657638
_cell_length_b 12.234860
_cell_length_c 17.360175
_cell_angle_alpha 90.000000
_cell_angle_beta 124.142294
_cell_angle_gamma 90.000000
_cell_volume 3279.854089
_symmetry_space_group_name_H-M "C 2/M"
_symmetry_group_IT_number 12
_symmetry_cell_setting 'monoclinic'
loop_
_space_group_symop_operation_xyz
x,y,z
-x,y,-z
-x,-y,-z
x,-y,z
1/2+x,1/2+y,z
1/2-x,1/2+y,-z
1/2-x,1/2-y,-z
1/2+x,1/2-y,z
loop_
_atom_site_type_symbol
_atom_site_label
_atom_site_fract_x
_atom_site_fract_y
_atom_site_fract_z
Si Si1 0.362100 0.132524 0.378086
Si Si2 0.231019 0.122723 0.889095
Si Si3 0.375181 0.206944 0.086963
Si Si4 0.458005 0.868284 0.592763
Si Si5 0.598409 0.620613 0.031675
Si Si6 0.198971 0.259982 0.214264
Si Si7 0.063145 0.370769 0.247419
O O1 0.444050 0.160634 0.372745
O O2 0.394401 0.159539 0.484091
O O3 0.279857 0.203504 0.304935
O O4 0.347456 0.000000 0.364407
O O5 0.166971 0.223819 0.869003
O O6 0.272046 0.148300 0.830411
O O7 0.194276 0.000000 0.868477
O O8 0.303649 0.132991 0.000573
O O9 0.463181 0.146831 0.162240
O O10 0.396218 0.298429 0.036180
O O11 0.431117 0.829229 0.660890
O O12 0.458288 0.000000 0.596619
O O13 0.628225 0.500000 0.027487
O O14 0.654868 0.667584 0.134906
O O15 0.500000 0.616773 0.000000
O O16 0.128741 0.308147 0.230930
O O17 0.082500 0.500000 0.256386
#
# Coordination Sequence:
#
# PCOD9182329 Si02
#       7
#     8   8   8   8   8   8   8
#     4   9  17  34  56  79 102 128 169 218 256 295
#     4  10  21  35  51  75 104 135 171 215 252 297
#     4  10  20  35  53  74  97 137 180 208 252 301
#     4   8  17  33  55  77 100 129 166 214 260 297
#     4  10  19  33  49  71 103 135 171 214 248 286
#     4  11  21  32  51  78 105 139 172 200 255 313
#     4  11  21  34  51  76 105 136 169 208 253 307
#
# _framework density 17.073931000000002
#
# number of rings (size 3 to 8) (size 9 to 14) (size 15 to 20)
#    0.000    2.143    1.429    3.429    0.000    0.571 
#    0.000    6.429    0.000    0.000    0.000   20.000 
#    0.000    0.000    0.000    0.000    0.000    0.000 
#
# Total GULP energy -156116.027295 kJ/mol
# GULP energy per Si atom -5575.572403 kJ/mol
# Density = 1.703507 g / cm^3
# Si number density = 17.073931 Si / 1000 Ang^3
#
#
#
# Elastic Constant Matrix: (Units=GPa)
#
#
# Indices 1 2 3 4 5 6 
#
# 1 68.2142 0.3904 27.1373 0.0000 -6.5363 0.0000
# 2 0.3904 46.0831 4.3564 0.0000 2.2369 0.0000
# 3 27.1373 4.3564 69.3292 0.0000 0.1901 0.0000
# 4 0.0000 0.0000 0.0000 36.9662 0.0000 11.1510
# 5 -6.5363 2.2369 0.1901 0.0000 33.2559 0.0000
# 6 0.0000 0.0000 0.0000 11.1510 0.0000 5.3310
#
#
#
# Elastic Compliance Matrix: (Units=1/GPa)
#
#
# Indices 1 2 3 4 5 6 
#
# 1 0.017774 0.000340 -0.006988 0.000000 0.003511 0.000000
# 2 0.000340 0.021907 -0.001506 0.000000 -0.001398 0.000000
# 3 -0.006988 -0.001506 0.017258 0.000000 -0.001371 0.000000
# 4 0.000000 0.000000 0.000000 0.073306 0.000000 -0.153335
# 5 0.003511 -0.001398 -0.001371 0.000000 0.030862 0.000000
# 6 0.000000 0.000000 0.000000 -0.153335 0.000000 0.508316
#
#
# Mechanical properties :
#
#
# Convention : Reuss Voigt Hill
#
# Bulk Modulus (GPa) = 24.61200 27.48828 26.05014
# Shear Modulus (GPa) = 7.15027 25.22678 16.18852
#
# Velocity S-wave (km/s) = 2.04864 3.84800 3.08253
# Velocity P-wave (km/s) = 4.47685 5.98977 5.28770
#
# Compressibility (1/GPa) = 0.04063059
#
# Stress axis : x y z
#
# Youngs Moduli (GPa) = 56.26112 45.64701 57.94513
#
# Poissons Ratio (x) = -0.01550 0.40494
# Poissons Ratio (y) = -0.01911 0.08725
# Poissons Ratio (z) = 0.39317 0.06873
#
# Static dielectric constant tensor:
#      x y z
#    x 1.601850 0.000000 -0.013540 
#    y 0.000000 1.557720 0.000000 
#    z -0.013540 0.000000 1.579820 
# 
# From -- ./inp_files/223173.got.cif
#   From: 2010.05.17/outbox.cif.g08.bks.cpg/sg12_112_cif.got.tgz:223173.got - 2010.06.03 13:09:07.
