data_PCOD9182187
_publ_section_title
;
Structure prediction by ZEFSAII (Michael W. Deem and Ramdas Pophale) SiO2 
 PCOD9182187
Probable space group: C 2/M
;
_chemical_formula_sum "Si O2"
_cell_formula_units_Z 64
_cell_length_a 24.697017
_cell_length_b 14.351686
_cell_length_c 15.192293
_cell_angle_alpha 90.000000
_cell_angle_beta 145.278337
_cell_angle_gamma 90.000000
_cell_volume 3067.138293
_symmetry_space_group_name_H-M "C 2/M"
_symmetry_group_IT_number 12
_symmetry_cell_setting 'monoclinic'
loop_
_space_group_symop_operation_xyz
x,y,z
-x,y,-z
-x,-y,-z
x,-y,z
1/2+x,1/2+y,z
1/2-x,1/2+y,-z
1/2-x,1/2-y,-z
1/2+x,1/2-y,z
loop_
_atom_site_type_symbol
_atom_site_label
_atom_site_fract_x
_atom_site_fract_y
_atom_site_fract_z
Si Si1 0.934384 0.259140 0.278117
Si Si2 0.192649 0.652506 0.426813
Si Si3 0.563812 0.260273 0.004970
Si Si4 0.971669 0.611457 0.170718
Si Si5 0.703706 0.397221 0.602397
Si Si6 0.856433 0.267549 0.358019
Si Si7 0.998649 0.891281 0.233617
Si Si8 0.726114 0.397615 0.280390
O O1 0.858905 0.260895 0.256060
O O2 0.934171 0.166804 0.216804
O O3 0.935760 0.348126 0.215773
O O4 0.037075 0.259420 0.462456
O O5 0.250000 0.750000 0.500000
O O6 0.080611 0.648132 0.299761
O O7 0.212713 0.611003 0.357488
O O8 0.241326 0.602685 0.574988
O O9 0.588073 0.168915 0.981226
O O10 0.510837 0.333538 0.869083
O O11 0.500000 0.228926 0.000000
O O12 0.647616 0.320326 0.158227
O O13 0.969363 0.500000 0.161663
O O14 0.703692 0.500000 0.642704
O O15 0.698464 0.316593 0.667210
O O16 0.606363 0.387824 0.414506
O O17 0.813112 0.363562 0.336053
O O18 0.972964 0.000000 0.190604
O O19 0.692134 0.500000 0.210671
#
# Coordination Sequence:
#
# PCOD9182187 Si02
#       8
#     8   8   8   8   8   8   8   8
#     4   9  19  37  60  87 121 158 203 255 306 361
#     4  12  20  37  62  92 129 161 200 255 312 368
#     4  11  24  40  58  87 123 164 199 246 305 364
#     4  11  23  41  64  90 122 168 211 246 304 375
#     4  10  19  32  56  89 121 158 203 252 306 366
#     4  10  20  36  58  89 124 156 197 259 315 355
#     4   9  18  35  56  82 117 162 208 244 297 362
#     4  12  24  38  60  92 124 158 205 257 309 362
#
# _framework density 20.866356
#
# number of rings (size 3 to 8) (size 9 to 14) (size 15 to 20)
#    0.000    1.500    2.500    4.500    0.000    3.250 
#    0.000    6.875    0.000    1.500    0.000    0.000 
#    0.000    0.000    0.000    0.000    0.000    0.000 
#
# Total GULP energy -178689.723877 kJ/mol
# GULP energy per Si atom -5584.053871 kJ/mol
# Density = 2.081886 g / cm^3
# Si number density = 20.866356 Si / 1000 Ang^3
#
#
#
# Elastic Constant Matrix: (Units=GPa)
#
#
# Indices 1 2 3 4 5 6 
#
# 1 131.9639 39.8469 21.5573 0.0000 -33.2587 0.0000
# 2 39.8469 132.1527 19.5144 0.0000 -10.0063 0.0000
# 3 21.5573 19.5144 50.3258 0.0000 -6.3300 0.0000
# 4 0.0000 0.0000 0.0000 14.4800 0.0000 2.7441
# 5 -33.2587 -10.0063 -6.3300 0.0000 24.3607 0.0000
# 6 0.0000 0.0000 0.0000 2.7441 0.0000 -8.9627
#
#
#
# Elastic Compliance Matrix: (Units=1/GPa)
#
#
# Indices 1 2 3 4 5 6 
#
# 1 0.012614 -0.002240 -0.002568 0.000000 0.015634 0.000000
# 2 -0.002240 0.008584 -0.002388 0.000000 -0.000154 0.000000
# 3 -0.002568 -0.002388 0.022053 0.000000 0.001243 0.000000
# 4 0.000000 0.000000 0.000000 0.065274 0.000000 0.019984
# 5 0.015634 -0.000154 0.001243 0.000000 0.062654 0.000000
# 6 0.000000 0.000000 0.000000 0.019984 0.000000 -0.105455
#
#
# Mechanical properties :
#
#
# Convention : Reuss Voigt Hill
#
# Bulk Modulus (GPa) = 34.65304 52.91996 43.78650
# Shear Modulus (GPa) = 55.71922 21.54385 38.63154
#
# Velocity S-wave (km/s) = 5.17309 3.21669 4.30743
# Velocity P-wave (km/s) = 7.23356 6.26199 6.76524
#
# Compressibility (1/GPa) = 0.02885750
#
# Stress axis : x y z
#
# Youngs Moduli (GPa) = 79.27662 116.50211 45.34547
#
# Poissons Ratio (x) = 0.26101 0.11645
# Poissons Ratio (y) = 0.17761 0.10828
# Poissons Ratio (z) = 0.20359 0.27820
#
# Static dielectric constant tensor:
#      x y z
#    x 1.727890 0.000000 0.027420 
#    y 0.000000 1.746730 0.000000 
#    z 0.027420 0.000000 1.778930 
# 
# From -- ./inp_files/240701.got.cif
#   From: 2010.05.17/outbox.cif.g08.bks.cpg/sg12_121_cif.got.tgz:240701.got - 2010.06.03 13:09:07.
