data_PCOD9182893
_publ_section_title
;
Structure prediction by ZEFSAII (Michael W. Deem and Ramdas Pophale) SiO2 
 PCOD9182893
Probable space group: C 2/M
;
_chemical_formula_sum "Si O2"
_cell_formula_units_Z 50
_cell_length_a 14.997688
_cell_length_b 7.547486
_cell_length_c 16.963036
_cell_angle_alpha 90.000000
_cell_angle_beta 86.468505
_cell_angle_gamma 90.000000
_cell_volume 1916.481999
_symmetry_space_group_name_H-M "C 2/M"
_symmetry_group_IT_number 12
_symmetry_cell_setting 'monoclinic'
loop_
_space_group_symop_operation_xyz
x,y,z
-x,y,-z
-x,-y,-z
x,-y,z
1/2+x,1/2+y,z
1/2-x,1/2+y,-z
1/2-x,1/2-y,-z
1/2+x,1/2-y,z
loop_
_atom_site_type_symbol
_atom_site_label
_atom_site_fract_x
_atom_site_fract_y
_atom_site_fract_z
Si Si1 0.377821 0.807966 0.059958
Si Si2 0.000000 0.000000 0.000000
Si Si3 0.531033 0.216432 0.232679
Si Si4 0.161239 0.710524 0.357424
Si Si5 0.852214 0.287792 0.305069
Si Si6 0.399579 0.784321 0.477821
Si Si7 0.810061 0.703264 0.882646
O O1 0.428454 0.723972 0.240734
O O2 0.419325 0.000000 0.073369
O O3 0.449156 0.654003 0.055580
O O4 0.340475 0.799442 0.972156
O O5 0.573481 0.265851 0.314917
O O6 0.605522 0.282739 0.167740
O O7 0.531394 0.000000 0.226129
O O8 0.155081 0.500000 0.364559
O O9 0.248306 0.748522 0.301059
O O10 0.162513 0.780642 0.446530
O O11 0.860416 0.500000 0.305394
O O12 0.874733 0.219981 0.392347
O O13 0.787125 0.290860 0.115449
O O14 0.500000 0.740696 0.500000
O O15 0.395429 0.000000 0.473613
O O16 0.797587 0.500000 0.858054
#
# Coordination Sequence:
#
# PCOD9182893 Si02
#       7
#     8   2   8   8   8   8   8
#     4  10  21  38  64  92 126 160 204 245 301 358
#     4  12  22  40  64 102 128 154 198 268 292 346
#     4   9  18  35  58  79 109 152 193 231 288 354
#     4  10  19  33  53  79 107 143 190 238 289 348
#     4  10  19  33  53  78 107 144 188 238 290 345
#     4   9  15  28  53  76 100 141 193 234 280 350
#     4   9  18  38  61  84 113 161 201 243 298 367
#
# _framework density 26.089471
#
# number of rings (size 3 to 8) (size 9 to 14) (size 15 to 20)
#    0.000    2.400    2.400    0.720    1.120    0.000 
#    2.880    2.400    0.000    0.960    0.000    0.000 
#    0.000    0.000    0.000    0.000    0.000    0.000 
#
# Total GULP energy -139592.447717 kJ/mol
# GULP energy per Si atom -5583.697909 kJ/mol
# Density = 2.603009 g / cm^3
# Si number density = 26.089471 Si / 1000 Ang^3
#
#
#
# Elastic Constant Matrix: (Units=GPa)
#
#
# Indices 1 2 3 4 5 6 
#
# 1 172.1681 19.2207 40.8227 0.0000 -23.3813 0.0000
# 2 19.2207 108.8716 4.0425 0.0000 -1.9703 0.0000
# 3 40.8227 4.0425 78.6775 0.0000 -16.9246 0.0000
# 4 0.0000 0.0000 0.0000 -0.1213 0.0000 -12.3707
# 5 -23.3813 -1.9703 -16.9246 0.0000 49.2317 0.0000
# 6 0.0000 0.0000 0.0000 -12.3707 0.0000 5.3058
#
#
#
# Elastic Compliance Matrix: (Units=1/GPa)
#
#
# Indices 1 2 3 4 5 6 
#
# 1 0.006958 -0.001074 -0.003081 0.000000 0.002202 0.000000
# 2 -0.001074 0.009371 0.000051 0.000000 -0.000118 0.000000
# 3 -0.003081 0.000051 0.015109 0.000000 0.003733 0.000000
# 4 0.000000 0.000000 0.000000 -0.034526 0.000000 -0.080498
# 5 0.002202 -0.000118 0.003733 0.000000 0.022637 0.000000
# 6 0.000000 0.000000 0.000000 -0.080498 0.000000 0.000789
#
#
# Mechanical properties :
#
#
# Convention : Reuss Voigt Hill
#
# Bulk Modulus (GPa) = 43.05119 54.20988 48.63053
# Shear Modulus (GPa) = 137.77810 30.59200 84.18505
#
# Velocity S-wave (km/s) = 7.27492 3.42801 5.68664
# Velocity P-wave (km/s) = 9.33291 6.04085 7.86114
#
# Compressibility (1/GPa) = 0.02322816
#
# Stress axis : x y z
#
# Youngs Moduli (GPa) = 143.72244 106.71500 66.18472
#
# Poissons Ratio (x) = 0.11462 0.20393
# Poissons Ratio (y) = 0.15437 -0.00334
# Poissons Ratio (z) = 0.44284 -0.00539
#
# Static dielectric constant tensor:
#      x y z
#    x 2.025380 0.000000 -0.022090 
#    y 0.000000 1.968150 0.000000 
#    z -0.022090 0.000000 2.097090 
# 
# From -- ./inp_files/274511.got.cif
#   From: 2010.05.17/outbox.cif.g08.bks.cpg/sg12_138_cif.got.tgz:274511.got - 2010.06.03 13:09:07.
