data_PCOD9182262
_publ_section_title
;
Structure prediction by ZEFSAII (Michael W. Deem and Ramdas Pophale) SiO2 
 PCOD9182262
Probable space group: C 2/M
;
_chemical_formula_sum "Si O2"
_cell_formula_units_Z 60
_cell_length_a 26.738115
_cell_length_b 13.884237
_cell_length_c 8.769605
_cell_angle_alpha 90.000000
_cell_angle_beta 55.897775
_cell_angle_gamma 90.000000
_cell_volume 2695.773503
_symmetry_space_group_name_H-M "C 2/M"
_symmetry_group_IT_number 12
_symmetry_cell_setting 'monoclinic'
loop_
_space_group_symop_operation_xyz
x,y,z
-x,y,-z
-x,-y,-z
x,-y,z
1/2+x,1/2+y,z
1/2-x,1/2+y,-z
1/2-x,1/2-y,-z
1/2+x,1/2-y,z
loop_
_atom_site_type_symbol
_atom_site_label
_atom_site_fract_x
_atom_site_fract_y
_atom_site_fract_z
Si Si1 0.000000 0.781925 0.000000
Si Si2 0.787655 0.655867 0.476869
Si Si3 0.622041 0.109869 0.195859
Si Si4 0.022940 0.884788 0.637986
Si Si5 0.733907 0.606546 0.096116
Si Si6 0.637985 0.738114 0.408379
Si Si7 0.615740 0.191015 0.895660
Si Si8 0.822621 0.897455 0.143816
O O1 0.004864 0.839875 0.155248
O O2 0.941145 0.714709 0.111544
O O3 0.750000 0.750000 0.500000
O O4 0.839717 0.689002 0.502215
O O5 0.827989 0.627761 0.263715
O O6 0.736436 0.596723 0.648113
O O7 0.606335 0.193830 0.339131
O O8 0.609531 0.000000 0.263406
O O9 0.694941 0.119725 0.049736
O O10 0.593425 0.138082 0.084547
O O11 0.091676 0.845967 0.527653
O O12 0.000000 0.862104 0.500000
O O13 0.018908 0.000000 0.657189
O O14 0.724143 0.500000 0.180589
O O15 0.700151 0.688114 0.247492
O O16 0.701830 0.608000 0.986290
O O17 0.642748 0.298289 0.883313
O O18 0.856770 0.000000 0.103186
#
# Coordination Sequence:
#
# PCOD9182262 Si02
#       8
#     4   8   8   8   8   8   8   8
#     4  12  25  48  71 100 136 184 227 280 337 402
#     4  10  21  36  57  88 127 172 213 262 317 389
#     4  11  23  39  65  96 126 172 226 280 338 398
#     4  11  26  45  69 102 137 177 223 273 335 408
#     4  10  19  32  58  95 130 165 207 262 332 406
#     4  12  20  40  62  89 132 171 220 271 330 398
#     4  11  23  43  63  92 133 173 221 274 340 393
#     4  10  20  35  61  97 131 171 214 261 333 407
#
# _framework density 22.257064
#
# number of rings (size 3 to 8) (size 9 to 14) (size 15 to 20)
#    0.000    1.200    4.000    3.400    0.000    1.600 
#    0.000    2.333    0.000    3.600    0.000    0.000 
#    0.000    0.000    0.000    0.000    0.000    0.000 
#
# Total GULP energy -167295.758878 kJ/mol
# GULP energy per Si atom -5576.525296 kJ/mol
# Density = 2.220641 g / cm^3
# Si number density = 22.257064 Si / 1000 Ang^3
#
#
#
# Elastic Constant Matrix: (Units=GPa)
#
#
# Indices 1 2 3 4 5 6 
#
# 1 38.9191 4.7731 -5.0751 0.0000 -0.1285 0.0000
# 2 4.7731 74.2425 13.2986 0.0000 -13.3448 0.0000
# 3 -5.0751 13.2986 62.3143 0.0000 8.5809 0.0000
# 4 0.0000 0.0000 0.0000 48.2307 0.0000 24.6692
# 5 -0.1285 -13.3448 8.5809 0.0000 23.3233 0.0000
# 6 0.0000 0.0000 0.0000 24.6692 0.0000 38.4492
#
#
#
# Elastic Compliance Matrix: (Units=1/GPa)
#
#
# Indices 1 2 3 4 5 6 
#
# 1 0.026419 -0.002706 0.003078 0.000000 -0.002535 0.000000
# 2 -0.002706 0.016670 -0.005361 0.000000 0.011495 0.000000
# 3 0.003078 -0.005361 0.018816 0.000000 -0.009973 0.000000
# 4 0.000000 0.000000 0.000000 0.030861 0.000000 -0.019801
# 5 -0.002535 0.011495 -0.009973 0.000000 0.053108 0.000000
# 6 0.000000 0.000000 0.000000 -0.019801 0.000000 0.038713
#
#
# Mechanical properties :
#
#
# Convention : Reuss Voigt Hill
#
# Bulk Modulus (GPa) = 19.25735 22.38546 20.82140
# Shear Modulus (GPa) = 23.59911 32.83260 28.21585
#
# Velocity S-wave (km/s) = 3.25975 3.84494 3.56438
# Velocity P-wave (km/s) = 4.77902 5.45811 5.12981
#
# Compressibility (1/GPa) = 0.05192824
#
# Stress axis : x y z
#
# Youngs Moduli (GPa) = 37.85137 59.98872 53.14702
#
# Poissons Ratio (x) = 0.16230 -0.16359
# Poissons Ratio (y) = 0.10241 0.28491
# Poissons Ratio (z) = -0.11651 0.32159
#
# Static dielectric constant tensor:
#      x y z
#    x 1.773220 0.000000 0.016190 
#    y 0.000000 1.788240 0.000000 
#    z 0.016190 0.000000 1.889200 
# 
# From -- ./inp_files/96822.got.cif
#   From: 2010.05.17/outbox.cif.g08.bks.cpg/sg12_49_cif.got.tgz:96822.got - 2010.06.03 13:09:07.
