data_PCOD9182705
_publ_section_title
;
Structure prediction by ZEFSAII (Michael W. Deem and Ramdas Pophale) SiO2 
 PCOD9182705
Probable space group: C 2/M
;
_chemical_formula_sum "Si O2"
_cell_formula_units_Z 64
_cell_length_a 14.967429
_cell_length_b 7.598875
_cell_length_c 31.370651
_cell_angle_alpha 90.000000
_cell_angle_beta 122.198198
_cell_angle_gamma 90.000000
_cell_volume 3019.243592
_symmetry_space_group_name_H-M "C 2/M"
_symmetry_group_IT_number 12
_symmetry_cell_setting 'monoclinic'
loop_
_space_group_symop_operation_xyz
x,y,z
-x,y,-z
-x,-y,-z
x,-y,z
1/2+x,1/2+y,z
1/2-x,1/2+y,-z
1/2-x,1/2-y,-z
1/2+x,1/2-y,z
loop_
_atom_site_type_symbol
_atom_site_label
_atom_site_fract_x
_atom_site_fract_y
_atom_site_fract_z
Si Si1 0.040456 0.787906 0.906594
Si Si2 0.196989 0.212171 0.878211
Si Si3 0.237340 0.284172 0.717656
Si Si4 0.387146 0.791984 0.985197
Si Si5 0.704835 0.710554 0.360978
Si Si6 0.439794 0.784663 0.442496
Si Si7 0.498066 0.210560 0.363803
Si Si8 0.185446 0.207857 0.172373
O O1 0.090198 0.733352 0.874299
O O2 0.920481 0.720853 0.877244
O O3 0.041237 0.000000 0.909401
O O4 0.113369 0.728942 0.964190
O O5 0.291444 0.279305 0.932934
O O6 0.218878 0.269218 0.835962
O O7 0.198338 0.000000 0.878638
O O8 0.238604 0.500000 0.718764
O O9 0.293936 0.228237 0.688090
O O10 0.290499 0.220888 0.774732
O O11 0.114220 0.229199 0.684210
O O12 0.388733 0.000000 0.976764
O O13 0.500000 0.714913 0.000000
O O14 0.712082 0.500000 0.360861
O O15 0.816886 0.771565 0.409233
O O16 0.601394 0.749233 0.362407
O O17 0.500000 0.724707 0.500000
O O18 0.496255 0.728649 0.412713
O O19 0.440328 0.000000 0.443178
O O20 0.491584 0.000000 0.363861
O O21 0.167019 0.000000 0.172878
#
# Coordination Sequence:
#
# PCOD9182705 Si02
#       8
#     8   8   8   8   8   8   8   8
#     4  10  21  34  51  74  97 122 157 199 237 280
#     4  10  21  36  51  73 102 127 154 193 243 290
#     4   8  17  34  51  67  94 130 163 195 241 299
#     4  10  19  33  53  72  97 131 157 186 234 291
#     4   9  17  31  52  74  97 130 169 206 243 287
#     4   8  15  29  48  71 102 139 171 197 238 297
#     4   9  17  31  51  72  96 129 167 205 242 287
#     4  10  20  35  53  72  94 124 162 201 239 285
#
# _framework density 21.197361000000001
#
# number of rings (size 3 to 8) (size 9 to 14) (size 15 to 20)
#    0.000    2.750    1.250    1.875    0.000    2.750 
#    0.000    5.000    0.000    0.750    0.000    0.000 
#    0.000    0.000    0.000    0.000    0.000    0.000 
#
# Total GULP energy -178477.362038 kJ/mol
# GULP energy per Si atom -5577.417564 kJ/mol
# Density = 2.114912 g / cm^3
# Si number density = 21.197361 Si / 1000 Ang^3
#
#
#
# Elastic Constant Matrix: (Units=GPa)
#
#
# Indices 1 2 3 4 5 6 
#
# 1 122.7344 -5.1429 33.4616 0.0000 -18.1951 0.0000
# 2 -5.1429 39.0927 -0.1748 0.0000 2.5659 0.0000
# 3 33.4616 -0.1748 109.3755 0.0000 -20.8023 0.0000
# 4 0.0000 0.0000 0.0000 2.1026 0.0000 -5.2394
# 5 -18.1951 2.5659 -20.8023 0.0000 17.5763 0.0000
# 6 0.0000 0.0000 0.0000 -5.2394 0.0000 23.0557
#
#
#
# Elastic Compliance Matrix: (Units=1/GPa)
#
#
# Indices 1 2 3 4 5 6 
#
# 1 0.009804 0.000733 -0.001404 0.000000 0.008380 0.000000
# 2 0.000733 0.025947 -0.000979 0.000000 -0.004188 0.000000
# 3 -0.001404 -0.000979 0.012029 0.000000 0.012926 0.000000
# 4 0.000000 0.000000 0.000000 1.096572 0.000000 0.249193
# 5 0.008380 -0.004188 0.012926 0.000000 0.081480 0.000000
# 6 0.000000 0.000000 0.000000 0.249193 0.000000 0.100001
#
#
# Mechanical properties :
#
#
# Convention : Reuss Voigt Hill
#
# Bulk Modulus (GPa) = 22.48225 36.38783 29.43504
# Shear Modulus (GPa) = 3.72035 24.75084 14.23559
#
# Velocity S-wave (km/s) = 1.32624 3.42078 2.59429
# Velocity P-wave (km/s) = 3.60200 5.72763 4.78436
#
# Compressibility (1/GPa) = 0.04447954
#
# Stress axis : x y z
#
# Youngs Moduli (GPa) = 102.00414 38.53979 83.12972
#
# Poissons Ratio (x) = -0.02827 0.11674
# Poissons Ratio (y) = -0.07481 0.08142
# Poissons Ratio (z) = 0.14325 0.03775
#
# Static dielectric constant tensor:
#      x y z
#    x 1.777460 0.000000 -0.004390 
#    y 0.000000 1.803450 0.000000 
#    z -0.004390 0.000000 1.762410 
# 
# From -- ./inp_files/375040.got.cif
#   From: 2010.05.17/outbox.cif.g08.bks.cpg/sg12_188_cif.got.tgz:375040.got - 2010.06.03 13:09:07.
