data_PCOD9182795
_publ_section_title
;
Structure prediction by ZEFSAII (Michael W. Deem and Ramdas Pophale) SiO2 
 PCOD9182795
Probable space group: C 2/M
;
_chemical_formula_sum "Si O2"
_cell_formula_units_Z 64
_cell_length_a 14.884016
_cell_length_b 7.691980
_cell_length_c 26.077741
_cell_angle_alpha 90.000000
_cell_angle_beta 63.805410
_cell_angle_gamma 90.000000
_cell_volume 2678.958192
_symmetry_space_group_name_H-M "C 2/M"
_symmetry_group_IT_number 12
_symmetry_cell_setting 'monoclinic'
loop_
_space_group_symop_operation_xyz
x,y,z
-x,y,-z
-x,-y,-z
x,-y,z
1/2+x,1/2+y,z
1/2-x,1/2+y,-z
1/2-x,1/2-y,-z
1/2+x,1/2-y,z
loop_
_atom_site_type_symbol
_atom_site_label
_atom_site_fract_x
_atom_site_fract_y
_atom_site_fract_z
Si Si1 0.796309 0.701383 0.421271
Si Si2 0.979279 0.211890 0.787131
Si Si3 0.673971 0.701181 0.862221
Si Si4 0.684353 0.700844 0.697979
Si Si5 0.685193 0.289334 0.087349
Si Si6 0.965958 0.212635 0.953107
Si Si7 0.165111 0.197141 0.259904
Si Si8 0.584830 0.199605 0.515406
O O1 0.781514 0.500000 0.439934
O O2 0.817522 0.708928 0.356051
O O3 0.691138 0.794184 0.459210
O O4 0.884274 0.772161 0.436304
O O5 0.904577 0.264310 0.850941
O O6 0.930269 0.271682 0.745709
O O7 0.094377 0.265533 0.757286
O O8 0.975606 0.000000 0.789780
O O9 0.676049 0.500000 0.844992
O O10 0.717580 0.713070 0.909346
O O11 0.559628 0.759528 0.893044
O O12 0.749356 0.799815 0.806077
O O13 0.664436 0.500000 0.692169
O O14 0.787508 0.715148 0.702717
O O15 0.694855 0.500000 0.084932
O O16 0.639946 0.231339 0.044092
O O17 0.964042 0.000000 0.954887
O O18 0.000000 0.276187 0.000000
O O19 0.142710 0.000000 0.279837
O O20 0.500000 0.280534 0.500000
O O21 0.552241 0.000000 0.532578
#
# Coordination Sequence:
#
# PCOD9182795 Si02
#       8
#     8   8   8   8   8   8   8   8
#     4  10  21  36  54  81 113 142 176 217 266 317
#     4   8  17  33  52  73 100 137 174 207 251 312
#     4  10  19  33  53  76 101 132 173 215 257 309
#     4  11  21  35  55  79 109 142 176 215 257 303
#     4   9  17  33  54  73  98 134 174 214 258 308
#     4   9  18  32  51  74 101 136 174 210 257 319
#     4  10  20  36  55  77 105 137 174 213 260 314
#     4   9  19  38  61  81 105 141 184 227 265 303
#
# _framework density 23.889885
#
# number of rings (size 3 to 8) (size 9 to 14) (size 15 to 20)
#    0.000    2.500    0.000    3.000    0.000    4.250 
#    0.000   12.500    0.000    2.625    0.000    0.000 
#    0.000    0.000    0.000    0.000    0.000    0.000 
#
# Total GULP energy -178662.784663 kJ/mol
# GULP energy per Si atom -5583.212021 kJ/mol
# Density = 2.383551 g / cm^3
# Si number density = 23.889885 Si / 1000 Ang^3
#
#
#
# Elastic Constant Matrix: (Units=GPa)
#
#
# Indices 1 2 3 4 5 6 
#
# 1 149.5177 -4.4491 9.0211 0.0000 35.8156 0.0000
# 2 -4.4491 47.5668 -5.5412 0.0000 0.0186 0.0000
# 3 9.0211 -5.5412 48.8130 0.0000 23.9544 0.0000
# 4 0.0000 0.0000 0.0000 10.6471 0.0000 -2.1130
# 5 35.8156 0.0186 23.9544 0.0000 28.4424 0.0000
# 6 0.0000 0.0000 0.0000 -2.1130 0.0000 5.1731
#
#
#
# Elastic Compliance Matrix: (Units=1/GPa)
#
#
# Indices 1 2 3 4 5 6 
#
# 1 0.011464 0.002115 0.008874 0.000000 -0.021912 0.000000
# 2 0.002115 0.021901 0.005811 0.000000 -0.007571 0.000000
# 3 0.008874 0.005811 0.042597 0.000000 -0.047054 0.000000
# 4 0.000000 0.000000 0.000000 0.102208 0.000000 0.041747
# 5 -0.021912 -0.007571 -0.047054 0.000000 0.102385 0.000000
# 6 0.000000 0.000000 0.000000 0.041747 0.000000 0.210359
#
#
# Mechanical properties :
#
#
# Convention : Reuss Voigt Hill
#
# Bulk Modulus (GPa) = 9.12727 27.10658 18.11693
# Shear Modulus (GPa) = 10.12481 25.31029 17.71755
#
# Velocity S-wave (km/s) = 2.06090 3.25846 2.72625
# Velocity P-wave (km/s) = 3.08090 5.05251 4.18448
#
# Compressibility (1/GPa) = 0.10956177
#
# Stress axis : x y z
#
# Youngs Moduli (GPa) = 87.22629 45.66062 23.47565
#
# Poissons Ratio (x) = -0.09656 -0.20833
# Poissons Ratio (y) = -0.18445 -0.13641
# Poissons Ratio (z) = -0.77407 -0.26532
#
# Static dielectric constant tensor:
#      x y z
#    x 1.916700 0.000000 0.041840 
#    y 0.000000 1.898090 0.000000 
#    z 0.041840 0.000000 1.934370 
# 
# From -- ./inp_files/359693.got.cif
#   From: 2010.05.17/outbox.cif.g08.bks.cpg/sg12_180_cif.got.tgz:359693.got - 2010.06.03 13:09:07.
