data_PCOD9182113
_publ_section_title
;
Structure prediction by ZEFSAII (Michael W. Deem and Ramdas Pophale) SiO2 
 PCOD9182113
Probable space group: C 2/M
;
_chemical_formula_sum "Si O2"
_cell_formula_units_Z 60
_cell_length_a 22.210763
_cell_length_b 22.030145
_cell_length_c 23.256584
_cell_angle_alpha 90.000000
_cell_angle_beta 161.485946
_cell_angle_gamma 90.000000
_cell_volume 3613.445018
_symmetry_space_group_name_H-M "C 2/M"
_symmetry_group_IT_number 12
_symmetry_cell_setting 'monoclinic'
loop_
_space_group_symop_operation_xyz
x,y,z
-x,y,-z
-x,-y,-z
x,-y,z
1/2+x,1/2+y,z
1/2-x,1/2+y,-z
1/2-x,1/2-y,-z
1/2+x,1/2-y,z
loop_
_atom_site_type_symbol
_atom_site_label
_atom_site_fract_x
_atom_site_fract_y
_atom_site_fract_z
Si Si1 0.792168 0.427938 0.339558
Si Si2 0.415747 0.567337 0.196248
Si Si3 0.189163 0.430357 0.512997
Si Si4 0.333876 0.713237 0.956573
Si Si5 0.372111 0.873440 0.145408
Si Si6 0.497211 0.695747 0.682777
Si Si7 0.914953 0.733817 0.724053
Si Si8 0.000000 0.849908 0.000000
O O1 0.743300 0.500000 0.296246
O O2 0.802141 0.405331 0.414528
O O3 0.638640 0.391520 0.163837
O O4 0.000000 0.421901 0.500000
O O5 0.405206 0.500000 0.213246
O O6 0.603371 0.569059 0.326631
O O7 0.440521 0.625583 0.259989
O O8 0.236436 0.578584 0.992345
O O9 0.120762 0.500000 0.455913
O O10 0.047778 0.396685 0.342021
O O11 0.272006 0.656181 0.939742
O O12 0.378485 0.691127 0.933480
O O13 0.162390 0.761155 0.808228
O O14 0.516514 0.741857 0.153038
O O15 0.449380 0.820857 0.173557
O O16 0.300160 0.710952 0.472891
O O17 0.452383 0.715488 0.708525
#
# Coordination Sequence:
#
# PCOD9182113 Si02
#       8
#     8   8   8   8   8   8   8   4
#     4  10  22  39  54  72 105 151 192 224 259 303
#     4  11  20  31  51  80 113 137 168 214 263 324
#     4  10  21  33  49  77 111 143 179 217 258 312
#     4  11  22  35  52  77 103 138 183 222 267 310
#     4  11  18  33  54  78 106 141 173 216 264 324
#     4  10  19  35  54  78 102 142 172 210 272 330
#     4  10  19  32  56  73 104 139 173 216 263 330
#     4  12  25  36  56  78 105 138 190 242 260 302
#
# _framework density 16.604652999999999
#
# number of rings (size 3 to 8) (size 9 to 14) (size 15 to 20)
#    0.000    1.467    4.000    3.000    0.000    1.067 
#    0.000    5.333    0.000    0.000    0.000    0.467 
#    0.000    1.067    0.000    0.000    0.000    0.000 
#
# Total GULP energy -167482.421218 kJ/mol
# GULP energy per Si atom -5582.747374 kJ/mol
# Density = 1.656686 g / cm^3
# Si number density = 16.604653 Si / 1000 Ang^3
#
#
#
# Elastic Constant Matrix: (Units=GPa)
#
#
# Indices 1 2 3 4 5 6 
#
# 1 30.4080 8.7285 6.8034 0.0171 0.4189 0.0219
# 2 8.7285 79.7899 19.7539 0.1019 0.2013 -0.0263
# 3 6.8034 19.7539 83.9334 0.1437 -5.0471 -0.1007
# 4 0.0171 0.1019 0.1437 14.9564 0.0463 5.3766
# 5 0.4189 0.2013 -5.0471 0.0463 16.3460 -0.0694
# 6 0.0219 -0.0263 -0.1007 5.3766 -0.0694 5.4230
#
#
#
# Elastic Compliance Matrix: (Units=1/GPa)
#
#
# Indices 1 2 3 4 5 6 
#
# 1 0.034305 -0.003226 -0.002112 0.000131 -0.001493 -0.000342
# 2 -0.003226 0.013633 -0.003008 -0.000095 -0.001013 0.000104
# 3 -0.002112 -0.003008 0.013042 -0.000340 0.004122 0.000626
# 4 0.000131 -0.000095 -0.000340 0.103908 -0.000839 -0.103038
# 5 -0.001493 -0.001013 0.004122 -0.000839 0.062510 0.001710
# 6 -0.000342 0.000104 0.000626 -0.103038 0.001710 0.286594
#
#
# Mechanical properties :
#
#
# Convention : Reuss Voigt Hill
#
# Bulk Modulus (GPa) = 22.57885 29.41142 25.99514
# Shear Modulus (GPa) = 9.16678 17.93479 13.55078
#
# Velocity S-wave (km/s) = 2.35215 3.29006 2.85982
# Velocity P-wave (km/s) = 4.58304 5.67308 5.15694
#
# Compressibility (1/GPa) = 0.04428923
#
# Stress axis : x y z
#
# Youngs Moduli (GPa) = 29.14984 73.35025 76.67277
#
# Poissons Ratio (x) = 0.23666 0.16191
# Poissons Ratio (y) = 0.09405 0.23061
# Poissons Ratio (z) = 0.06156 0.22062
#
# Static dielectric constant tensor:
#      x y z
#    x 1.518870 -0.000040 -0.002020 
#    y -0.000040 1.593800 -0.000060 
#    z -0.002020 -0.000060 1.571840 
# 
# From -- ./inp_files/323128.got.cif
#   From: 2010.05.17/outbox.cif.g08.bks.cpg/sg12_162_cif.got.tgz:323128.got - 2010.06.03 13:09:07.
