data_PCOD9182982
_publ_section_title
;
Structure prediction by ZEFSAII (Michael W. Deem and Ramdas Pophale) SiO2 
 PCOD9182982
Probable space group: C 2/M
;
_chemical_formula_sum "Si O2"
_cell_formula_units_Z 64
_cell_length_a 30.749287
_cell_length_b 8.785679
_cell_length_c 22.379282
_cell_angle_alpha 90.000000
_cell_angle_beta 145.951257
_cell_angle_gamma 90.000000
_cell_volume 3385.052702
_symmetry_space_group_name_H-M "C 2/M"
_symmetry_group_IT_number 12
_symmetry_cell_setting 'monoclinic'
loop_
_space_group_symop_operation_xyz
x,y,z
-x,y,-z
-x,-y,-z
x,-y,z
1/2+x,1/2+y,z
1/2-x,1/2+y,-z
1/2-x,1/2-y,-z
1/2+x,1/2-y,z
loop_
_atom_site_type_symbol
_atom_site_label
_atom_site_fract_x
_atom_site_fract_y
_atom_site_fract_z
Si Si1 0.937576 0.676418 0.029308
Si Si2 0.341977 0.822390 0.044529
Si Si3 0.280635 0.183737 0.793485
Si Si4 0.910592 0.181562 0.752309
Si Si5 0.301509 0.818964 0.185772
Si Si6 0.746731 0.183356 0.374678
Si Si7 0.570764 0.682017 0.743758
Si Si8 0.410464 0.314747 0.615209
O O1 0.954806 0.500000 0.035653
O O2 0.895838 0.684764 0.046692
O O3 0.017774 0.764851 0.125477
O O4 0.870273 0.730919 0.907640
O O5 0.382442 0.731658 0.143636
O O6 0.332329 0.000000 0.049908
O O7 0.260345 0.751068 0.931695
O O8 0.226758 0.258885 0.782228
O O9 0.254758 0.219924 0.697307
O O10 0.278478 0.000000 0.799803
O O11 0.829085 0.246839 0.681504
O O12 0.924030 0.234190 0.699036
O O13 0.907475 0.000000 0.748697
O O14 0.385544 0.759446 0.261628
O O15 0.297872 0.000000 0.179510
O O16 0.826633 0.235633 0.496253
O O17 0.742505 0.000000 0.375289
O O18 0.573575 0.500000 0.740482
O O19 0.482175 0.731578 0.655027
O O20 0.410360 0.500000 0.615080
#
# Coordination Sequence:
#
# PCOD9182982 Si02
#       8
#     8   8   8   8   8   8   8   8
#     4   9  18  33  54  81 111 145 182 225 276 332
#     4  10  19  33  53  81 115 149 186 225 276 333
#     4   9  20  39  60  81 109 146 192 235 274 327
#     4  11  21  35  56  86 117 143 181 229 282 338
#     4  11  22  35  54  81 113 148 185 226 279 334
#     4  10  21  40  62  81 106 147 192 235 280 329
#     4  11  20  34  55  81 114 148 186 229 276 330
#     4   9  20  37  58  84 113 145 187 232 277 330
#
# _framework density 18.906649000000002
#
# number of rings (size 3 to 8) (size 9 to 14) (size 15 to 20)
#    0.000    2.000    1.250    3.750    0.000    3.000 
#    0.000    5.000    0.000    3.750    0.000    0.000 
#    0.000    0.000    0.000    0.000    0.000    0.000 
#
# Total GULP energy -178723.855814 kJ/mol
# GULP energy per Si atom -5585.120494 kJ/mol
# Density = 1.886362 g / cm^3
# Si number density = 18.906649 Si / 1000 Ang^3
#
#
#
# Elastic Constant Matrix: (Units=GPa)
#
#
# Indices 1 2 3 4 5 6 
#
# 1 40.5953 16.3291 -20.9880 0.0000 16.0365 0.0000
# 2 16.3291 35.6557 -0.3789 0.0000 6.3765 0.0000
# 3 -20.9880 -0.3789 -171.6436 0.0000 -15.1712 0.0000
# 4 0.0000 0.0000 0.0000 17.0252 0.0000 3.9537
# 5 16.0365 6.3765 -15.1712 0.0000 28.4824 0.0000
# 6 0.0000 0.0000 0.0000 3.9537 0.0000 26.8980
#
#
#
# Elastic Compliance Matrix: (Units=1/GPa)
#
#
# Indices 1 2 3 4 5 6 
#
# 1 0.035909 -0.013126 -0.002707 0.000000 -0.018721 0.000000
# 2 -0.013126 0.033970 0.001479 0.000000 0.000573 0.000000
# 3 -0.002707 0.001479 -0.005352 0.000000 -0.001658 0.000000
# 4 0.000000 0.000000 0.000000 0.060812 0.000000 -0.008939
# 5 -0.018721 0.000573 -0.001658 0.000000 0.044639 0.000000
# 6 0.000000 0.000000 0.000000 -0.008939 0.000000 0.038491
#
#
# Mechanical properties :
#
#
# Convention : Reuss Voigt Hill
#
# Bulk Modulus (GPa) = 27.91702 -11.71868 8.09917
# Shear Modulus (GPa) = 20.07082 8.45747 14.26415
#
# Velocity S-wave (km/s) = 3.26172 2.11731 2.74971
# Velocity P-wave (km/s) = 5.38357 0.48406 3.79134
#
# Compressibility (1/GPa) = 0.03582044
#
# Stress axis : x y z
#
# Youngs Moduli (GPa) = 27.84803 29.43739 -186.85444
#
# Poissons Ratio (x) = 0.38639 -0.50584
# Poissons Ratio (y) = 0.36553 0.27642
# Poissons Ratio (z) = 0.07539 -0.04355
#
# Static dielectric constant tensor:
#      x y z
#    x 1.660770 0.000000 0.006810 
#    y 0.000000 1.632630 0.000000 
#    z 0.006810 0.000000 1.642550 
# 
# From -- ./inp_files/353453.got.cif
#   From: 2010.05.17/outbox.cif.g08.bks.cpg/sg12_177_cif.got.tgz:353453.got - 2010.06.03 13:09:07.
