data_PCOD9182364
_publ_section_title
;
Structure prediction by ZEFSAII (Michael W. Deem and Ramdas Pophale) SiO2 
 PCOD9182364
Probable space group: C 2/M
;
_chemical_formula_sum "Si O2"
_cell_formula_units_Z 64
_cell_length_a 20.556914
_cell_length_b 11.733100
_cell_length_c 16.689480
_cell_angle_alpha 90.000000
_cell_angle_beta 69.346607
_cell_angle_gamma 90.000000
_cell_volume 3766.731222
_symmetry_space_group_name_H-M "C 2/M"
_symmetry_group_IT_number 12
_symmetry_cell_setting 'monoclinic'
loop_
_space_group_symop_operation_xyz
x,y,z
-x,y,-z
-x,-y,-z
x,-y,z
1/2+x,1/2+y,z
1/2-x,1/2+y,-z
1/2-x,1/2-y,-z
1/2+x,1/2-y,z
loop_
_atom_site_type_symbol
_atom_site_label
_atom_site_fract_x
_atom_site_fract_y
_atom_site_fract_z
Si Si1 0.306350 0.133240 0.680060
Si Si2 0.705578 0.133216 0.503443
Si Si3 0.352323 0.206624 0.918029
Si Si4 0.417857 0.632940 0.023234
Si Si5 0.741016 0.877939 0.903736
Si Si6 0.432762 0.132951 0.731353
Si Si7 0.166634 0.745268 0.800881
Si Si8 0.413084 0.134255 0.311466
O O1 0.315045 0.139038 0.580844
O O2 0.374233 0.180601 0.696548
O O3 0.235191 0.194610 0.735830
O O4 0.299085 0.000000 0.706372
O O5 0.750000 0.250000 0.500000
O O6 0.640456 0.140787 0.591648
O O7 0.734445 0.000000 0.502293
O O8 0.295749 0.277198 0.891732
O O9 0.402422 0.145591 0.833984
O O10 0.392301 0.293435 0.959041
O O11 0.308767 0.127862 0.997112
O O12 0.403914 0.500000 0.015235
O O13 0.375947 0.674044 0.119907
O O14 0.500000 0.649331 0.000000
O O15 0.695042 0.855368 0.845528
O O16 0.776411 0.000000 0.884284
O O17 0.510862 0.180154 0.697191
O O18 0.439547 0.000000 0.706934
O O19 0.118949 0.700464 0.749953
O O20 0.420163 0.000000 0.286744
#
# Coordination Sequence:
#
# PCOD9182364 Si02
#       8
#     8   8   8   8   8   8   8   8
#     4  10  20  34  56  83 109 140 182 226 274 328
#     4  10  20  37  60  88 116 147 184 232 287 338
#     4  10  19  33  50  71 102 143 175 221 270 320
#     4  10  21  34  49  72 105 142 181 227 272 321
#     4  10  20  31  48  74 101 134 179 223 267 318
#     4  10  20  35  54  81 112 142 180 226 277 329
#     4  11  19  34  54  77 104 140 183 224 272 321
#     4  10  21  35  56  83 112 142 177 226 279 336
#
# _framework density 16.990860000000001
#
# number of rings (size 3 to 8) (size 9 to 14) (size 15 to 20)
#    0.000    1.875    2.500    2.250    0.000    0.500 
#    0.000    2.500    0.000    6.750    0.000    0.875 
#    0.000    0.000    0.000    0.000    0.000    0.000 
#
# Total GULP energy -178301.487094 kJ/mol
# GULP energy per Si atom -5571.921472 kJ/mol
# Density = 1.695219 g / cm^3
# Si number density = 16.990860 Si / 1000 Ang^3
#
#
#
# Elastic Constant Matrix: (Units=GPa)
#
#
# Indices 1 2 3 4 5 6 
#
# 1 104.4869 32.5666 26.0363 0.0000 7.1705 0.0000
# 2 32.5666 54.9703 4.7756 0.0000 5.8092 0.0000
# 3 26.0363 4.7756 57.1411 0.0000 10.5900 0.0000
# 4 0.0000 0.0000 0.0000 9.2796 0.0000 -8.9590
# 5 7.1705 5.8092 10.5900 0.0000 21.9808 0.0000
# 6 0.0000 0.0000 0.0000 -8.9590 0.0000 19.9882
#
#
#
# Elastic Compliance Matrix: (Units=1/GPa)
#
#
# Indices 1 2 3 4 5 6 
#
# 1 0.013212 -0.007382 -0.005453 0.000000 0.000268 0.000000
# 2 -0.007382 0.022865 0.002335 0.000000 -0.004760 0.000000
# 3 -0.005453 0.002335 0.021494 0.000000 -0.009194 0.000000
# 4 0.000000 0.000000 0.000000 0.189969 0.000000 0.085147
# 5 0.000268 -0.004760 -0.009194 0.000000 0.051094 0.000000
# 6 0.000000 0.000000 0.000000 0.085147 0.000000 0.088194
#
#
# Mechanical properties :
#
#
# Convention : Reuss Voigt Hill
#
# Bulk Modulus (GPa) = 27.34403 38.15059 32.74731
# Shear Modulus (GPa) = 11.90428 20.46436 16.18432
#
# Velocity S-wave (km/s) = 2.64981 3.47426 3.08966
# Velocity P-wave (km/s) = 5.04879 6.21259 5.66068
#
# Compressibility (1/GPa) = 0.03657105
#
# Stress axis : x y z
#
# Youngs Moduli (GPa) = 75.69093 43.73491 46.52507
#
# Poissons Ratio (x) = 0.32284 0.25368
# Poissons Ratio (y) = 0.55873 -0.10862
# Poissons Ratio (z) = 0.41271 -0.10211
#
# Static dielectric constant tensor:
#      x y z
#    x 1.583380 0.000000 0.004670 
#    y 0.000000 1.582750 0.000000 
#    z 0.004670 0.000000 1.547160 
# 
# From -- ./inp_files/232442.got.cif
#   From: 2010.05.17/outbox.cif.g08.bks.cpg/sg12_117_cif.got.tgz:232442.got - 2010.06.03 13:09:07.
