data_PCOD9182816
_publ_section_title
;
Structure prediction by ZEFSAII (Michael W. Deem and Ramdas Pophale) SiO2 
 PCOD9182816
Probable space group: C 2/M
;
_chemical_formula_sum "Si O2"
_cell_formula_units_Z 56
_cell_length_a 16.919267
_cell_length_b 21.591081
_cell_length_c 13.202187
_cell_angle_alpha 90.000000
_cell_angle_beta 142.782864
_cell_angle_gamma 90.000000
_cell_volume 2917.026580
_symmetry_space_group_name_H-M "C 2/M"
_symmetry_group_IT_number 12
_symmetry_cell_setting 'monoclinic'
loop_
_space_group_symop_operation_xyz
x,y,z
-x,y,-z
-x,-y,-z
x,-y,z
1/2+x,1/2+y,z
1/2-x,1/2+y,-z
1/2-x,1/2-y,-z
1/2+x,1/2-y,z
loop_
_atom_site_type_symbol
_atom_site_label
_atom_site_fract_x
_atom_site_fract_y
_atom_site_fract_z
Si Si1 0.712372 0.569793 0.256226
Si Si2 0.461138 0.820056 0.200044
Si Si3 0.235130 0.689509 0.412620
Si Si4 0.034117 0.823633 0.717595
Si Si5 0.731829 0.206174 0.175391
Si Si6 0.130559 0.669871 0.683198
Si Si7 0.460104 0.570750 0.124356
O O1 0.759890 0.500000 0.321432
O O2 0.824214 0.618887 0.350383
O O3 0.607310 0.585315 0.235587
O O4 0.629362 0.570681 0.066962
O O5 0.608240 0.842889 0.330418
O O6 0.459797 0.746592 0.231326
O O7 0.402885 0.853626 0.238938
O O8 0.373695 0.820737 0.010212
O O9 0.250000 0.750000 0.500000
O O10 0.380325 0.662389 0.549424
O O11 0.196392 0.701112 0.256459
O O12 0.128822 0.822762 0.717106
O O13 0.084030 0.876142 0.844888
O O14 0.756491 0.279596 0.187462
O O15 0.000000 0.699474 0.500000
O O16 0.458897 0.500000 0.163238
#
# Coordination Sequence:
#
# PCOD9182816 Si02
#       7
#     8   8   8   8   8   8   8
#     4   9  19  33  50  77 108 141 180 219 265 318
#     4  10  21  33  49  78 107 142 182 206 260 329
#     4  10  21  33  49  75 104 132 174 218 267 313
#     4  10  19  33  53  76 106 135 174 216 269 314
#     4  11  20  35  52  74 106 145 175 216 263 322
#     4  11  21  32  52  75 111 143 176 217 263 318
#     4   9  18  33  54  78 104 137 181 226 264 315
#
# _framework density 19.19763
#
# number of rings (size 3 to 8) (size 9 to 14) (size 15 to 20)
#    0.000    2.000    0.000    7.714    6.000    0.286 
#    0.000    0.000    0.000    1.714    0.000    0.000 
#    0.000    5.714    0.000    0.000    0.000    0.000 
#
# Total GULP energy -156038.498551 kJ/mol
# GULP energy per Si atom -5572.803520 kJ/mol
# Density = 1.915394 g / cm^3
# Si number density = 19.197630 Si / 1000 Ang^3
#
#
#
# Elastic Constant Matrix: (Units=GPa)
#
#
# Indices 1 2 3 4 5 6 
#
# 1 92.2917 19.9764 2.2152 0.0000 -3.9121 0.0000
# 2 19.9764 37.9780 -9.8569 0.0000 5.4130 0.0000
# 3 2.2152 -9.8569 69.5068 0.0000 -0.7734 0.0000
# 4 0.0000 0.0000 0.0000 9.2824 0.0000 0.0985
# 5 -3.9121 5.4130 -0.7734 0.0000 32.2167 0.0000
# 6 0.0000 0.0000 0.0000 0.0985 0.0000 22.1484
#
#
#
# Elastic Compliance Matrix: (Units=1/GPa)
#
#
# Indices 1 2 3 4 5 6 
#
# 1 0.012581 -0.007375 -0.001416 0.000000 0.002733 0.000000
# 2 -0.007375 0.032329 0.004751 0.000000 -0.006213 0.000000
# 3 -0.001416 0.004751 0.015099 0.000000 -0.000608 0.000000
# 4 0.000000 0.000000 0.000000 0.107736 0.000000 -0.000479
# 5 0.002733 -0.006213 -0.000608 0.000000 0.032401 0.000000
# 6 0.000000 0.000000 0.000000 -0.000479 0.000000 0.045152
#
#
# Mechanical properties :
#
#
# Convention : Reuss Voigt Hill
#
# Bulk Modulus (GPa) = 19.25756 24.93843 22.09799
# Shear Modulus (GPa) = 18.47134 25.22559 21.84846
#
# Velocity S-wave (km/s) = 3.10525 3.62884 3.37721
# Velocity P-wave (km/s) = 4.78641 5.52961 5.17138
#
# Compressibility (1/GPa) = 0.05192767
#
# Stress axis : x y z
#
# Youngs Moduli (GPa) = 79.48271 30.93213 66.22889
#
# Poissons Ratio (x) = 0.22812 0.09381
# Poissons Ratio (y) = 0.58618 -0.31462
# Poissons Ratio (z) = 0.11258 -0.14694
#
# Static dielectric constant tensor:
#      x y z
#    x 1.707960 0.000000 0.016400 
#    y 0.000000 1.660200 0.000000 
#    z 0.016400 0.000000 1.729130 
# 
# From -- ./inp_files/227645.got.cif
#   From: 2010.05.17/outbox.cif.g08.bks.cpg/sg12_114_cif.got.tgz:227645.got - 2010.06.03 13:09:07.
