data_PCOD9182302
_publ_section_title
;
Structure prediction by ZEFSAII (Michael W. Deem and Ramdas Pophale) SiO2 
 PCOD9182302
Probable space group: C 2/M
;
_chemical_formula_sum "Si O2"
_cell_formula_units_Z 64
_cell_length_a 27.778205
_cell_length_b 13.498472
_cell_length_c 9.661658
_cell_angle_alpha 90.000000
_cell_angle_beta 82.425537
_cell_angle_gamma 90.000000
_cell_volume 3591.156525
_symmetry_space_group_name_H-M "C 2/M"
_symmetry_group_IT_number 12
_symmetry_cell_setting 'monoclinic'
loop_
_space_group_symop_operation_xyz
x,y,z
-x,y,-z
-x,-y,-z
x,-y,z
1/2+x,1/2+y,z
1/2-x,1/2+y,-z
1/2-x,1/2-y,-z
1/2+x,1/2-y,z
loop_
_atom_site_type_symbol
_atom_site_label
_atom_site_fract_x
_atom_site_fract_y
_atom_site_fract_z
Si Si1 0.744953 0.613399 0.109334
Si Si2 0.396009 0.613764 0.472456
Si Si3 0.718230 0.881819 0.207532
Si Si4 0.201022 0.168152 0.595233
Si Si5 0.572683 0.619863 0.071126
Si Si6 0.212937 0.610256 0.620183
Si Si7 0.352846 0.280955 0.758180
Si Si8 0.035204 0.118926 0.784045
O O1 0.729492 0.500000 0.097382
O O2 0.785037 0.615972 0.214981
O O3 0.698350 0.668656 0.184360
O O4 0.765959 0.644536 0.954455
O O5 0.405261 0.500000 0.512419
O O6 0.350592 0.616003 0.382504
O O7 0.378153 0.674673 0.611951
O O8 0.441148 0.655586 0.367459
O O9 0.761864 0.845491 0.291399
O O10 0.666324 0.830816 0.255860
O O11 0.715239 0.000000 0.222852
O O12 0.191267 0.285612 0.576896
O O13 0.231985 0.120742 0.458389
O O14 0.582898 0.500000 0.077235
O O15 0.612504 0.687989 0.128607
O O16 0.521332 0.638816 0.167770
O O17 0.563994 0.646232 0.913350
O O18 0.195139 0.500000 0.585814
O O19 0.039488 0.000000 0.774672
#
# Coordination Sequence:
#
# PCOD9182302 Si02
#       8
#     8   8   8   8   8   8   8   8
#     4  10  20  34  49  69 100 130 165 212 250 291
#     4  11  21  32  50  77 105 135 172 209 248 301
#     4  11  24  36  48  71 103 137 175 215 253 291
#     4  11  20  32  49  70  97 138 172 205 247 295
#     4   9  18  34  55  79 107 135 161 199 253 307
#     4  10  19  33  48  65  96 133 168 209 252 287
#     4  12  21  33  52  75 100 137 172 208 250 303
#     4   8  18  35  52  78 111 132 157 203 254 305
#
# _framework density 17.821556999999999
#
# number of rings (size 3 to 8) (size 9 to 14) (size 15 to 20)
#    0.000    1.750    2.500    4.125    1.750    0.500 
#    0.000    1.875    0.000    0.000    0.000    4.375 
#    0.000    0.000    0.000    0.000    0.000    0.000 
#
# Total GULP energy -178302.670146 kJ/mol
# GULP energy per Si atom -5571.958442 kJ/mol
# Density = 1.778099 g / cm^3
# Si number density = 17.821557 Si / 1000 Ang^3
#
#
#
# Elastic Constant Matrix: (Units=GPa)
#
#
# Indices 1 2 3 4 5 6 
#
# 1 12.1868 5.3060 -3.2357 0.0000 2.8523 0.0000
# 2 5.3060 95.1058 15.9297 0.0000 -1.6772 0.0000
# 3 -3.2357 15.9297 81.0906 0.0000 -14.2462 0.0000
# 4 0.0000 0.0000 0.0000 16.8848 0.0000 0.7837
# 5 2.8523 -1.6772 -14.2462 0.0000 27.5076 0.0000
# 6 0.0000 0.0000 0.0000 0.7837 0.0000 13.3285
#
#
#
# Elastic Compliance Matrix: (Units=1/GPa)
#
#
# Indices 1 2 3 4 5 6 
#
# 1 0.087122 -0.005534 0.003209 0.000000 -0.007709 0.000000
# 2 -0.005534 0.011230 -0.002427 0.000000 0.000002 0.000000
# 3 0.003209 -0.002427 0.014139 0.000000 0.006842 0.000000
# 4 0.000000 0.000000 0.000000 0.059387 0.000000 -0.003492
# 5 -0.007709 0.000002 0.006842 0.000000 0.040696 0.000000
# 6 0.000000 0.000000 0.000000 -0.003492 0.000000 0.075232
#
#
# Mechanical properties :
#
#
# Convention : Reuss Voigt Hill
#
# Bulk Modulus (GPa) = 9.70992 24.93147 17.32069
# Shear Modulus (GPa) = 15.07668 22.90306 18.98987
#
# Velocity S-wave (km/s) = 2.91173 3.58876 3.26783
# Velocity P-wave (km/s) = 4.09444 5.58500 4.89677
#
# Compressibility (1/GPa) = 0.10298750
#
# Stress axis : x y z
#
# Youngs Moduli (GPa) = 11.47815 89.04867 70.72853
#
# Poissons Ratio (x) = 0.49280 -0.22698
# Poissons Ratio (y) = 0.06352 0.17162
# Poissons Ratio (z) = -0.03683 0.21608
#
# Static dielectric constant tensor:
#      x y z
#    x 1.612300 0.000000 0.014170 
#    y 0.000000 1.652170 0.000000 
#    z 0.014170 0.000000 1.673140 
# 
# From -- ./inp_files/111192.got.cif
#   From: 2010.05.17/outbox.cif.g08.bks.cpg/sg12_56_cif.got.tgz:111192.got - 2010.06.03 13:09:07.
