data_PCOD9182379
_publ_section_title
;
Structure prediction by ZEFSAII (Michael W. Deem and Ramdas Pophale) SiO2 
 PCOD9182379
Probable space group: C 2/M
;
_chemical_formula_sum "Si O2"
_cell_formula_units_Z 48
_cell_length_a 13.774986
_cell_length_b 25.937921
_cell_length_c 13.612520
_cell_angle_alpha 90.000000
_cell_angle_beta 30.158429
_cell_angle_gamma 90.000000
_cell_volume 2443.476768
_symmetry_space_group_name_H-M "C 2/M"
_symmetry_group_IT_number 12
_symmetry_cell_setting 'monoclinic'
loop_
_space_group_symop_operation_xyz
x,y,z
-x,y,-z
-x,-y,-z
x,-y,z
1/2+x,1/2+y,z
1/2-x,1/2+y,-z
1/2-x,1/2-y,-z
1/2+x,1/2-y,z
loop_
_atom_site_type_symbol
_atom_site_label
_atom_site_fract_x
_atom_site_fract_y
_atom_site_fract_z
Si Si1 0.275739 0.660716 0.442119
Si Si2 0.454861 0.556897 0.366147
Si Si3 0.193512 0.218804 0.778323
Si Si4 0.699302 0.403408 0.306997
Si Si5 0.978443 0.674457 0.156041
Si Si6 0.856194 0.223835 0.813526
O O1 0.370435 0.604041 0.375659
O O2 0.241284 0.678797 0.361233
O O3 0.084861 0.665825 0.676020
O O4 0.435610 0.701031 0.345350
O O5 0.454188 0.500000 0.322050
O O6 0.329338 0.556929 0.577216
O O7 0.663378 0.570779 0.233276
O O8 0.115406 0.271295 0.795427
O O9 0.339297 0.238766 0.734811
O O10 0.000000 0.197139 0.000000
O O11 0.500000 0.369738 0.500000
O O12 0.875403 0.369972 0.186269
O O13 0.203596 0.677376 0.933543
O O14 0.750000 0.250000 0.000000
#
# Coordination Sequence:
#
# PCOD9182379 Si02
#       6
#     8   8   8   8   8   8
#     4  11  20  36  52  76 105 139 173 213 254 313
#     4   8  15  28  52  76 100 134 173 216 263 299
#     4  10  20  32  48  72 104 139 171 204 251 309
#     4   7  14  27  48  75 103 128 164 208 260 309
#     4  10  19  33  50  74 106 137 171 199 255 319
#     4  11  22  35  49  74 108 143 167 212 257 303
#
# _framework density 19.644141000000001
#
# number of rings (size 3 to 8) (size 9 to 14) (size 15 to 20)
#    1.000    1.333    3.333    2.500    0.000    0.000 
#    0.000    0.000    0.000    6.500    0.000    0.000 
#    0.000    5.333    0.000    0.000    0.000    0.000 
#
# Total GULP energy -133667.630902 kJ/mol
# GULP energy per Si atom -5569.484621 kJ/mol
# Density = 1.959943 g / cm^3
# Si number density = 19.644141 Si / 1000 Ang^3
#
#
#
# Elastic Constant Matrix: (Units=GPa)
#
#
# Indices 1 2 3 4 5 6 
#
# 1 87.7778 46.2905 28.1573 0.0002 14.2486 -0.0010
# 2 46.2905 91.1695 16.0251 0.0000 12.3112 0.0012
# 3 28.1573 16.0251 74.6146 0.0002 9.6648 -0.0034
# 4 0.0002 0.0000 0.0002 7.4035 0.0002 -5.3706
# 5 14.2486 12.3112 9.6648 0.0002 34.8241 0.0027
# 6 -0.0010 0.0012 -0.0034 -5.3706 0.0027 9.5300
#
#
#
# Elastic Compliance Matrix: (Units=1/GPa)
#
#
# Indices 1 2 3 4 5 6 
#
# 1 0.017357 -0.007593 -0.004509 0.000002 -0.003166 0.000003
# 2 -0.007593 0.015141 -0.000099 -0.000002 -0.002218 -0.000003
# 3 -0.004509 -0.000099 0.015437 0.000007 -0.002404 0.000009
# 4 0.000002 -0.000002 0.000007 0.228470 -0.000014 0.128753
# 5 -0.003166 -0.002218 -0.002404 -0.000014 0.031463 -0.000017
# 6 0.000003 -0.000003 0.000009 0.128753 -0.000017 0.177490
#
#
# Mechanical properties :
#
#
# Convention : Reuss Voigt Hill
#
# Bulk Modulus (GPa) = 42.49526 48.27864 45.38695
# Shear Modulus (GPa) = 9.65991 21.22413 15.44202
#
# Velocity S-wave (km/s) = 2.21994 3.29056 2.80677
# Velocity P-wave (km/s) = 5.31510 6.25036 5.80161
#
# Compressibility (1/GPa) = 0.02353204
#
# Stress axis : x y z
#
# Youngs Moduli (GPa) = 57.61409 66.04710 64.78140
#
# Poissons Ratio (x) = 0.50147 0.29211
# Poissons Ratio (y) = 0.43745 0.00643
# Poissons Ratio (z) = 0.25979 0.00655
#
# Static dielectric constant tensor:
#      x y z
#    x 1.794380 0.000000 -0.000650 
#    y 0.000000 1.735150 0.000000 
#    z -0.000650 0.000000 1.808120 
# 
# From -- ./inp_files/218890.got.cif
#   From: 2010.05.17/outbox.cif.g08.bks.cpg/sg12_110_cif.got.tgz:218890.got - 2010.06.03 13:09:07.
