data_PCOD9182076
_publ_section_title
;
Structure prediction by ZEFSAII (Michael W. Deem and Ramdas Pophale) SiO2 
 PCOD9182076
Probable space group: C 2/M
;
_chemical_formula_sum "Si O2"
_cell_formula_units_Z 64
_cell_length_a 24.607719
_cell_length_b 7.533978
_cell_length_c 19.939008
_cell_angle_alpha 90.000000
_cell_angle_beta 127.862598
_cell_angle_gamma 90.000000
_cell_volume 2918.388398
_symmetry_space_group_name_H-M "C 2/M"
_symmetry_group_IT_number 12
_symmetry_cell_setting 'monoclinic'
loop_
_space_group_symop_operation_xyz
x,y,z
-x,y,-z
-x,-y,-z
x,-y,z
1/2+x,1/2+y,z
1/2-x,1/2+y,-z
1/2-x,1/2-y,-z
1/2+x,1/2-y,z
loop_
_atom_site_type_symbol
_atom_site_label
_atom_site_fract_x
_atom_site_fract_y
_atom_site_fract_z
Si Si1 0.427136 0.204948 0.106228
Si Si2 0.426430 0.784004 0.341105
Si Si3 0.826078 0.282985 0.145097
Si Si4 0.848302 0.714149 0.411306
Si Si5 0.579504 0.217624 0.250986
Si Si6 0.424075 0.216795 0.598443
Si Si7 0.697770 0.791008 0.240584
Si Si8 0.179493 0.204451 0.073247
O O1 0.372077 0.279556 0.117768
O O2 0.503885 0.278180 0.169510
O O3 0.434954 0.000000 0.132804
O O4 0.390504 0.211072 0.006702
O O5 0.367086 0.733522 0.243562
O O6 0.403943 0.725264 0.397951
O O7 0.500420 0.726218 0.369994
O O8 0.428602 0.000000 0.343793
O O9 0.822403 0.500000 0.141226
O O10 0.747800 0.217795 0.089587
O O11 0.851098 0.500000 0.413878
O O12 0.869140 0.775083 0.501174
O O13 0.772862 0.764128 0.329077
O O14 0.588976 0.273402 0.335358
O O15 0.639608 0.278616 0.247132
O O16 0.581523 0.000000 0.251620
O O17 0.424586 0.000000 0.599675
O O18 0.691692 0.713068 0.161732
O O19 0.686588 0.000000 0.223388
O O20 0.173763 0.000000 0.049555
#
# Coordination Sequence:
#
# PCOD9182076 Si02
#       8
#     8   8   8   8   8   8   8   8
#     4  10  19  35  59  83 106 138 176 219 267 317
#     4   9  14  26  51  84 112 135 169 216 265 311
#     4   9  16  29  54  82 110 137 168 213 265 316
#     4  10  19  32  55  86 113 137 172 220 270 318
#     4   9  19  35  54  77 106 140 185 228 257 301
#     4   9  16  29  54  85 110 137 176 221 266 312
#     4  11  23  38  54  74 104 146 188 223 260 309
#     4  11  22  37  56  82 112 138 170 219 271 324
#
# _framework density 21.929914
#
# number of rings (size 3 to 8) (size 9 to 14) (size 15 to 20)
#    0.000    2.250    2.500    1.500    0.000    2.500 
#    0.000    4.375    0.000    3.000    0.000    0.000 
#    0.000    0.000    0.000    0.000    0.000    0.000 
#
# Total GULP energy -178767.601503 kJ/mol
# GULP energy per Si atom -5586.487547 kJ/mol
# Density = 2.188000 g / cm^3
# Si number density = 21.929914 Si / 1000 Ang^3
#
#
#
# Elastic Constant Matrix: (Units=GPa)
#
#
# Indices 1 2 3 4 5 6 
#
# 1 130.7061 -1.6618 33.9438 0.0000 1.0162 0.0000
# 2 -1.6618 55.1546 -11.2341 0.0000 -0.9999 -0.0001
# 3 33.9438 -11.2341 101.3607 0.0000 -3.5904 0.0000
# 4 0.0000 0.0000 0.0000 16.2865 0.0000 3.4748
# 5 1.0162 -0.9999 -3.5904 0.0000 6.0995 0.0000
# 6 0.0000 -0.0001 0.0000 3.4748 0.0000 7.1211
#
#
#
# Elastic Compliance Matrix: (Units=1/GPa)
#
#
# Indices 1 2 3 4 5 6 
#
# 1 0.008447 -0.000413 -0.002989 0.000000 -0.003234 0.000000
# 2 -0.000413 0.018683 0.002369 0.000000 0.004526 0.000000
# 3 -0.002989 0.002369 0.011398 0.000000 0.007596 0.000000
# 4 0.000000 0.000000 0.000000 0.068536 0.000000 -0.033443
# 5 -0.003234 0.004526 0.007596 0.000000 0.169699 0.000000
# 6 0.000000 0.000000 0.000000 -0.033443 0.000000 0.156747
#
#
# Mechanical properties :
#
#
# Convention : Reuss Voigt Hill
#
# Bulk Modulus (GPa) = 27.42510 36.59080 32.00795
# Shear Modulus (GPa) = 11.16747 23.64634 17.40690
#
# Velocity S-wave (km/s) = 2.25907 3.28726 2.82042
# Velocity P-wave (km/s) = 4.39744 5.57940 5.02330
#
# Compressibility (1/GPa) = 0.03646295
#
# Stress axis : x y z
#
# Youngs Moduli (GPa) = 118.38669 53.52447 87.73170
#
# Poissons Ratio (x) = 0.02210 0.26223
# Poissons Ratio (y) = 0.04889 -0.20786
# Poissons Ratio (z) = 0.35386 -0.12682
#
# Static dielectric constant tensor:
#      x y z
#    x 1.775410 0.000000 -0.007110 
#    y 0.000000 1.867750 0.000000 
#    z -0.007110 0.000000 1.783460 
# 
# From -- ./inp_files/324322.got.cif
#   From: 2010.05.17/outbox.cif.g08.bks.cpg/sg12_163_cif.got.tgz:324322.got - 2010.06.03 13:09:07.
