data_PCOD9182513
_publ_section_title
;
Structure prediction by ZEFSAII (Michael W. Deem and Ramdas Pophale) SiO2 
 PCOD9182513
Probable space group: C 2/M
;
_chemical_formula_sum "Si O2"
_cell_formula_units_Z 56
_cell_length_a 20.137816
_cell_length_b 7.524290
_cell_length_c 21.316688
_cell_angle_alpha 90.000000
_cell_angle_beta 124.709367
_cell_angle_gamma 90.000000
_cell_volume 2655.194650
_symmetry_space_group_name_H-M "C 2/M"
_symmetry_group_IT_number 12
_symmetry_cell_setting 'monoclinic'
loop_
_space_group_symop_operation_xyz
x,y,z
-x,y,-z
-x,-y,-z
x,-y,z
1/2+x,1/2+y,z
1/2-x,1/2+y,-z
1/2-x,1/2-y,-z
1/2+x,1/2-y,z
loop_
_atom_site_type_symbol
_atom_site_label
_atom_site_fract_x
_atom_site_fract_y
_atom_site_fract_z
Si Si1 0.413599 0.217555 0.480237
Si Si2 0.188887 0.718838 0.821824
Si Si3 0.794080 0.709178 0.308536
Si Si4 0.376599 0.784460 0.728826
Si Si5 0.181555 0.210026 0.015271
Si Si6 0.944819 0.707858 0.150517
Si Si7 0.658304 0.212494 0.430657
O O1 0.500000 0.270376 0.500000
O O2 0.343969 0.279770 0.394891
O O3 0.396794 0.279074 0.541857
O O4 0.411633 0.000000 0.480976
O O5 0.188652 0.500000 0.822725
O O6 0.181268 0.779996 0.746361
O O7 0.116794 0.779587 0.829344
O O8 0.275136 0.775017 0.898137
O O9 0.812935 0.500000 0.316523
O O10 0.699186 0.729121 0.270002
O O11 0.464573 0.720351 0.798311
O O12 0.361025 0.720449 0.649156
O O13 0.375900 0.000000 0.728597
O O14 0.099365 0.279001 0.940449
O O15 0.171530 0.000000 0.015397
O O16 0.250000 0.250000 0.000000
O O17 0.951932 0.500000 0.169359
O O18 0.750000 0.250000 0.500000
O O19 0.648104 0.000000 0.422139
#
# Coordination Sequence:
#
# PCOD9182513 Si02
#       7
#     8   8   8   8   8   8   8
#     4   9  18  30  49  77 100 122 163 210 245 284
#     4   8  16  30  51  75  97 125 163 207 250 287
#     4  10  19  33  52  73 100 131 165 206 249 295
#     4  10  21  34  50  72 104 136 164 203 252 300
#     4   9  16  30  51  76 103 131 165 206 252 298
#     4   9  18  33  52  75 100 131 170 208 248 295
#     4  10  19  33  52  74  99 132 167 203 247 295
#
# _framework density 21.090734000000001
#
# number of rings (size 3 to 8) (size 9 to 14) (size 15 to 20)
#    0.000    2.714    1.429    1.286    2.000    0.571 
#    0.000    4.286    0.000    6.000    0.000    0.000 
#    0.000    0.000    0.000    0.000    0.000    0.000 
#
# Total GULP energy -156159.126419 kJ/mol
# GULP energy per Si atom -5577.111658 kJ/mol
# Density = 2.104273 g / cm^3
# Si number density = 21.090734 Si / 1000 Ang^3
#
#
#
# Elastic Constant Matrix: (Units=GPa)
#
#
# Indices 1 2 3 4 5 6 
#
# 1 68.7216 -6.2469 -3.4319 0.0000 11.3857 0.0000
# 2 -6.2469 46.1870 -4.2355 0.0000 -6.1126 0.0000
# 3 -3.4319 -4.2355 44.4709 0.0000 18.6578 0.0000
# 4 0.0000 0.0000 0.0000 14.0374 0.0000 5.6049
# 5 11.3857 -6.1126 18.6578 0.0000 37.7031 0.0000
# 6 0.0000 0.0000 0.0000 5.6049 0.0000 13.8280
#
#
#
# Elastic Compliance Matrix: (Units=1/GPa)
#
#
# Indices 1 2 3 4 5 6 
#
# 1 0.016011 0.001671 0.004177 0.000000 -0.006631 0.000000
# 2 0.001671 0.022321 0.001197 0.000000 0.002522 0.000000
# 3 0.004177 0.001197 0.029494 0.000000 -0.015663 0.000000
# 4 0.000000 0.000000 0.000000 0.084994 0.000000 -0.034450
# 5 -0.006631 0.002522 -0.015663 0.000000 0.036685 0.000000
# 6 0.000000 0.000000 0.000000 -0.034450 0.000000 0.086281
#
#
# Mechanical properties :
#
#
# Convention : Reuss Voigt Hill
#
# Bulk Modulus (GPa) = 12.20791 14.61676 13.41233
# Shear Modulus (GPa) = 17.30095 24.66660 20.98377
#
# Velocity S-wave (km/s) = 2.86721 3.42357 3.15767
# Velocity P-wave (km/s) = 4.09415 4.75113 4.43482
#
# Compressibility (1/GPa) = 0.08191413
#
# Stress axis : x y z
#
# Youngs Moduli (GPa) = 62.45889 44.80162 33.90490
#
# Poissons Ratio (x) = -0.07486 -0.14161
# Poissons Ratio (y) = -0.10436 -0.04058
# Poissons Ratio (z) = -0.26087 -0.05362
#
# Static dielectric constant tensor:
#      x y z
#    x 1.726330 0.000000 0.002190 
#    y 0.000000 1.808820 0.000000 
#    z 0.002190 0.000000 1.771030 
# 
# From -- ./inp_files/319706.got.cif
#   From: 2010.05.17/outbox.cif.g08.bks.cpg/sg12_160_cif.got.tgz:319706.got - 2010.06.03 13:09:07.
