data_PCOD9182479
_publ_section_title
;
Structure prediction by ZEFSAII (Michael W. Deem and Ramdas Pophale) SiO2 
 PCOD9182479
Probable space group: C 2/M
;
_chemical_formula_sum "Si O2"
_cell_formula_units_Z 44
_cell_length_a 19.058998
_cell_length_b 12.330477
_cell_length_c 10.575586
_cell_angle_alpha 90.000000
_cell_angle_beta 109.752382
_cell_angle_gamma 90.000000
_cell_volume 2339.099798
_symmetry_space_group_name_H-M "C 2/M"
_symmetry_group_IT_number 12
_symmetry_cell_setting 'monoclinic'
loop_
_space_group_symop_operation_xyz
x,y,z
-x,y,-z
-x,-y,-z
x,-y,z
1/2+x,1/2+y,z
1/2-x,1/2+y,-z
1/2-x,1/2-y,-z
1/2+x,1/2-y,z
loop_
_atom_site_type_symbol
_atom_site_label
_atom_site_fract_x
_atom_site_fract_y
_atom_site_fract_z
Si Si1 0.314825 0.372015 0.647066
Si Si2 0.141791 0.294438 0.539047
Si Si3 0.158619 0.732646 0.824540
Si Si4 0.055793 0.500000 0.377474
Si Si5 0.105075 0.500000 0.115449
Si Si6 0.833201 0.261373 0.898476
Si Si7 0.900399 0.500000 0.172373
O O1 0.324731 0.500000 0.640243
O O2 0.225784 0.345329 0.596206
O O3 0.351015 0.303081 0.555900
O O4 0.347855 0.323649 0.796797
O O5 0.121378 0.248866 0.665824
O O6 0.088607 0.391222 0.460172
O O7 0.244163 0.765931 0.863074
O O8 0.150619 0.603838 0.838937
O O9 0.131223 0.773361 0.944974
O O10 0.078117 0.500000 0.243132
O O11 0.966468 0.500000 0.314122
O O12 0.144985 0.382767 0.129135
O O13 0.066381 0.500000 0.951103
#
# Coordination Sequence:
#
# PCOD9182479 Si02
#       7
#     8   8   8   4   4   8   4
#     4  10  19  33  51  79 109 142 176 231 275 326
#     4  10  20  31  51  78 112 138 180 225 275 328
#     4   9  19  34  46  79 105 144 177 216 278 320
#     4  12  20  34  55  87 113 152 179 221 280 334
#     4  10  19  36  54  86 112 143 192 227 273 327
#     4   9  18  33  55  73 108 142 179 230 273 319
#     4  10  22  34  55  79 123 148 180 226 268 336
#
# _framework density 18.810656000000002
#
# number of rings (size 3 to 8) (size 9 to 14) (size 15 to 20)
#    0.000    2.182    2.727    0.818    3.818    1.455 
#    1.636    0.000    0.000    0.000    2.364    6.364 
#    0.000    0.000    0.000    0.000    0.000    0.000 
#
# Total GULP energy -122468.047596 kJ/mol
# GULP energy per Si atom -5566.729436 kJ/mol
# Density = 1.876784 g / cm^3
# Si number density = 18.810656 Si / 1000 Ang^3
#
#
#
# Elastic Constant Matrix: (Units=GPa)
#
#
# Indices 1 2 3 4 5 6 
#
# 1 15.1751 19.6247 32.1537 0.0000 -13.3246 0.0000
# 2 19.6247 120.3686 75.5340 0.0000 -13.5678 0.0000
# 3 32.1537 75.5340 139.6944 0.0000 -27.9458 0.0000
# 4 0.0000 0.0000 0.0000 19.2797 0.0000 -4.6820
# 5 -13.3246 -13.5678 -27.9458 0.0000 37.0090 0.0000
# 6 0.0000 0.0000 0.0000 -4.6820 0.0000 -3.8302
#
#
#
# Elastic Compliance Matrix: (Units=1/GPa)
#
#
# Indices 1 2 3 4 5 6 
#
# 1 0.161846 -0.005250 -0.027259 0.000000 0.035762 0.000000
# 2 -0.005250 0.012757 -0.006045 0.000000 -0.001778 0.000000
# 3 -0.027259 -0.006045 0.016838 0.000000 0.000684 0.000000
# 4 0.000000 0.000000 0.000000 0.039995 0.000000 -0.048890
# 5 0.035762 -0.001778 0.000684 0.000000 0.039761 0.000000
# 6 0.000000 0.000000 0.000000 -0.048890 0.000000 -0.201319
#
#
# Mechanical properties :
#
#
# Convention : Reuss Voigt Hill
#
# Bulk Modulus (GPa) = 8.74645 58.87366 33.81005
# Shear Modulus (GPa) = 27.01267 20.35342 23.68304
#
# Velocity S-wave (km/s) = 3.79361 3.29297 3.55212
# Velocity P-wave (km/s) = 4.88349 6.76936 5.90223
#
# Compressibility (1/GPa) = 0.11433215
#
# Stress axis : x y z
#
# Youngs Moduli (GPa) = 6.17870 78.39017 59.38881
#
# Poissons Ratio (x) = 0.41157 1.61890
# Poissons Ratio (y) = 0.03244 0.35900
# Poissons Ratio (z) = 0.16843 0.47386
#
# Static dielectric constant tensor:
#      x y z
#    x 1.665070 0.000000 -0.040660 
#    y 0.000000 1.643180 0.000000 
#    z -0.040660 0.000000 1.740810 
# 
# From -- ./inp_files/173561.got.cif
#   From: 2010.05.17/outbox.cif.g08.bks.cpg/sg12_87_cif.got.tgz:173561.got - 2010.06.03 13:09:07.
