data_PCOD9182361
_publ_section_title
;
Structure prediction by ZEFSAII (Michael W. Deem and Ramdas Pophale) SiO2 
 PCOD9182361
Probable space group: C 2/M
;
_chemical_formula_sum "Si O2"
_cell_formula_units_Z 56
_cell_length_a 9.778516
_cell_length_b 20.440815
_cell_length_c 21.673070
_cell_angle_alpha 90.000000
_cell_angle_beta 134.627553
_cell_angle_gamma 90.000000
_cell_volume 3083.056057
_symmetry_space_group_name_H-M "C 2/M"
_symmetry_group_IT_number 12
_symmetry_cell_setting 'monoclinic'
loop_
_space_group_symop_operation_xyz
x,y,z
-x,y,-z
-x,-y,-z
x,-y,z
1/2+x,1/2+y,z
1/2-x,1/2+y,-z
1/2-x,1/2-y,-z
1/2+x,1/2-y,z
loop_
_atom_site_type_symbol
_atom_site_label
_atom_site_fract_x
_atom_site_fract_y
_atom_site_fract_z
Si Si1 0.566536 0.073764 0.866509
Si Si2 0.616963 0.262477 0.708185
Si Si3 0.687286 0.782133 0.597704
Si Si4 0.647449 0.579545 0.936020
Si Si5 0.787075 0.378297 0.210134
Si Si6 0.237410 0.427507 0.662955
Si Si7 0.818979 0.891519 0.192395
O O1 0.576519 0.109243 0.804479
O O2 0.357072 0.073361 0.830270
O O3 0.630800 0.000000 0.873648
O O4 0.713895 0.100358 0.964494
O O5 0.699690 0.258055 0.665573
O O6 0.386756 0.266938 0.627313
O O7 0.689866 0.196431 0.762966
O O8 0.670187 0.322015 0.769758
O O9 0.500000 0.763581 0.500000
O O10 0.673546 0.860270 0.609193
O O11 0.652953 0.500000 0.932461
O O12 0.429667 0.602694 0.877880
O O13 0.713891 0.609056 0.891518
O O14 0.823423 0.419009 0.284557
O O15 0.177186 0.500000 0.621725
O O16 0.470379 0.423709 0.734363
#
# Coordination Sequence:
#
# PCOD9182361 Si02
#       7
#     8   8   8   8   8   8   8
#     4  11  20  30  49  75  99 128 169 213 251 283
#     4  10  21  36  53  74 100 130 166 198 239 298
#     4  10  20  35  56  78 101 127 157 199 246 296
#     4  10  20  34  50  70  99 133 170 210 248 284
#     4  10  19  33  50  70  99 134 168 205 242 287
#     4   9  18  33  53  75 100 131 163 199 244 292
#     4  10  19  33  50  70  99 134 168 205 242 287
#
# _framework density 18.163796000000001
#
# number of rings (size 3 to 8) (size 9 to 14) (size 15 to 20)
#    0.000    2.000    0.000    6.429    0.000    2.571 
#    0.000    4.286    0.000    0.000    0.000    0.000 
#    0.000   26.286    0.000    0.000    0.000    0.000 
#
# Total GULP energy -156102.779936 kJ/mol
# GULP energy per Si atom -5575.099283 kJ/mol
# Density = 1.812245 g / cm^3
# Si number density = 18.163796 Si / 1000 Ang^3
#
#
#
# Elastic Constant Matrix: (Units=GPa)
#
#
# Indices 1 2 3 4 5 6 
#
# 1 63.6800 -3.4190 -1.7030 0.0001 -6.6303 0.0000
# 2 -3.4190 74.5603 6.6105 0.0001 -5.6714 0.0001
# 3 -1.7030 6.6105 43.3921 0.0001 0.6722 0.0001
# 4 0.0001 0.0001 0.0001 3.6516 0.0001 -7.2119
# 5 -6.6303 -5.6714 0.6722 0.0001 19.2230 0.0001
# 6 0.0000 0.0001 0.0001 -7.2119 0.0001 7.9332
#
#
#
# Elastic Compliance Matrix: (Units=1/GPa)
#
#
# Indices 1 2 3 4 5 6 
#
# 1 0.016400 0.001175 0.000372 0.000001 0.005990 0.000001
# 2 0.001175 0.014008 -0.002159 0.000001 0.004614 0.000001
# 3 0.000372 -0.002159 0.023410 0.000002 -0.001327 0.000001
# 4 0.000001 0.000001 0.000002 -0.344287 0.000003 -0.312983
# 5 0.005990 0.004614 -0.001327 0.000003 0.055495 0.000002
# 6 0.000001 0.000001 0.000001 -0.312983 0.000002 -0.158472
#
#
# Mechanical properties :
#
#
# Convention : Reuss Voigt Hill
#
# Bulk Modulus (GPa) = 19.01408 20.51216 19.76312
# Shear Modulus (GPa) = -13.34437 18.17115 2.41339
#
# Velocity S-wave (km/s) = -2.71342 3.16635 1.15393
# Velocity P-wave (km/s) = 0.82097 4.96841 3.56083
#
# Compressibility (1/GPa) = 0.05259261
#
# Stress axis : x y z
#
# Youngs Moduli (GPa) = 60.97472 71.38663 42.71712
#
# Poissons Ratio (x) = -0.08386 -0.01589
# Poissons Ratio (y) = -0.07163 0.09225
# Poissons Ratio (z) = -0.02268 0.15416
#
# Static dielectric constant tensor:
#      x y z
#    x 1.612560 0.000000 -0.002640 
#    y 0.000000 1.634620 0.000000 
#    z -0.002640 0.000000 1.610600 
# 
# From -- ./inp_files/257589.got.cif
#   From: 2010.05.17/outbox.cif.g08.bks.cpg/sg12_129_cif.got.tgz:257589.got - 2010.06.03 13:09:07.
