data_PCOD9182882
_publ_section_title
;
Structure prediction by ZEFSAII (Michael W. Deem and Ramdas Pophale) SiO2 
 PCOD9182882
Probable space group: C 2/M
;
_chemical_formula_sum "Si O2"
_cell_formula_units_Z 64
_cell_length_a 23.799062
_cell_length_b 8.084123
_cell_length_c 23.779662
_cell_angle_alpha 90.000000
_cell_angle_beta 135.696314
_cell_angle_gamma 90.000000
_cell_volume 3195.514517
_symmetry_space_group_name_H-M "C 2/M"
_symmetry_group_IT_number 12
_symmetry_cell_setting 'monoclinic'
loop_
_space_group_symop_operation_xyz
x,y,z
-x,y,-z
-x,-y,-z
x,-y,z
1/2+x,1/2+y,z
1/2-x,1/2+y,-z
1/2-x,1/2-y,-z
1/2+x,1/2-y,z
loop_
_atom_site_type_symbol
_atom_site_label
_atom_site_fract_x
_atom_site_fract_y
_atom_site_fract_z
Si Si1 0.952781 0.701704 0.050573
Si Si2 0.690576 0.810167 0.591623
Si Si3 0.107074 0.806483 0.421293
Si Si4 0.378656 0.798099 0.880851
Si Si5 0.424590 0.698157 0.274621
Si Si6 0.041178 0.699630 0.821558
Si Si7 0.200901 0.199992 0.722849
Si Si8 0.143210 0.692419 0.329750
O O1 0.952110 0.500000 0.050237
O O2 0.929189 0.756419 0.096090
O O3 0.044539 0.751672 0.101549
O O4 0.897969 0.753392 0.958814
O O5 0.647248 0.713452 0.510398
O O6 0.670877 0.749815 0.639875
O O7 0.785964 0.787200 0.650310
O O8 0.668154 0.000000 0.569255
O O9 0.152092 0.711292 0.403414
O O10 0.014671 0.745034 0.355416
O O11 0.107389 0.000000 0.405756
O O12 0.292282 0.740477 0.797897
O O13 0.377985 0.000000 0.879534
O O14 0.424740 0.500000 0.279675
O O15 0.412857 0.740870 0.200815
O O16 0.357531 0.761349 0.269510
O O17 0.041631 0.500000 0.820669
O O18 0.947258 0.750930 0.748366
O O19 0.202817 0.000000 0.726392
O O20 0.149410 0.500000 0.317776
#
# Coordination Sequence:
#
# PCOD9182882 Si02
#       8
#     8   8   8   8   8   8   8   8
#     4   8  13  24  46  79 106 127 159 202 246 290
#     4  12  24  35  50  75 102 130 163 206 256 306
#     4  10  20  36  54  73  99 132 167 207 250 297
#     4   8  14  26  48  75 104 130 160 203 247 290
#     4   9  20  36  53  71  96 131 171 210 251 293
#     4   9  17  30  52  77 102 132 169 206 244 290
#     4  10  20  36  54  72  96 132 173 211 248 293
#     4  10  19  33  53  78 105 133 164 203 248 297
#
# _framework density 20.028074
#
# number of rings (size 3 to 8) (size 9 to 14) (size 15 to 20)
#    0.000    2.500    0.000    3.750    0.000    4.000 
#    0.000    3.125    0.000    0.750    0.000    2.625 
#    0.000    0.000    0.000    0.000    0.000    0.000 
#
# Total GULP energy -178595.485176 kJ/mol
# GULP energy per Si atom -5581.108912 kJ/mol
# Density = 1.998249 g / cm^3
# Si number density = 20.028074 Si / 1000 Ang^3
#
#
#
# Elastic Constant Matrix: (Units=GPa)
#
#
# Indices 1 2 3 4 5 6 
#
# 1 94.5258 0.6988 27.1750 0.0000 -29.3894 0.0000
# 2 0.6988 14.5895 -3.5777 0.0000 4.6406 0.0000
# 3 27.1750 -3.5777 46.2211 0.0000 -25.0511 0.0000
# 4 0.0000 0.0000 0.0000 10.4083 0.0000 -5.9342
# 5 -29.3894 4.6406 -25.0511 0.0000 29.6608 0.0000
# 6 0.0000 0.0000 0.0000 -5.9342 0.0000 19.7718
#
#
#
# Elastic Compliance Matrix: (Units=1/GPa)
#
#
# Indices 1 2 3 4 5 6 
#
# 1 0.015827 -0.006012 -0.001404 0.000000 0.015437 0.000000
# 2 -0.006012 0.074440 -0.000450 0.000000 -0.017984 0.000000
# 3 -0.001404 -0.000450 0.040037 0.000000 0.032494 0.000000
# 4 0.000000 0.000000 0.000000 0.115911 0.000000 0.034789
# 5 0.015437 -0.017984 0.032494 0.000000 0.079268 0.000000
# 6 0.000000 0.000000 0.000000 0.034789 0.000000 0.061018
#
#
# Mechanical properties :
#
#
# Convention : Reuss Voigt Hill
#
# Bulk Modulus (GPa) = 8.72824 22.65873 15.69348
# Shear Modulus (GPa) = 11.35266 20.70421 16.02844
#
# Velocity S-wave (km/s) = 2.38342 3.21870 2.83202
# Velocity P-wave (km/s) = 3.45568 5.01512 4.30657
#
# Compressibility (1/GPa) = 0.11457063
#
# Stress axis : x y z
#
# Youngs Moduli (GPa) = 63.18437 13.43359 24.97687
#
# Poissons Ratio (x) = 0.08077 0.03507
# Poissons Ratio (y) = 0.37989 0.01125
# Poissons Ratio (z) = 0.08871 0.00605
#
# Static dielectric constant tensor:
#      x y z
#    x 1.700360 0.000000 -0.008120 
#    y 0.000000 1.705190 0.000000 
#    z -0.008120 0.000000 1.713970 
# 
# From -- ./inp_files/346181.got.cif
#   From: 2010.05.17/outbox.cif.g08.bks.cpg/sg12_174_cif.got.tgz:346181.got - 2010.06.03 13:09:07.
