data_PCOD9182589
_publ_section_title
;
Structure prediction by ZEFSAII (Michael W. Deem and Ramdas Pophale) SiO2 
 PCOD9182589
Probable space group: C 2/M
;
_chemical_formula_sum "Si O2"
_cell_formula_units_Z 48
_cell_length_a 18.119458
_cell_length_b 12.323067
_cell_length_c 22.388944
_cell_angle_alpha 90.000000
_cell_angle_beta 144.751614
_cell_angle_gamma 90.000000
_cell_volume 2885.130035
_symmetry_space_group_name_H-M "C 2/M"
_symmetry_group_IT_number 12
_symmetry_cell_setting 'monoclinic'
loop_
_space_group_symop_operation_xyz
x,y,z
-x,y,-z
-x,-y,-z
x,-y,z
1/2+x,1/2+y,z
1/2-x,1/2+y,-z
1/2-x,1/2-y,-z
1/2+x,1/2-y,z
loop_
_atom_site_type_symbol
_atom_site_label
_atom_site_fract_x
_atom_site_fract_y
_atom_site_fract_z
Si Si1 0.460610 0.500000 0.071182
Si Si2 0.519100 0.130659 0.221413
Si Si3 0.678278 0.786577 0.808143
Si Si4 0.069876 0.130721 0.639128
Si Si5 0.709315 0.500000 0.162554
Si Si6 0.129883 0.233935 0.963907
Si Si7 0.190706 0.131152 0.591888
O O1 0.607625 0.500000 0.148503
O O2 0.424211 0.612080 0.079006
O O3 0.374057 0.500000 0.953879
O O4 0.425249 0.176119 0.210670
O O5 0.472788 0.179993 0.127486
O O6 0.665829 0.164735 0.328798
O O7 0.509248 0.000000 0.214244
O O8 0.625285 0.690203 0.733053
O O9 0.708642 0.890917 0.787195
O O10 0.809179 0.755704 0.929927
O O11 0.150753 0.160321 0.633124
O O12 0.923862 0.165130 0.527684
O O13 0.073591 0.000000 0.647920
O O14 0.250000 0.250000 0.000000
O O15 0.189621 0.000000 0.589907
#
# Coordination Sequence:
#
# PCOD9182589 Si02
#       7
#     4   8   8   8   4   8   8
#     4   9  18  34  50  73 102 141 175 201 246 304
#     4  10  19  34  52  75 102 138 175 210 255 305
#     4  10  19  33  52  76 103 136 170 212 254 305
#     4   9  18  34  54  77 100 129 171 218 261 302
#     4   9  18  32  52  72 103 136 173 205 244 312
#     4   9  20  32  51  75 105 139 169 207 250 300
#     4   8  17  34  55  73  97 133 173 212 257 310
#
# _framework density 16.637031
#
# number of rings (size 3 to 8) (size 9 to 14) (size 15 to 20)
#    0.000    2.833    0.833    1.000    5.833    1.333 
#    4.500    0.000    0.000    6.000    0.000    0.000 
#    0.000    0.000    0.000    0.000    0.000    0.000 
#
# Total GULP energy -133615.885456 kJ/mol
# GULP energy per Si atom -5567.328561 kJ/mol
# Density = 1.659916 g / cm^3
# Si number density = 16.637031 Si / 1000 Ang^3
#
#
#
# Elastic Constant Matrix: (Units=GPa)
#
#
# Indices 1 2 3 4 5 6 
#
# 1 60.2944 39.6187 33.0668 0.0000 14.5032 0.0000
# 2 39.6187 73.4286 43.5930 0.0000 -5.7805 0.0000
# 3 33.0668 43.5930 84.6563 0.0000 2.4577 0.0000
# 4 0.0000 0.0000 0.0000 24.7674 0.0000 -8.5530
# 5 14.5032 -5.7805 2.4577 0.0000 26.3473 0.0000
# 6 0.0000 0.0000 0.0000 -8.5530 0.0000 2.2081
#
#
#
# Elastic Compliance Matrix: (Units=1/GPa)
#
#
# Indices 1 2 3 4 5 6 
#
# 1 0.037892 -0.020241 -0.003653 0.000001 -0.024958 0.000002
# 2 -0.020241 0.031182 -0.008697 0.000000 0.018794 -0.000001
# 3 -0.003653 -0.008697 0.017763 0.000000 -0.001554 -0.000001
# 4 0.000001 0.000000 0.000000 -0.119594 -0.000001 -0.463233
# 5 -0.024958 0.018794 -0.001554 -0.000001 0.055962 -0.000002
# 6 0.000002 -0.000001 -0.000001 -0.463233 -0.000002 -1.341413
#
#
# Mechanical properties :
#
#
# Convention : Reuss Voigt Hill
#
# Bulk Modulus (GPa) = 46.17685 50.10404 48.14045
# Shear Modulus (GPa) = -4.01346 17.47128 6.72891
#
# Velocity S-wave (km/s) = -1.55486 3.24411 2.01329
# Velocity P-wave (km/s) = 4.95906 6.64934 5.86540
#
# Compressibility (1/GPa) = 0.02165587
#
# Stress axis : x y z
#
# Youngs Moduli (GPa) = 26.39059 32.06966 56.29745
#
# Poissons Ratio (x) = 0.64911 0.20568
# Poissons Ratio (y) = 0.53417 0.48959
# Poissons Ratio (z) = 0.09641 0.27889
#
# Static dielectric constant tensor:
#      x y z
#    x 1.565420 0.000000 0.011830 
#    y 0.000000 1.550040 0.000000 
#    z 0.011830 0.000000 1.583430 
# 
# From -- ./inp_files/346900.got.cif
#   From: 2010.05.17/outbox.cif.g08.bks.cpg/sg12_174_cif.got.tgz:346900.got - 2010.06.03 13:09:07.
