data_PCOD9182427
_publ_section_title
;
Structure prediction by ZEFSAII (Michael W. Deem and Ramdas Pophale) SiO2 
 PCOD9182427
Probable space group: C 2/M
;
_chemical_formula_sum "Si O2"
_cell_formula_units_Z 64
_cell_length_a 23.498836
_cell_length_b 14.181704
_cell_length_c 11.755815
_cell_angle_alpha 90.000000
_cell_angle_beta 70.033597
_cell_angle_gamma 90.000000
_cell_volume 3682.187766
_symmetry_space_group_name_H-M "C 2/M"
_symmetry_group_IT_number 12
_symmetry_cell_setting 'monoclinic'
loop_
_space_group_symop_operation_xyz
x,y,z
-x,y,-z
-x,-y,-z
x,-y,z
1/2+x,1/2+y,z
1/2-x,1/2+y,-z
1/2-x,1/2-y,-z
1/2+x,1/2-y,z
loop_
_atom_site_type_symbol
_atom_site_label
_atom_site_fract_x
_atom_site_fract_y
_atom_site_fract_z
Si Si1 0.405335 0.108015 0.616040
Si Si2 0.700044 0.107334 0.121231
Si Si3 0.381663 0.890279 0.242609
Si Si4 0.335616 0.392502 0.121132
Si Si5 0.520347 0.110446 0.222623
Si Si6 0.832304 0.288211 0.487820
Si Si7 0.880055 0.704764 0.999604
Si Si8 0.206928 0.889414 0.596281
O O1 0.348717 0.111090 0.743061
O O2 0.462583 0.129786 0.657491
O O3 0.387666 0.178643 0.528283
O O4 0.410440 0.000000 0.568771
O O5 0.767218 0.123130 0.121655
O O6 0.697337 0.000000 0.077690
O O7 0.676877 0.177866 0.040923
O O8 0.450765 0.879684 0.238081
O O9 0.341587 0.828892 0.354936
O O10 0.377361 0.855048 0.117038
O O11 0.365096 0.000000 0.262819
O O12 0.352959 0.500000 0.081872
O O13 0.377390 0.313393 0.037457
O O14 0.330899 0.383745 0.260903
O O15 0.537501 0.000000 0.192622
O O16 0.561573 0.173664 0.112571
O O17 0.822499 0.176744 0.480295
O O18 0.772091 0.340748 0.573560
O O19 0.214146 0.000000 0.563116
#
# Coordination Sequence:
#
# PCOD9182427 Si02
#       8
#     8   8   8   8   8   8   8   8
#     4   9  16  30  51  74 100 135 169 200 244 301
#     4   9  17  30  50  74 102 135 166 197 245 304
#     4  11  21  32  49  79 107 130 163 208 256 298
#     4  10  19  33  51  73 101 135 174 208 242 293
#     4   9  20  35  52  73 103 138 166 202 253 304
#     4  11  20  32  54  78 101 131 168 207 248 292
#     4  11  19  32  50  74 100 138 171 202 247 302
#     4  10  20  35  51  74 107 136 165 201 248 304
#
# _framework density 17.380970999999999
#
# number of rings (size 3 to 8) (size 9 to 14) (size 15 to 20)
#    0.000    2.000    2.500    3.750    0.000    1.500 
#    0.000    1.875    0.000    5.250    0.000    0.875 
#    0.000    0.000    0.000    0.000    0.000    0.000 
#
# Total GULP energy -178543.363667 kJ/mol
# GULP energy per Si atom -5579.480115 kJ/mol
# Density = 1.734141 g / cm^3
# Si number density = 17.380971 Si / 1000 Ang^3
#
#
#
# Elastic Constant Matrix: (Units=GPa)
#
#
# Indices 1 2 3 4 5 6 
#
# 1 28.4512 16.4198 7.5851 0.0000 9.0541 0.0000
# 2 16.4198 115.2406 33.2779 0.0000 4.8486 0.0000
# 3 7.5851 33.2779 51.1969 0.0000 14.0719 0.0000
# 4 0.0000 0.0000 0.0000 29.1253 0.0000 3.1069
# 5 9.0541 4.8486 14.0719 0.0000 24.7926 0.0000
# 6 0.0000 0.0000 0.0000 3.1069 0.0000 14.7441
#
#
#
# Elastic Compliance Matrix: (Units=1/GPa)
#
#
# Indices 1 2 3 4 5 6 
#
# 1 0.043093 -0.006005 0.001803 0.000000 -0.015586 0.000000
# 2 -0.006005 0.011621 -0.007870 0.000000 0.004387 0.000000
# 3 0.001803 -0.007870 0.028601 0.000000 -0.015352 0.000000
# 4 0.000000 0.000000 0.000000 0.035124 0.000000 -0.007401
# 5 -0.015586 0.004387 -0.015352 0.000000 0.053882 0.000000
# 6 0.000000 0.000000 0.000000 -0.007401 0.000000 0.069383
#
#
# Mechanical properties :
#
#
# Convention : Reuss Voigt Hill
#
# Bulk Modulus (GPa) = 16.90038 34.38383 25.64210
# Shear Modulus (GPa) = 17.50875 22.90612 20.20743
#
# Velocity S-wave (km/s) = 3.17732 3.63421 3.41342
# Velocity P-wave (km/s) = 4.81717 6.11844 5.50638
#
# Compressibility (1/GPa) = 0.05917027
#
# Stress axis : x y z
#
# Youngs Moduli (GPa) = 23.20577 86.05073 34.96440
#
# Poissons Ratio (x) = 0.51671 -0.06302
# Poissons Ratio (y) = 0.13934 0.27516
# Poissons Ratio (z) = -0.04183 0.67721
#
# Static dielectric constant tensor:
#      x y z
#    x 1.605370 0.000000 0.004630 
#    y 0.000000 1.587840 0.000000 
#    z 0.004630 0.000000 1.594300 
# 
# From -- ./inp_files/182037.got.cif
#   From: 2010.05.17/outbox.cif.g08.bks.cpg/sg12_92_cif.got.tgz:182037.got - 2010.06.03 13:09:07.
