data_PCOD9182124
_publ_section_title
;
Structure prediction by ZEFSAII (Michael W. Deem and Ramdas Pophale) SiO2 
 PCOD9182124
Probable space group: C 2/M
;
_chemical_formula_sum "Si O2"
_cell_formula_units_Z 28
_cell_length_a 11.115616
_cell_length_b 23.549304
_cell_length_c 6.925913
_cell_angle_alpha 90.000000
_cell_angle_beta 35.207965
_cell_angle_gamma 90.000000
_cell_volume 1045.255680
_symmetry_space_group_name_H-M "C 2/M"
_symmetry_group_IT_number 12
_symmetry_cell_setting 'monoclinic'
loop_
_space_group_symop_operation_xyz
x,y,z
-x,y,-z
-x,-y,-z
x,-y,z
1/2+x,1/2+y,z
1/2-x,1/2+y,-z
1/2-x,1/2-y,-z
1/2+x,1/2-y,z
loop_
_atom_site_type_symbol
_atom_site_label
_atom_site_fract_x
_atom_site_fract_y
_atom_site_fract_z
Si Si1 0.021602 0.684401 0.205672
Si Si2 0.454779 0.939293 0.832460
Si Si3 0.518749 0.691907 0.205206
Si Si4 0.500000 0.404252 0.500000
O O1 0.930082 0.746190 0.381658
O O2 0.951746 0.621017 0.359327
O O3 0.249306 0.688398 0.007928
O O4 0.000000 0.685653 0.000000
O O5 0.201472 0.936135 0.153009
O O6 0.534036 0.000000 0.652703
O O7 0.500000 0.940417 0.000000
O O8 0.416406 0.637865 0.442126
O O9 0.500000 0.686545 0.000000
#
# Coordination Sequence:
#
# PCOD9182124 Si02
#       4
#     8   8   8   4
#     4   8  15  30  48  71 104 134 166 212 259 304
#     4   9  17  31  52  76 104 139 179 218 256 312
#     4   9  17  31  51  78 109 134 170 221 266 316
#     4  10  19  32  56  82 101 138 180 214 270 320
#
# _framework density 26.787704000000002
#
# number of rings (size 3 to 8) (size 9 to 14) (size 15 to 20)
#    0.000    3.143    0.000    0.429    0.000    0.000 
#    0.000   51.429    0.000   33.429    0.000   27.000 
#    0.000    0.000    0.000    0.000    0.000    0.286 
#
# Total GULP energy -78085.366073 kJ/mol
# GULP energy per Si atom -5577.526148 kJ/mol
# Density = 2.672673 g / cm^3
# Si number density = 26.787704 Si / 1000 Ang^3
#
#
#
# Elastic Constant Matrix: (Units=GPa)
#
#
# Indices 1 2 3 4 5 6 
#
# 1 219.5789 20.8421 54.4612 0.0000 12.2558 0.0000
# 2 20.8421 247.0866 -2.0571 0.0000 8.9324 0.0000
# 3 54.4612 -2.0571 35.5864 0.0000 -16.7849 0.0000
# 4 0.0000 0.0000 0.0000 14.9900 0.0000 13.0009
# 5 12.2558 8.9324 -16.7849 0.0000 76.9000 0.0000
# 6 0.0000 0.0000 0.0000 13.0009 0.0000 65.5525
#
#
#
# Elastic Compliance Matrix: (Units=1/GPa)
#
#
# Indices 1 2 3 4 5 6 
#
# 1 0.008787 -0.000700 -0.015730 0.000000 -0.004753 0.000000
# 2 -0.000700 0.004120 0.001267 0.000000 -0.000090 0.000000
# 3 -0.015730 0.001267 0.059484 0.000000 0.015343 0.000000
# 4 0.000000 0.000000 0.000000 0.080570 0.000000 -0.015979
# 5 -0.004753 -0.000090 0.015343 0.000000 0.017121 0.000000
# 6 0.000000 0.000000 0.000000 -0.015979 0.000000 0.018424
#
#
# Mechanical properties :
#
#
# Convention : Reuss Voigt Hill
#
# Bulk Modulus (GPa) = 23.77253 72.08268 47.92760
# Shear Modulus (GPa) = 21.47259 60.08889 40.78074
#
# Velocity S-wave (km/s) = 2.83430 4.74133 3.90599
# Velocity P-wave (km/s) = 4.42772 7.54592 6.18650
#
# Compressibility (1/GPa) = 0.04206536
#
# Stress axis : x y z
#
# Youngs Moduli (GPa) = 113.79869 242.71491 16.81111
#
# Poissons Ratio (x) = 0.16999 0.26444
# Poissons Ratio (y) = 0.07970 -0.02131
# Poissons Ratio (z) = 1.79009 -0.30763
#
# Static dielectric constant tensor:
#      x y z
#    x 2.042300 0.000000 -0.009000 
#    y 0.000000 2.110180 0.000000 
#    z -0.009000 0.000000 2.334970 
# 
# From -- ./inp_files/49604.got.cif
#   From: 2010.05.17/outbox.cif.g08.bks.cpg/sg12_25_cif.got.tgz:49604.got - 2010.06.03 13:09:07.
