data_PCOD9182356
_publ_section_title
;
Structure prediction by ZEFSAII (Michael W. Deem and Ramdas Pophale) SiO2 
 PCOD9182356
Probable space group: C 2/M
;
_chemical_formula_sum "Si O2"
_cell_formula_units_Z 56
_cell_length_a 8.635723
_cell_length_b 31.605291
_cell_length_c 13.693128
_cell_angle_alpha 90.000000
_cell_angle_beta 108.380759
_cell_angle_gamma 90.000000
_cell_volume 3546.656439
_symmetry_space_group_name_H-M "C 2/M"
_symmetry_group_IT_number 12
_symmetry_cell_setting 'monoclinic'
loop_
_space_group_symop_operation_xyz
x,y,z
-x,y,-z
-x,-y,-z
x,-y,z
1/2+x,1/2+y,z
1/2-x,1/2+y,-z
1/2-x,1/2-y,-z
1/2+x,1/2-y,z
loop_
_atom_site_type_symbol
_atom_site_label
_atom_site_fract_x
_atom_site_fract_y
_atom_site_fract_z
Si Si1 0.200294 0.797896 0.273779
Si Si2 0.007436 0.865755 0.883878
Si Si3 0.623557 0.865755 0.116122
Si Si4 0.494096 0.953794 0.116665
Si Si5 0.073484 0.702104 0.273779
Si Si6 0.686043 0.202424 0.500000
Si Si7 0.122568 0.953794 0.116665
O O1 0.132154 0.750000 0.264309
O O2 0.383411 0.796949 0.266823
O O3 0.211950 0.815095 0.388153
O O4 0.088697 0.827880 0.186434
O O5 0.194406 0.865798 0.888811
O O6 0.926454 0.910872 0.839113
O O7 0.000000 0.861696 0.000000
O O8 0.587341 0.910872 0.160887
O O9 0.597738 0.827880 0.186434
O O10 0.500000 0.861696 0.000000
O O11 0.306885 0.949967 0.113771
O O12 0.556144 0.000000 0.163196
O O13 0.500000 0.954955 0.000000
O O14 0.176202 0.684905 0.388153
O O15 0.500000 0.203794 0.500000
O O16 0.750000 0.250000 0.500000
O O17 0.107052 0.000000 0.163196
O O18 0.000000 0.954955 0.000000
#
# Coordination Sequence:
#
# PCOD9182356 Si02
#       7
#     8   8   8   8   8   8   8
#     4  10  19  33  50  70  94 121 154 190 229 272
#     4  11  21  32  46  67  95 127 158 189 227 272
#     4  11  21  32  46  67  95 127 158 189 227 272
#     4   9  16  27  44  65  89 118 151 188 228 269
#     4  10  19  33  50  70  94 121 154 190 229 272
#     4   8  16  30  50  70  89 114 147 190 232 269
#     4   9  16  27  44  65  89 118 151 188 228 269
#
# _framework density 15.78952
#
# number of rings (size 3 to 8) (size 9 to 14) (size 15 to 20)
#    0.000    2.286    0.000    6.000    0.000    3.429 
#    0.000    2.857    0.000    0.000    0.000    1.000 
#    0.000    8.000    0.000    0.000    0.000    0.000 
#
# Total GULP energy -155894.913700 kJ/mol
# GULP energy per Si atom -5567.675489 kJ/mol
# Density = 1.575358 g / cm^3
# Si number density = 15.789520 Si / 1000 Ang^3
#
#
#
# Elastic Constant Matrix: (Units=GPa)
#
#
# Indices 1 2 3 4 5 6 
#
# 1 95.3165 49.8517 37.6792 0.0000 0.6206 0.0000
# 2 49.8517 120.4177 59.3988 0.0000 -0.2178 0.0000
# 3 37.6792 59.3988 82.4163 0.0000 -0.3263 0.0000
# 4 0.0000 0.0000 0.0000 -1.5253 0.0000 0.6781
# 5 0.6206 -0.2178 -0.3263 0.0000 15.2404 0.0000
# 6 0.0000 0.0000 0.0000 0.6781 0.0000 28.1942
#
#
#
# Elastic Compliance Matrix: (Units=1/GPa)
#
#
# Indices 1 2 3 4 5 6 
#
# 1 0.014003 -0.004095 -0.003453 0.000000 -0.000703 0.000000
# 2 -0.004095 0.014083 -0.008277 0.000000 0.000191 0.000000
# 3 -0.003453 -0.008277 0.019679 0.000000 0.000444 0.000000
# 4 0.000000 0.000000 0.000000 -0.648656 0.000000 0.015601
# 5 -0.000703 0.000191 0.000444 0.000000 0.065656 0.000000
# 6 0.000000 0.000000 0.000000 0.015601 0.000000 0.035093
#
#
# Mechanical properties :
#
#
# Convention : Reuss Voigt Hill
#
# Bulk Modulus (GPa) = 62.05486 65.77889 63.91688
# Shear Modulus (GPa) = -10.79633 18.46325 3.83346
#
# Velocity S-wave (km/s) = -2.61773 3.42326 1.55985
# Velocity P-wave (km/s) = 5.50000 7.57465 6.61911
#
# Compressibility (1/GPa) = 0.01611477
#
# Stress axis : x y z
#
# Youngs Moduli (GPa) = 71.41476 71.00911 50.81471
#
# Poissons Ratio (x) = 0.29077 0.17548
# Poissons Ratio (y) = 0.29243 0.42058
# Poissons Ratio (z) = 0.24662 0.58773
#
# Static dielectric constant tensor:
#      x y z
#    x 1.522370 0.000000 -0.000240 
#    y 0.000000 1.546280 0.000000 
#    z -0.000240 0.000000 1.532860 
# 
# From -- ./inp_files/199430.got.cif
#   From: 2010.05.17/outbox.cif.g08.bks.cpg/sg12_100_cif.got.tgz:199430.got - 2010.06.03 13:09:07.
