data_PCOD9182344
_publ_section_title
;
Structure prediction by ZEFSAII (Michael W. Deem and Ramdas Pophale) SiO2 
 PCOD9182344
Probable space group: C 2/M
;
_chemical_formula_sum "Si O2"
_cell_formula_units_Z 64
_cell_length_a 17.002786
_cell_length_b 26.087687
_cell_length_c 9.850338
_cell_angle_alpha 90.000000
_cell_angle_beta 73.682513
_cell_angle_gamma 90.000000
_cell_volume 4193.253855
_symmetry_space_group_name_H-M "C 2/M"
_symmetry_group_IT_number 12
_symmetry_cell_setting 'monoclinic'
loop_
_space_group_symop_operation_xyz
x,y,z
-x,y,-z
-x,-y,-z
x,-y,z
1/2+x,1/2+y,z
1/2-x,1/2+y,-z
1/2-x,1/2-y,-z
1/2+x,1/2-y,z
loop_
_atom_site_type_symbol
_atom_site_label
_atom_site_fract_x
_atom_site_fract_y
_atom_site_fract_z
Si Si1 0.540623 0.271065 0.342089
Si Si2 0.167674 0.141200 0.203135
Si Si3 0.817991 0.295771 0.626586
Si Si4 0.210434 0.690945 0.667755
Si Si5 0.033854 0.939645 0.339145
Si Si6 0.310951 0.653177 0.118170
Si Si7 0.928439 0.248065 0.140782
Si Si8 0.077071 0.059595 0.863330
O O1 0.500000 0.290733 0.500000
O O2 0.603459 0.312298 0.252570
O O3 0.593646 0.221033 0.358590
O O4 0.470902 0.262708 0.264760
O O5 0.235265 0.147571 0.287533
O O6 0.112849 0.090853 0.248970
O O7 0.204403 0.147933 0.035085
O O8 0.817289 0.317927 0.473927
O O9 0.767392 0.242163 0.639825
O O10 0.767840 0.331062 0.755336
O O11 0.134874 0.706288 0.800446
O O12 0.000000 0.921257 0.500000
O O13 0.960772 0.933615 0.267082
O O14 0.053041 0.000000 0.339679
O O15 0.377518 0.698497 0.114066
O O16 0.352058 0.600096 0.144550
O O17 0.000000 0.259554 0.000000
O O18 0.100840 0.000000 0.871812
O O19 0.000000 0.070203 0.000000
#
# Coordination Sequence:
#
# PCOD9182344 Si02
#       8
#     8   8   8   8   8   8   8   8
#     4  11  20  32  48  66  90 124 161 193 232 276
#     4  11  21  31  47  68  94 128 158 191 234 277
#     4   9  20  33  45  64  92 122 156 195 229 277
#     4   9  20  33  45  64  92 124 156 191 234 274
#     4  10  21  34  48  70  96 124 160 198 231 269
#     4  11  21  31  46  69  96 125 161 190 231 278
#     4  11  20  31  48  68  93 123 158 197 229 272
#     4  10  19  33  50  67  94 126 158 195 229 266
#
# _framework density 15.262611
#
# number of rings (size 3 to 8) (size 9 to 14) (size 15 to 20)
#    0.000    1.750    3.750    1.500    5.250    1.500 
#    0.000    0.000    0.000    0.000    0.000    0.000 
#    0.000    2.000    0.000    0.125    0.000    0.000 
#
# Total GULP energy -178463.401594 kJ/mol
# GULP energy per Si atom -5576.981300 kJ/mol
# Density = 1.522787 g / cm^3
# Si number density = 15.262611 Si / 1000 Ang^3
#
#
#
# Elastic Constant Matrix: (Units=GPa)
#
#
# Indices 1 2 3 4 5 6 
#
# 1 29.4226 12.7223 4.8538 0.0000 3.6125 0.0000
# 2 12.7223 46.5758 19.6603 0.0000 -0.7565 0.0000
# 3 4.8538 19.6603 89.2881 0.0000 6.1376 0.0000
# 4 0.0000 0.0000 0.0000 16.6925 0.0000 0.2045
# 5 3.6125 -0.7565 6.1376 0.0000 19.1290 0.0000
# 6 0.0000 0.0000 0.0000 0.2045 0.0000 -7.2942
#
#
#
# Elastic Compliance Matrix: (Units=1/GPa)
#
#
# Indices 1 2 3 4 5 6 
#
# 1 0.039772 -0.011383 0.000912 0.000000 -0.008254 0.000000
# 2 -0.011383 0.027062 -0.005687 0.000000 0.005044 0.000000
# 3 0.000912 -0.005687 0.012710 0.000000 -0.004475 0.000000
# 4 0.000000 0.000000 0.000000 0.059887 0.000000 0.001679
# 5 -0.008254 0.005044 -0.004475 0.000000 0.055471 0.000000
# 6 0.000000 0.000000 0.000000 0.001679 0.000000 -0.137048
#
#
# Mechanical properties :
#
#
# Convention : Reuss Voigt Hill
#
# Bulk Modulus (GPa) = 21.17368 26.63995 23.90682
# Shear Modulus (GPa) = 47.20909 14.24214 30.72561
#
# Velocity S-wave (km/s) = 5.56762 3.05805 4.49166
# Velocity P-wave (km/s) = 7.43197 5.47368 6.52669
#
# Compressibility (1/GPa) = 0.04722845
#
# Stress axis : x y z
#
# Youngs Moduli (GPa) = 25.14309 36.95218 78.67874
#
# Poissons Ratio (x) = 0.42062 -0.07173
# Poissons Ratio (y) = 0.28620 0.44743
# Poissons Ratio (z) = -0.02292 0.21014
#
# Static dielectric constant tensor:
#      x y z
#    x 1.504220 0.000000 0.012090 
#    y 0.000000 1.490400 0.000000 
#    z 0.012090 0.000000 1.536260 
# 
# From -- ./inp_files/66965.got.cif
#   From: 2010.05.17/outbox.cif.g08.bks.cpg/sg12_34_cif.got.tgz:66965.got - 2010.06.03 13:09:07.
