data_PCOD9182545
_publ_section_title
;
Structure prediction by ZEFSAII (Michael W. Deem and Ramdas Pophale) SiO2 
 PCOD9182545
Probable space group: C 2/M
;
_chemical_formula_sum "Si O2"
_cell_formula_units_Z 64
_cell_length_a 14.915281
_cell_length_b 7.538579
_cell_length_c 24.409500
_cell_angle_alpha 90.000000
_cell_angle_beta 100.171247
_cell_angle_gamma 90.000000
_cell_volume 2701.471524
_symmetry_space_group_name_H-M "C 2/M"
_symmetry_group_IT_number 12
_symmetry_cell_setting 'monoclinic'
loop_
_space_group_symop_operation_xyz
x,y,z
-x,y,-z
-x,-y,-z
x,-y,z
1/2+x,1/2+y,z
1/2-x,1/2+y,-z
1/2-x,1/2-y,-z
1/2+x,1/2-y,z
loop_
_atom_site_type_symbol
_atom_site_label
_atom_site_fract_x
_atom_site_fract_y
_atom_site_fract_z
Si Si1 0.397917 0.788915 0.498019
Si Si2 0.755097 0.283282 0.792650
Si Si3 0.583581 0.216977 0.045694
Si Si4 0.776840 0.214645 0.085248
Si Si5 0.224377 0.285375 0.413602
Si Si6 0.134975 0.705652 0.294298
Si Si7 0.560981 0.699438 0.746898
Si Si8 0.471980 0.795725 0.133956
O O1 0.500000 0.718089 0.500000
O O2 0.327746 0.760369 0.440520
O O3 0.343088 0.719740 0.545346
O O4 0.406899 0.000000 0.507011
O O5 0.755368 0.500000 0.796333
O O6 0.747767 0.229136 0.854826
O O7 0.836187 0.222439 0.762196
O O8 0.661786 0.224140 0.752752
O O9 0.686352 0.273669 0.042865
O O10 0.553088 0.266602 0.103984
O O11 0.583481 0.000000 0.044338
O O12 0.500000 0.280519 0.000000
O O13 0.878296 0.287887 0.088414
O O14 0.783118 0.000000 0.083006
O O15 0.218834 0.500000 0.412826
O O16 0.188482 0.217097 0.351542
O O17 0.161392 0.500000 0.295164
O O18 0.026758 0.713957 0.289084
O O19 0.564126 0.500000 0.726309
O O20 0.544845 0.698344 0.811056
O O21 0.490420 0.000000 0.150900
#
# Coordination Sequence:
#
# PCOD9182545 Si02
#       8
#     8   8   8   8   8   8   8   8
#     4   9  18  34  53  71  98 135 168 202 249 297
#     4   8  16  31  49  68  94 130 162 191 238 296
#     4   9  18  32  51  74  99 130 165 198 242 301
#     4   9  17  32  52  71  95 128 164 199 240 292
#     4   9  19  33  50  75 101 128 167 209 244 286
#     4  10  19  33  52  74 102 131 163 205 246 285
#     4  10  20  34  51  73 100 130 164 197 240 297
#     4  10  19  33  53  74  97 128 166 204 242 286
#
# _framework density 23.69079
#
# number of rings (size 3 to 8) (size 9 to 14) (size 15 to 20)
#    0.000    2.750    0.000    2.250    0.000    4.250 
#    0.000    6.875    0.000    2.625    0.000    0.000 
#    0.000    0.000    0.000    0.000    0.000    0.000 
#
# Total GULP energy -178637.445215 kJ/mol
# GULP energy per Si atom -5582.420163 kJ/mol
# Density = 2.363687 g / cm^3
# Si number density = 23.690790 Si / 1000 Ang^3
#
#
#
# Elastic Constant Matrix: (Units=GPa)
#
#
# Indices 1 2 3 4 5 6 
#
# 1 139.5938 -5.5963 15.4404 0.0000 28.4788 0.0000
# 2 -5.5963 56.0042 -7.4701 0.0000 -5.9806 0.0000
# 3 15.4404 -7.4701 55.4064 0.0000 20.6296 0.0000
# 4 0.0000 0.0000 0.0000 8.5062 0.0000 6.6747
# 5 28.4788 -5.9806 20.6296 0.0000 23.5408 0.0000
# 6 0.0000 0.0000 0.0000 6.6747 0.0000 11.6238
#
#
#
# Elastic Compliance Matrix: (Units=1/GPa)
#
#
# Indices 1 2 3 4 5 6 
#
# 1 0.009738 -0.000192 0.002471 0.000000 -0.013995 0.000000
# 2 -0.000192 0.018402 0.001050 0.000000 0.003987 0.000000
# 3 0.002471 0.001050 0.027482 0.000000 -0.026806 0.000000
# 4 0.000000 0.000000 0.000000 0.213973 0.000000 -0.122869
# 5 -0.013995 0.003987 -0.026806 0.000000 0.083914 0.000000
# 6 0.000000 0.000000 0.000000 -0.122869 0.000000 0.156585
#
#
# Mechanical properties :
#
#
# Convention : Reuss Voigt Hill
#
# Bulk Modulus (GPa) = 16.05624 28.41693 22.23658
# Shear Modulus (GPa) = 9.53842 25.30952 17.42397
#
# Velocity S-wave (km/s) = 2.00872 3.27207 2.71491
# Velocity P-wave (km/s) = 3.48885 5.12799 4.38568
#
# Compressibility (1/GPa) = 0.06228109
#
# Stress axis : x y z
#
# Youngs Moduli (GPa) = 102.69390 54.34058 36.38718
#
# Poissons Ratio (x) = 0.01042 -0.08992
# Poissons Ratio (y) = 0.01969 -0.03821
# Poissons Ratio (z) = -0.25377 -0.05706
#
# Static dielectric constant tensor:
#      x y z
#    x 1.887890 0.000000 0.015920 
#    y 0.000000 1.902400 0.000000 
#    z 0.015920 0.000000 1.927310 
# 
# From -- ./inp_files/359998.got.cif
#   From: 2010.05.17/outbox.cif.g08.bks.cpg/sg12_180_cif.got.tgz:359998.got - 2010.06.03 13:09:07.
