data_PCOD9182803
_publ_section_title
;
Structure prediction by ZEFSAII (Michael W. Deem and Ramdas Pophale) SiO2 
 PCOD9182803
Probable space group: C 2/M
;
_chemical_formula_sum "Si O2"
_cell_formula_units_Z 64
_cell_length_a 20.506253
_cell_length_b 7.650654
_cell_length_c 20.339264
_cell_angle_alpha 90.000000
_cell_angle_beta 97.172395
_cell_angle_gamma 90.000000
_cell_volume 3165.981505
_symmetry_space_group_name_H-M "C 2/M"
_symmetry_group_IT_number 12
_symmetry_cell_setting 'monoclinic'
loop_
_space_group_symop_operation_xyz
x,y,z
-x,y,-z
-x,-y,-z
x,-y,z
1/2+x,1/2+y,z
1/2-x,1/2+y,-z
1/2-x,1/2-y,-z
1/2+x,1/2-y,z
loop_
_atom_site_type_symbol
_atom_site_label
_atom_site_fract_x
_atom_site_fract_y
_atom_site_fract_z
Si Si1 0.434239 0.714298 0.529452
Si Si2 0.227921 0.712051 0.308421
Si Si3 0.691804 0.208255 0.943236
Si Si4 0.078011 0.792067 0.321422
Si Si5 0.045035 0.290645 0.946516
Si Si6 0.531375 0.288556 0.794635
Si Si7 0.300262 0.709285 0.448323
Si Si8 0.320775 0.704293 0.205428
O O1 0.500000 0.766568 0.500000
O O2 0.432789 0.500000 0.530606
O O3 0.429868 0.774642 0.604705
O O4 0.371136 0.774700 0.480143
O O5 0.227290 0.500000 0.308378
O O6 0.152170 0.764722 0.305844
O O7 0.269052 0.774879 0.376877
O O8 0.267422 0.776025 0.249478
O O9 0.620320 0.275229 0.957727
O O10 0.703916 0.280982 0.872130
O O11 0.686905 0.000000 0.936068
O O12 0.750000 0.250000 0.000000
O O13 0.024178 0.723995 0.262708
O O14 0.067138 0.000000 0.324063
O O15 0.047934 0.500000 0.954719
O O16 0.019120 0.256051 0.869519
O O17 0.000000 0.221360 0.000000
O O18 0.532790 0.500000 0.791752
O O19 0.604718 0.222675 0.784993
O O20 0.305873 0.500000 0.442236
O O21 0.250000 0.750000 0.500000
O O22 0.327956 0.500000 0.223292
#
# Coordination Sequence:
#
# PCOD9182803 Si02
#       8
#     8   8   8   8   8   8   8   8
#     4   9  18  31  51  77 102 132 173 217 259 305
#     4  10  21  34  52  76 104 138 175 213 258 313
#     4  10  20  35  56  81 108 138 173 213 256 305
#     4  10  20  34  52  77 106 135 171 216 262 307
#     4   9  19  36  56  77 102 135 172 206 248 305
#     4   9  19  34  53  76 103 133 169 214 256 297
#     4  10  19  33  53  76 102 135 173 215 263 311
#     4   9  19  36  54  75 104 138 175 215 258 304
#
# _framework density 20.214898999999999
#
# number of rings (size 3 to 8) (size 9 to 14) (size 15 to 20)
#    0.000    2.500    1.250    0.375    1.750    2.750 
#    0.000    3.750    0.000    1.500    0.000    0.000 
#    0.000    0.000    0.000    0.000    0.000    0.000 
#
# Total GULP energy -178565.158022 kJ/mol
# GULP energy per Si atom -5580.161188 kJ/mol
# Density = 2.016889 g / cm^3
# Si number density = 20.214899 Si / 1000 Ang^3
#
#
#
# Elastic Constant Matrix: (Units=GPa)
#
#
# Indices 1 2 3 4 5 6 
#
# 1 171.3904 -8.5715 122.9705 0.0000 -1.3029 0.0000
# 2 -8.5715 32.3741 -10.4288 0.0000 -1.8642 0.0000
# 3 122.9705 -10.4288 159.1824 0.0000 0.1644 0.0000
# 4 0.0000 0.0000 0.0000 10.5048 0.0000 -4.1687
# 5 -1.3029 -1.8642 0.1644 0.0000 46.0928 0.0000
# 6 0.0000 0.0000 0.0000 -4.1687 0.0000 16.6596
#
#
#
# Elastic Compliance Matrix: (Units=1/GPa)
#
#
# Indices 1 2 3 4 5 6 
#
# 1 0.013099 0.000237 -0.010104 0.000000 0.000416 0.000000
# 2 0.000237 0.031633 0.001888 0.000000 0.001279 0.000000
# 3 -0.010104 0.001888 0.014212 0.000000 -0.000260 0.000000
# 4 0.000000 0.000000 0.000000 0.105690 0.000000 0.026447
# 5 0.000416 0.001279 -0.000260 0.000000 0.021760 0.000000
# 6 0.000000 0.000000 0.000000 0.026447 0.000000 0.066643
#
#
# Mechanical properties :
#
#
# Convention : Reuss Voigt Hill
#
# Bulk Modulus (GPa) = 23.26327 63.43192 43.34759
# Shear Modulus (GPa) = 17.64760 31.91655 24.78207
#
# Velocity S-wave (km/s) = 2.95786 3.97780 3.50513
# Velocity P-wave (km/s) = 4.81645 7.24873 6.15396
#
# Compressibility (1/GPa) = 0.04298622
#
# Stress axis : x y z
#
# Youngs Moduli (GPa) = 76.33928 31.61207 70.36402
#
# Poissons Ratio (x) = -0.00750 0.71098
# Poissons Ratio (y) = -0.01811 -0.13284
# Poissons Ratio (z) = 0.77136 -0.05968
#
# Static dielectric constant tensor:
#      x y z
#    x 1.705300 0.000000 0.003350 
#    y 0.000000 1.769760 0.000000 
#    z 0.003350 0.000000 1.687950 
# 
# From -- ./inp_files/319257.got.cif
#   From: 2010.05.17/outbox.cif.g08.bks.cpg/sg12_160_cif.got.tgz:319257.got - 2010.06.03 13:09:07.
