data_PCOD9182160
_publ_section_title
;
Structure prediction by ZEFSAII (Michael W. Deem and Ramdas Pophale) SiO2 
 PCOD9182160
Probable space group: C 2/M
;
_chemical_formula_sum "Si O2"
_cell_formula_units_Z 58
_cell_length_a 19.700546
_cell_length_b 9.372601
_cell_length_c 17.535690
_cell_angle_alpha 90.000000
_cell_angle_beta 108.437952
_cell_angle_gamma 90.000000
_cell_volume 3071.672555
_symmetry_space_group_name_H-M "C 2/M"
_symmetry_group_IT_number 12
_symmetry_cell_setting 'monoclinic'
loop_
_space_group_symop_operation_xyz
x,y,z
-x,y,-z
-x,-y,-z
x,-y,z
1/2+x,1/2+y,z
1/2-x,1/2+y,-z
1/2-x,1/2-y,-z
1/2+x,1/2-y,z
loop_
_atom_site_type_symbol
_atom_site_label
_atom_site_fract_x
_atom_site_fract_y
_atom_site_fract_z
Si Si1 0.140871 0.343254 0.494947
Si Si2 0.291673 0.332807 0.347548
Si Si3 0.827971 0.832454 0.944198
Si Si4 0.500000 0.000000 0.500000
Si Si5 0.575319 0.667014 0.340314
Si Si6 0.414545 0.332249 0.265226
Si Si7 0.843487 0.667655 0.101242
Si Si8 0.162201 0.832579 0.223308
O O1 0.173821 0.500000 0.493343
O O2 0.188503 0.251535 0.569043
O O3 0.062812 0.378293 0.504371
O O4 0.125708 0.260788 0.411523
O O5 0.279101 0.500000 0.356851
O O6 0.359114 0.318346 0.314471
O O7 0.225746 0.261024 0.280283
O O8 0.741568 0.814549 0.912210
O O9 0.855038 0.792238 0.869706
O O10 0.842640 0.000000 0.963261
O O11 0.856837 0.739843 0.024173
O O12 0.581307 0.500000 0.364171
O O13 0.493341 0.714339 0.318706
O O14 0.597882 0.679337 0.260177
O O15 0.418872 0.500000 0.245912
O O16 0.386609 0.243952 0.183508
O O17 0.858739 0.500000 0.104780
O O18 0.184725 0.000000 0.229149
#
# Coordination Sequence:
#
# PCOD9182160 Si02
#       8
#     8   8   8   2   8   8   8   8
#     4  10  21  37  57  83 113 151 188 237 282 337
#     4  11  22  36  60  87 115 147 194 244 286 334
#     4   9  18  34  55  82 113 145 184 233 285 339
#     4   8  20  36  58  84 112 144 192 234 286 336
#     4  10  22  40  60  82 117 155 193 234 289 343
#     4  10  21  36  56  85 114 148 187 236 284 339
#     4  10  19  32  56  86 112 144 185 237 287 333
#     4  10  21  39  60  85 115 154 192 236 286 344
#
# _framework density 18.88222
#
# number of rings (size 3 to 8) (size 9 to 14) (size 15 to 20)
#    0.414    1.655    1.379    2.069    0.000    3.310 
#    0.000    3.448    0.000    4.138    0.000    0.000 
#    0.000    0.000    0.000    0.000    0.000    0.000 
#
# Total GULP energy -161621.722909 kJ/mol
# GULP energy per Si atom -5573.162859 kJ/mol
# Density = 1.883924 g / cm^3
# Si number density = 18.882220 Si / 1000 Ang^3
#
#
#
# Elastic Constant Matrix: (Units=GPa)
#
#
# Indices 1 2 3 4 5 6 
#
# 1 29.2672 6.3501 -9.6935 0.0000 -2.1962 0.0000
# 2 6.3501 73.9531 56.8842 0.0000 2.6194 0.0000
# 3 -9.6935 56.8842 101.9954 0.0000 -7.2323 0.0000
# 4 0.0000 0.0000 0.0000 37.1020 0.0000 1.9189
# 5 -2.1962 2.6194 -7.2323 0.0000 16.1371 0.0000
# 6 0.0000 0.0000 0.0000 1.9189 0.0000 18.0334
#
#
#
# Elastic Compliance Matrix: (Units=1/GPa)
#
#
# Indices 1 2 3 4 5 6 
#
# 1 0.042491 -0.014004 0.012828 0.000000 0.013805 0.000000
# 2 -0.014004 0.029999 -0.019151 0.000000 -0.015359 0.000000
# 3 0.012828 -0.019151 0.022772 0.000000 0.015060 0.000000
# 4 0.000000 0.000000 0.000000 0.027102 0.000000 -0.002884
# 5 0.013805 -0.015359 0.015060 0.000000 0.073090 0.000000
# 6 0.000000 0.000000 0.000000 -0.002884 0.000000 0.055760
#
#
# Mechanical properties :
#
#
# Convention : Reuss Voigt Hill
#
# Bulk Modulus (GPa) = 18.31273 34.69969 26.50621
# Shear Modulus (GPa) = 16.12526 24.36617 20.24571
#
# Velocity S-wave (km/s) = 2.92548 3.59615 3.27801
# Velocity P-wave (km/s) = 4.59682 5.97159 5.32872
#
# Compressibility (1/GPa) = 0.05460682
#
# Stress axis : x y z
#
# Youngs Moduli (GPa) = 23.53443 33.33394 43.91317
#
# Poissons Ratio (x) = 0.46682 -0.56330
# Poissons Ratio (y) = 0.32959 0.84099
# Poissons Ratio (z) = -0.30189 0.63838
#
# Static dielectric constant tensor:
#      x y z
#    x 1.664280 0.000000 -0.022250 
#    y 0.000000 1.643210 0.000000 
#    z -0.022250 0.000000 1.616260 
# 
# From -- ./inp_files/282208.got.cif
#   From: 2010.05.17/outbox.cif.g08.bks.cpg/sg12_142_cif.got.tgz:282208.got - 2010.06.03 13:09:07.
