data_PCOD9182215
_publ_section_title
;
Structure prediction by ZEFSAII (Michael W. Deem and Ramdas Pophale) SiO2 
 PCOD9182215
Probable space group: C 2/M
;
_chemical_formula_sum "Si O2"
_cell_formula_units_Z 64
_cell_length_a 21.051990
_cell_length_b 8.612496
_cell_length_c 22.230762
_cell_angle_alpha 90.000000
_cell_angle_beta 61.918194
_cell_angle_gamma 90.000000
_cell_volume 3556.159196
_symmetry_space_group_name_H-M "C 2/M"
_symmetry_group_IT_number 12
_symmetry_cell_setting 'monoclinic'
loop_
_space_group_symop_operation_xyz
x,y,z
-x,y,-z
-x,-y,-z
x,-y,z
1/2+x,1/2+y,z
1/2-x,1/2+y,-z
1/2-x,1/2-y,-z
1/2+x,1/2-y,z
loop_
_atom_site_type_symbol
_atom_site_label
_atom_site_fract_x
_atom_site_fract_y
_atom_site_fract_z
Si Si1 0.298809 0.186114 0.297338
Si Si2 0.579415 0.811197 0.447093
Si Si3 0.225453 0.686100 0.446880
Si Si4 0.927941 0.687708 0.156606
Si Si5 0.344641 0.812609 0.072643
Si Si6 0.678128 0.687627 0.156401
Si Si7 0.587947 0.685736 0.079958
Si Si8 0.160826 0.686071 0.291627
O O1 0.278950 0.258205 0.370325
O O2 0.375145 0.232085 0.234817
O O3 0.236308 0.240771 0.279587
O O4 0.296548 0.000000 0.302589
O O5 0.500000 0.754852 0.500000
O O6 0.645065 0.762161 0.461625
O O7 0.603336 0.768737 0.368714
O O8 0.577901 0.000000 0.450092
O O9 0.225201 0.500000 0.448602
O O10 0.250000 0.750000 0.500000
O O11 0.933282 0.500000 0.153674
O O12 0.889400 0.735821 0.111494
O O13 0.006626 0.758321 0.125096
O O14 0.261579 0.762590 0.114988
O O15 0.345206 0.000000 0.070916
O O16 0.380280 0.751715 0.996023
O O17 0.676651 0.500000 0.160865
O O18 0.636011 0.736308 0.115413
O O19 0.644742 0.755699 0.232149
O O20 0.590061 0.500000 0.076192
O O21 0.167308 0.500000 0.289563
#
# Coordination Sequence:
#
# PCOD9182215 Si02
#       8
#     8   8   8   8   8   8   8   8
#     4  10  19  36  60  82 109 148 190 229 273 329
#     4   8  16  33  55  80 110 141 178 222 265 317
#     4  10  20  35  57  85 115 147 186 230 276 325
#     4  10  21  38  59  80 106 147 188 224 275 337
#     4  10  20  38  61  79 102 144 191 227 268 337
#     4  10  21  39  57  77 111 149 183 223 278 331
#     4  11  24  37  53  82 116 145 176 232 289 325
#     4  10  19  32  57  87 109 140 186 232 272 321
#
# _framework density 17.996945
#
# number of rings (size 3 to 8) (size 9 to 14) (size 15 to 20)
#    0.000    2.125    1.250    3.000    0.000    4.500 
#    2.250    0.000    0.000   12.750    0.000    0.000 
#    0.000    0.000    0.000    0.000    0.000    0.000 
#
# Total GULP energy -178625.019340 kJ/mol
# GULP energy per Si atom -5582.031854 kJ/mol
# Density = 1.795598 g / cm^3
# Si number density = 17.996945 Si / 1000 Ang^3
#
#
#
# Elastic Constant Matrix: (Units=GPa)
#
#
# Indices 1 2 3 4 5 6 
#
# 1 83.2467 18.3650 53.5130 0.0003 -6.4603 0.0002
# 2 18.3650 23.2606 22.5767 0.0003 0.6288 -0.0001
# 3 53.5130 22.5767 126.5334 0.0002 -4.1259 0.0001
# 4 0.0003 0.0003 0.0002 28.7765 0.0001 2.0605
# 5 -6.4603 0.6288 -4.1259 0.0001 32.8909 0.0001
# 6 0.0002 -0.0001 0.0001 2.0605 0.0001 24.0593
#
#
#
# Elastic Compliance Matrix: (Units=1/GPa)
#
#
# Indices 1 2 3 4 5 6 
#
# 1 0.017953 -0.008439 -0.005991 0.000000 0.002936 0.000000
# 2 -0.008439 0.056117 -0.006560 0.000000 -0.003553 0.000000
# 3 -0.005991 -0.006560 0.011621 0.000000 0.000406 0.000000
# 4 0.000000 0.000000 0.000000 0.034965 0.000000 -0.002995
# 5 0.002936 -0.003553 0.000406 0.000000 0.031099 0.000000
# 6 0.000000 0.000000 0.000000 -0.002995 0.000000 0.041820
#
#
# Mechanical properties :
#
#
# Convention : Reuss Voigt Hill
#
# Bulk Modulus (GPa) = 22.87754 46.88335 34.88044
# Shear Modulus (GPa) = 19.98998 26.38439 23.18718
#
# Velocity S-wave (km/s) = 3.33640 3.83305 3.59332
# Velocity P-wave (km/s) = 5.25181 6.75996 6.05304
#
# Compressibility (1/GPa) = 0.04371100
#
# Stress axis : x y z
#
# Youngs Moduli (GPa) = 55.69962 17.82001 86.05465
#
# Poissons Ratio (x) = 0.15038 0.51558
# Poissons Ratio (y) = 0.47005 0.56448
# Poissons Ratio (z) = 0.33372 0.11689
#
# Static dielectric constant tensor:
#      x y z
#    x 1.601680 0.000000 -0.001710 
#    y 0.000000 1.614190 0.000000 
#    z -0.001710 0.000000 1.602860 
# 
# From -- ./inp_files/319928.got.cif
#   From: 2010.05.17/outbox.cif.g08.bks.cpg/sg12_160_cif.got.tgz:319928.got - 2010.06.03 13:09:07.
