data_PCOD9182539
_publ_section_title
;
Structure prediction by ZEFSAII (Michael W. Deem and Ramdas Pophale) SiO2 
 PCOD9182539
Probable space group: C 2/M
;
_chemical_formula_sum "Si O2"
_cell_formula_units_Z 64
_cell_length_a 30.691445
_cell_length_b 8.944922
_cell_length_c 15.203805
_cell_angle_alpha 90.000000
_cell_angle_beta 100.768761
_cell_angle_gamma 90.000000
_cell_volume 4100.433707
_symmetry_space_group_name_H-M "C 2/M"
_symmetry_group_IT_number 12
_symmetry_cell_setting 'monoclinic'
loop_
_space_group_symop_operation_xyz
x,y,z
-x,y,-z
-x,-y,-z
x,-y,z
1/2+x,1/2+y,z
1/2-x,1/2+y,-z
1/2-x,1/2-y,-z
1/2+x,1/2-y,z
loop_
_atom_site_type_symbol
_atom_site_label
_atom_site_fract_x
_atom_site_fract_y
_atom_site_fract_z
Si Si1 0.566628 0.821545 0.584824
Si Si2 0.057883 0.321896 0.875683
Si Si3 0.713023 0.678290 0.871782
Si Si4 0.532537 0.821192 0.382129
Si Si5 0.805217 0.822368 0.929799
Si Si6 0.378608 0.678723 0.247554
Si Si7 0.462642 0.678141 0.802607
Si Si8 0.897255 0.677656 0.917609
O O1 0.560551 0.783264 0.479955
O O2 0.518969 0.790884 0.612809
O O3 0.603957 0.734908 0.652177
O O4 0.573811 0.000000 0.593834
O O5 0.053566 0.500000 0.860499
O O6 0.090240 0.254671 0.814118
O O7 0.009873 0.247174 0.849398
O O8 0.078855 0.295086 0.979438
O O9 0.721168 0.500000 0.869497
O O10 0.758648 0.764893 0.873692
O O11 0.672275 0.717998 0.793183
O O12 0.697477 0.710121 0.966243
O O13 0.545230 0.733308 0.299903
O O14 0.536144 0.000000 0.368797
O O15 0.847526 0.739448 0.906314
O O16 0.809723 0.000000 0.920830
O O17 0.382991 0.500000 0.241838
O O18 0.464635 0.500000 0.807402
O O19 0.425110 0.740916 0.852899
O O20 0.897157 0.500000 0.902281
#
# Coordination Sequence:
#
# PCOD9182539 Si02
#       8
#     8   8   8   8   8   8   8   8
#     4   9  18  32  52  74 100 133 168 207 251 303
#     4  11  22  35  50  70 100 138 178 209 243 297
#     4   9  19  33  49  72 104 135 165 204 255 304
#     4   9  18  34  52  72  99 133 170 208 251 299
#     4  10  19  33  52  74 100 130 170 214 251 294
#     4  11  20  31  50  77 106 135 167 208 254 299
#     4  12  24  35  51  74 101 134 173 215 254 294
#     4  11  23  37  53  71  98 138 177 211 251 299
#
# _framework density 15.608105
#
# number of rings (size 3 to 8) (size 9 to 14) (size 15 to 20)
#    0.000    1.750    2.500    3.750    0.000    5.000 
#    0.000    1.250    0.000    0.000    0.000    0.875 
#    0.000    0.000    0.000    0.000    0.000    0.000 
#
# Total GULP energy -178690.847456 kJ/mol
# GULP energy per Si atom -5584.088983 kJ/mol
# Density = 1.557258 g / cm^3
# Si number density = 15.608105 Si / 1000 Ang^3
#
#
#
# Elastic Constant Matrix: (Units=GPa)
#
#
# Indices 1 2 3 4 5 6 
#
# 1 109.8302 62.0462 71.8433 0.0000 11.1903 0.0000
# 2 62.0462 73.8175 64.4345 0.0000 5.4986 0.0000
# 3 71.8433 64.4345 97.6547 0.0000 14.2490 0.0000
# 4 0.0000 0.0000 0.0000 20.9712 0.0000 0.7204
# 5 11.1903 5.4986 14.2490 0.0000 23.2815 0.0000
# 6 0.0000 0.0000 0.0000 0.7204 0.0000 28.2893
#
#
#
# Elastic Compliance Matrix: (Units=1/GPa)
#
#
# Indices 1 2 3 4 5 6 
#
# 1 0.020074 -0.009696 -0.008012 0.000000 -0.002455 0.000000
# 2 -0.009696 0.037380 -0.018582 0.000000 0.007205 0.000000
# 3 -0.008012 -0.018582 0.029860 0.000000 -0.010035 0.000000
# 4 0.000000 0.000000 0.000000 0.047726 0.000000 -0.001215
# 5 -0.002455 0.007205 -0.010035 0.000000 0.048573 0.000000
# 6 0.000000 0.000000 0.000000 -0.001215 0.000000 0.035380
#
#
# Mechanical properties :
#
#
# Convention : Reuss Voigt Hill
#
# Bulk Modulus (GPa) = 67.87534 75.32783 71.60158
# Shear Modulus (GPa) = 16.86427 20.04028 18.45228
#
# Velocity S-wave (km/s) = 3.29063 3.58713 3.44208
# Velocity P-wave (km/s) = 7.61704 8.09466 7.85948
#
# Compressibility (1/GPa) = 0.01473289
#
# Stress axis : x y z
#
# Youngs Moduli (GPa) = 49.81680 26.75193 33.48984
#
# Poissons Ratio (x) = 0.25939 0.26832
# Poissons Ratio (y) = 0.48303 0.62232
# Poissons Ratio (z) = 0.39913 0.49711
#
# Static dielectric constant tensor:
#      x y z
#    x 1.493240 0.000000 0.013970 
#    y 0.000000 1.516620 0.000000 
#    z 0.013970 0.000000 1.516720 
# 
# From -- ./inp_files/248502.got.cif
#   From: 2010.05.17/outbox.cif.g08.bks.cpg/sg12_125_cif.got.tgz:248502.got - 2010.06.03 13:09:07.
