data_PCOD9182075
_publ_section_title
;
Structure prediction by ZEFSAII (Michael W. Deem and Ramdas Pophale) SiO2 
 PCOD9182075
Probable space group: C 2/M
;
_chemical_formula_sum "Si O2"
_cell_formula_units_Z 56
_cell_length_a 19.745996
_cell_length_b 9.115426
_cell_length_c 27.789897
_cell_angle_alpha 90.000000
_cell_angle_beta 38.847453
_cell_angle_gamma 90.000000
_cell_volume 3137.494446
_symmetry_space_group_name_H-M "C 2/M"
_symmetry_group_IT_number 12
_symmetry_cell_setting 'monoclinic'
loop_
_space_group_symop_operation_xyz
x,y,z
-x,y,-z
-x,-y,-z
x,-y,z
1/2+x,1/2+y,z
1/2-x,1/2+y,-z
1/2-x,1/2-y,-z
1/2+x,1/2-y,z
loop_
_atom_site_type_symbol
_atom_site_label
_atom_site_fract_x
_atom_site_fract_y
_atom_site_fract_z
Si Si1 0.235434 0.674508 0.805522
Si Si2 0.093899 0.824696 0.802802
Si Si3 0.427767 0.324932 0.628926
Si Si4 0.789839 0.674484 0.622907
Si Si5 0.859910 0.831995 0.948575
Si Si6 0.680447 0.323817 0.496098
Si Si7 0.882532 0.169903 0.050484
O O1 0.225336 0.500000 0.812906
O O2 0.146316 0.742705 0.819009
O O3 0.349642 0.710482 0.717153
O O4 0.211344 0.742873 0.870629
O O5 0.175705 0.802752 0.713432
O O6 0.970855 0.774648 0.863577
O O7 0.090550 0.000000 0.814990
O O8 0.418067 0.500000 0.624588
O O9 0.380962 0.239632 0.608482
O O10 0.551950 0.293335 0.571945
O O11 0.806349 0.500000 0.607519
O O12 0.789338 0.756606 0.572462
O O13 0.847058 0.000000 0.940033
O O14 0.750000 0.750000 0.000000
O O15 0.876921 0.827620 0.996454
O O16 0.695325 0.500000 0.488436
O O17 0.750000 0.250000 0.500000
O O18 0.877233 0.000000 0.069627
O O19 0.000000 0.229871 0.000000
#
# Coordination Sequence:
#
# PCOD9182075 Si02
#       7
#     8   8   8   8   8   8   8
#     4  10  19  32  55  86 111 135 179 232 272 311
#     4   9  18  36  57  78 109 148 181 217 271 327
#     4   9  20  38  58  82 113 147 180 223 276 326
#     4  10  20  35  61  89 110 140 185 228 270 326
#     4  10  21  37  55  76 107 147 184 223 269 321
#     4  11  23  40  59  80 114 150 182 222 274 329
#     4  10  19  35  57  77 107 146 183 219 269 326
#
# _framework density 17.848637
#
# number of rings (size 3 to 8) (size 9 to 14) (size 15 to 20)
#    0.000    2.143    1.429    1.714    0.000    5.429 
#    2.571    0.000    0.000    0.000    0.000    0.000 
#    0.000    0.000    0.000    0.000    0.000    0.000 
#
# Total GULP energy -156211.458050 kJ/mol
# GULP energy per Si atom -5578.980645 kJ/mol
# Density = 1.780801 g / cm^3
# Si number density = 17.848637 Si / 1000 Ang^3
#
#
#
# Elastic Constant Matrix: (Units=GPa)
#
#
# Indices 1 2 3 4 5 6 
#
# 1 85.2427 42.8446 58.7774 0.0000 -18.7294 0.0004
# 2 42.8446 58.6320 56.5817 -0.0001 -7.7276 0.0003
# 3 58.7774 56.5817 116.6677 0.0000 -15.3712 -0.0001
# 4 0.0000 -0.0001 0.0000 29.9566 0.0000 3.1026
# 5 -18.7294 -7.7276 -15.3712 0.0000 29.8177 0.0001
# 6 0.0004 0.0003 -0.0001 3.1026 0.0001 30.3272
#
#
#
# Elastic Compliance Matrix: (Units=1/GPa)
#
#
# Indices 1 2 3 4 5 6 
#
# 1 0.022324 -0.010186 -0.005157 0.000000 0.008724 0.000000
# 2 -0.010186 0.036711 -0.013155 0.000000 -0.003666 0.000000
# 3 -0.005157 -0.013155 0.017889 0.000000 0.002573 0.000000
# 4 0.000000 0.000000 0.000000 0.033739 0.000000 -0.003452
# 5 0.008724 -0.003666 0.002573 0.000000 0.039393 0.000000
# 6 0.000000 0.000000 0.000000 -0.003452 0.000000 0.033327
#
#
# Mechanical properties :
#
#
# Convention : Reuss Voigt Hill
#
# Bulk Modulus (GPa) = 50.18568 64.10553 57.14561
# Shear Modulus (GPa) = 20.24106 24.84287 22.54197
#
# Velocity S-wave (km/s) = 3.37120 3.73482 3.55766
# Velocity P-wave (km/s) = 6.58269 7.38868 6.99730
#
# Compressibility (1/GPa) = 0.01992600
#
# Stress axis : x y z
#
# Youngs Moduli (GPa) = 44.79514 27.23970 55.90098
#
# Poissons Ratio (x) = 0.27747 0.28830
# Poissons Ratio (y) = 0.45629 0.73540
# Poissons Ratio (z) = 0.23102 0.35835
#
# Static dielectric constant tensor:
#      x y z
#    x 1.582190 0.000000 -0.008850 
#    y 0.000000 1.608030 0.000000 
#    z -0.008850 0.000000 1.638660 
# 
# From -- ./inp_files/342282.got.cif
#   From: 2010.05.17/outbox.cif.g08.bks.cpg/sg12_172_cif.got.tgz:342282.got - 2010.06.03 13:09:07.
