data_PCOD9182617
_publ_section_title
;
Structure prediction by ZEFSAII (Michael W. Deem and Ramdas Pophale) SiO2 
 PCOD9182617
Probable space group: C 2/M
;
_chemical_formula_sum "Si O2"
_cell_formula_units_Z 60
_cell_length_a 24.285803
_cell_length_b 12.094251
_cell_length_c 12.842832
_cell_angle_alpha 90.000000
_cell_angle_beta 113.699633
_cell_angle_gamma 90.000000
_cell_volume 3454.052551
_symmetry_space_group_name_H-M "C 2/M"
_symmetry_group_IT_number 12
_symmetry_cell_setting 'monoclinic'
loop_
_space_group_symop_operation_xyz
x,y,z
-x,y,-z
-x,-y,-z
x,-y,z
1/2+x,1/2+y,z
1/2-x,1/2+y,-z
1/2-x,1/2-y,-z
1/2+x,1/2-y,z
loop_
_atom_site_type_symbol
_atom_site_label
_atom_site_fract_x
_atom_site_fract_y
_atom_site_fract_z
Si Si1 0.028868 0.630560 0.324544
Si Si2 0.839005 0.718334 0.572034
Si Si3 0.957919 0.366013 0.061918
Si Si4 0.714100 0.229782 0.811316
Si Si5 0.500000 0.281550 0.500000
Si Si6 0.821573 0.632483 0.995804
Si Si7 0.763719 0.876062 0.644142
Si Si8 0.869185 0.128341 0.398858
O O1 0.021256 0.500000 0.338628
O O2 0.099053 0.656586 0.358024
O O3 0.989349 0.662363 0.194745
O O4 0.009078 0.702351 0.407842
O O5 0.811295 0.781703 0.649316
O O6 0.789378 0.639139 0.481698
O O7 0.850770 0.810958 0.492126
O O8 0.957416 0.500000 0.055710
O O9 0.888163 0.332416 0.008671
O O10 0.000000 0.325115 0.000000
O O11 0.686967 0.165568 0.889507
O O12 0.736743 0.148757 0.737155
O O13 0.665304 0.308868 0.719764
O O14 0.769814 0.303414 0.893997
O O15 0.559677 0.353604 0.558849
O O16 0.815684 0.500000 0.979803
O O17 0.788110 0.000000 0.657194
O O18 0.853372 0.000000 0.389484
#
# Coordination Sequence:
#
# PCOD9182617 Si02
#       8
#     8   8   8   8   4   8   8   8
#     4  10  19  33  52  77 107 136 173 221 268 317
#     4   9  20  32  50  77 103 136 174 209 263 325
#     4   9  19  33  51  74 101 137 173 213 266 311
#     4  10  21  33  54  79 102 140 181 216 269 324
#     4  10  20  32  52  78 106 142 180 212 268 326
#     4  10  20  36  53  77 108 136 176 226 269 315
#     4  10  19  34  51  74 106 138 171 215 263 316
#     4  10  19  34  51  75 107 139 176 219 261 315
#
# _framework density 17.370899000000001
#
# number of rings (size 3 to 8) (size 9 to 14) (size 15 to 20)
#    0.000    2.267    0.000    2.800    1.867    0.000 
#    0.000    5.333    0.000    0.000    0.000    0.933 
#    0.000    0.000    0.000    0.000    0.000    0.000 
#
# Total GULP energy -167387.004859 kJ/mol
# GULP energy per Si atom -5579.566829 kJ/mol
# Density = 1.733136 g / cm^3
# Si number density = 17.370899 Si / 1000 Ang^3
#
#
#
# Elastic Constant Matrix: (Units=GPa)
#
#
# Indices 1 2 3 4 5 6 
#
# 1 78.2061 -5.8357 21.0359 0.0000 -4.4666 0.0000
# 2 -5.8357 49.8910 7.3996 0.0000 -4.6247 0.0000
# 3 21.0359 7.3996 62.3705 0.0000 0.5679 0.0000
# 4 0.0000 0.0000 0.0000 11.2810 0.0000 2.0945
# 5 -4.4666 -4.6247 0.5679 0.0000 25.5265 0.0000
# 6 0.0000 0.0000 0.0000 2.0945 0.0000 18.1870
#
#
#
# Elastic Compliance Matrix: (Units=1/GPa)
#
#
# Indices 1 2 3 4 5 6 
#
# 1 0.014597 0.002785 -0.005283 0.000000 0.003176 0.000000
# 2 0.002785 0.021300 -0.003507 0.000000 0.004424 0.000000
# 3 -0.005283 -0.003507 0.018249 0.000000 -0.001966 0.000000
# 4 0.000000 0.000000 0.000000 0.090581 0.000000 -0.010432
# 5 0.003176 0.004424 -0.001966 0.000000 0.040576 0.000000
# 6 0.000000 0.000000 0.000000 -0.010432 0.000000 0.056186
#
#
# Mechanical properties :
#
#
# Convention : Reuss Voigt Hill
#
# Bulk Modulus (GPa) = 23.73176 26.18523 24.95850
# Shear Modulus (GPa) = 18.68866 22.19010 20.43938
#
# Velocity S-wave (km/s) = 3.28359 3.57799 3.43395
# Velocity P-wave (km/s) = 5.29787 5.67242 5.48834
#
# Compressibility (1/GPa) = 0.04213762
#
# Stress axis : x y z
#
# Youngs Moduli (GPa) = 68.50782 46.94900 54.79810
#
# Poissons Ratio (x) = -0.13077 0.28947
# Poissons Ratio (y) = -0.19081 0.19216
# Poissons Ratio (z) = 0.36189 0.16463
#
# Static dielectric constant tensor:
#      x y z
#    x 1.599530 0.000000 -0.004630 
#    y 0.000000 1.552640 0.000000 
#    z -0.004630 0.000000 1.568370 
# 
# From -- ./inp_files/182546.got.cif
#   From: 2010.05.17/outbox.cif.g08.bks.cpg/sg12_92_cif.got.tgz:182546.got - 2010.06.03 13:09:07.
