data_PCOD9182166
_publ_section_title
;
Structure prediction by ZEFSAII (Michael W. Deem and Ramdas Pophale) SiO2 
 PCOD9182166
Probable space group: C 2/M
;
_chemical_formula_sum "Si O2"
_cell_formula_units_Z 56
_cell_length_a 9.555527
_cell_length_b 18.147624
_cell_length_c 27.623029
_cell_angle_alpha 90.000000
_cell_angle_beta 40.071096
_cell_angle_gamma 90.000000
_cell_volume 3083.575868
_symmetry_space_group_name_H-M "C 2/M"
_symmetry_group_IT_number 12
_symmetry_cell_setting 'monoclinic'
loop_
_space_group_symop_operation_xyz
x,y,z
-x,y,-z
-x,-y,-z
x,-y,z
1/2+x,1/2+y,z
1/2-x,1/2+y,-z
1/2-x,1/2-y,-z
1/2+x,1/2-y,z
loop_
_atom_site_type_symbol
_atom_site_label
_atom_site_fract_x
_atom_site_fract_y
_atom_site_fract_z
Si Si1 0.692123 0.798271 0.212763
Si Si2 0.774471 0.661061 0.263188
Si Si3 0.489651 0.777654 0.945653
Si Si4 0.683241 0.084769 0.843369
Si Si5 0.313947 0.412632 0.259867
Si Si6 0.845811 0.824952 0.418695
Si Si7 0.477575 0.828751 0.585348
O O1 0.705922 0.731166 0.247735
O O2 0.454094 0.813204 0.254037
O O3 0.841767 0.774346 0.127951
O O4 0.778918 0.868624 0.219232
O O5 0.859602 0.602753 0.201587
O O6 0.559303 0.631284 0.346329
O O7 0.541812 0.858816 0.911844
O O8 0.500000 0.776774 0.000000
O O9 0.250000 0.750000 0.000000
O O10 0.939509 0.100262 0.786394
O O11 0.641104 0.000000 0.865813
O O12 0.284277 0.500000 0.262399
O O13 0.141651 0.379537 0.343949
O O14 0.691602 0.858931 0.500927
O O15 0.695439 0.813119 0.411493
O O16 0.940629 0.747036 0.412280
#
# Coordination Sequence:
#
# PCOD9182166 Si02
#       7
#     8   8   8   8   8   8   8
#     4  11  22  36  61  87 115 149 197 246 293 350
#     4  11  19  35  60  86 116 153 199 246 290 340
#     4  11  22  39  61  89 115 145 189 240 295 349
#     4  10  22  39  61  87 119 155 192 234 290 353
#     4  11  22  39  58  83 121 161 200 242 289 346
#     4  10  19  32  56  86 117 150 195 253 290 336
#     4  10  20  34  53  88 117 151 200 244 303 332
#
# _framework density 18.160734000000001
#
# number of rings (size 3 to 8) (size 9 to 14) (size 15 to 20)
#    0.000    1.429    2.857    5.143    0.000    0.857 
#    0.000    2.857    0.000    2.571    0.000    0.000 
#    0.000    0.000    0.000    0.000    0.000    0.000 
#
# Total GULP energy -156256.323421 kJ/mol
# GULP energy per Si atom -5580.582979 kJ/mol
# Density = 1.811940 g / cm^3
# Si number density = 18.160734 Si / 1000 Ang^3
#
#
#
# Elastic Constant Matrix: (Units=GPa)
#
#
# Indices 1 2 3 4 5 6 
#
# 1 59.5967 39.0778 8.4814 -0.0036 -3.2340 -0.0012
# 2 39.0778 94.4119 48.0183 0.0010 1.5436 -0.0001
# 3 8.4814 48.0183 109.9102 -0.0017 1.1207 -0.0025
# 4 -0.0036 0.0010 -0.0017 22.6409 -0.0007 -4.5413
# 5 -3.2340 1.5436 1.1207 -0.0007 34.0353 -0.0017
# 6 -0.0012 -0.0001 -0.0025 -4.5413 -0.0017 17.9240
#
#
#
# Elastic Compliance Matrix: (Units=1/GPa)
#
#
# Indices 1 2 3 4 5 6 
#
# 1 0.024112 -0.011654 0.003203 0.000005 0.002714 0.000004
# 2 -0.011654 0.019256 -0.007496 -0.000004 -0.001734 -0.000003
# 3 0.003203 -0.007496 0.012123 0.000002 0.000245 0.000002
# 4 0.000005 -0.000004 0.000002 0.046533 0.000002 0.011790
# 5 0.002714 -0.001734 0.000245 0.000002 0.029710 0.000003
# 6 0.000004 -0.000003 0.000002 0.011790 0.000003 0.058778
#
#
# Mechanical properties :
#
#
# Convention : Reuss Voigt Hill
#
# Bulk Modulus (GPa) = 42.37476 50.56376 46.46926
# Shear Modulus (GPa) = 21.71346 26.14280 23.92813
#
# Velocity S-wave (km/s) = 3.46154 3.79822 3.63378
# Velocity P-wave (km/s) = 6.27377 6.86572 6.57641
#
# Compressibility (1/GPa) = 0.02359895
#
# Stress axis : x y z
#
# Youngs Moduli (GPa) = 41.47263 51.93133 82.48449
#
# Poissons Ratio (x) = 0.60519 -0.26420
# Poissons Ratio (y) = 0.48331 0.61829
# Poissons Ratio (z) = -0.13284 0.38927
#
# Static dielectric constant tensor:
#      x y z
#    x 1.607390 0.000000 0.000720 
#    y 0.000000 1.605330 0.000000 
#    z 0.000720 0.000000 1.663310 
# 
# From -- ./inp_files/300903.got.cif
#   From: 2010.05.17/outbox.cif.g08.bks.cpg/sg12_151_cif.got.tgz:300903.got - 2010.06.03 13:09:07.
