data_PCOD9182465
_publ_section_title
;
Structure prediction by ZEFSAII (Michael W. Deem and Ramdas Pophale) SiO2 
 PCOD9182465
Probable space group: C 2/M
;
_chemical_formula_sum "Si O2"
_cell_formula_units_Z 56
_cell_length_a 20.341376
_cell_length_b 8.231371
_cell_length_c 32.907192
_cell_angle_alpha 90.000000
_cell_angle_beta 147.590720
_cell_angle_gamma 90.000000
_cell_volume 2953.102877
_symmetry_space_group_name_H-M "C 2/M"
_symmetry_group_IT_number 12
_symmetry_cell_setting 'monoclinic'
loop_
_space_group_symop_operation_xyz
x,y,z
-x,y,-z
-x,-y,-z
x,-y,z
1/2+x,1/2+y,z
1/2-x,1/2+y,-z
1/2-x,1/2-y,-z
1/2+x,1/2-y,z
loop_
_atom_site_type_symbol
_atom_site_label
_atom_site_fract_x
_atom_site_fract_y
_atom_site_fract_z
Si Si1 0.991423 0.801492 0.948803
Si Si2 0.992910 0.811222 0.620419
Si Si3 0.774372 0.693277 0.210291
Si Si4 0.854129 0.693659 0.627037
Si Si5 0.753220 0.196511 0.955773
Si Si6 0.919676 0.306361 0.203456
Si Si7 0.082979 0.691158 0.505458
O O1 0.865542 0.748313 0.861719
O O2 0.987007 0.000000 0.946294
O O3 0.000000 0.750785 0.000000
O O4 0.116263 0.748058 0.993345
O O5 0.894494 0.761311 0.603935
O O6 0.979531 0.717628 0.571076
O O7 0.126203 0.779119 0.709551
O O8 0.975133 0.000000 0.602276
O O9 0.779550 0.500000 0.221936
O O10 0.821159 0.712371 0.188333
O O11 0.869699 0.500000 0.631880
O O12 0.717474 0.731595 0.570133
O O13 0.953196 0.758269 0.711738
O O14 0.641343 0.258803 0.869373
O O15 0.751258 0.000000 0.952154
O O16 0.750000 0.250000 0.000000
O O17 0.937932 0.500000 0.207160
O O18 0.101165 0.500000 0.521857
O O19 0.000000 0.753447 0.500000
#
# Coordination Sequence:
#
# PCOD9182465 Si02
#       7
#     8   8   8   8   8   8   8
#     4   9  15  28  56  82 101 136 189 235 268 314
#     4  11  22  37  59  86 116 148 185 228 274 332
#     4   9  16  31  56  84 107 135 184 239 279 314
#     4  10  20  37  63  89 111 144 187 231 277 329
#     4  10  19  33  51  76 109 145 183 223 271 324
#     4   8  15  30  54  79 105 139 180 223 267 318
#     4  11  24  42  61  83 114 148 182 226 277 331
#
# _framework density 18.963104999999999
#
# number of rings (size 3 to 8) (size 9 to 14) (size 15 to 20)
#    0.000    2.286    1.429    3.429    0.000    1.143 
#    2.571    4.286    0.000    0.857    0.000    0.000 
#    0.000    0.000    0.000    0.000    0.000    0.000 
#
# Total GULP energy -156155.369059 kJ/mol
# GULP energy per Si atom -5576.977466 kJ/mol
# Density = 1.891994 g / cm^3
# Si number density = 18.963105 Si / 1000 Ang^3
#
#
#
# Elastic Constant Matrix: (Units=GPa)
#
#
# Indices 1 2 3 4 5 6 
#
# 1 114.0510 -3.8899 54.2384 0.0001 -2.4063 -0.0002
# 2 -3.8899 14.9262 -10.0537 0.0001 3.1452 -0.0004
# 3 54.2384 -10.0537 104.1862 0.0001 -0.4439 -0.0002
# 4 0.0001 0.0001 0.0001 16.8626 0.0000 -0.2240
# 5 -2.4063 3.1452 -0.4439 0.0000 23.1915 0.0000
# 6 -0.0002 -0.0004 -0.0002 -0.2240 0.0000 19.0256
#
#
#
# Elastic Compliance Matrix: (Units=1/GPa)
#
#
# Indices 1 2 3 4 5 6 
#
# 1 0.011708 -0.001414 -0.006226 0.000000 0.001287 0.000000
# 2 -0.001414 0.074021 0.007836 0.000000 -0.010035 0.000002
# 3 -0.006226 0.007836 0.013589 0.000000 -0.001449 0.000000
# 4 0.000000 0.000000 0.000000 0.059312 0.000000 0.000698
# 5 0.001287 -0.010035 -0.001449 0.000000 0.044586 0.000000
# 6 0.000000 0.000002 0.000000 0.000698 0.000000 0.052569
#
#
# Mechanical properties :
#
#
# Convention : Reuss Voigt Hill
#
# Bulk Modulus (GPa) = 10.02902 34.86144 22.44523
# Shear Modulus (GPa) = 17.32328 24.67383 20.99855
#
# Velocity S-wave (km/s) = 3.02574 3.61106 3.33128
# Velocity P-wave (km/s) = 4.18413 5.98415 5.16319
#
# Compressibility (1/GPa) = 0.09971066
#
# Stress axis : x y z
#
# Youngs Moduli (GPa) = 85.41344 13.50974 73.58714
#
# Poissons Ratio (x) = 0.01910 0.45815
# Poissons Ratio (y) = 0.12074 -0.57663
# Poissons Ratio (z) = 0.53177 -0.10586
#
# Static dielectric constant tensor:
#      x y z
#    x 1.604270 0.000000 0.007820 
#    y 0.000000 1.671280 0.000000 
#    z 0.007820 0.000000 1.684680 
# 
# From -- ./inp_files/363182.got.cif
#   From: 2010.05.17/outbox.cif.g08.bks.cpg/sg12_182_cif.got.tgz:363182.got - 2010.06.03 13:09:07.
