data_PCOD9182627
_publ_section_title
;
Structure prediction by ZEFSAII (Michael W. Deem and Ramdas Pophale) SiO2 
 PCOD9182627
Probable space group: C 2/M
;
_chemical_formula_sum "Si O2"
_cell_formula_units_Z 40
_cell_length_a 14.215301
_cell_length_b 18.872543
_cell_length_c 9.208116
_cell_angle_alpha 90.000000
_cell_angle_beta 43.720863
_cell_angle_gamma 90.000000
_cell_volume 1707.366768
_symmetry_space_group_name_H-M "C 2/M"
_symmetry_group_IT_number 12
_symmetry_cell_setting 'monoclinic'
loop_
_space_group_symop_operation_xyz
x,y,z
-x,y,-z
-x,-y,-z
x,-y,z
1/2+x,1/2+y,z
1/2-x,1/2+y,-z
1/2-x,1/2-y,-z
1/2+x,1/2-y,z
loop_
_atom_site_type_symbol
_atom_site_label
_atom_site_fract_x
_atom_site_fract_y
_atom_site_fract_z
Si Si1 0.305430 0.176301 0.270306
Si Si2 0.610428 0.201294 0.514120
Si Si3 0.299226 0.417697 0.386346
Si Si4 0.441312 0.415587 0.728346
Si Si5 0.323217 0.824711 0.935268
O O1 0.375056 0.216161 0.326636
O O2 0.280860 0.136959 0.627962
O O3 0.272183 0.100147 0.378465
O O4 0.377415 0.167516 0.038637
O O5 0.500000 0.397274 0.500000
O O6 0.671831 0.274585 0.386103
O O7 0.452098 0.177695 0.683148
O O8 0.289017 0.500000 0.357272
O O9 0.453053 0.398264 0.258686
O O10 0.429065 0.500000 0.740201
O O11 0.297624 0.381645 0.931069
O O12 0.250000 0.750000 0.000000
#
# Coordination Sequence:
#
# PCOD9182627 Si02
#       5
#     8   8   8   8   8
#     4   9  19  36  52  75 111 134 178 217 264 313
#     4   9  20  36  53  75 107 141 173 221 261 313
#     4   9  17  32  55  75 100 140 175 214 269 317
#     4  10  19  33  52  77 111 141 170 224 275 312
#     4  12  23  31  55  84 107 143 179 218 268 322
#
# _framework density 23.427889
#
# number of rings (size 3 to 8) (size 9 to 14) (size 15 to 20)
#    1.200    1.000    2.000    1.800    0.000    0.800 
#    0.000    1.000    0.000    1.200    0.000    7.000 
#    0.000    0.000    0.000    0.000    0.000    0.000 
#
# Total GULP energy -111334.325377 kJ/mol
# GULP energy per Si atom -5566.716269 kJ/mol
# Density = 2.337457 g / cm^3
# Si number density = 23.427889 Si / 1000 Ang^3
#
#
#
# Elastic Constant Matrix: (Units=GPa)
#
#
# Indices 1 2 3 4 5 6 
#
# 1 86.1438 50.0456 10.9314 0.0000 -34.4177 0.0000
# 2 50.0456 90.3270 -5.7367 0.0000 -21.4088 0.0000
# 3 10.9314 -5.7367 99.6207 0.0000 -29.9492 0.0000
# 4 0.0000 0.0000 0.0000 24.0074 0.0000 -5.0234
# 5 -34.4177 -21.4088 -29.9492 0.0000 34.1825 0.0000
# 6 0.0000 0.0000 0.0000 -5.0234 0.0000 38.8510
#
#
#
# Elastic Compliance Matrix: (Units=1/GPa)
#
#
# Indices 1 2 3 4 5 6 
#
# 1 0.025403 -0.008157 0.003932 0.000000 0.023914 0.000000
# 2 -0.008157 0.017166 0.003593 0.000000 0.005687 0.000000
# 3 0.003932 0.003593 0.015857 0.000000 0.020103 0.000000
# 4 0.000000 0.000000 0.000000 0.042812 0.000000 0.005536
# 5 0.023914 0.005687 0.020103 0.000000 0.074508 0.000000
# 6 0.000000 0.000000 0.000000 0.005536 0.000000 0.026455
#
#
# Mechanical properties :
#
#
# Convention : Reuss Voigt Hill
#
# Bulk Modulus (GPa) = 17.49373 42.95245 30.22309
# Shear Modulus (GPa) = 22.47005 34.13161 28.30083
#
# Velocity S-wave (km/s) = 3.10032 3.82105 3.47940
# Velocity P-wave (km/s) = 4.50547 6.15150 5.39167
#
# Compressibility (1/GPa) = 0.05716334
#
# Stress axis : x y z
#
# Youngs Moduli (GPa) = 39.36583 58.25430 63.06330
#
# Poissons Ratio (x) = 0.47516 -0.24798
# Poissons Ratio (y) = 0.32109 -0.22660
# Poissons Ratio (z) = -0.15479 -0.20932
#
# Static dielectric constant tensor:
#      x y z
#    x 2.192710 0.000000 0.039890 
#    y 0.000000 1.809530 0.000000 
#    z 0.039890 0.000000 1.939920 
# 
# From -- ./inp_files/48478.got.cif
#   From: 2010.05.17/outbox.cif.g08.bks.cpg/sg12_25_cif.got.tgz:48478.got - 2010.06.03 13:09:07.
