data_PCOD9182467
_publ_section_title
;
Structure prediction by ZEFSAII (Michael W. Deem and Ramdas Pophale) SiO2 
 PCOD9182467
Probable space group: C 2/M
;
_chemical_formula_sum "Si O2"
_cell_formula_units_Z 56
_cell_length_a 30.124246
_cell_length_b 7.632984
_cell_length_c 11.508500
_cell_angle_alpha 90.000000
_cell_angle_beta 111.864929
_cell_angle_gamma 90.000000
_cell_volume 2455.881273
_symmetry_space_group_name_H-M "C 2/M"
_symmetry_group_IT_number 12
_symmetry_cell_setting 'monoclinic'
loop_
_space_group_symop_operation_xyz
x,y,z
-x,y,-z
-x,-y,-z
x,-y,z
1/2+x,1/2+y,z
1/2-x,1/2+y,-z
1/2-x,1/2-y,-z
1/2+x,1/2-y,z
loop_
_atom_site_type_symbol
_atom_site_label
_atom_site_fract_x
_atom_site_fract_y
_atom_site_fract_z
Si Si1 0.130633 0.284751 0.973615
Si Si2 0.330597 0.791825 0.747238
Si Si3 0.223931 0.288807 0.633381
Si Si4 0.019560 0.798591 0.395752
Si Si5 0.122938 0.712724 0.429037
Si Si6 0.977591 0.291272 0.100961
Si Si7 0.706606 0.209739 0.872957
O O1 0.130761 0.500000 0.972089
O O2 0.161230 0.224419 0.115249
O O3 0.076485 0.224719 0.934939
O O4 0.157798 0.226558 0.884278
O O5 0.277253 0.761670 0.646593
O O6 0.372115 0.730604 0.700553
O O7 0.336034 0.000000 0.758272
O O8 0.223514 0.500000 0.628044
O O9 0.174236 0.231528 0.528695
O O10 0.219574 0.220385 0.760298
O O11 0.076980 0.783545 0.449386
O O12 0.000000 0.720841 0.500000
O O13 0.003717 0.731147 0.251808
O O14 0.004040 0.000000 0.380709
O O15 0.119865 0.500000 0.431363
O O16 0.974119 0.500000 0.081246
O O17 0.000000 0.223829 0.000000
O O18 0.702450 0.000000 0.856660
O O19 0.750000 0.250000 0.000000
#
# Coordination Sequence:
#
# PCOD9182467 Si02
#       7
#     8   8   8   8   8   8   8
#     4   9  18  32  55  83 112 146 186 235 287 343
#     4  10  19  35  58  85 117 151 187 231 287 352
#     4  10  21  34  53  84 117 148 191 237 282 346
#     4  11  26  45  62  88 125 162 204 256 314 371
#     4  10  22  39  61  85 111 151 201 245 291 353
#     4  10  21  40  68  96 120 154 205 257 307 366
#     4  10  19  33  51  76 111 149 189 232 281 340
#
# _framework density 22.802403999999999
#
# number of rings (size 3 to 8) (size 9 to 14) (size 15 to 20)
#    0.000    2.000    1.429    1.714    2.000    4.857 
#    0.000    1.429    0.000    0.000    0.000    0.000 
#    0.000    0.000    0.000    0.000    0.000    0.000 
#
# Total GULP energy -156222.360717 kJ/mol
# GULP energy per Si atom -5579.370026 kJ/mol
# Density = 2.275051 g / cm^3
# Si number density = 22.802404 Si / 1000 Ang^3
#
#
#
# Elastic Constant Matrix: (Units=GPa)
#
#
# Indices 1 2 3 4 5 6 
#
# 1 187.9388 -7.6709 53.2702 0.0000 -21.8441 0.0000
# 2 -7.6709 37.1665 -8.4415 0.0000 -6.1670 0.0000
# 3 53.2702 -8.4415 84.3035 0.0000 -8.0142 0.0000
# 4 0.0000 0.0000 0.0000 16.8854 0.0000 5.2721
# 5 -21.8441 -6.1670 -8.0142 0.0000 35.6234 0.0000
# 6 0.0000 0.0000 0.0000 5.2721 0.0000 15.0219
#
#
#
# Elastic Compliance Matrix: (Units=1/GPa)
#
#
# Indices 1 2 3 4 5 6 
#
# 1 0.006884 0.001122 -0.003901 0.000000 0.003538 0.000000
# 2 0.001122 0.028813 0.002775 0.000000 0.006300 0.000000
# 3 -0.003901 0.002775 0.014738 0.000000 0.001404 0.000000
# 4 0.000000 0.000000 0.000000 0.066511 0.000000 -0.023343
# 5 0.003538 0.006300 0.001404 0.000000 0.031647 0.000000
# 6 0.000000 0.000000 0.000000 -0.023343 0.000000 0.074762
#
#
# Mechanical properties :
#
#
# Convention : Reuss Voigt Hill
#
# Bulk Modulus (GPa) = 19.83071 42.63605 31.23338
# Shear Modulus (GPa) = 20.81843 31.65621 26.23732
#
# Velocity S-wave (km/s) = 3.02485 3.73001 3.39579
# Velocity P-wave (km/s) = 4.57333 6.10650 5.39465
#
# Compressibility (1/GPa) = 0.05042684
#
# Stress axis : x y z
#
# Youngs Moduli (GPa) = 145.27380 34.70634 67.85061
#
# Poissons Ratio (x) = -0.03893 0.26469
# Poissons Ratio (y) = -0.16295 -0.18830
# Poissons Ratio (z) = 0.56672 -0.09632
#
# Static dielectric constant tensor:
#      x y z
#    x 1.826590 0.000000 -0.026310 
#    y 0.000000 1.863450 0.000000 
#    z -0.026310 0.000000 1.883600 
# 
# From -- ./inp_files/181134.got.cif
#   From: 2010.05.17/outbox.cif.g08.bks.cpg/sg12_91_cif.got.tgz:181134.got - 2010.06.03 13:09:07.
