data_PCOD9182357
_publ_section_title
;
Structure prediction by ZEFSAII (Michael W. Deem and Ramdas Pophale) SiO2 
 PCOD9182357
Probable space group: C 2/M
;
_chemical_formula_sum "Si O2"
_cell_formula_units_Z 40
_cell_length_a 14.646658
_cell_length_b 7.665691
_cell_length_c 19.458584
_cell_angle_alpha 90.000000
_cell_angle_beta 128.464137
_cell_angle_gamma 90.000000
_cell_volume 1710.651504
_symmetry_space_group_name_H-M "C 2/M"
_symmetry_group_IT_number 12
_symmetry_cell_setting 'monoclinic'
loop_
_space_group_symop_operation_xyz
x,y,z
-x,y,-z
-x,-y,-z
x,-y,z
1/2+x,1/2+y,z
1/2-x,1/2+y,-z
1/2-x,1/2-y,-z
1/2+x,1/2-y,z
loop_
_atom_site_type_symbol
_atom_site_label
_atom_site_fract_x
_atom_site_fract_y
_atom_site_fract_z
Si Si1 0.590258 0.700445 0.452495
Si Si2 0.366051 0.289506 0.135311
Si Si3 0.108588 0.785829 0.310468
Si Si4 0.841710 0.697377 0.366398
Si Si5 0.388453 0.291997 0.988949
O O1 0.625108 0.500000 0.478855
O O2 0.634156 0.770168 0.400426
O O3 0.626395 0.803524 0.537126
O O4 0.448734 0.703627 0.382454
O O5 0.368868 0.500000 0.135857
O O6 0.480040 0.229069 0.229029
O O7 0.238875 0.238343 0.103308
O O8 0.379102 0.224155 0.062739
O O9 0.210525 0.730682 0.306009
O O10 0.111031 0.000000 0.312240
O O11 0.841794 0.500000 0.340028
O O12 0.404347 0.500000 0.001933
O O13 0.500000 0.222447 0.000000
#
# Coordination Sequence:
#
# PCOD9182357 Si02
#       5
#     8   8   8   8   8
#     4  10  19  33  50  70  97 129 166 203 241 283
#     4   9  18  34  52  72  99 128 161 198 238 288
#     4   9  19  33  50  71  98 131 162 198 243 288
#     4  10  19  33  51  72  97 128 166 201 241 288
#     4   9  18  33  53  75  99 127 158 196 242 288
#
# _framework density 23.382902999999999
#
# number of rings (size 3 to 8) (size 9 to 14) (size 15 to 20)
#    0.000    2.600    0.000    3.000    0.000    2.000 
#    0.000    9.000    0.000    0.000    0.000    0.000 
#    0.000    0.000    0.000    0.000    0.000    0.000 
#
# Total GULP energy -111682.304027 kJ/mol
# GULP energy per Si atom -5584.115201 kJ/mol
# Density = 2.332968 g / cm^3
# Si number density = 23.382903 Si / 1000 Ang^3
#
#
#
# Elastic Constant Matrix: (Units=GPa)
#
#
# Indices 1 2 3 4 5 6 
#
# 1 140.3484 7.2173 17.4537 0.0000 38.2590 0.0000
# 2 7.2173 55.9931 -4.3346 0.0000 -1.0052 0.0000
# 3 17.4537 -4.3346 52.3761 0.0000 26.9494 0.0000
# 4 0.0000 0.0000 0.0000 16.7884 0.0000 7.3251
# 5 38.2590 -1.0052 26.9494 0.0000 32.3670 0.0000
# 6 0.0000 0.0000 0.0000 7.3251 0.0000 16.7099
#
#
#
# Elastic Compliance Matrix: (Units=1/GPa)
#
#
# Indices 1 2 3 4 5 6 
#
# 1 0.011444 -0.001385 0.005343 0.000000 -0.018019 0.000000
# 2 -0.001385 0.018168 0.001456 0.000000 0.000989 0.000000
# 3 0.005343 0.001456 0.036144 0.000000 -0.036365 0.000000
# 4 0.000000 0.000000 0.000000 0.073652 0.000000 -0.032287
# 5 -0.018019 0.000989 -0.036365 0.000000 0.082503 0.000000
# 6 0.000000 0.000000 0.000000 -0.032287 0.000000 0.073998
#
#
# Mechanical properties :
#
#
# Convention : Reuss Voigt Hill
#
# Bulk Modulus (GPa) = 13.05731 32.15449 22.60590
# Shear Modulus (GPa) = 16.09745 28.39847 22.24796
#
# Velocity S-wave (km/s) = 2.62664 3.48874 3.08793
# Velocity P-wave (km/s) = 3.84646 5.47810 4.73312
#
# Compressibility (1/GPa) = 0.07658548
#
# Stress axis : x y z
#
# Youngs Moduli (GPa) = 87.38335 55.04078 27.66743
#
# Poissons Ratio (x) = 0.07623 -0.14784
# Poissons Ratio (y) = 0.12102 -0.04030
# Poissons Ratio (z) = -0.46692 -0.08016
#
# Static dielectric constant tensor:
#      x y z
#    x 1.908180 0.000000 0.042670 
#    y 0.000000 1.835240 0.000000 
#    z 0.042670 0.000000 1.906470 
# 
# From -- ./inp_files/211358.got.cif
#   From: 2010.05.17/outbox.cif.g08.bks.cpg/sg12_106_cif.got.tgz:211358.got - 2010.06.03 13:09:07.
