data_PCOD9182414
_publ_section_title
;
Structure prediction by ZEFSAII (Michael W. Deem and Ramdas Pophale) SiO2 
 PCOD9182414
Probable space group: C 2/M
;
_chemical_formula_sum "Si O2"
_cell_formula_units_Z 56
_cell_length_a 23.750683
_cell_length_b 8.188782
_cell_length_c 15.338758
_cell_angle_alpha 90.000000
_cell_angle_beta 92.382960
_cell_angle_gamma 90.000000
_cell_volume 2980.642471
_symmetry_space_group_name_H-M "C 2/M"
_symmetry_group_IT_number 12
_symmetry_cell_setting 'monoclinic'
loop_
_space_group_symop_operation_xyz
x,y,z
-x,y,-z
-x,-y,-z
x,-y,z
1/2+x,1/2+y,z
1/2-x,1/2+y,-z
1/2-x,1/2-y,-z
1/2+x,1/2-y,z
loop_
_atom_site_type_symbol
_atom_site_label
_atom_site_fract_x
_atom_site_fract_y
_atom_site_fract_z
Si Si1 0.565981 0.805685 0.756451
Si Si2 0.625403 0.190754 0.009646
Si Si3 0.799545 0.191767 0.827840
Si Si4 0.885569 0.191287 0.702347
Si Si5 0.535053 0.198292 0.135369
Si Si6 0.323022 0.685397 0.163888
Si Si7 0.484161 0.301450 0.596010
O O1 0.528234 0.761031 0.839567
O O2 0.626736 0.725102 0.766538
O O3 0.529840 0.755583 0.669994
O O4 0.572805 0.000000 0.757792
O O5 0.669937 0.213480 0.091528
O O6 0.564892 0.242087 0.046358
O O7 0.621307 0.000000 0.985185
O O8 0.649703 0.285067 0.929151
O O9 0.826525 0.252577 0.737892
O O10 0.732831 0.208917 0.828046
O O11 0.814440 0.000000 0.838880
O O12 0.926926 0.218290 0.787671
O O13 0.922614 0.259367 0.625021
O O14 0.877865 0.000000 0.683301
O O15 0.540378 0.000000 0.142804
O O16 0.304604 0.500000 0.171070
O O17 0.500000 0.248269 0.500000
O O18 0.483644 0.500000 0.597669
#
# Coordination Sequence:
#
# PCOD9182414 Si02
#       7
#     8   8   8   8   8   8   8
#     4  10  20  35  52  73 101 131 164 201 245 294
#     4  10  19  33  51  72  97 128 169 211 249 287
#     4  10  19  33  51  71  97 131 172 211 243 279
#     4   8  15  28  49  75 100 127 159 195 236 284
#     4   8  16  30  49  70  95 127 161 201 245 289
#     4  12  24  35  47  67  97 134 172 209 251 292
#     4   9  17  32  56  84 109 129 151 187 239 298
#
# _framework density 18.787896
#
# number of rings (size 3 to 8) (size 9 to 14) (size 15 to 20)
#    0.000    2.429    0.000    3.000    0.000    2.571 
#    0.000    2.857    0.000    0.857    0.000    0.000 
#    0.000    0.000    0.000    0.000    0.000    0.000 
#
# Total GULP energy -156074.409811 kJ/mol
# GULP energy per Si atom -5574.086065 kJ/mol
# Density = 1.874513 g / cm^3
# Si number density = 18.787896 Si / 1000 Ang^3
#
#
#
# Elastic Constant Matrix: (Units=GPa)
#
#
# Indices 1 2 3 4 5 6 
#
# 1 88.5356 -2.8678 34.9027 0.0000 -10.2003 0.0000
# 2 -2.8678 22.3663 1.8320 0.0000 -2.9427 0.0000
# 3 34.9027 1.8320 93.6396 0.0000 -21.0259 0.0000
# 4 0.0000 0.0000 0.0000 12.5587 0.0000 -1.6566
# 5 -10.2003 -2.9427 -21.0259 0.0000 21.0540 0.0000
# 6 0.0000 0.0000 0.0000 -1.6566 0.0000 11.6428
#
#
#
# Elastic Compliance Matrix: (Units=1/GPa)
#
#
# Indices 1 2 3 4 5 6 
#
# 1 0.013426 0.002397 -0.004531 0.000000 0.002314 0.000000
# 2 0.002397 0.046011 -0.000115 0.000000 0.007478 0.000000
# 3 -0.004531 -0.000115 0.015306 0.000000 0.013074 0.000000
# 4 0.000000 0.000000 0.000000 0.081149 0.000000 0.011546
# 5 0.002314 0.007478 0.013074 0.000000 0.062720 0.000000
# 6 0.000000 0.000000 0.000000 0.011546 0.000000 0.087533
#
#
# Mechanical properties :
#
#
# Convention : Reuss Voigt Hill
#
# Bulk Modulus (GPa) = 14.23600 30.25282 22.24441
# Shear Modulus (GPa) = 14.96748 20.42940 17.69844
#
# Velocity S-wave (km/s) = 2.82557 3.30111 3.07255
# Velocity P-wave (km/s) = 4.27069 5.53778 4.94499
#
# Compressibility (1/GPa) = 0.07024444
#
# Stress axis : x y z
#
# Youngs Moduli (GPa) = 74.48486 21.73408 65.33284
#
# Poissons Ratio (x) = -0.05210 0.29605
# Poissons Ratio (y) = -0.17854 0.00749
# Poissons Ratio (z) = 0.33752 0.00249
#
# Static dielectric constant tensor:
#      x y z
#    x 1.676440 0.000000 -0.038590 
#    y 0.000000 1.646460 0.000000 
#    z -0.038590 0.000000 1.653060 
# 
# From -- ./inp_files/230953.got.cif
#   From: 2010.05.17/outbox.cif.g08.bks.cpg/sg12_116_cif.got.tgz:230953.got - 2010.06.03 13:09:07.
