data_PCOD9182252
_publ_section_title
;
Structure prediction by ZEFSAII (Michael W. Deem and Ramdas Pophale) SiO2 
 PCOD9182252
Probable space group: C 2/M
;
_chemical_formula_sum "Si O2"
_cell_formula_units_Z 56
_cell_length_a 10.786026
_cell_length_b 19.160418
_cell_length_c 14.217364
_cell_angle_alpha 90.000000
_cell_angle_beta 96.396425
_cell_angle_gamma 90.000000
_cell_volume 2919.937369
_symmetry_space_group_name_H-M "C 2/M"
_symmetry_group_IT_number 12
_symmetry_cell_setting 'monoclinic'
loop_
_space_group_symop_operation_xyz
x,y,z
-x,y,-z
-x,-y,-z
x,-y,z
1/2+x,1/2+y,z
1/2-x,1/2+y,-z
1/2-x,1/2-y,-z
1/2+x,1/2-y,z
loop_
_atom_site_type_symbol
_atom_site_label
_atom_site_fract_x
_atom_site_fract_y
_atom_site_fract_z
Si Si1 0.320229 0.698376 0.215374
Si Si2 0.584732 0.923562 0.661083
Si Si3 0.355657 0.311249 0.010906
Si Si4 0.707422 0.579957 0.486370
Si Si5 0.755272 0.142981 0.815050
Si Si6 0.146983 0.675194 0.358993
Si Si7 0.067040 0.171098 0.343402
O O1 0.349630 0.663228 0.118002
O O2 0.311660 0.781312 0.196555
O O3 0.192745 0.675069 0.254463
O O4 0.427390 0.686076 0.300525
O O5 0.684141 0.919399 0.584928
O O6 0.659025 0.912462 0.764872
O O7 0.483864 0.863580 0.641484
O O8 0.524453 0.000000 0.652381
O O9 0.500000 0.289659 0.000000
O O10 0.250000 0.250000 0.000000
O O11 0.311534 0.362945 0.923943
O O12 0.690059 0.500000 0.515521
O O13 0.756466 0.631769 0.570274
O O14 0.589362 0.612339 0.422493
O O15 0.864350 0.148182 0.746983
O O16 0.131067 0.756645 0.382953
#
# Coordination Sequence:
#
# PCOD9182252 Si02
#       7
#     8   8   8   8   8   8   8
#     4  10  20  33  53  86 115 151 184 232 290 343
#     4  10  20  37  61  83 111 150 192 241 292 347
#     4  10  19  32  58  89 123 155 190 240 296 348
#     4  10  22  39  58  81 109 151 196 237 288 349
#     4   9  18  33  56  83 115 145 189 232 282 341
#     4  11  21  35  55  83 117 146 191 241 288 342
#     4  10  19  35  55  81 116 146 191 228 284 339
#
# _framework density 19.178494000000001
#
# number of rings (size 3 to 8) (size 9 to 14) (size 15 to 20)
#    0.000    2.000    2.857    1.286    0.000    1.714 
#    2.571    2.143    0.000    3.857    0.000    0.000 
#    0.000    0.000    0.000    0.000    0.000    0.000 
#
# Total GULP energy -156108.778932 kJ/mol
# GULP energy per Si atom -5575.313533 kJ/mol
# Density = 1.913484 g / cm^3
# Si number density = 19.178494 Si / 1000 Ang^3
#
#
#
# Elastic Constant Matrix: (Units=GPa)
#
#
# Indices 1 2 3 4 5 6 
#
# 1 40.5535 -2.5232 12.0016 0.0000 -0.5017 0.0000
# 2 -2.5232 45.6664 33.7345 0.0000 -8.1216 0.0000
# 3 12.0016 33.7345 97.8414 0.0000 1.6052 0.0000
# 4 0.0000 0.0000 0.0000 12.1575 0.0000 1.8722
# 5 -0.5017 -8.1216 1.6052 0.0000 26.4070 0.0000
# 6 0.0000 0.0000 0.0000 1.8722 0.0000 20.0315
#
#
#
# Elastic Compliance Matrix: (Units=1/GPa)
#
#
# Indices 1 2 3 4 5 6 
#
# 1 0.026638 0.005887 -0.005341 0.000000 0.002641 0.000000
# 2 0.005887 0.033370 -0.012410 0.000000 0.011129 0.000000
# 3 -0.005341 -0.012410 0.015234 0.000000 -0.004844 0.000000
# 4 0.000000 0.000000 0.000000 0.083455 0.000000 -0.007800
# 5 0.002641 0.011129 -0.004844 0.000000 0.041636 0.000000
# 6 0.000000 0.000000 0.000000 -0.007800 0.000000 0.050650
#
#
# Mechanical properties :
#
#
# Convention : Reuss Voigt Hill
#
# Bulk Modulus (GPa) = 19.41209 30.05414 24.73312
# Shear Modulus (GPa) = 17.13009 21.10908 19.11959
#
# Velocity S-wave (km/s) = 2.99187 3.32123 3.16084
# Velocity P-wave (km/s) = 4.69882 5.51472 5.12304
#
# Compressibility (1/GPa) = 0.05151428
#
# Stress axis : x y z
#
# Youngs Moduli (GPa) = 37.54003 29.96678 65.64202
#
# Poissons Ratio (x) = -0.17641 0.35057
# Poissons Ratio (y) = -0.22099 0.81464
# Poissons Ratio (z) = 0.20049 0.37190
#
# Static dielectric constant tensor:
#      x y z
#    x 1.701610 0.000000 0.007320 
#    y 0.000000 1.643780 0.000000 
#    z 0.007320 0.000000 1.702000 
# 
# From -- ./inp_files/207310.got.cif
#   From: 2010.05.17/outbox.cif.g08.bks.cpg/sg12_104_cif.got.tgz:207310.got - 2010.06.03 13:09:07.
