data_PCOD9182600
_publ_section_title
;
Structure prediction by ZEFSAII (Michael W. Deem and Ramdas Pophale) SiO2 
 PCOD9182600
Probable space group: C 2/M
;
_chemical_formula_sum "Si O2"
_cell_formula_units_Z 48
_cell_length_a 19.592607
_cell_length_b 7.388169
_cell_length_c 15.267090
_cell_angle_alpha 90.000000
_cell_angle_beta 98.052220
_cell_angle_gamma 90.000000
_cell_volume 2188.176132
_symmetry_space_group_name_H-M "C 2/M"
_symmetry_group_IT_number 12
_symmetry_cell_setting 'monoclinic'
loop_
_space_group_symop_operation_xyz
x,y,z
-x,y,-z
-x,-y,-z
x,-y,z
1/2+x,1/2+y,z
1/2-x,1/2+y,-z
1/2-x,1/2-y,-z
1/2+x,1/2-y,z
loop_
_atom_site_type_symbol
_atom_site_label
_atom_site_fract_x
_atom_site_fract_y
_atom_site_fract_z
Si Si1 0.463333 0.278375 0.584383
Si Si2 0.194113 0.215847 0.414836
Si Si3 0.433949 0.278980 0.044648
Si Si4 0.433353 0.287430 0.245640
Si Si5 0.723943 0.780769 0.740152
Si Si6 0.798708 0.215013 0.927440
O O1 0.500000 0.223110 0.500000
O O2 0.463435 0.500000 0.583971
O O3 0.383469 0.218394 0.578534
O O4 0.509799 0.217298 0.675484
O O5 0.250000 0.250000 0.500000
O O6 0.230956 0.284067 0.333465
O O7 0.186747 0.000000 0.403632
O O8 0.429344 0.500000 0.048179
O O9 0.433551 0.215000 0.145686
O O10 0.500000 0.232188 0.000000
O O11 0.370855 0.212736 0.974381
O O12 0.448775 0.500000 0.239942
O O13 0.356478 0.270414 0.271464
O O14 0.761875 0.714368 0.834443
O O15 0.724124 0.000000 0.739264
O O16 0.807032 0.000000 0.914649
O O17 0.750000 0.250000 0.000000
#
# Coordination Sequence:
#
# PCOD9182600 Si02
#       6
#     8   8   8   8   8   8
#     4   9  18  32  52  77 102 128 165 216 261 299
#     4  10  21  37  56  80 107 136 172 214 264 315
#     4   9  18  30  49  77 104 132 173 218 255 297
#     4  10  19  33  55  78 101 136 179 218 256 305
#     4  10  21  34  52  77 109 141 169 212 266 314
#     4  10  19  33  52  76 106 140 175 213 258 306
#
# _framework density 21.936076
#
# number of rings (size 3 to 8) (size 9 to 14) (size 15 to 20)
#    0.000    2.333    1.667    1.000    2.333    2.000 
#    0.000    0.833    0.000    5.000    0.000    0.000 
#    0.000    0.000    0.000    0.000    0.000    0.000 
#
# Total GULP energy -133991.040498 kJ/mol
# GULP energy per Si atom -5582.960021 kJ/mol
# Density = 2.188615 g / cm^3
# Si number density = 21.936076 Si / 1000 Ang^3
#
#
#
# Elastic Constant Matrix: (Units=GPa)
#
#
# Indices 1 2 3 4 5 6 
#
# 1 228.0616 -11.3789 107.4533 0.0000 14.2946 0.0000
# 2 -11.3789 73.2172 -5.5815 0.0000 4.1997 0.0000
# 3 107.4533 -5.5815 177.3500 0.0000 10.6087 0.0000
# 4 0.0000 0.0000 0.0000 -0.3469 0.0000 -9.3573
# 5 14.2946 4.1997 10.6087 0.0000 43.4501 0.0000
# 6 0.0000 0.0000 0.0000 -9.3573 0.0000 9.7611
#
#
#
# Elastic Compliance Matrix: (Units=1/GPa)
#
#
# Indices 1 2 3 4 5 6 
#
# 1 0.006233 0.000758 -0.003679 0.000000 -0.001226 0.000000
# 2 0.000758 0.013874 0.000073 0.000000 -0.001608 0.000000
# 3 -0.003679 0.000073 0.007914 0.000000 -0.000729 0.000000
# 4 0.000000 0.000000 0.000000 -0.107328 0.000000 -0.102888
# 5 -0.001226 -0.001608 -0.000729 0.000000 0.023752 0.000000
# 6 0.000000 0.000000 0.000000 -0.102888 0.000000 0.003815
#
#
# Mechanical properties :
#
#
# Convention : Reuss Voigt Hill
#
# Bulk Modulus (GPa) = 44.79204 73.29050 59.04127
# Shear Modulus (GPa) = -129.51800 36.44858 -46.53471
#
# Velocity S-wave (km/s) = -7.69230 4.08067 -4.61084
# Velocity P-wave (km/s) = 7.64406 7.46230 1.17169
#
# Compressibility (1/GPa) = 0.02232539
#
# Stress axis : x y z
#
# Youngs Moduli (GPa) = 160.43754 72.07870 126.36359
#
# Poissons Ratio (x) = -0.05467 0.46492
# Poissons Ratio (y) = -0.12169 -0.00926
# Poissons Ratio (z) = 0.59029 -0.00528
#
# Static dielectric constant tensor:
#      x y z
#    x 1.776620 0.000000 -0.019440 
#    y 0.000000 1.864060 0.000000 
#    z -0.019440 0.000000 1.779300 
# 
# From -- ./inp_files/221619.got.cif
#   From: 2010.05.17/outbox.cif.g08.bks.cpg/sg12_111_cif.got.tgz:221619.got - 2010.06.03 13:09:07.
