data_PCOD9182575
_publ_section_title
;
Structure prediction by ZEFSAII (Michael W. Deem and Ramdas Pophale) SiO2 
 PCOD9182575
Probable space group: C 2/M
;
_chemical_formula_sum "Si O2"
_cell_formula_units_Z 56
_cell_length_a 15.725975
_cell_length_b 7.745161
_cell_length_c 22.571284
_cell_angle_alpha 90.000000
_cell_angle_beta 100.223103
_cell_angle_gamma 90.000000
_cell_volume 2705.541336
_symmetry_space_group_name_H-M "C 2/M"
_symmetry_group_IT_number 12
_symmetry_cell_setting 'monoclinic'
loop_
_space_group_symop_operation_xyz
x,y,z
-x,y,-z
-x,-y,-z
x,-y,z
1/2+x,1/2+y,z
1/2-x,1/2+y,-z
1/2-x,1/2-y,-z
1/2+x,1/2-y,z
loop_
_atom_site_type_symbol
_atom_site_label
_atom_site_fract_x
_atom_site_fract_y
_atom_site_fract_z
Si Si1 0.294925 0.793336 0.067291
Si Si2 0.351616 0.292291 0.499984
Si Si3 0.442228 0.208455 0.271186
Si Si4 0.736203 0.792158 0.806955
Si Si5 0.977380 0.793454 0.411180
Si Si6 0.920357 0.706290 0.806973
Si Si7 0.510973 0.789119 0.934198
O O1 0.256750 0.725711 0.124289
O O2 0.394296 0.739156 0.076041
O O3 0.293971 0.000000 0.070659
O O4 0.250000 0.750000 0.000000
O O5 0.352327 0.500000 0.499987
O O6 0.250000 0.250000 0.500000
O O7 0.398034 0.232836 0.443956
O O8 0.426588 0.232834 0.556006
O O9 0.350406 0.271174 0.235082
O O10 0.459601 0.253250 0.340997
O O11 0.515959 0.273286 0.235563
O O12 0.441361 0.000000 0.267322
O O13 0.821525 0.744399 0.782471
O O14 0.731295 0.000000 0.809017
O O15 0.979234 0.000000 0.418483
O O16 0.932065 0.500000 0.810756
O O17 0.945167 0.772435 0.875762
O O18 0.506595 0.000000 0.935979
O O19 0.500000 0.727149 0.000000
#
# Coordination Sequence:
#
# PCOD9182575 Si02
#       7
#     8   8   8   8   8   8   8
#     4  10  19  33  52  75 103 135 174 224 278 333
#     4   9  19  37  60  86 118 151 186 228 272 320
#     4  10  21  38  57  79 112 150 188 228 273 330
#     4  10  21  37  54  76 109 143 176 226 285 330
#     4   9  20  38  58  83 116 152 186 226 275 323
#     4  10  20  36  56  78 103 139 187 228 268 331
#     4   9  16  29  51  74  97 130 174 220 268 325
#
# _framework density 20.698262
#
# number of rings (size 3 to 8) (size 9 to 14) (size 15 to 20)
#    0.000    2.429    1.429    1.714    0.000    5.143 
#    0.000    7.857    0.000    2.571    0.000    0.000 
#    0.000    0.000    0.000    0.000    0.000    0.000 
#
# Total GULP energy -156141.676310 kJ/mol
# GULP energy per Si atom -5576.488440 kJ/mol
# Density = 2.065115 g / cm^3
# Si number density = 20.698262 Si / 1000 Ang^3
#
#
#
# Elastic Constant Matrix: (Units=GPa)
#
#
# Indices 1 2 3 4 5 6 
#
# 1 205.4480 7.1619 100.9247 0.0000 -7.6450 0.0000
# 2 7.1619 27.8577 6.8391 0.0000 -1.2928 0.0000
# 3 100.9247 6.8391 169.9404 0.0000 0.5423 0.0000
# 4 0.0000 0.0000 0.0000 18.8066 0.0000 -2.1716
# 5 -7.6450 -1.2928 0.5423 0.0000 21.5698 0.0000
# 6 0.0000 0.0000 0.0000 -2.1716 0.0000 19.2904
#
#
#
# Elastic Compliance Matrix: (Units=1/GPa)
#
#
# Indices 1 2 3 4 5 6 
#
# 1 0.007026 -0.000668 -0.004154 0.000000 0.002555 0.000000
# 2 -0.000668 0.036424 -0.001075 0.000000 0.001973 0.000000
# 3 -0.004154 -0.001075 0.008400 0.000000 -0.001748 0.000000
# 4 0.000000 0.000000 0.000000 0.053873 0.000000 0.006065
# 5 0.002555 0.001973 -0.001748 0.000000 0.047429 0.000000
# 6 0.000000 0.000000 0.000000 0.006065 0.000000 0.052522
#
#
# Mechanical properties :
#
#
# Convention : Reuss Voigt Hill
#
# Bulk Modulus (GPa) = 24.96523 70.34417 47.65470
# Shear Modulus (GPa) = 21.66172 31.15473 26.40823
#
# Velocity S-wave (km/s) = 3.23855 3.88388 3.57580
# Velocity P-wave (km/s) = 5.10607 7.36017 6.33419
#
# Compressibility (1/GPa) = 0.04005571
#
# Stress axis : x y z
#
# Youngs Moduli (GPa) = 142.31895 27.45434 119.04246
#
# Poissons Ratio (x) = 0.01834 0.49452
# Poissons Ratio (y) = 0.09507 0.12802
# Poissons Ratio (z) = 0.59122 0.02953
#
# Static dielectric constant tensor:
#      x y z
#    x 1.743120 0.000000 -0.000670 
#    y 0.000000 1.773090 0.000000 
#    z -0.000670 0.000000 1.744120 
# 
# From -- ./inp_files/309032.got.cif
#   From: 2010.05.17/outbox.cif.g08.bks.cpg/sg12_155_cif.got.tgz:309032.got - 2010.06.03 13:09:07.
