data_PCOD9182022
_publ_section_title
;
Structure prediction by ZEFSAII (Michael W. Deem and Ramdas Pophale) SiO2 
 PCOD9182022
Probable space group: C 2/M
;
_chemical_formula_sum "Si O2"
_cell_formula_units_Z 64
_cell_length_a 24.955642
_cell_length_b 8.934660
_cell_length_c 20.916334
_cell_angle_alpha 90.000000
_cell_angle_beta 128.026339
_cell_angle_gamma 90.000000
_cell_volume 3673.740154
_symmetry_space_group_name_H-M "C 2/M"
_symmetry_group_IT_number 12
_symmetry_cell_setting 'monoclinic'
loop_
_space_group_symop_operation_xyz
x,y,z
-x,y,-z
-x,-y,-z
x,-y,z
1/2+x,1/2+y,z
1/2-x,1/2+y,-z
1/2-x,1/2-y,-z
1/2+x,1/2-y,z
loop_
_atom_site_type_symbol
_atom_site_label
_atom_site_fract_x
_atom_site_fract_y
_atom_site_fract_z
Si Si1 0.675159 0.321689 0.372652
Si Si2 0.823168 0.177812 0.131721
Si Si3 0.331305 0.178346 0.491681
Si Si4 0.452902 0.821321 0.778732
Si Si5 0.468005 0.319952 0.044744
Si Si6 0.958094 0.321071 0.282091
Si Si7 0.680520 0.678535 0.022533
Si Si8 0.535551 0.678993 0.458919
O O1 0.665975 0.500000 0.371522
O O2 0.662983 0.246588 0.432893
O O3 0.753870 0.292879 0.412791
O O4 0.620579 0.253348 0.284474
O O5 0.882670 0.260208 0.213420
O O6 0.747984 0.235570 0.093488
O O7 0.828626 0.000000 0.144499
O O8 0.831403 0.210326 0.061722
O O9 0.389184 0.252113 0.491319
O O10 0.341748 0.000000 0.503074
O O11 0.491635 0.758443 0.868550
O O12 0.496864 0.784380 0.747573
O O13 0.446606 0.000000 0.777631
O O14 0.472640 0.500000 0.056890
O O15 0.500000 0.281695 0.000000
O O16 0.388294 0.280465 0.991302
O O17 0.957614 0.500000 0.289130
O O18 0.992257 0.246181 0.368646
O O19 0.692041 0.500000 0.036797
O O20 0.500000 0.715098 0.500000
O O21 0.539307 0.500000 0.455158
#
# Coordination Sequence:
#
# PCOD9182022 Si02
#       8
#     8   8   8   8   8   8   8   8
#     4  10  20  34  57  85 115 147 186 236 282 332
#     4  10  19  32  55  83 111 144 183 230 280 329
#     4  10  20  35  56  85 115 149 189 229 283 336
#     4  11  22  35  56  86 116 146 188 235 281 333
#     4  10  21  38  59  82 112 151 190 228 279 340
#     4  11  22  36  57  85 114 146 188 235 280 332
#     4   9  18  33  53  80 112 145 182 228 279 328
#     4  11  24  40  59  84 115 152 190 231 284 341
#
# _framework density 17.420939000000001
#
# number of rings (size 3 to 8) (size 9 to 14) (size 15 to 20)
#    0.000    1.750    2.500    2.250    0.000    4.750 
#    0.000    1.250    0.000    1.500    0.000    0.000 
#    0.000    0.000    0.000    0.000    0.000    0.000 
#
# Total GULP energy -178725.848522 kJ/mol
# GULP energy per Si atom -5585.182766 kJ/mol
# Density = 1.738129 g / cm^3
# Si number density = 17.420939 Si / 1000 Ang^3
#
#
#
# Elastic Constant Matrix: (Units=GPa)
#
#
# Indices 1 2 3 4 5 6 
#
# 1 152.5787 69.3197 76.0516 0.0000 13.6336 0.0000
# 2 69.3197 63.2661 59.7591 0.0000 3.9148 0.0000
# 3 76.0516 59.7591 106.9395 0.0000 12.8447 0.0000
# 4 0.0000 0.0000 0.0000 28.7623 0.0000 6.2774
# 5 13.6336 3.9148 12.8447 0.0000 27.7133 0.0000
# 6 0.0000 0.0000 0.0000 6.2774 0.0000 24.6893
#
#
#
# Elastic Compliance Matrix: (Units=1/GPa)
#
#
# Indices 1 2 3 4 5 6 
#
# 1 0.013836 -0.012858 -0.002176 0.000000 -0.003982 0.000000
# 2 -0.012858 0.045887 -0.017451 0.000000 0.007932 0.000000
# 3 -0.002176 -0.017451 0.021418 0.000000 -0.006391 0.000000
# 4 0.000000 0.000000 0.000000 0.036810 0.000000 -0.009359
# 5 -0.003982 0.007932 -0.006391 0.000000 0.039884 0.000000
# 6 0.000000 0.000000 0.000000 -0.009359 0.000000 0.042883
#
#
# Mechanical properties :
#
#
# Convention : Reuss Voigt Hill
#
# Bulk Modulus (GPa) = 61.83818 81.44947 71.64382
# Shear Modulus (GPa) = 18.44471 24.07658 21.26064
#
# Velocity S-wave (km/s) = 3.25740 3.72162 3.49722
# Velocity P-wave (km/s) = 7.05132 8.08224 7.58431
#
# Compressibility (1/GPa) = 0.01617124
#
# Stress axis : x y z
#
# Youngs Moduli (GPa) = 72.27388 21.79254 46.68922
#
# Poissons Ratio (x) = 0.28021 0.10161
# Poissons Ratio (y) = 0.92930 0.81476
# Poissons Ratio (z) = 0.15730 0.38030
#
# Static dielectric constant tensor:
#      x y z
#    x 1.588810 0.000000 0.015270 
#    y 0.000000 1.578400 0.000000 
#    z 0.015270 0.000000 1.564680 
# 
# From -- ./inp_files/324339.got.cif
#   From: 2010.05.17/outbox.cif.g08.bks.cpg/sg12_163_cif.got.tgz:324339.got - 2010.06.03 13:09:07.
