data_PCOD9182084
_publ_section_title
;
Structure prediction by ZEFSAII (Michael W. Deem and Ramdas Pophale) SiO2 
 PCOD9182084
Probable space group: C 2/M
;
_chemical_formula_sum "Si O2"
_cell_formula_units_Z 60
_cell_length_a 19.393401
_cell_length_b 14.816730
_cell_length_c 19.425491
_cell_angle_alpha 90.000000
_cell_angle_beta 146.703662
_cell_angle_gamma 90.000000
_cell_volume 3064.266154
_symmetry_space_group_name_H-M "C 2/M"
_symmetry_group_IT_number 12
_symmetry_cell_setting 'monoclinic'
loop_
_space_group_symop_operation_xyz
x,y,z
-x,y,-z
-x,-y,-z
x,-y,z
1/2+x,1/2+y,z
1/2-x,1/2+y,-z
1/2-x,1/2-y,-z
1/2+x,1/2-y,z
loop_
_atom_site_type_symbol
_atom_site_label
_atom_site_fract_x
_atom_site_fract_y
_atom_site_fract_z
Si Si1 0.621705 0.240336 0.350509
Si Si2 0.021909 0.312412 0.404070
Si Si3 0.250860 0.606244 0.798699
Si Si4 0.500000 0.336713 0.500000
Si Si5 0.890159 0.263051 0.965925
Si Si6 0.544148 0.897147 0.179760
Si Si7 0.213379 0.893884 0.332981
Si Si8 0.750252 0.596019 0.769274
O O1 0.750000 0.250000 0.500000
O O2 0.519473 0.227508 0.324925
O O3 0.617568 0.148133 0.303837
O O4 0.623405 0.325187 0.299713
O O5 0.037090 0.229055 0.468686
O O6 0.144940 0.374081 0.520980
O O7 0.894147 0.365016 0.313781
O O8 0.264601 0.500000 0.819540
O O9 0.337523 0.662166 0.923928
O O10 0.288446 0.628122 0.750399
O O11 0.381496 0.393913 0.377928
O O12 0.774773 0.320364 0.838679
O O13 0.941089 0.322353 0.071664
O O14 0.000000 0.262733 0.000000
O O15 0.640374 0.902154 0.196329
O O16 0.500323 0.000000 0.156282
O O17 0.184577 0.000000 0.317790
O O18 0.760126 0.500000 0.814714
#
# Coordination Sequence:
#
# PCOD9182084 Si02
#       8
#     8   8   8   4   8   8   8   8
#     4  10  22  37  58  88 119 157 195 251 304 354
#     4  11  20  35  57  85 122 156 201 249 311 362
#     4  11  21  35  60  90 120 157 202 255 305 359
#     4  12  19  34  57  82 126 154 187 256 311 368
#     4  10  19  36  58  84 120 156 203 255 295 354
#     4  10  21  38  61  84 114 156 205 247 288 359
#     4  10  19  35  58  88 123 163 204 245 300 366
#     4  10  19  32  55  87 115 153 198 242 299 354
#
# _framework density 19.580545000000001
#
# number of rings (size 3 to 8) (size 9 to 14) (size 15 to 20)
#    0.000    1.600    2.667    4.200    0.000    5.600 
#    0.000    2.667    0.000    0.000    0.000    0.000 
#    0.000    0.000    0.000    0.000    0.000    0.000 
#
# Total GULP energy -167324.208307 kJ/mol
# GULP energy per Si atom -5577.473610 kJ/mol
# Density = 1.953598 g / cm^3
# Si number density = 19.580545 Si / 1000 Ang^3
#
#
#
# Elastic Constant Matrix: (Units=GPa)
#
#
# Indices 1 2 3 4 5 6 
#
# 1 54.3203 44.0366 -4.1800 0.0000 -10.6830 0.0000
# 2 44.0366 134.6453 39.4385 0.0001 -13.9967 0.0000
# 3 -4.1800 39.4385 75.6438 0.0001 -2.5922 0.0000
# 4 0.0000 0.0001 0.0001 -56.3014 0.0000 -3.0470
# 5 -10.6830 -13.9967 -2.5922 0.0000 12.8532 0.0000
# 6 0.0000 0.0000 0.0000 -3.0470 0.0000 11.3052
#
#
#
# Elastic Compliance Matrix: (Units=1/GPa)
#
#
# Indices 1 2 3 4 5 6 
#
# 1 0.030766 -0.010752 0.007835 0.000000 0.015443 0.000000
# 2 -0.010752 0.013604 -0.007538 0.000000 0.004358 0.000000
# 3 0.007835 -0.007538 0.017647 0.000000 0.001863 0.000000
# 4 0.000000 0.000000 0.000000 -0.017506 0.000000 -0.004718
# 5 0.015443 0.004358 0.001863 0.000000 0.095759 0.000000
# 6 0.000000 0.000000 0.000000 -0.004718 0.000000 0.087183
#
#
# Mechanical properties :
#
#
# Convention : Reuss Voigt Hill
#
# Bulk Modulus (GPa) = 24.32644 47.02217 35.67430
# Shear Modulus (GPa) = 19.07936 5.92567 12.50252
#
# Velocity S-wave (km/s) = 3.12493 1.74151 2.52963
# Velocity P-wave (km/s) = 5.04688 5.30195 5.17599
#
# Compressibility (1/GPa) = 0.04110753
#
# Stress axis : x y z
#
# Youngs Moduli (GPa) = 32.50390 73.50695 56.66833
#
# Poissons Ratio (x) = 0.79032 -0.44399
# Poissons Ratio (y) = 0.34947 0.42714
# Poissons Ratio (z) = -0.25466 0.55407
#
# Static dielectric constant tensor:
#      x y z
#    x 1.700940 0.000000 -0.012870 
#    y 0.000000 1.694190 0.000000 
#    z -0.012870 0.000000 1.711790 
# 
# From -- ./inp_files/322141.got.cif
#   From: 2010.05.17/outbox.cif.g08.bks.cpg/sg12_162_cif.got.tgz:322141.got - 2010.06.03 13:09:07.
