data_PCOD9182678
_publ_section_title
;
Structure prediction by ZEFSAII (Michael W. Deem and Ramdas Pophale) SiO2 
 PCOD9182678
Probable space group: C 2/M
;
_chemical_formula_sum "Si O2"
_cell_formula_units_Z 64
_cell_length_a 14.794270
_cell_length_b 27.816252
_cell_length_c 12.354962
_cell_angle_alpha 90.000000
_cell_angle_beta 39.962370
_cell_angle_gamma 90.000000
_cell_volume 3265.584395
_symmetry_space_group_name_H-M "C 2/M"
_symmetry_group_IT_number 12
_symmetry_cell_setting 'monoclinic'
loop_
_space_group_symop_operation_xyz
x,y,z
-x,y,-z
-x,-y,-z
x,-y,z
1/2+x,1/2+y,z
1/2-x,1/2+y,-z
1/2-x,1/2-y,-z
1/2+x,1/2-y,z
loop_
_atom_site_type_symbol
_atom_site_label
_atom_site_fract_x
_atom_site_fract_y
_atom_site_fract_z
Si Si1 0.505855 0.803797 0.729887
Si Si2 0.755493 0.646359 0.074170
Si Si3 0.039982 0.807170 0.674534
Si Si4 0.151845 0.444350 0.126451
Si Si5 0.410134 0.103409 0.472364
Si Si6 0.848813 0.796980 0.188068
Si Si7 0.331674 0.596046 0.158584
Si Si8 0.765341 0.695234 0.291718
O O1 0.500922 0.749028 0.696164
O O2 0.574130 0.841988 0.584704
O O3 0.601757 0.804948 0.749899
O O4 0.354135 0.822469 0.904572
O O5 0.595213 0.659382 0.194855
O O6 0.783114 0.662928 0.170917
O O7 0.796672 0.591623 0.013721
O O8 0.123522 0.808614 0.711117
O O9 0.135889 0.820440 0.484983
O O10 0.157702 0.500000 0.094152
O O11 0.254631 0.432508 0.133920
O O12 0.994884 0.428821 0.308547
O O13 0.500000 0.100274 0.500000
O O14 0.253853 0.086810 0.650876
O O15 0.806889 0.846349 0.168433
O O16 0.749564 0.750996 0.269939
O O17 0.000000 0.782368 0.000000
O O18 0.500000 0.588336 0.000000
#
# Coordination Sequence:
#
# PCOD9182678 Si02
#       8
#     8   8   8   8   8   8   8   8
#     4  10  20  35  54  81 116 152 184 214 255 315
#     4  11  22  36  55  79 105 142 190 232 269 318
#     4  11  21  33  52  82 118 149 180 218 262 320
#     4  10  23  41  58  76 102 139 185 238 289 332
#     4   9  19  34  56  83 113 147 180 220 272 329
#     4  10  19  33  52  81 121 155 179 209 261 321
#     4  10  19  33  56  87 118 145 175 217 272 334
#     4  11  21  34  54  80 116 154 184 216 258 316
#
# _framework density 19.598330000000001
#
# number of rings (size 3 to 8) (size 9 to 14) (size 15 to 20)
#    0.000    1.750    0.000    7.125    0.000    6.500 
#    0.000    0.000    0.000    7.500    0.000    0.000 
#    0.000    0.000    0.000    0.000    0.000    0.000 
#
# Total GULP energy -178823.322048 kJ/mol
# GULP energy per Si atom -5588.228814 kJ/mol
# Density = 1.955372 g / cm^3
# Si number density = 19.598330 Si / 1000 Ang^3
#
#
#
# Elastic Constant Matrix: (Units=GPa)
#
#
# Indices 1 2 3 4 5 6 
#
# 1 43.5459 16.3985 29.5511 0.0000 -2.0225 0.0000
# 2 16.3985 93.5939 31.3312 0.0000 -7.7295 0.0000
# 3 29.5511 31.3312 147.1225 0.0000 -18.8705 0.0000
# 4 0.0000 0.0000 0.0000 5.2038 0.0000 -4.6215
# 5 -2.0225 -7.7295 -18.8705 0.0000 27.4801 0.0000
# 6 0.0000 0.0000 0.0000 -4.6215 0.0000 8.7507
#
#
#
# Elastic Compliance Matrix: (Units=1/GPa)
#
#
# Indices 1 2 3 4 5 6 
#
# 1 0.027593 -0.003312 -0.005150 0.000000 -0.002437 0.000000
# 2 -0.003312 0.011975 -0.001628 0.000000 0.002007 0.000000
# 3 -0.005150 -0.001628 0.008850 0.000000 0.005241 0.000000
# 4 0.000000 0.000000 0.000000 0.361910 0.000000 0.191134
# 5 -0.002437 0.002007 0.005241 0.000000 0.040374 0.000000
# 6 0.000000 0.000000 0.000000 0.191134 0.000000 0.215219
#
#
# Mechanical properties :
#
#
# Convention : Reuss Voigt Hill
#
# Bulk Modulus (GPa) = 35.41055 48.75820 42.08438
# Shear Modulus (GPa) = 7.18894 22.08570 14.63732
#
# Velocity S-wave (km/s) = 1.91732 3.36060 2.73585
# Velocity P-wave (km/s) = 4.79675 6.32384 5.61248
#
# Compressibility (1/GPa) = 0.02824017
#
# Stress axis : x y z
#
# Youngs Moduli (GPa) = 36.24121 83.50490 112.99183
#
# Poissons Ratio (x) = 0.27656 0.58186
# Poissons Ratio (y) = 0.12003 0.18391
# Poissons Ratio (z) = 0.18663 0.13591
#
# Static dielectric constant tensor:
#      x y z
#    x 1.719550 0.000000 -0.013800 
#    y 0.000000 1.671400 0.000000 
#    z -0.013800 0.000000 1.728790 
# 
# From -- ./inp_files/150265.got.cif
#   From: 2010.05.17/outbox.cif.g08.bks.cpg/sg12_76_cif.got.tgz:150265.got - 2010.06.03 13:09:07.
