data_PCOD9182123
_publ_section_title
;
Structure prediction by ZEFSAII (Michael W. Deem and Ramdas Pophale) SiO2 
 PCOD9182123
Probable space group: C 2/M
;
_chemical_formula_sum "Si O2"
_cell_formula_units_Z 36
_cell_length_a 9.569097
_cell_length_b 21.132024
_cell_length_c 12.098454
_cell_angle_alpha 90.000000
_cell_angle_beta 124.149267
_cell_angle_gamma 90.000000
_cell_volume 2024.654118
_symmetry_space_group_name_H-M "C 2/M"
_symmetry_group_IT_number 12
_symmetry_cell_setting 'monoclinic'
loop_
_space_group_symop_operation_xyz
x,y,z
-x,y,-z
-x,-y,-z
x,-y,z
1/2+x,1/2+y,z
1/2-x,1/2+y,-z
1/2-x,1/2-y,-z
1/2+x,1/2-y,z
loop_
_atom_site_type_symbol
_atom_site_label
_atom_site_fract_x
_atom_site_fract_y
_atom_site_fract_z
Si Si1 0.483749 0.749396 0.185675
Si Si2 0.654363 0.301668 0.648331
Si Si3 0.295546 0.072309 0.785242
Si Si4 0.838865 0.616236 0.057636
Si Si5 0.000000 0.852935 0.000000
O O1 0.381251 0.725771 0.245640
O O2 0.666731 0.772726 0.307462
O O3 0.391779 0.809414 0.087511
O O4 0.508392 0.693019 0.109813
O O5 0.500000 0.286531 0.500000
O O6 0.682119 0.376910 0.671824
O O7 0.490363 0.080110 0.832522
O O8 0.242122 0.000000 0.752560
O O9 0.299192 0.094074 0.915560
O O10 0.672957 0.608566 0.058866
#
# Coordination Sequence:
#
# PCOD9182123 Si02
#       5
#     8   8   8   8   4
#     4  11  20  34  53  86 114 137 173 220 282 327
#     4  11  22  36  56  80 111 148 181 218 261 320
#     4  10  21  38  55  77 108 145 188 221 261 317
#     4  10  19  32  56  81 108 139 170 226 279 320
#     4  12  18  30  55  82 113 136 162 220 284 330
#
# _framework density 17.780816000000002
#
# number of rings (size 3 to 8) (size 9 to 14) (size 15 to 20)
#    0.000    1.333    4.444    5.333    0.000    0.444 
#    0.000    2.222    0.000    0.000    0.000    1.556 
#    0.000    0.000    0.000    0.000    0.000    0.000 
#
# Total GULP energy -100479.900900 kJ/mol
# GULP energy per Si atom -5582.216717 kJ/mol
# Density = 1.774035 g / cm^3
# Si number density = 17.780816 Si / 1000 Ang^3
#
#
#
# Elastic Constant Matrix: (Units=GPa)
#
#
# Indices 1 2 3 4 5 6 
#
# 1 104.5570 14.2441 -4.5501 0.0000 8.7219 0.0000
# 2 14.2441 74.3399 -2.8867 0.0000 -0.5004 0.0000
# 3 -4.5501 -2.8867 31.9577 0.0000 10.0286 0.0000
# 4 0.0000 0.0000 0.0000 7.1910 0.0000 2.5888
# 5 8.7219 -0.5004 10.0286 0.0000 22.2129 0.0000
# 6 0.0000 0.0000 0.0000 2.5888 0.0000 10.2422
#
#
#
# Elastic Compliance Matrix: (Units=1/GPa)
#
#
# Indices 1 2 3 4 5 6 
#
# 1 0.010416 -0.001915 0.003037 0.000000 -0.005504 0.000000
# 2 -0.001915 0.013853 0.000751 0.000000 0.000725 0.000000
# 3 0.003037 0.000751 0.037469 0.000000 -0.018092 0.000000
# 4 0.000000 0.000000 0.000000 0.152983 0.000000 -0.038667
# 5 -0.005504 0.000725 -0.018092 0.000000 0.055365 0.000000
# 6 0.000000 0.000000 0.000000 -0.038667 0.000000 0.107409
#
#
# Mechanical properties :
#
#
# Convention : Reuss Voigt Hill
#
# Bulk Modulus (GPa) = 15.27052 24.94101 20.10577
# Shear Modulus (GPa) = 12.63979 21.53237 17.08608
#
# Velocity S-wave (km/s) = 2.66910 3.48370 3.10325
# Velocity P-wave (km/s) = 4.25507 5.49899 4.91653
#
# Compressibility (1/GPa) = 0.06548563
#
# Stress axis : x y z
#
# Youngs Moduli (GPa) = 96.00256 72.18810 26.68862
#
# Poissons Ratio (x) = 0.13824 -0.08107
# Poissons Ratio (y) = 0.18384 -0.02005
# Poissons Ratio (z) = -0.29160 -0.05423
#
# Static dielectric constant tensor:
#      x y z
#    x 1.633010 0.000000 0.026620 
#    y 0.000000 1.606670 0.000000 
#    z 0.026620 0.000000 1.584190 
# 
# From -- ./inp_files/119608.got.cif
#   From: 2010.05.17/outbox.cif.g08.bks.cpg/sg12_60_cif.got.tgz:119608.got - 2010.06.03 13:09:07.
