data_PCOD9182234
_publ_section_title
;
Structure prediction by ZEFSAII (Michael W. Deem and Ramdas Pophale) SiO2 
 PCOD9182234
Probable space group: C 2/M
;
_chemical_formula_sum "Si O2"
_cell_formula_units_Z 48
_cell_length_a 17.971543
_cell_length_b 14.260701
_cell_length_c 8.124196
_cell_angle_alpha 90.000000
_cell_angle_beta 80.713502
_cell_angle_gamma 90.000000
_cell_volume 2054.835410
_symmetry_space_group_name_H-M "C 2/M"
_symmetry_group_IT_number 12
_symmetry_cell_setting 'monoclinic'
loop_
_space_group_symop_operation_xyz
x,y,z
-x,y,-z
-x,-y,-z
x,-y,z
1/2+x,1/2+y,z
1/2-x,1/2+y,-z
1/2-x,1/2-y,-z
1/2+x,1/2-y,z
loop_
_atom_site_type_symbol
_atom_site_label
_atom_site_fract_x
_atom_site_fract_y
_atom_site_fract_z
Si Si1 0.649068 0.391370 0.317338
Si Si2 0.795532 0.712300 0.138084
Si Si3 0.425758 0.107696 0.193264
Si Si4 0.457781 0.757621 0.692417
Si Si5 0.329217 0.603862 0.316408
Si Si6 0.349927 0.899134 0.578901
O O1 0.657409 0.500000 0.269479
O O2 0.729133 0.339855 0.262550
O O3 0.579560 0.341444 0.249133
O O4 0.632362 0.385675 0.519335
O O5 0.863272 0.639466 0.084142
O O6 0.836079 0.802066 0.208353
O O7 0.750000 0.750000 0.000000
O O8 0.491275 0.183641 0.199735
O O9 0.379466 0.111086 0.382787
O O10 0.450467 0.000000 0.163723
O O11 0.500000 0.751676 0.500000
O O12 0.384750 0.819536 0.676536
O O13 0.349178 0.500000 0.240469
O O14 0.239479 0.601462 0.382738
O O15 0.378601 0.000000 0.628418
#
# Coordination Sequence:
#
# PCOD9182234 Si02
#       6
#     8   8   8   8   8   8
#     4  11  22  39  64  89 119 160 203 251 307 365
#     4  12  24  39  61  88 123 161 206 250 303 361
#     4  10  20  36  59  88 120 155 193 242 301 360
#     4  10  19  32  57  92 124 154 192 251 306 360
#     4  10  19  34  60  90 117 151 201 255 300 349
#     4   9  15  28  55  88 118 146 188 243 298 347
#
# _framework density 23.359535999999999
#
# number of rings (size 3 to 8) (size 9 to 14) (size 15 to 20)
#    0.000    1.667    3.333    3.500    0.000    3.667 
#    0.000    1.667    0.000    2.000    0.000    0.000 
#    0.000    0.000    0.000    0.000    0.000    0.000 
#
# Total GULP energy -134096.581583 kJ/mol
# GULP energy per Si atom -5587.357566 kJ/mol
# Density = 2.330637 g / cm^3
# Si number density = 23.359536 Si / 1000 Ang^3
#
#
#
# Elastic Constant Matrix: (Units=GPa)
#
#
# Indices 1 2 3 4 5 6 
#
# 1 95.6373 51.1766 8.9601 0.0000 20.2018 0.0000
# 2 51.1766 164.9971 23.3045 0.0000 17.9918 0.0000
# 3 8.9601 23.3045 39.1336 0.0000 5.8250 0.0000
# 4 0.0000 0.0000 0.0000 2.0147 0.0000 12.4202
# 5 20.2018 17.9918 5.8250 0.0000 26.3846 0.0000
# 6 0.0000 0.0000 0.0000 12.4202 0.0000 34.2365
#
#
#
# Elastic Compliance Matrix: (Units=1/GPa)
#
#
# Indices 1 2 3 4 5 6 
#
# 1 0.014083 -0.003460 0.000093 0.000000 -0.008444 0.000000
# 2 -0.003460 0.007850 -0.003599 0.000000 -0.001909 0.000000
# 3 0.000093 -0.003599 0.028249 0.000000 -0.003854 0.000000
# 4 0.000000 0.000000 0.000000 -0.401435 0.000000 0.145632
# 5 -0.008444 -0.001909 -0.003854 0.000000 0.046519 0.000000
# 6 0.000000 0.000000 0.000000 0.145632 0.000000 -0.023623
#
#
# Mechanical properties :
#
#
# Convention : Reuss Voigt Hill
#
# Bulk Modulus (GPa) = 27.58598 51.85004 39.71801
# Shear Modulus (GPa) = -16.53751 26.94897 5.20573
#
# Velocity S-wave (km/s) = -2.66363 3.40024 1.49444
# Velocity P-wave (km/s) = 1.54112 6.13679 4.47411
#
# Compressibility (1/GPa) = 0.03625030
#
# Stress axis : x y z
#
# Youngs Moduli (GPa) = 71.00906 127.38074 35.39975
#
# Poissons Ratio (x) = 0.44079 -0.00330
# Poissons Ratio (y) = 0.24572 0.12739
# Poissons Ratio (z) = -0.00661 0.45839
#
# Static dielectric constant tensor:
#      x y z
#    x 1.858850 0.000000 -0.023360 
#    y 0.000000 1.943880 0.000000 
#    z -0.023360 0.000000 1.913330 
# 
# From -- ./inp_files/73633.got.cif
#   From: 2010.05.17/outbox.cif.g08.bks.cpg/sg12_37_cif.got.tgz:73633.got - 2010.06.03 13:09:07.
