data_PCOD9182521
_publ_section_title
;
Structure prediction by ZEFSAII (Michael W. Deem and Ramdas Pophale) SiO2 
 PCOD9182521
Probable space group: C 2/M
;
_chemical_formula_sum "Si O2"
_cell_formula_units_Z 64
_cell_length_a 25.228992
_cell_length_b 8.776364
_cell_length_c 24.335778
_cell_angle_alpha 90.000000
_cell_angle_beta 139.939994
_cell_angle_gamma 90.000000
_cell_volume 3467.917333
_symmetry_space_group_name_H-M "C 2/M"
_symmetry_group_IT_number 12
_symmetry_cell_setting 'monoclinic'
loop_
_space_group_symop_operation_xyz
x,y,z
-x,y,-z
-x,-y,-z
x,-y,z
1/2+x,1/2+y,z
1/2-x,1/2+y,-z
1/2-x,1/2-y,-z
1/2+x,1/2-y,z
loop_
_atom_site_type_symbol
_atom_site_label
_atom_site_fract_x
_atom_site_fract_y
_atom_site_fract_z
Si Si1 0.863096 0.822987 0.536647
Si Si2 0.543264 0.818928 0.204752
Si Si3 0.015060 0.182244 0.733486
Si Si4 0.774525 0.182245 0.639549
Si Si5 0.471338 0.171092 0.537912
Si Si6 0.950255 0.816708 0.906272
Si Si7 0.742502 0.316039 0.250192
Si Si8 0.632216 0.827095 0.740824
O O1 0.928989 0.767427 0.634683
O O2 0.779544 0.735060 0.455300
O O3 0.914739 0.794731 0.521701
O O4 0.845649 0.000000 0.532638
O O5 0.486330 0.752504 0.207397
O O6 0.634955 0.754175 0.289121
O O7 0.519175 0.760946 0.125206
O O8 0.544780 0.000000 0.207777
O O9 0.094410 0.235378 0.761768
O O10 0.012279 0.000000 0.732874
O O11 0.737364 0.227515 0.670479
O O12 0.782511 0.000000 0.645258
O O13 0.500000 0.207571 0.500000
O O14 0.553709 0.160672 0.638642
O O15 0.431856 0.000000 0.506973
O O16 0.853341 0.779598 0.834840
O O17 0.956129 0.000000 0.904454
O O18 0.000000 0.772440 0.000000
O O19 0.752421 0.500000 0.256629
O O20 0.797577 0.258260 0.243231
O O21 0.655536 0.000000 0.776436
#
# Coordination Sequence:
#
# PCOD9182521 Si02
#       8
#     8   8   8   8   8   8   8   8
#     4  10  20  31  44  66  96 131 174 222 264 301
#     4  11  22  36  55  78 103 132 169 213 258 303
#     4  10  21  36  50  68  99 139 180 216 255 304
#     4  10  19  33  52  73 101 137 175 216 262 311
#     4   9  16  26  41  61  88 128 174 215 258 306
#     4   9  18  35  60  87 112 137 163 195 245 310
#     4   8  15  29  51  78 104 132 167 206 251 302
#     4   9  16  28  47  70  97 130 170 212 250 294
#
# _framework density 18.454881
#
# number of rings (size 3 to 8) (size 9 to 14) (size 15 to 20)
#    0.000    2.500    0.000    3.750    0.000    4.500 
#    0.000    5.625    0.000    0.750    0.000    0.000 
#    0.000    0.000    0.000    0.000    0.000    0.000 
#
# Total GULP energy -178379.320516 kJ/mol
# GULP energy per Si atom -5574.353766 kJ/mol
# Density = 1.841288 g / cm^3
# Si number density = 18.454881 Si / 1000 Ang^3
#
#
#
# Elastic Constant Matrix: (Units=GPa)
#
#
# Indices 1 2 3 4 5 6 
#
# 1 112.9438 31.2877 34.0474 0.0000 -28.6377 0.0000
# 2 31.2877 45.4634 23.1372 0.0000 -12.4795 -0.0002
# 3 34.0474 23.1372 65.5090 0.0000 -16.0320 0.0000
# 4 0.0000 0.0000 0.0000 19.1707 0.0000 -2.5079
# 5 -28.6377 -12.4795 -16.0320 0.0000 20.8711 0.0000
# 6 0.0000 -0.0002 0.0000 -2.5079 0.0000 23.5338
#
#
#
# Elastic Compliance Matrix: (Units=1/GPa)
#
#
# Indices 1 2 3 4 5 6 
#
# 1 0.014846 -0.004768 -0.002148 0.000000 0.015870 0.000000
# 2 -0.004768 0.030475 -0.006684 0.000000 0.006546 0.000000
# 3 -0.002148 -0.006684 0.020988 0.000000 0.009178 0.000000
# 4 0.000000 0.000000 0.000000 0.052900 0.000000 0.005637
# 5 0.015870 0.006546 0.009178 0.000000 0.080653 0.000000
# 6 0.000000 0.000000 0.000000 0.005637 0.000000 0.043093
#
#
# Mechanical properties :
#
#
# Convention : Reuss Voigt Hill
#
# Bulk Modulus (GPa) = 25.56847 44.54008 35.05427
# Shear Modulus (GPa) = 17.65588 21.74471 19.70029
#
# Velocity S-wave (km/s) = 3.09642 3.43631 3.27078
# Velocity P-wave (km/s) = 5.16415 6.31912 5.77060
#
# Compressibility (1/GPa) = 0.03911067
#
# Stress axis : x y z
#
# Youngs Moduli (GPa) = 67.35719 32.81369 47.64547
#
# Poissons Ratio (x) = 0.15644 0.10236
# Poissons Ratio (y) = 0.32113 0.31844
# Poissons Ratio (z) = 0.14471 0.21931
#
# Static dielectric constant tensor:
#      x y z
#    x 1.689750 0.000000 -0.002830 
#    y 0.000000 1.638910 0.000000 
#    z -0.002830 0.000000 1.634670 
# 
# From -- ./inp_files/348583.got.cif
#   From: 2010.05.17/outbox.cif.g08.bks.cpg/sg12_175_cif.got.tgz:348583.got - 2010.06.03 13:09:07.
