data_PCOD9182770
_publ_section_title
;
Structure prediction by ZEFSAII (Michael W. Deem and Ramdas Pophale) SiO2 
 PCOD9182770
Probable space group: C 2/M
;
_chemical_formula_sum "Si O2"
_cell_formula_units_Z 64
_cell_length_a 30.732055
_cell_length_b 7.664928
_cell_length_c 15.282651
_cell_angle_alpha 90.000000
_cell_angle_beta 119.304671
_cell_angle_gamma 90.000000
_cell_volume 3139.275934
_symmetry_space_group_name_H-M "C 2/M"
_symmetry_group_IT_number 12
_symmetry_cell_setting 'monoclinic'
loop_
_space_group_symop_operation_xyz
x,y,z
-x,y,-z
-x,-y,-z
x,-y,z
1/2+x,1/2+y,z
1/2-x,1/2+y,-z
1/2-x,1/2-y,-z
1/2+x,1/2-y,z
loop_
_atom_site_type_symbol
_atom_site_label
_atom_site_fract_x
_atom_site_fract_y
_atom_site_fract_z
Si Si1 0.886453 0.203842 0.781795
Si Si2 0.749163 0.790422 0.896061
Si Si3 0.642450 0.789807 0.724419
Si Si4 0.857459 0.785362 0.942824
Si Si5 0.692210 0.207899 0.434223
Si Si6 0.036574 0.209935 0.287241
Si Si7 0.615940 0.790384 0.506452
Si Si8 0.076501 0.790573 0.827920
O O1 0.879235 0.276386 0.871644
O O2 0.834568 0.217115 0.677884
O O3 0.928569 0.278369 0.757897
O O4 0.898757 0.000000 0.805104
O O5 0.697938 0.723809 0.802858
O O6 0.800480 0.727944 0.902755
O O7 0.748833 0.000000 0.887174
O O8 0.750000 0.750000 0.000000
O O9 0.622773 0.724187 0.611527
O O10 0.605468 0.748657 0.767239
O O11 0.645643 0.000000 0.722163
O O12 0.857009 0.000000 0.941490
O O13 0.891263 0.728204 0.057653
O O14 0.750000 0.250000 0.500000
O O15 0.660435 0.272370 0.486507
O O16 0.686496 0.000000 0.424091
O O17 0.064966 0.247881 0.405796
O O18 0.980171 0.276346 0.228694
O O19 0.035201 0.000000 0.277937
O O20 0.619289 0.000000 0.513270
O O21 0.073926 0.000000 0.833358
#
# Coordination Sequence:
#
# PCOD9182770 Si02
#       8
#     8   8   8   8   8   8   8   8
#     4   9  18  34  55  77 104 138 174 214 258 307
#     4  10  19  33  53  75 104 137 171 212 259 308
#     4  10  21  35  53  78 104 136 178 217 255 307
#     4   9  18  32  54  79 104 138 173 208 257 313
#     4  10  20  34  53  77 105 138 174 215 261 310
#     4   9  19  35  55  79 106 134 171 221 264 303
#     4   9  20  37  55  74 102 139 176 214 258 311
#     4  10  20  35  54  78 107 138 174 215 262 310
#
# _framework density 20.386866000000001
#
# number of rings (size 3 to 8) (size 9 to 14) (size 15 to 20)
#    0.000    2.500    1.250    0.375    1.750    2.500 
#    0.000    6.250    0.000    0.000    0.000    4.375 
#    0.000    0.000    0.000    0.000    0.000    0.000 
#
# Total GULP energy -178615.536933 kJ/mol
# GULP energy per Si atom -5581.735529 kJ/mol
# Density = 2.034047 g / cm^3
# Si number density = 20.386866 Si / 1000 Ang^3
#
#
#
# Elastic Constant Matrix: (Units=GPa)
#
#
# Indices 1 2 3 4 5 6 
#
# 1 152.4998 2.3800 131.1056 0.0000 17.2464 0.0000
# 2 2.3800 35.5345 0.0270 0.0000 -1.5970 0.0000
# 3 131.1056 0.0270 163.7112 0.0000 -19.6287 0.0000
# 4 0.0000 0.0000 0.0000 18.0004 0.0000 -3.1385
# 5 17.2464 -1.5970 -19.6287 0.0000 37.4435 0.0000
# 6 0.0000 0.0000 0.0000 -3.1385 0.0000 15.4906
#
#
#
# Elastic Compliance Matrix: (Units=1/GPa)
#
#
# Indices 1 2 3 4 5 6 
#
# 1 0.062047 -0.006746 -0.056714 0.000000 -0.058597 0.000000
# 2 -0.006746 0.028933 0.006315 0.000000 0.007652 0.000000
# 3 -0.056714 0.006315 0.058358 0.000000 0.056984 0.000000
# 4 0.000000 0.000000 0.000000 0.057589 0.000000 0.011668
# 5 -0.058597 0.007652 0.056984 0.000000 0.083895 0.000000
# 6 0.000000 0.000000 0.000000 0.011668 0.000000 0.066919
#
#
# Mechanical properties :
#
#
# Convention : Reuss Voigt Hill
#
# Bulk Modulus (GPa) = 28.53236 68.75230 48.64233
# Shear Modulus (GPa) = 10.33668 28.73576 19.53622
#
# Velocity S-wave (km/s) = 2.25417 3.75843 3.09896
# Velocity P-wave (km/s) = 4.56080 7.25475 6.05939
#
# Compressibility (1/GPa) = 0.03504792
#
# Stress axis : x y z
#
# Youngs Moduli (GPa) = 16.11676 34.56309 17.13553
#
# Poissons Ratio (x) = 0.23316 0.97183
# Poissons Ratio (y) = 0.10872 -0.10821
# Poissons Ratio (z) = 0.91405 -0.21827
#
# Static dielectric constant tensor:
#      x y z
#    x 1.715290 0.000000 -0.005070 
#    y 0.000000 1.778460 0.000000 
#    z -0.005070 0.000000 1.702280 
# 
# From -- ./inp_files/249128.got.cif
#   From: 2010.05.17/outbox.cif.g08.bks.cpg/sg12_125_cif.got.tgz:249128.got - 2010.06.03 13:09:07.
