data_PCOD9182997
_publ_section_title
;
Structure prediction by ZEFSAII (Michael W. Deem and Ramdas Pophale) SiO2 
 PCOD9182997
Probable space group: C 2/M
;
_chemical_formula_sum "Si O2"
_cell_formula_units_Z 48
_cell_length_a 11.144479
_cell_length_b 25.422349
_cell_length_c 11.547283
_cell_angle_alpha 90.000000
_cell_angle_beta 49.545874
_cell_angle_gamma 90.000000
_cell_volume 2489.416198
_symmetry_space_group_name_H-M "C 2/M"
_symmetry_group_IT_number 12
_symmetry_cell_setting 'monoclinic'
loop_
_space_group_symop_operation_xyz
x,y,z
-x,y,-z
-x,-y,-z
x,-y,z
1/2+x,1/2+y,z
1/2-x,1/2+y,-z
1/2-x,1/2-y,-z
1/2+x,1/2-y,z
loop_
_atom_site_type_symbol
_atom_site_label
_atom_site_fract_x
_atom_site_fract_y
_atom_site_fract_z
Si Si1 0.659482 0.851714 0.462039
Si Si2 0.293332 0.618735 0.594800
Si Si3 0.011499 0.875365 0.854515
Si Si4 0.086891 0.061912 0.282251
Si Si5 0.763756 0.761827 0.661734
Si Si6 0.595108 0.736609 0.169629
O O1 0.500000 0.862520 0.500000
O O2 0.653321 0.878545 0.591183
O O3 0.805638 0.873628 0.296559
O O4 0.686665 0.788336 0.446683
O O5 0.431738 0.588607 0.438193
O O6 0.277047 0.590564 0.728016
O O7 0.326810 0.680737 0.588615
O O8 0.925311 0.923656 0.844874
O O9 0.938836 0.824669 0.834613
O O10 0.000000 0.872280 0.000000
O O11 0.089079 0.000000 0.300002
O O12 0.570440 0.762575 0.772840
O O13 0.845476 0.751982 0.736403
O O14 0.750000 0.750000 0.000000
#
# Coordination Sequence:
#
# PCOD9182997 Si02
#       6
#     8   8   8   8   8   8
#     4  10  21  33  54  87 123 157 190 233 297 361
#     4  10  19  33  53  82 115 146 192 246 295 348
#     4  10  21  39  59  85 118 154 200 251 292 361
#     4  10  21  37  60  84 110 150 203 259 305 343
#     4  11  21  32  53  84 120 160 198 239 288 357
#     4  11  21  36  53  84 125 165 199 232 291 368
#
# _framework density 19.281628999999999
#
# number of rings (size 3 to 8) (size 9 to 14) (size 15 to 20)
#    0.000    1.667    1.667    5.000    4.667    0.333 
#    0.000    0.000    0.000   12.500    0.000   14.000 
#    0.000    0.000    0.000    0.000    0.000    0.000 
#
# Total GULP energy -133681.121342 kJ/mol
# GULP energy per Si atom -5570.046723 kJ/mol
# Density = 1.923774 g / cm^3
# Si number density = 19.281629 Si / 1000 Ang^3
#
#
#
# Elastic Constant Matrix: (Units=GPa)
#
#
# Indices 1 2 3 4 5 6 
#
# 1 183.0628 52.5358 48.4925 0.0000 3.4726 0.0000
# 2 52.5358 103.6661 19.6386 0.0000 15.5659 0.0000
# 3 48.4925 19.6386 51.6540 0.0000 5.5538 0.0000
# 4 0.0000 0.0000 0.0000 11.4877 0.0000 8.1226
# 5 3.4726 15.5659 5.5538 0.0000 38.0111 0.0000
# 6 0.0000 0.0000 0.0000 8.1226 0.0000 18.5210
#
#
#
# Elastic Compliance Matrix: (Units=1/GPa)
#
#
# Indices 1 2 3 4 5 6 
#
# 1 0.008048 -0.003059 -0.006551 0.000000 0.001475 0.000000
# 2 -0.003059 0.012108 -0.001248 0.000000 -0.004497 0.000000
# 3 -0.006551 -0.001248 0.026278 0.000000 -0.002730 0.000000
# 4 0.000000 0.000000 0.000000 0.126176 0.000000 -0.055336
# 5 0.001475 -0.004497 -0.002730 0.000000 0.028414 0.000000
# 6 0.000000 0.000000 0.000000 -0.055336 0.000000 0.078261
#
#
# Mechanical properties :
#
#
# Convention : Reuss Voigt Hill
#
# Bulk Modulus (GPa) = 40.45717 64.41294 52.43505
# Shear Modulus (GPa) = 16.16870 28.11837 22.14353
#
# Velocity S-wave (km/s) = 2.89892 3.82291 3.39252
# Velocity P-wave (km/s) = 5.67739 7.27771 6.52679
#
# Compressibility (1/GPa) = 0.02471750
#
# Stress axis : x y z
#
# Youngs Moduli (GPa) = 124.25860 82.58873 38.05535
#
# Poissons Ratio (x) = 0.25263 0.24929
# Poissons Ratio (y) = 0.38009 0.04751
# Poissons Ratio (z) = 0.81399 0.10310
#
# Static dielectric constant tensor:
#      x y z
#    x 1.699680 0.000000 0.045250 
#    y 0.000000 1.681690 0.000000 
#    z 0.045250 0.000000 1.714340 
# 
# From -- ./inp_files/136493.got.cif
#   From: 2010.05.17/outbox.cif.g08.bks.cpg/sg12_69_cif.got.tgz:136493.got - 2010.06.03 13:09:07.
