data_PCOD9182530
_publ_section_title
;
Structure prediction by ZEFSAII (Michael W. Deem and Ramdas Pophale) SiO2 
 PCOD9182530
Probable space group: C 2/M
;
_chemical_formula_sum "Si O2"
_cell_formula_units_Z 56
_cell_length_a 29.059636
_cell_length_b 17.606876
_cell_length_c 8.427508
_cell_angle_alpha 90.000000
_cell_angle_beta 142.733116
_cell_angle_gamma 90.000000
_cell_volume 2610.996312
_symmetry_space_group_name_H-M "C 2/M"
_symmetry_group_IT_number 12
_symmetry_cell_setting 'monoclinic'
loop_
_space_group_symop_operation_xyz
x,y,z
-x,y,-z
-x,-y,-z
x,-y,z
1/2+x,1/2+y,z
1/2-x,1/2+y,-z
1/2-x,1/2-y,-z
1/2+x,1/2-y,z
loop_
_atom_site_type_symbol
_atom_site_label
_atom_site_fract_x
_atom_site_fract_y
_atom_site_fract_z
Si Si1 0.445142 0.415679 0.694529
Si Si2 0.351848 0.757468 0.163634
Si Si3 0.184219 0.865477 0.435568
Si Si4 0.940778 0.194049 0.123410
Si Si5 0.342302 0.083872 0.957477
Si Si6 0.193155 0.710485 0.624774
Si Si7 0.929510 0.354323 0.913875
O O1 0.444379 0.500000 0.623673
O O2 0.363955 0.395939 0.546689
O O3 0.500000 0.415130 0.000000
O O4 0.483622 0.355378 0.684823
O O5 0.359649 0.763953 0.373099
O O6 0.416314 0.725636 0.225922
O O7 0.339670 0.844789 0.070541
O O8 0.277373 0.704498 0.928161
O O9 0.128002 0.859415 0.132072
O O10 0.262450 0.910066 0.643095
O O11 0.203803 0.778577 0.529513
O O12 0.944827 0.267442 0.017157
O O13 0.409619 0.098825 0.016523
O O14 0.348796 0.000000 0.046948
O O15 0.146297 0.647574 0.402965
O O16 0.000000 0.378981 0.000000
#
# Coordination Sequence:
#
# PCOD9182530 Si02
#       7
#     8   8   8   8   8   8   8
#     4   9  16  26  44  72 104 132 157 191 236 287
#     4   9  18  32  53  75  99 129 166 207 246 292
#     4   9  16  29  50  72  97 127 164 203 238 287
#     4   9  16  29  48  73 100 128 163 200 239 287
#     4  10  20  33  50  72  97 127 164 207 254 298
#     4   9  17  32  53  76  96 125 167 208 246 286
#     4  10  19  33  52  73  97 126 164 208 250 292
#
# _framework density 21.447751
#
# number of rings (size 3 to 8) (size 9 to 14) (size 15 to 20)
#    0.000    2.714    0.000    3.429    0.000    4.286 
#    0.000    7.143    0.000   10.286    0.000    0.000 
#    0.000    0.000    0.000    0.000    0.000    0.000 
#
# Total GULP energy -156150.647975 kJ/mol
# GULP energy per Si atom -5576.808856 kJ/mol
# Density = 2.139894 g / cm^3
# Si number density = 21.447751 Si / 1000 Ang^3
#
#
#
# Elastic Constant Matrix: (Units=GPa)
#
#
# Indices 1 2 3 4 5 6 
#
# 1 123.2225 32.0358 6.9461 0.0000 5.3235 0.0000
# 2 32.0358 76.5133 12.8631 0.0000 6.1483 0.0000
# 3 6.9461 12.8631 25.2619 0.0000 -2.8242 0.0000
# 4 0.0000 0.0000 0.0000 7.9235 0.0000 -1.2415
# 5 5.3235 6.1483 -2.8242 0.0000 28.7293 0.0000
# 6 0.0000 0.0000 0.0000 -1.2415 0.0000 17.8393
#
#
#
# Elastic Compliance Matrix: (Units=1/GPa)
#
#
# Indices 1 2 3 4 5 6 
#
# 1 0.009143 -0.003616 -0.000784 0.000000 -0.000997 0.000000
# 2 -0.003616 0.016149 -0.007624 0.000000 -0.003536 0.000000
# 3 -0.000784 -0.007624 0.044369 0.000000 0.006139 0.000000
# 4 0.000000 0.000000 0.000000 0.127598 0.000000 0.008880
# 5 -0.000997 -0.003536 0.006139 0.000000 0.036353 0.000000
# 6 0.000000 0.000000 0.000000 0.008880 0.000000 0.056674
#
#
# Mechanical properties :
#
#
# Convention : Reuss Voigt Hill
#
# Bulk Modulus (GPa) = 21.92361 36.52084 29.22222
# Shear Modulus (GPa) = 15.17270 22.44193 18.80732
#
# Velocity S-wave (km/s) = 2.66263 3.23825 2.96445
# Velocity P-wave (km/s) = 4.43812 5.57193 5.03703
#
# Compressibility (1/GPa) = 0.04561293
#
# Stress axis : x y z
#
# Youngs Moduli (GPa) = 109.37545 61.92142 22.53808
#
# Poissons Ratio (x) = 0.22391 0.01767
# Poissons Ratio (y) = 0.39551 0.17183
# Poissons Ratio (z) = 0.08577 0.47210
#
# Static dielectric constant tensor:
#      x y z
#    x 1.783780 0.000000 0.027960 
#    y 0.000000 1.790130 0.000000 
#    z 0.027960 0.000000 1.833280 
# 
# From -- ./inp_files/112645.got.cif
#   From: 2010.05.17/outbox.cif.g08.bks.cpg/sg12_57_cif.got.tgz:112645.got - 2010.06.03 13:09:07.
