data_PCOD9182907
_publ_section_title
;
Structure prediction by ZEFSAII (Michael W. Deem and Ramdas Pophale) SiO2 
 PCOD9182907
Probable space group: C 2/M
;
_chemical_formula_sum "Si O2"
_cell_formula_units_Z 64
_cell_length_a 17.654258
_cell_length_b 14.168698
_cell_length_c 14.845323
_cell_angle_alpha 90.000000
_cell_angle_beta 110.775628
_cell_angle_gamma 90.000000
_cell_volume 3471.920933
_symmetry_space_group_name_H-M "C 2/M"
_symmetry_group_IT_number 12
_symmetry_cell_setting 'monoclinic'
loop_
_space_group_symop_operation_xyz
x,y,z
-x,y,-z
-x,-y,-z
x,-y,z
1/2+x,1/2+y,z
1/2-x,1/2+y,-z
1/2-x,1/2-y,-z
1/2+x,1/2-y,z
loop_
_atom_site_type_symbol
_atom_site_label
_atom_site_fract_x
_atom_site_fract_y
_atom_site_fract_z
Si Si1 0.607098 0.389464 0.747957
Si Si2 0.092266 0.814777 0.548449
Si Si3 0.824573 0.394132 0.188919
Si Si4 0.364041 0.103142 0.417181
Si Si5 0.630128 0.390726 0.077485
Si Si6 0.162384 0.776014 0.925197
Si Si7 0.796259 0.840321 0.559412
Si Si8 0.927909 0.887540 0.749523
O O1 0.612553 0.500000 0.732837
O O2 0.620840 0.334443 0.661510
O O3 0.667201 0.356794 0.851550
O O4 0.517057 0.368791 0.748666
O O5 0.095706 0.701206 0.533243
O O6 0.148505 0.870292 0.501643
O O7 0.000000 0.846957 0.500000
O O8 0.843674 0.500000 0.165682
O O9 0.850574 0.386847 0.303996
O O10 0.726415 0.384004 0.142257
O O11 0.865192 0.315860 0.142323
O O12 0.276335 0.101002 0.428248
O O13 0.402726 0.000000 0.450413
O O14 0.614520 0.500000 0.043455
O O15 0.581468 0.371005 0.148196
O O16 0.614018 0.319495 0.988839
O O17 0.250000 0.750000 0.000000
O O18 0.750000 0.750000 0.500000
O O19 0.861520 0.828100 0.666633
O O20 0.910380 0.000000 0.727755
#
# Coordination Sequence:
#
# PCOD9182907 Si02
#       8
#     8   8   8   8   8   8   8   8
#     4  11  23  36  53  82 118 147 180 229 286 353
#     4  11  22  37  55  83 119 156 192 230 289 351
#     4   9  16  29  52  77  99 133 178 223 267 319
#     4  10  19  34  57  80 108 146 196 244 276 318
#     4   9  17  30  52  78 105 135 172 216 268 331
#     4  10  20  34  53  76 108 139 177 228 284 336
#     4  10  20  32  54  81 112 150 191 236 277 332
#     4  10  19  33  53  78 111 148 184 225 279 342
#
# _framework density 18.433599999999998
#
# number of rings (size 3 to 8) (size 9 to 14) (size 15 to 20)
#    0.000    2.000    3.750    0.750    0.000    2.500 
#    0.000    1.875    0.000    0.000    0.000    3.500 
#    0.000    0.000    0.000    0.000    0.000    0.000 
#
# Total GULP energy -178301.702867 kJ/mol
# GULP energy per Si atom -5571.928215 kJ/mol
# Density = 1.839164 g / cm^3
# Si number density = 18.433600 Si / 1000 Ang^3
#
#
#
# Elastic Constant Matrix: (Units=GPa)
#
#
# Indices 1 2 3 4 5 6 
#
# 1 64.4040 15.2509 29.5154 0.0000 -11.9768 0.0000
# 2 15.2509 73.7625 22.0695 0.0000 -14.7904 0.0000
# 3 29.5154 22.0695 83.1141 0.0000 -25.9254 0.0000
# 4 0.0000 0.0000 0.0000 -9.8228 0.0000 2.4650
# 5 -11.9768 -14.7904 -25.9254 0.0000 34.2512 0.0000
# 6 0.0000 0.0000 0.0000 2.4650 0.0000 2.8113
#
#
#
# Elastic Compliance Matrix: (Units=1/GPa)
#
#
# Indices 1 2 3 4 5 6 
#
# 1 0.018879 -0.001895 -0.005756 0.000000 0.001426 0.000000
# 2 -0.001895 0.015454 -0.002037 0.000000 0.004469 0.000000
# 3 -0.005756 -0.002037 0.017953 0.000000 0.010697 0.000000
# 4 0.000000 0.000000 0.000000 -0.083444 0.000000 0.073164
# 5 0.001426 0.004469 0.010697 0.000000 0.039721 0.000000
# 6 0.000000 0.000000 0.000000 0.073164 0.000000 0.291557
#
#
# Mechanical properties :
#
#
# Convention : Reuss Voigt Hill
#
# Bulk Modulus (GPa) = 30.38523 39.43914 34.91218
# Shear Modulus (GPa) = 15.13012 15.74425 15.43719
#
# Velocity S-wave (km/s) = 2.86805 2.92568 2.89701
# Velocity P-wave (km/s) = 5.24281 5.73188 5.49279
#
# Compressibility (1/GPa) = 0.03291073
#
# Stress axis : x y z
#
# Youngs Moduli (GPa) = 52.96901 64.70673 55.70038
#
# Poissons Ratio (x) = 0.12263 0.32062
# Poissons Ratio (y) = 0.10038 0.11344
# Poissons Ratio (z) = 0.30490 0.13178
#
# Static dielectric constant tensor:
#      x y z
#    x 1.647700 0.000000 0.006240 
#    y 0.000000 1.664080 0.000000 
#    z 0.006240 0.000000 1.644830 
# 
# From -- ./inp_files/224826.got.cif
#   From: 2010.05.17/outbox.cif.g08.bks.cpg/sg12_113_cif.got.tgz:224826.got - 2010.06.03 13:09:07.
