data_PCOD9182087
_publ_section_title
;
Structure prediction by ZEFSAII (Michael W. Deem and Ramdas Pophale) SiO2 
 PCOD9182087
Probable space group: C 2/M
;
_chemical_formula_sum "Si O2"
_cell_formula_units_Z 56
_cell_length_a 31.882966
_cell_length_b 10.857832
_cell_length_c 25.892757
_cell_angle_alpha 90.000000
_cell_angle_beta 160.610505
_cell_angle_gamma 90.000000
_cell_volume 2975.793310
_symmetry_space_group_name_H-M "C 2/M"
_symmetry_group_IT_number 12
_symmetry_cell_setting 'monoclinic'
loop_
_space_group_symop_operation_xyz
x,y,z
-x,y,-z
-x,-y,-z
x,-y,z
1/2+x,1/2+y,z
1/2-x,1/2+y,-z
1/2-x,1/2-y,-z
1/2+x,1/2-y,z
loop_
_atom_site_type_symbol
_atom_site_label
_atom_site_fract_x
_atom_site_fract_y
_atom_site_fract_z
Si Si1 0.483767 0.865895 0.042890
Si Si2 0.843647 0.643572 0.435688
Si Si3 0.703432 0.356068 0.984682
Si Si4 0.423165 0.362889 0.698195
Si Si5 0.283066 0.205426 0.621611
Si Si6 0.797721 0.145174 0.834631
Si Si7 0.605312 0.857103 0.697031
O O1 0.406882 0.744608 0.970685
O O2 0.422295 0.000000 0.982629
O O3 0.500000 0.857676 0.000000
O O4 0.618327 0.864792 0.227639
O O5 0.865798 0.500000 0.473461
O O6 0.792894 0.706591 0.427829
O O7 0.742615 0.650468 0.272037
O O8 0.974522 0.698931 0.565378
O O9 0.706907 0.500000 0.969536
O O10 0.560445 0.327792 0.836152
O O11 0.750000 0.250000 0.000000
O O12 0.794008 0.352361 0.139781
O O13 0.435499 0.500000 0.734394
O O14 0.368324 0.275817 0.678500
O O15 0.322339 0.363177 0.534481
O O16 0.677577 0.185258 0.729785
O O17 0.827430 0.000000 0.881297
O O18 0.574157 0.000000 0.649158
#
# Coordination Sequence:
#
# PCOD9182087 Si02
#       7
#     8   8   8   8   8   8   8
#     4  11  23  39  57  81 117 156 191 234 289 345
#     4  10  19  32  55  87 116 147 191 239 284 338
#     4  10  20  37  58  82 111 147 188 234 288 341
#     4  10  22  38  58  84 117 152 192 242 292 339
#     4  11  21  37  58  83 114 155 197 235 285 346
#     4  10  20  36  59  86 114 149 193 240 285 336
#     4   9  18  33  55  83 117 148 180 233 295 340
#
# _framework density 18.818511999999998
#
# number of rings (size 3 to 8) (size 9 to 14) (size 15 to 20)
#    0.000    1.857    1.429    3.000    0.000    4.286 
#    0.000    5.714    0.000    3.429    0.000    0.000 
#    0.000    0.000    0.000    0.000    0.000    0.000 
#
# Total GULP energy -156108.228773 kJ/mol
# GULP energy per Si atom -5575.293885 kJ/mol
# Density = 1.877568 g / cm^3
# Si number density = 18.818512 Si / 1000 Ang^3
#
#
#
# Elastic Constant Matrix: (Units=GPa)
#
#
# Indices 1 2 3 4 5 6 
#
# 1 73.9231 41.7605 20.2786 -0.0001 -2.5963 0.0000
# 2 41.7605 83.0339 30.6899 -0.0001 15.0870 0.0000
# 3 20.2786 30.6899 93.4993 -0.0002 6.0730 -0.0001
# 4 -0.0001 -0.0001 -0.0002 18.0516 -0.0001 6.6233
# 5 -2.5963 15.0870 6.0730 -0.0001 31.1066 0.0000
# 6 0.0000 0.0000 -0.0001 6.6233 0.0000 7.0088
#
#
#
# Elastic Compliance Matrix: (Units=1/GPa)
#
#
# Indices 1 2 3 4 5 6 
#
# 1 0.020426 -0.011148 -0.001249 0.000000 0.007355 0.000000
# 2 -0.011148 0.020926 -0.003779 0.000000 -0.010342 0.000000
# 3 -0.001249 -0.003779 0.012250 0.000000 -0.000663 0.000000
# 4 0.000000 0.000000 0.000000 0.084799 0.000000 -0.080134
# 5 0.007355 -0.010342 -0.000663 0.000000 0.037907 0.000000
# 6 0.000000 0.000000 0.000000 -0.080134 0.000000 0.218405
#
#
# Mechanical properties :
#
#
# Convention : Reuss Voigt Hill
#
# Bulk Modulus (GPa) = 47.05861 48.43491 47.74676
# Shear Modulus (GPa) = 11.51685 21.74855 16.63270
#
# Velocity S-wave (km/s) = 2.47654 3.40325 2.97618
# Velocity P-wave (km/s) = 5.76528 6.42157 6.10226
#
# Compressibility (1/GPa) = 0.02125010
#
# Stress axis : x y z
#
# Youngs Moduli (GPa) = 48.95697 47.78794 81.63542
#
# Poissons Ratio (x) = 0.53274 0.10194
# Poissons Ratio (y) = 0.54577 0.30851
# Poissons Ratio (z) = 0.06113 0.18059
#
# Static dielectric constant tensor:
#      x y z
#    x 1.641440 0.000000 0.010640 
#    y 0.000000 1.664560 0.000000 
#    z 0.010640 0.000000 1.674480 
# 
# From -- ./inp_files/353928.got.cif
#   From: 2010.05.17/outbox.cif.g08.bks.cpg/sg12_177_cif.got.tgz:353928.got - 2010.06.03 13:09:07.
