data_PCOD9182771
_publ_section_title
;
Structure prediction by ZEFSAII (Michael W. Deem and Ramdas Pophale) SiO2 
 PCOD9182771
Probable space group: C 2/M
;
_chemical_formula_sum "Si O2"
_cell_formula_units_Z 64
_cell_length_a 21.177586
_cell_length_b 7.889251
_cell_length_c 22.463612
_cell_angle_alpha 90.000000
_cell_angle_beta 118.535453
_cell_angle_gamma 90.000000
_cell_volume 3297.192522
_symmetry_space_group_name_H-M "C 2/M"
_symmetry_group_IT_number 12
_symmetry_cell_setting 'monoclinic'
loop_
_space_group_symop_operation_xyz
x,y,z
-x,y,-z
-x,-y,-z
x,-y,z
1/2+x,1/2+y,z
1/2-x,1/2+y,-z
1/2-x,1/2-y,-z
1/2+x,1/2-y,z
loop_
_atom_site_type_symbol
_atom_site_label
_atom_site_fract_x
_atom_site_fract_y
_atom_site_fract_z
Si Si1 0.588271 0.202076 0.295258
Si Si2 0.474911 0.296277 0.552979
Si Si3 0.326724 0.705097 0.154437
Si Si4 0.660385 0.703658 0.080747
Si Si5 0.076078 0.204533 0.158668
Si Si6 0.331082 0.798293 0.551758
Si Si7 0.089240 0.792498 0.925654
Si Si8 0.445871 0.300262 0.294681
O O1 0.607857 0.244799 0.236732
O O2 0.643231 0.262786 0.371180
O O3 0.511112 0.281048 0.277199
O O4 0.581067 0.000000 0.297253
O O5 0.500000 0.231489 0.500000
O O6 0.482960 0.500000 0.555927
O O7 0.392219 0.261833 0.533107
O O8 0.523935 0.228095 0.629605
O O9 0.330623 0.500000 0.156587
O O10 0.244265 0.755562 0.119883
O O11 0.363932 0.762923 0.109820
O O12 0.374534 0.769491 0.231449
O O13 0.652479 0.500000 0.076877
O O14 0.620444 0.767658 0.121876
O O15 0.623839 0.765529 0.003290
O O16 0.993294 0.262561 0.117647
O O17 0.075181 0.000000 0.156233
O O18 0.250000 0.750000 0.500000
O O19 0.334558 0.000000 0.553957
O O20 0.089308 0.000000 0.925719
O O21 0.433860 0.500000 0.299165
#
# Coordination Sequence:
#
# PCOD9182771 Si02
#       8
#     8   8   8   8   8   8   8   8
#     4  10  20  34  55  82 107 135 174 222 264 303
#     4   9  18  34  57  83 111 142 178 216 261 318
#     4  10  19  33  53  75 104 140 175 213 261 315
#     4  10  21  34  51  77 107 136 172 222 267 307
#     4  10  19  35  56  76 103 139 179 215 259 317
#     4  10  21  37  57  82 111 142 178 220 266 314
#     4   9  17  33  56  77  97 134 182 218 257 313
#     4   9  17  33  56  78 102 141 182 212 250 313
#
# _framework density 19.410453
#
# number of rings (size 3 to 8) (size 9 to 14) (size 15 to 20)
#    0.000    2.375    1.250    1.500    0.000    4.250 
#    2.250    0.625    0.000    1.500    0.000    0.000 
#    0.000    0.000    0.000    0.000    0.000    0.000 
#
# Total GULP energy -178561.991904 kJ/mol
# GULP energy per Si atom -5580.062247 kJ/mol
# Density = 1.936627 g / cm^3
# Si number density = 19.410453 Si / 1000 Ang^3
#
#
#
# Elastic Constant Matrix: (Units=GPa)
#
#
# Indices 1 2 3 4 5 6 
#
# 1 146.9590 2.1824 99.2311 0.0000 -9.2848 0.0000
# 2 2.1824 19.1228 6.9845 0.0000 -2.0476 0.0000
# 3 99.2311 6.9845 157.3271 0.0000 -6.4428 0.0000
# 4 0.0000 0.0000 0.0000 11.9996 0.0000 8.0056
# 5 -9.2848 -2.0476 -6.4428 0.0000 33.2353 0.0000
# 6 0.0000 0.0000 0.0000 8.0056 0.0000 21.2204
#
#
#
# Elastic Compliance Matrix: (Units=1/GPa)
#
#
# Indices 1 2 3 4 5 6 
#
# 1 0.012018 0.001606 -0.007570 0.000000 0.001989 0.000000
# 2 0.001606 0.053638 -0.003267 0.000000 0.003120 0.000000
# 3 -0.007570 -0.003267 0.011270 0.000000 -0.000131 0.000000
# 4 0.000000 0.000000 0.000000 0.111366 0.000000 -0.042014
# 5 0.001989 0.003120 -0.000131 0.000000 0.030811 0.000000
# 6 0.000000 0.000000 0.000000 -0.042014 0.000000 0.062975
#
#
# Mechanical properties :
#
#
# Convention : Reuss Voigt Hill
#
# Bulk Modulus (GPa) = 17.10415 60.02278 38.56346
# Shear Modulus (GPa) = 15.62375 27.62513 21.62444
#
# Velocity S-wave (km/s) = 2.84018 3.77664 3.34138
# Velocity P-wave (km/s) = 4.42566 7.07159 5.89889
#
# Compressibility (1/GPa) = 0.05846535
#
# Stress axis : x y z
#
# Youngs Moduli (GPa) = 83.20979 18.64367 88.72819
#
# Poissons Ratio (x) = -0.02995 0.67166
# Poissons Ratio (y) = -0.13366 0.28984
# Poissons Ratio (z) = 0.62989 0.06090
#
# Static dielectric constant tensor:
#      x y z
#    x 1.659970 0.000000 0.005680 
#    y 0.000000 1.705130 0.000000 
#    z 0.005680 0.000000 1.714420 
# 
# From -- ./inp_files/319916.got.cif
#   From: 2010.05.17/outbox.cif.g08.bks.cpg/sg12_160_cif.got.tgz:319916.got - 2010.06.03 13:09:07.
