data_PCOD9182503
_publ_section_title
;
Structure prediction by ZEFSAII (Michael W. Deem and Ramdas Pophale) SiO2 
 PCOD9182503
Probable space group: C 2/M
;
_chemical_formula_sum "Si O2"
_cell_formula_units_Z 64
_cell_length_a 28.702664
_cell_length_b 15.224195
_cell_length_c 8.158066
_cell_angle_alpha 90.000000
_cell_angle_beta 61.581932
_cell_angle_gamma 90.000000
_cell_volume 3135.298422
_symmetry_space_group_name_H-M "C 2/M"
_symmetry_group_IT_number 12
_symmetry_cell_setting 'monoclinic'
loop_
_space_group_symop_operation_xyz
x,y,z
-x,y,-z
-x,-y,-z
x,-y,z
1/2+x,1/2+y,z
1/2-x,1/2+y,-z
1/2-x,1/2-y,-z
1/2+x,1/2-y,z
loop_
_atom_site_type_symbol
_atom_site_label
_atom_site_fract_x
_atom_site_fract_y
_atom_site_fract_z
Si Si1 0.392448 0.724423 0.082975
Si Si2 0.466384 0.770347 0.395957
Si Si3 0.139341 0.248654 0.228989
Si Si4 0.328721 0.406263 0.624370
Si Si5 0.722150 0.338038 0.605528
Si Si6 0.586754 0.102835 0.740330
Si Si7 0.055923 0.897971 0.746906
Si Si8 0.686247 0.902687 0.318819
O O1 0.334352 0.690657 0.230126
O O2 0.402996 0.821673 0.140167
O O3 0.430920 0.652458 0.104389
O O4 0.389525 0.731950 0.893230
O O5 0.500000 0.788880 0.500000
O O6 0.406877 0.759244 0.560602
O O7 0.462100 0.852542 0.279179
O O8 0.478403 0.675389 0.293840
O O9 0.174298 0.168558 0.235480
O O10 0.174072 0.335265 0.193510
O O11 0.321148 0.500000 0.716696
O O12 0.289142 0.393538 0.539125
O O13 0.387440 0.403897 0.443109
O O14 0.750000 0.250000 0.500000
O O15 0.759725 0.382237 0.675883
O O16 0.639205 0.102095 0.535432
O O17 0.577540 0.000000 0.802196
O O18 0.037414 0.000000 0.789970
O O19 0.686507 0.000000 0.251294
#
# Coordination Sequence:
#
# PCOD9182503 Si02
#       8
#     8   8   8   8   8   8   8   8
#     4  10  20  32  52  73 103 135 160 204 251 293
#     4   9  18  34  56  78  97 127 168 206 245 295
#     4  10  20  34  50  74 104 130 160 207 258 296
#     4   9  17  31  50  70  96 131 168 202 240 291
#     4  11  17  32  52  71  94 129 172 205 234 288
#     4   9  18  34  53  73  98 134 171 201 242 297
#     4   8  16  32  52  73  98 132 166 194 239 300
#     4  10  19  33  52  71  97 134 174 209 242 289
#
# _framework density 20.412731000000001
#
# number of rings (size 3 to 8) (size 9 to 14) (size 15 to 20)
#    0.000    2.500    2.500    1.875    0.000    2.500 
#    0.000    2.500    0.000    1.500    0.000    0.000 
#    0.000    0.000    0.000    0.000    0.000    0.000 
#
# Total GULP energy -178298.504621 kJ/mol
# GULP energy per Si atom -5571.828269 kJ/mol
# Density = 2.036627 g / cm^3
# Si number density = 20.412731 Si / 1000 Ang^3
#
#
#
# Elastic Constant Matrix: (Units=GPa)
#
#
# Indices 1 2 3 4 5 6 
#
# 1 58.7545 35.1382 0.1995 0.0000 20.8361 0.0000
# 2 35.1382 184.5692 36.7007 0.0000 29.1143 0.0000
# 3 0.1995 36.7007 40.6383 0.0000 19.5428 0.0000
# 4 0.0000 0.0000 0.0000 -12.4363 0.0000 0.3676
# 5 20.8361 29.1143 19.5428 0.0000 33.3967 0.0000
# 6 0.0000 0.0000 0.0000 0.3676 0.0000 8.3711
#
#
#
# Elastic Compliance Matrix: (Units=1/GPa)
#
#
# Indices 1 2 3 4 5 6 
#
# 1 0.027375 -0.004698 0.014406 0.000000 -0.021413 0.000000
# 2 -0.004698 0.007658 -0.007086 0.000000 0.000402 0.000000
# 3 0.014406 -0.007086 0.044932 0.000000 -0.029103 0.000000
# 4 0.000000 0.000000 0.000000 -0.080306 0.000000 0.003526
# 5 -0.021413 0.000402 -0.029103 0.000000 0.059983 0.000000
# 6 0.000000 0.000000 0.000000 0.003526 0.000000 0.119304
#
#
# Mechanical properties :
#
#
# Convention : Reuss Voigt Hill
#
# Bulk Modulus (GPa) = 11.73599 47.55987 29.64793
# Shear Modulus (GPa) = 24.73954 19.99454 22.36704
#
# Velocity S-wave (km/s) = 3.48511 3.13311 3.31379
# Velocity P-wave (km/s) = 4.68577 6.03641 5.40346
#
# Compressibility (1/GPa) = 0.08520798
#
# Stress axis : x y z
#
# Youngs Moduli (GPa) = 36.53008 130.57888 22.25585
#
# Poissons Ratio (x) = 0.61352 -0.32062
# Poissons Ratio (y) = 0.17163 0.15771
# Poissons Ratio (z) = -0.52626 0.92533
#
# Static dielectric constant tensor:
#      x y z
#    x 1.691320 0.000000 0.004470 
#    y 0.000000 1.722310 0.000000 
#    z 0.004470 0.000000 1.759050 
# 
# From -- ./inp_files/111170.got.cif
#   From: 2010.05.17/outbox.cif.g08.bks.cpg/sg12_56_cif.got.tgz:111170.got - 2010.06.03 13:09:07.
