data_PCOD9182966
_publ_section_title
;
Structure prediction by ZEFSAII (Michael W. Deem and Ramdas Pophale) SiO2 
 PCOD9182966
Probable space group: C 2/M
;
_chemical_formula_sum "Si O2"
_cell_formula_units_Z 48
_cell_length_a 19.986502
_cell_length_b 8.652473
_cell_length_c 14.533648
_cell_angle_alpha 90.000000
_cell_angle_beta 93.340349
_cell_angle_gamma 90.000000
_cell_volume 2509.072447
_symmetry_space_group_name_H-M "C 2/M"
_symmetry_group_IT_number 12
_symmetry_cell_setting 'monoclinic'
loop_
_space_group_symop_operation_xyz
x,y,z
-x,y,-z
-x,-y,-z
x,-y,z
1/2+x,1/2+y,z
1/2-x,1/2+y,-z
1/2-x,1/2-y,-z
1/2+x,1/2-y,z
loop_
_atom_site_type_symbol
_atom_site_label
_atom_site_fract_x
_atom_site_fract_y
_atom_site_fract_z
Si Si1 0.595442 0.319243 0.066127
Si Si2 0.352370 0.181192 0.751051
Si Si3 0.690455 0.817251 0.934922
Si Si4 0.140330 0.311728 0.739108
Si Si5 0.255064 0.185846 0.398088
Si Si6 0.998691 0.318644 0.802220
O O1 0.596828 0.500000 0.047580
O O2 0.647868 0.274717 0.152750
O O3 0.525545 0.269333 0.107714
O O4 0.621209 0.226181 0.980569
O O5 0.304821 0.251170 0.670683
O O6 0.431908 0.191371 0.733487
O O7 0.337443 0.000000 0.766233
O O8 0.685238 0.760689 0.829747
O O9 0.697890 0.000000 0.933671
O O10 0.750000 0.750000 0.000000
O O11 0.139124 0.500000 0.738702
O O12 0.176327 0.264436 0.648286
O O13 0.064889 0.261155 0.756642
O O14 0.250000 0.250000 0.500000
O O15 0.252570 0.000000 0.399546
O O16 0.007588 0.500000 0.826206
#
# Coordination Sequence:
#
# PCOD9182966 Si02
#       6
#     8   8   8   8   8   8
#     4  10  19  33  53  80 116 152 184 219 276 338
#     4   9  18  35  60  83 109 146 188 231 277 327
#     4  11  21  34  54  82 114 151 194 237 280 327
#     4   9  20  38  59  81 108 147 193 237 277 329
#     4  11  22  38  61  86 114 146 185 233 288 345
#     4   8  17  36  59  81 108 146 193 233 273 326
#
# _framework density 19.130573999999999
#
# number of rings (size 3 to 8) (size 9 to 14) (size 15 to 20)
#    1.000    1.333    0.000    3.500    0.000    2.000 
#    0.000   10.000    0.000    5.000    0.000    0.000 
#    0.000    0.000    0.000    0.000    0.000    0.000 
#
# Total GULP energy -133785.987925 kJ/mol
# GULP energy per Si atom -5574.416164 kJ/mol
# Density = 1.908703 g / cm^3
# Si number density = 19.130574 Si / 1000 Ang^3
#
#
#
# Elastic Constant Matrix: (Units=GPa)
#
#
# Indices 1 2 3 4 5 6 
#
# 1 84.4744 5.3447 27.3574 0.0000 -22.1929 0.0000
# 2 5.3447 47.4944 6.5659 0.0000 -4.2110 0.0000
# 3 27.3574 6.5659 96.4375 0.0000 -26.5760 0.0000
# 4 0.0000 0.0000 0.0000 25.8222 0.0000 -0.2286
# 5 -22.1929 -4.2110 -26.5760 0.0000 26.9123 0.0000
# 6 0.0000 0.0000 0.0000 -0.2286 0.0000 22.4205
#
#
#
# Elastic Compliance Matrix: (Units=1/GPa)
#
#
# Indices 1 2 3 4 5 6 
#
# 1 0.015223 -0.000549 -0.001161 0.000000 0.011321 0.000000
# 2 -0.000549 0.021409 -0.000692 0.000000 0.002214 0.000000
# 3 -0.001161 -0.000692 0.014360 0.000000 0.013115 0.000000
# 4 0.000000 0.000000 0.000000 0.038730 0.000000 0.000395
# 5 0.011321 0.002214 0.013115 0.000000 0.059790 0.000000
# 6 0.000000 0.000000 0.000000 0.000395 0.000000 0.044606
#
#
# Mechanical properties :
#
#
# Convention : Reuss Voigt Hill
#
# Bulk Modulus (GPa) = 21.65067 34.10470 27.87769
# Shear Modulus (GPa) = 23.32985 27.64023 25.48504
#
# Velocity S-wave (km/s) = 3.49593 3.80520 3.65384
# Velocity P-wave (km/s) = 5.25712 6.09689 5.69251
#
# Compressibility (1/GPa) = 0.04618794
#
# Stress axis : x y z
#
# Youngs Moduli (GPa) = 65.69069 46.70974 69.63757
#
# Poissons Ratio (x) = 0.02563 0.08087
# Poissons Ratio (y) = 0.03605 0.04817
# Poissons Ratio (z) = 0.07629 0.03231
#
# Static dielectric constant tensor:
#      x y z
#    x 1.741490 0.000000 -0.003140 
#    y 0.000000 1.649910 0.000000 
#    z -0.003140 0.000000 1.654860 
# 
# From -- ./inp_files/229331.got.cif
#   From: 2010.05.17/outbox.cif.g08.bks.cpg/sg12_115_cif.got.tgz:229331.got - 2010.06.03 13:09:07.
