data_PCOD9182723
_publ_section_title
;
Structure prediction by ZEFSAII (Michael W. Deem and Ramdas Pophale) SiO2 
 PCOD9182723
Probable space group: C 2/M
;
_chemical_formula_sum "Si O2"
_cell_formula_units_Z 56
_cell_length_a 19.732171
_cell_length_b 8.566193
_cell_length_c 23.903403
_cell_angle_alpha 90.000000
_cell_angle_beta 128.348844
_cell_angle_gamma 90.000000
_cell_volume 3168.660644
_symmetry_space_group_name_H-M "C 2/M"
_symmetry_group_IT_number 12
_symmetry_cell_setting 'monoclinic'
loop_
_space_group_symop_operation_xyz
x,y,z
-x,y,-z
-x,-y,-z
x,-y,z
1/2+x,1/2+y,z
1/2-x,1/2+y,-z
1/2-x,1/2-y,-z
1/2+x,1/2-y,z
loop_
_atom_site_type_symbol
_atom_site_label
_atom_site_fract_x
_atom_site_fract_y
_atom_site_fract_z
Si Si1 0.786540 0.310111 0.153735
Si Si2 0.942598 0.688214 0.152306
Si Si3 0.212944 0.688013 0.717844
Si Si4 0.750955 0.313776 0.437864
Si Si5 0.135705 0.312192 0.283017
Si Si6 0.401695 0.312541 0.436406
Si Si7 0.828910 0.187062 0.002609
O O1 0.788590 0.500000 0.155500
O O2 0.870237 0.259574 0.160510
O O3 0.788782 0.257964 0.218806
O O4 0.700329 0.265488 0.074834
O O5 0.940075 0.500000 0.149849
O O6 0.913424 0.747971 0.076372
O O7 0.038184 0.737203 0.219185
O O8 0.212950 0.500000 0.716273
O O9 0.297869 0.749272 0.729469
O O10 0.132349 0.749608 0.640404
O O11 0.749417 0.500000 0.437113
O O12 0.750000 0.250000 0.500000
O O13 0.670937 0.250656 0.360101
O O14 0.836199 0.255107 0.448968
O O15 0.139600 0.500000 0.285746
O O16 0.500000 0.268496 0.500000
O O17 0.394723 0.500000 0.433183
O O18 0.830796 0.000000 0.005962
O O19 0.750000 0.250000 0.000000
#
# Coordination Sequence:
#
# PCOD9182723 Si02
#       7
#     8   8   8   8   8   8   8
#     4   8  16  31  50  73  98 127 166 208 249 294
#     4   9  18  33  52  74 100 131 169 211 252 298
#     4  10  19  33  53  74 100 134 170 207 250 306
#     4  11  22  37  57  79 105 137 174 213 256 308
#     4  10  20  35  53  74 104 137 167 207 258 305
#     4  10  21  37  55  77 106 136 169 213 260 306
#     4   9  16  29  49  72 100 131 165 208 255 301
#
# _framework density 17.673082999999998
#
# number of rings (size 3 to 8) (size 9 to 14) (size 15 to 20)
#    0.000    2.429    0.000    5.571    0.000    3.429 
#    0.000    9.286    0.000    4.286    0.000    0.000 
#    0.000    0.000    0.000    0.000    0.000    0.000 
#
# Total GULP energy -156127.654735 kJ/mol
# GULP energy per Si atom -5575.987669 kJ/mol
# Density = 1.763286 g / cm^3
# Si number density = 17.673083 Si / 1000 Ang^3
#
#
#
# Elastic Constant Matrix: (Units=GPa)
#
#
# Indices 1 2 3 4 5 6 
#
# 1 62.1838 25.0943 99.7372 0.0000 4.4287 0.0000
# 2 25.0943 55.6925 48.3710 0.0000 5.4888 0.0000
# 3 99.7372 48.3710 221.9208 0.0000 2.7388 0.0000
# 4 0.0000 0.0000 0.0000 32.0958 0.0000 1.0416
# 5 4.4287 5.4888 2.7388 0.0000 36.5879 0.0000
# 6 0.0000 0.0000 0.0000 1.0416 0.0000 20.3582
#
#
#
# Elastic Compliance Matrix: (Units=1/GPa)
#
#
# Indices 1 2 3 4 5 6 
#
# 1 0.059217 -0.003896 -0.025707 0.000000 -0.004659 0.000000
# 2 -0.003896 0.022731 -0.003170 0.000000 -0.002701 0.000000
# 3 -0.025707 -0.003170 0.016722 0.000000 0.002336 0.000000
# 4 0.000000 0.000000 0.000000 0.031209 0.000000 -0.001597
# 5 -0.004659 -0.002701 0.002336 0.000000 0.028126 0.000000
# 6 0.000000 0.000000 0.000000 -0.001597 0.000000 0.049202
#
#
# Mechanical properties :
#
#
# Convention : Reuss Voigt Hill
#
# Bulk Modulus (GPa) = 30.19012 76.24469 53.21740
# Shear Modulus (GPa) = 17.61842 28.91469 23.26655
#
# Velocity S-wave (km/s) = 3.16081 4.04924 3.63229
# Velocity P-wave (km/s) = 5.51730 8.06828 6.91150
#
# Compressibility (1/GPa) = 0.03312342
#
# Stress axis : x y z
#
# Youngs Moduli (GPa) = 16.88697 43.99296 59.80212
#
# Poissons Ratio (x) = 0.17138 1.53734
# Poissons Ratio (y) = 0.06579 0.18959
# Poissons Ratio (z) = 0.43412 0.13947
#
# Static dielectric constant tensor:
#      x y z
#    x 1.568190 0.000000 -0.000150 
#    y 0.000000 1.601430 0.000000 
#    z -0.000150 0.000000 1.619930 
# 
# From -- ./inp_files/342037.got.cif
#   From: 2010.05.17/outbox.cif.g08.bks.cpg/sg12_172_cif.got.tgz:342037.got - 2010.06.03 13:09:07.
