data_PCOD9182294
_publ_section_title
;
Structure prediction by ZEFSAII (Michael W. Deem and Ramdas Pophale) SiO2 
 PCOD9182294
Probable space group: C 2/M
;
_chemical_formula_sum "Si O2"
_cell_formula_units_Z 60
_cell_length_a 13.341438
_cell_length_b 9.351569
_cell_length_c 20.885298
_cell_angle_alpha 90.000000
_cell_angle_beta 110.941558
_cell_angle_gamma 90.000000
_cell_volume 2433.600719
_symmetry_space_group_name_H-M "C 2/M"
_symmetry_group_IT_number 12
_symmetry_cell_setting 'monoclinic'
loop_
_space_group_symop_operation_xyz
x,y,z
-x,y,-z
-x,-y,-z
x,-y,z
1/2+x,1/2+y,z
1/2-x,1/2+y,-z
1/2-x,1/2-y,-z
1/2+x,1/2-y,z
loop_
_atom_site_type_symbol
_atom_site_label
_atom_site_fract_x
_atom_site_fract_y
_atom_site_fract_z
Si Si1 0.531976 0.161446 0.577186
Si Si2 0.842541 0.328677 0.980157
Si Si3 0.685505 0.780118 0.400986
Si Si4 0.140462 0.164371 0.710191
Si Si5 0.018377 0.662112 0.870381
Si Si6 0.415613 0.337234 0.739212
Si Si7 0.746439 0.164911 0.845484
Si Si8 0.203726 0.000000 0.490949
O O1 0.500000 0.217933 0.500000
O O2 0.420886 0.153003 0.590597
O O3 0.608846 0.257804 0.637150
O O4 0.575029 0.000000 0.578165
O O5 0.825312 0.500000 0.972584
O O6 0.826427 0.258809 0.907087
O O7 0.750000 0.250000 0.000000
O O8 0.946837 0.307587 0.048704
O O9 0.660823 0.763879 0.320561
O O10 0.779567 0.876482 0.449806
O O11 0.694868 0.624338 0.433849
O O12 0.217132 0.260075 0.772029
O O13 0.026920 0.159235 0.723615
O O14 0.175518 0.000000 0.710599
O O15 0.974518 0.500000 0.856911
O O16 0.132345 0.661274 0.857893
O O17 0.947424 0.773826 0.815135
O O18 0.376114 0.500000 0.733785
O O19 0.780745 0.000000 0.848067
#
# Coordination Sequence:
#
# PCOD9182294 Si02
#       8
#     8   8   8   8   8   8   8   4
#     4  10  20  33  48  66  91 119 149 186 229 272
#     4   9  15  22  30  45  68  96 134 173 209 250
#     4  10  19  33  47  69  86 117 149 190 224 272
#     4   9  17  27  40  58  78 105 140 179 217 256
#     4   8  15  22  31  47  69  99 132 168 210 248
#     4   9  16  25  38  55  78 101 136 177 213 255
#     4   9  15  23  35  49  69  99 135 174 211 252
#     4  10  20  32  50  64  90 112 150 188 228 268
#
# _framework density 24.654824000000001
#
# number of rings (size 3 to 8) (size 9 to 14) (size 15 to 20)
#    0.000    2.800    1.333    2.000    1.867    5.600 
#    0.000    0.000    0.000    0.000    0.000    0.000 
#    0.000    0.000    0.000    0.000    0.000    8.000 
#
# Total GULP energy -167415.692806 kJ/mol
# GULP energy per Si atom -5580.523094 kJ/mol
# Density = 2.459871 g / cm^3
# Si number density = 24.654824 Si / 1000 Ang^3
#
#
#
# Elastic Constant Matrix: (Units=GPa)
#
#
# Indices 1 2 3 4 5 6 
#
# 1 73.7189 9.5116 28.6587 0.0000 -1.2822 0.0000
# 2 9.5116 187.7258 129.4682 0.0000 22.6458 0.0000
# 3 28.6587 129.4682 262.4737 0.0000 -27.1314 0.0000
# 4 0.0000 0.0000 0.0000 525.3598 0.0000 71.4434
# 5 -1.2822 22.6458 -27.1314 0.0000 31.1713 0.0000
# 6 0.0000 0.0000 0.0000 71.4434 0.0000 14.5824
#
#
#
# Elastic Compliance Matrix: (Units=1/GPa)
#
#
# Indices 1 2 3 4 5 6 
#
# 1 0.014305 0.001238 -0.002423 0.000000 -0.002420 0.000000
# 2 0.001238 0.012911 -0.008206 0.000000 -0.016471 0.000000
# 3 -0.002423 -0.008206 0.009591 0.000000 0.014210 0.000000
# 4 0.000000 0.000000 0.000000 0.005703 0.000000 -0.027942
# 5 -0.002420 -0.016471 0.014210 0.000000 0.056316 0.000000
# 6 0.000000 0.000000 0.000000 -0.027942 0.000000 0.205470
#
#
# Mechanical properties :
#
#
# Convention : Reuss Voigt Hill
#
# Bulk Modulus (GPa) = 55.47835 95.46618 75.47226
# Shear Modulus (GPa) = 15.19362 137.97469 76.58415
#
# Velocity S-wave (km/s) = 2.48514 7.48893 5.57942
# Velocity P-wave (km/s) = 5.54846 10.65757 8.49616
#
# Compressibility (1/GPa) = 0.01802505
#
# Stress axis : x y z
#
# Youngs Moduli (GPa) = 69.90543 77.45590 104.26433
#
# Poissons Ratio (x) = -0.09588 0.25259
# Poissons Ratio (y) = -0.08653 0.85560
# Poissons Ratio (z) = 0.16935 0.63561
#
# Static dielectric constant tensor:
#      x y z
#    x 2.094670 0.000000 -0.016080 
#    y 0.000000 1.858340 0.000000 
#    z -0.016080 0.000000 1.893460 
# 
# From -- ./inp_files/368612.got.cif
#   From: 2010.05.17/outbox.cif.g08.bks.cpg/sg12_185_cif.got.tgz:368612.got - 2010.06.03 13:09:07.
