data_PCOD9182819
_publ_section_title
;
Structure prediction by ZEFSAII (Michael W. Deem and Ramdas Pophale) SiO2 
 PCOD9182819
Probable space group: C 2/M
;
_chemical_formula_sum "Si O2"
_cell_formula_units_Z 56
_cell_length_a 29.462206
_cell_length_b 8.974259
_cell_length_c 19.620884
_cell_angle_alpha 90.000000
_cell_angle_beta 139.258659
_cell_angle_gamma 90.000000
_cell_volume 3385.786871
_symmetry_space_group_name_H-M "C 2/M"
_symmetry_group_IT_number 12
_symmetry_cell_setting 'monoclinic'
loop_
_space_group_symop_operation_xyz
x,y,z
-x,y,-z
-x,-y,-z
x,-y,z
1/2+x,1/2+y,z
1/2-x,1/2+y,-z
1/2-x,1/2-y,-z
1/2+x,1/2-y,z
loop_
_atom_site_type_symbol
_atom_site_label
_atom_site_fract_x
_atom_site_fract_y
_atom_site_fract_z
Si Si1 0.233412 0.177712 0.376945
Si Si2 0.010452 0.177999 0.304249
Si Si3 0.756552 0.822780 0.115829
Si Si4 0.439697 0.321290 0.485103
Si Si5 0.137900 0.677004 0.375239
Si Si6 0.289053 0.821359 0.292887
Si Si7 0.360533 0.822576 0.128949
O O1 0.171181 0.263415 0.343185
O O2 0.303341 0.208317 0.500245
O O3 0.248956 0.219226 0.316896
O O4 0.220858 0.000000 0.366684
O O5 0.035246 0.212734 0.409730
O O6 0.068246 0.240829 0.318779
O O7 0.936249 0.253117 0.207533
O O8 0.004960 0.000000 0.292109
O O9 0.754107 0.749094 0.186786
O O10 0.820761 0.752533 0.147108
O O11 0.766479 0.000000 0.132800
O O12 0.688191 0.794694 0.992319
O O13 0.500000 0.280781 0.500000
O O14 0.428661 0.500000 0.467464
O O15 0.367657 0.239566 0.387646
O O16 0.127079 0.500000 0.360331
O O17 0.290560 0.000000 0.289623
O O18 0.364563 0.000000 0.143985
#
# Coordination Sequence:
#
# PCOD9182819 Si02
#       7
#     8   8   8   8   8   8   8
#     4   9  19  34  51  76 107 138 177 219 263 315
#     4  11  21  33  53  79 110 143 175 218 268 317
#     4  10  21  37  56  79 107 140 180 222 264 314
#     4  10  21  34  48  72 107 143 175 211 258 314
#     4  10  19  33  53  76 106 141 179 219 261 316
#     4  11  21  34  54  79 107 140 175 218 265 315
#     4  10  21  37  57  79 105 140 182 224 263 309
#
# _framework density 16.539729000000001
#
# number of rings (size 3 to 8) (size 9 to 14) (size 15 to 20)
#    0.000    1.857    1.429    3.000    0.000    5.429 
#    0.000    0.000    0.000    0.857    0.000    6.000 
#    0.000    0.000    0.000    0.000    0.000    0.000 
#
# Total GULP energy -156380.942744 kJ/mol
# GULP energy per Si atom -5585.033669 kJ/mol
# Density = 1.650208 g / cm^3
# Si number density = 16.539729 Si / 1000 Ang^3
#
#
#
# Elastic Constant Matrix: (Units=GPa)
#
#
# Indices 1 2 3 4 5 6 
#
# 1 129.7124 53.3381 54.8237 0.0000 -18.0094 0.0000
# 2 53.3381 54.8331 43.0348 0.0000 -6.7614 0.0000
# 3 54.8237 43.0348 58.8965 0.0000 -10.3680 0.0000
# 4 0.0000 0.0000 0.0000 28.0936 0.0000 3.9070
# 5 -18.0094 -6.7614 -10.3680 0.0000 23.8245 0.0000
# 6 0.0000 0.0000 0.0000 3.9070 0.0000 28.8882
#
#
#
# Elastic Compliance Matrix: (Units=1/GPa)
#
#
# Indices 1 2 3 4 5 6 
#
# 1 0.014793 -0.008606 -0.006436 0.000000 0.005939 0.000000
# 2 -0.008606 0.047818 -0.027816 0.000000 -0.005040 0.000000
# 3 -0.006436 -0.027816 0.044455 0.000000 0.006586 0.000000
# 4 0.000000 0.000000 0.000000 0.036278 0.000000 -0.004906
# 5 0.005939 -0.005040 0.006586 0.000000 0.047899 0.000000
# 6 0.000000 0.000000 0.000000 -0.004906 0.000000 0.035280
#
#
# Mechanical properties :
#
#
# Convention : Reuss Voigt Hill
#
# Bulk Modulus (GPa) = 46.84168 60.64834 53.74501
# Shear Modulus (GPa) = 15.65651 22.31097 18.98374
#
# Velocity S-wave (km/s) = 3.08002 3.67677 3.39155
# Velocity P-wave (km/s) = 6.40554 7.40086 6.92111
#
# Compressibility (1/GPa) = 0.02134851
#
# Stress axis : x y z
#
# Youngs Moduli (GPa) = 67.59904 20.91253 22.49480
#
# Poissons Ratio (x) = 0.17997 0.14479
# Poissons Ratio (y) = 0.58175 0.62572
# Poissons Ratio (z) = 0.43510 0.58171
#
# Static dielectric constant tensor:
#      x y z
#    x 1.535600 0.000000 -0.012370 
#    y 0.000000 1.546260 0.000000 
#    z -0.012370 0.000000 1.537380 
# 
# From -- ./inp_files/288231.got.cif
#   From: 2010.05.17/outbox.cif.g08.bks.cpg/sg12_145_cif.got.tgz:288231.got - 2010.06.03 13:09:07.
