data_PCOD9182400
_publ_section_title
;
Structure prediction by ZEFSAII (Michael W. Deem and Ramdas Pophale) SiO2 
 PCOD9182400
Probable space group: C 2/M
;
_chemical_formula_sum "Si O2"
_cell_formula_units_Z 64
_cell_length_a 18.294492
_cell_length_b 27.204304
_cell_length_c 18.495779
_cell_angle_alpha 90.000000
_cell_angle_beta 24.627068
_cell_angle_gamma 90.000000
_cell_volume 3835.878376
_symmetry_space_group_name_H-M "C 2/M"
_symmetry_group_IT_number 12
_symmetry_cell_setting 'monoclinic'
loop_
_space_group_symop_operation_xyz
x,y,z
-x,y,-z
-x,-y,-z
x,-y,z
1/2+x,1/2+y,z
1/2-x,1/2+y,-z
1/2-x,1/2-y,-z
1/2+x,1/2-y,z
loop_
_atom_site_type_symbol
_atom_site_label
_atom_site_fract_x
_atom_site_fract_y
_atom_site_fract_z
Si Si1 0.009327 0.689765 0.149346
Si Si2 0.161488 0.869941 0.490848
Si Si3 0.710378 0.555598 0.324078
Si Si4 0.487349 0.232443 0.705063
Si Si5 0.754468 0.637517 0.171913
Si Si6 0.427854 0.291644 0.144285
Si Si7 0.338185 0.266811 0.689046
Si Si8 0.153029 0.175468 0.637700
O O1 0.806101 0.672440 0.342100
O O2 0.085354 0.701760 0.161135
O O3 0.007403 0.741419 0.107521
O O4 0.124608 0.648322 0.005944
O O5 0.226285 0.916133 0.385927
O O6 0.166705 0.871290 0.573282
O O7 0.955444 0.861749 0.656787
O O8 0.500000 0.553686 0.500000
O O9 0.777940 0.500000 0.263570
O O10 0.786643 0.589760 0.191512
O O11 0.378855 0.245238 0.731366
O O12 0.658973 0.202387 0.525784
O O13 0.542133 0.284316 0.691713
O O14 0.787413 0.686411 0.189770
O O15 0.232811 0.275478 0.298279
O O16 0.426230 0.329814 0.211307
O O17 0.500000 0.304376 0.000000
O O18 0.500000 0.288131 0.500000
#
# Coordination Sequence:
#
# PCOD9182400 Si02
#       8
#     8   8   8   8   8   8   8   8
#     4  10  21  33  44  67  94 120 164 197 229 264
#     4  10  19  33  51  63  86 126 154 193 234 283
#     4   9  19  34  51  74  96 118 156 202 242 281
#     4   9  18  29  44  61  88 122 158 202 216 266
#     4  11  20  30  50  67  88 123 160 195 232 278
#     4  11  20  28  40  63  93 119 150 203 227 255
#     4  12  19  28  44  63  84 121 166 186 225 275
#     4   9  17  31  43  61  88 121 156 192 237 261
#
# _framework density 16.684574999999999
#
# number of rings (size 3 to 8) (size 9 to 14) (size 15 to 20)
#    0.000    1.875    3.750    3.375    0.000    1.500 
#    0.000    1.250    0.000    0.000    0.000    0.000 
#    0.000    0.500    0.000   10.250    0.000    0.000 
#
# Total GULP energy -178226.938187 kJ/mol
# GULP energy per Si atom -5569.591818 kJ/mol
# Density = 1.664660 g / cm^3
# Si number density = 16.684575 Si / 1000 Ang^3
#
#
#
# Elastic Constant Matrix: (Units=GPa)
#
#
# Indices 1 2 3 4 5 6 
#
# 1 103.5218 43.8104 38.3457 -0.0048 31.6076 0.0016
# 2 43.8104 68.2469 24.7337 -0.0232 21.6332 0.0074
# 3 38.3457 24.7337 88.0470 0.0151 24.1468 0.0133
# 4 -0.0048 -0.0232 0.0151 11.6619 0.0066 2.7803
# 5 31.6076 21.6332 24.1468 0.0066 39.4304 -0.0027
# 6 0.0016 0.0074 0.0133 2.7803 -0.0027 14.0727
#
#
#
# Elastic Compliance Matrix: (Units=1/GPa)
#
#
# Indices 1 2 3 4 5 6 
#
# 1 0.015835 -0.006816 -0.003036 0.000000 -0.007095 0.000003
# 2 -0.006816 0.021256 -0.001566 0.000049 -0.005240 -0.000020
# 3 -0.003036 -0.001566 0.014683 -0.000018 -0.005699 -0.000010
# 4 0.000000 0.000049 -0.000018 0.089988 -0.000033 -0.017778
# 5 -0.007095 -0.005240 -0.005699 -0.000033 0.037413 0.000022
# 6 0.000003 -0.000020 -0.000010 -0.017778 0.000022 0.074572
#
#
# Mechanical properties :
#
#
# Convention : Reuss Voigt Hill
#
# Bulk Modulus (GPa) = 34.55601 52.62168 43.58885
# Shear Modulus (GPa) = 17.46858 23.22807 20.34832
#
# Velocity S-wave (km/s) = 3.23923 3.73525 3.49605
# Velocity P-wave (km/s) = 5.89461 7.08593 6.51755
#
# Compressibility (1/GPa) = 0.02893853
#
# Stress axis : x y z
#
# Youngs Moduli (GPa) = 63.15109 47.04448 68.10820
#
# Poissons Ratio (x) = 0.32065 0.20677
# Poissons Ratio (y) = 0.43043 0.10665
# Poissons Ratio (z) = 0.19172 0.07366
#
# Static dielectric constant tensor:
#      x y z
#    x 1.617120 -0.000020 -0.007420 
#    y -0.000020 1.533900 0.000050 
#    z -0.007420 0.000050 1.671160 
# 
# From -- ./inp_files/279486.got.cif
#   From: 2010.05.17/outbox.cif.g08.bks.cpg/sg12_140_cif.got.tgz:279486.got - 2010.06.03 13:09:07.
