data_PCOD9182606
_publ_section_title
;
Structure prediction by ZEFSAII (Michael W. Deem and Ramdas Pophale) SiO2 
 PCOD9182606
Probable space group: C 2/M
;
_chemical_formula_sum "Si O2"
_cell_formula_units_Z 52
_cell_length_a 15.138075
_cell_length_b 11.210358
_cell_length_c 25.096432
_cell_angle_alpha 90.000000
_cell_angle_beta 139.326696
_cell_angle_gamma 90.000000
_cell_volume 2775.747045
_symmetry_space_group_name_H-M "C 2/M"
_symmetry_group_IT_number 12
_symmetry_cell_setting 'monoclinic'
loop_
_space_group_symop_operation_xyz
x,y,z
-x,y,-z
-x,-y,-z
x,-y,z
1/2+x,1/2+y,z
1/2-x,1/2+y,-z
1/2-x,1/2-y,-z
1/2+x,1/2-y,z
loop_
_atom_site_type_symbol
_atom_site_label
_atom_site_fract_x
_atom_site_fract_y
_atom_site_fract_z
Si Si1 0.903454 0.360386 0.904399
Si Si2 0.599827 0.640725 0.808280
Si Si3 0.000000 0.695787 0.500000
Si Si4 0.178395 0.128728 0.511251
Si Si5 0.555879 0.741667 0.358171
Si Si6 0.340927 0.870493 0.326397
Si Si7 0.460079 0.641285 0.849789
O O1 0.907292 0.500000 0.884846
O O2 0.750260 0.336450 0.854810
O O3 0.947761 0.249999 0.886403
O O4 0.000000 0.359443 0.000000
O O5 0.574410 0.500000 0.790497
O O6 0.490622 0.706632 0.721440
O O7 0.577959 0.666572 0.860676
O O8 0.098396 0.773974 0.508239
O O9 0.098668 0.631009 0.586639
O O10 0.337621 0.150501 0.591071
O O11 0.136025 0.144078 0.430124
O O12 0.137998 0.000000 0.512333
O O13 0.420680 0.772827 0.328988
O O14 0.180997 0.854175 0.247918
O O15 0.372084 0.000000 0.316583
O O16 0.472507 0.500000 0.874208
#
# Coordination Sequence:
#
# PCOD9182606 Si02
#       7
#     8   8   4   8   8   8   8
#     4  10  22  42  65  90 121 155 193 241 297 357
#     4  10  20  37  61  85 116 155 193 235 291 357
#     4  10  20  32  48  72 106 148 190 234 286 342
#     4  10  20  32  47  72 105 142 189 239 285 336
#     4  10  19  33  53  74 104 148 192 232 287 342
#     4  10  19  33  52  76 109 146 191 243 287 336
#     4  10  21  38  61  90 120 154 197 243 292 351
#
# _framework density 18.733695999999998
#
# number of rings (size 3 to 8) (size 9 to 14) (size 15 to 20)
#    0.000    2.000    1.538    2.308    0.000    0.923 
#    0.000    9.231    0.000    0.000    0.000    0.000 
#    0.000    0.000    0.000    0.000    0.000    0.000 
#
# Total GULP energy -144776.572313 kJ/mol
# GULP energy per Si atom -5568.329704 kJ/mol
# Density = 1.869106 g / cm^3
# Si number density = 18.733696 Si / 1000 Ang^3
#
#
#
# Elastic Constant Matrix: (Units=GPa)
#
#
# Indices 1 2 3 4 5 6 
#
# 1 70.2368 42.4655 11.5821 0.0000 -13.5653 0.0000
# 2 42.4655 99.5583 29.8518 0.0000 -16.3043 0.0000
# 3 11.5821 29.8518 71.0001 0.0000 -7.1064 0.0000
# 4 0.0000 0.0000 0.0000 -26.9252 0.0000 1.8091
# 5 -13.5653 -16.3043 -7.1064 0.0000 18.0411 0.0000
# 6 0.0000 0.0000 0.0000 1.8091 0.0000 -5.7960
#
#
#
# Elastic Compliance Matrix: (Units=1/GPa)
#
#
# Indices 1 2 3 4 5 6 
#
# 1 0.020322 -0.007428 0.000693 0.000000 0.008840 0.000000
# 2 -0.007428 0.015740 -0.004728 0.000000 0.006777 0.000000
# 3 0.000693 -0.004728 0.016223 0.000000 0.002639 0.000000
# 4 0.000000 0.000000 0.000000 -0.037936 0.000000 -0.011841
# 5 0.008840 0.006777 0.002639 0.000000 0.069240 0.000000
# 6 0.000000 0.000000 0.000000 -0.011841 0.000000 -0.176228
#
#
# Mechanical properties :
#
#
# Convention : Reuss Voigt Hill
#
# Bulk Modulus (GPa) = 34.06084 45.39933 39.73009
# Shear Modulus (GPa) = -83.43688 7.52369 -37.95659
#
# Velocity S-wave (km/s) = -6.68095 2.00620 -4.50612
# Velocity P-wave (km/s) = 6.42592 5.44547 2.41239
#
# Compressibility (1/GPa) = 0.02935923
#
# Stress axis : x y z
#
# Youngs Moduli (GPa) = 49.20861 63.53151 61.63948
#
# Poissons Ratio (x) = 0.47191 -0.04271
# Poissons Ratio (y) = 0.36552 0.29142
# Poissons Ratio (z) = -0.03409 0.30037
#
# Static dielectric constant tensor:
#      x y z
#    x 1.672400 0.000000 0.004450 
#    y 0.000000 1.657380 0.000000 
#    z 0.004450 0.000000 1.639500 
# 
# From -- ./inp_files/213403.got.cif
#   From: 2010.05.17/outbox.cif.g08.bks.cpg/sg12_107_cif.got.tgz:213403.got - 2010.06.03 13:09:07.
