data_PCOD9182374
_publ_section_title
;
Structure prediction by ZEFSAII (Michael W. Deem and Ramdas Pophale) SiO2 
 PCOD9182374
Probable space group: C 2/M
;
_chemical_formula_sum "Si O2"
_cell_formula_units_Z 64
_cell_length_a 27.156440
_cell_length_b 14.851615
_cell_length_c 9.620393
_cell_angle_alpha 90.000000
_cell_angle_beta 55.769504
_cell_angle_gamma 90.000000
_cell_volume 3207.967577
_symmetry_space_group_name_H-M "C 2/M"
_symmetry_group_IT_number 12
_symmetry_cell_setting 'monoclinic'
loop_
_space_group_symop_operation_xyz
x,y,z
-x,y,-z
-x,-y,-z
x,-y,z
1/2+x,1/2+y,z
1/2-x,1/2+y,-z
1/2-x,1/2-y,-z
1/2+x,1/2-y,z
loop_
_atom_site_type_symbol
_atom_site_label
_atom_site_fract_x
_atom_site_fract_y
_atom_site_fract_z
Si Si1 0.405697 0.398090 0.720248
Si Si2 0.896859 0.783018 0.246106
Si Si3 0.212556 0.894540 0.451417
Si Si4 0.661386 0.896002 0.589051
Si Si5 0.763025 0.603362 0.787206
Si Si6 0.713692 0.103518 0.923408
Si Si7 0.650698 0.279841 0.966395
Si Si8 0.965879 0.102000 0.334151
O O1 0.381034 0.500000 0.774827
O O2 0.469105 0.395328 0.700122
O O3 0.420580 0.383116 0.535466
O O4 0.366626 0.325276 0.860958
O O5 0.838777 0.832864 0.404796
O O6 0.886049 0.677697 0.290312
O O7 0.895195 0.799178 0.084057
O O8 0.952073 0.826232 0.238174
O O9 0.276018 0.880728 0.428469
O O10 0.228486 0.878052 0.264293
O O11 0.196506 0.000000 0.493956
O O12 0.679083 0.883191 0.399399
O O13 0.644215 0.000000 0.639095
O O14 0.743096 0.500000 0.792001
O O15 0.712315 0.672610 0.824767
O O16 0.774171 0.613422 0.932869
O O17 0.663707 0.174813 0.961447
O O18 0.696924 0.000000 0.921315
O O19 0.956473 0.000000 0.296594
#
# Coordination Sequence:
#
# PCOD9182374 Si02
#       8
#     8   8   8   8   8   8   8   8
#     4   9  21  41  60  79 106 135 168 217 273 320
#     4  12  22  32  54  83 106 140 186 217 256 315
#     4  10  19  33  50  73 110 147 176 211 256 311
#     4  10  20  35  51  73 113 151 175 212 260 306
#     4  10  21  34  49  76 111 143 180 222 261 306
#     4  10  22  36  50  75 111 149 183 215 257 308
#     4  12  22  33  54  81 108 141 180 222 262 307
#     4   9  21  41  60  80 105 134 170 216 270 326
#
# _framework density 19.950326
#
# number of rings (size 3 to 8) (size 9 to 14) (size 15 to 20)
#    0.000    1.750    2.500    3.000    3.500    2.000 
#    0.000    1.250    0.000    0.750    0.000    3.500 
#    0.000    0.000    0.000    0.000    0.000    0.000 
#
# Total GULP energy -178846.291528 kJ/mol
# GULP energy per Si atom -5588.946610 kJ/mol
# Density = 1.990492 g / cm^3
# Si number density = 19.950326 Si / 1000 Ang^3
#
#
#
# Elastic Constant Matrix: (Units=GPa)
#
#
# Indices 1 2 3 4 5 6 
#
# 1 41.5864 20.4090 -6.2260 0.0000 14.8160 0.0000
# 2 20.4090 75.6371 15.2487 0.0000 2.9870 0.0000
# 3 -6.2260 15.2487 53.1912 0.0000 13.9311 0.0000
# 4 0.0000 0.0000 0.0000 11.7285 0.0000 3.2706
# 5 14.8160 2.9870 13.9311 0.0000 25.7819 0.0000
# 6 0.0000 0.0000 0.0000 3.2706 0.0000 15.8483
#
#
#
# Elastic Compliance Matrix: (Units=1/GPa)
#
#
# Indices 1 2 3 4 5 6 
#
# 1 0.047067 -0.015162 0.019196 0.000000 -0.035664 0.000000
# 2 -0.015162 0.018925 -0.010376 0.000000 0.012127 0.000000
# 3 0.019196 -0.010376 0.030980 0.000000 -0.026569 0.000000
# 4 0.000000 0.000000 0.000000 0.090469 0.000000 -0.018670
# 5 -0.035664 0.012127 -0.026569 0.000000 0.072233 0.000000
# 6 0.000000 0.000000 0.000000 -0.018670 0.000000 0.066951
#
#
# Mechanical properties :
#
#
# Convention : Reuss Voigt Hill
#
# Bulk Modulus (GPa) = 11.86396 25.47534 18.66965
# Shear Modulus (GPa) = 13.60900 20.07062 16.83981
#
# Velocity S-wave (km/s) = 2.61462 3.17524 2.90847
# Velocity P-wave (km/s) = 3.88261 5.12249 4.54503
#
# Compressibility (1/GPa) = 0.08428887
#
# Stress axis : x y z
#
# Youngs Moduli (GPa) = 21.24641 52.84026 32.27874
#
# Poissons Ratio (x) = 0.80114 -0.61962
# Poissons Ratio (y) = 0.32213 0.33493
# Poissons Ratio (z) = -0.40785 0.54827
#
# Static dielectric constant tensor:
#      x y z
#    x 1.723560 0.000000 0.021260 
#    y 0.000000 1.703620 0.000000 
#    z 0.021260 0.000000 1.720260 
# 
# From -- ./inp_files/96866.got.cif
#   From: 2010.05.17/outbox.cif.g08.bks.cpg/sg12_49_cif.got.tgz:96866.got - 2010.06.03 13:09:07.
