data_PCOD9182836
_publ_section_title
;
Structure prediction by ZEFSAII (Michael W. Deem and Ramdas Pophale) SiO2 
 PCOD9182836
Probable space group: C 2/M
;
_chemical_formula_sum "Si O2"
_cell_formula_units_Z 48
_cell_length_a 7.289515
_cell_length_b 22.840685
_cell_length_c 18.563892
_cell_angle_alpha 90.000000
_cell_angle_beta 52.148074
_cell_angle_gamma 90.000000
_cell_volume 2440.526365
_symmetry_space_group_name_H-M "C 2/M"
_symmetry_group_IT_number 12
_symmetry_cell_setting 'monoclinic'
loop_
_space_group_symop_operation_xyz
x,y,z
-x,y,-z
-x,-y,-z
x,-y,z
1/2+x,1/2+y,z
1/2-x,1/2+y,-z
1/2-x,1/2-y,-z
1/2+x,1/2-y,z
loop_
_atom_site_type_symbol
_atom_site_label
_atom_site_fract_x
_atom_site_fract_y
_atom_site_fract_z
Si Si1 0.047688 0.168504 0.671273
Si Si2 0.200319 0.933850 0.200817
Si Si3 0.255940 0.681221 0.518609
Si Si4 0.672774 0.433108 0.044219
Si Si5 0.436247 0.801617 0.290028
Si Si6 0.176600 0.609769 0.137401
O O1 0.993507 0.114016 0.734635
O O2 0.806057 0.179307 0.686873
O O3 0.233373 0.154174 0.563676
O O4 0.078593 0.231164 0.702368
O O5 0.271049 0.926324 0.100239
O O6 0.429256 0.923218 0.194138
O O7 0.117502 0.000000 0.230042
O O8 0.500000 0.668246 0.500000
O O9 0.250000 0.750000 0.500000
O O10 0.063838 0.674068 0.627420
O O11 0.721962 0.500000 0.007435
O O12 0.394178 0.424993 0.117391
O O13 0.755451 0.387431 0.963789
O O14 0.632352 0.830747 0.192778
#
# Coordination Sequence:
#
# PCOD9182836 Si02
#       6
#     8   8   8   8   8   8
#     4   9  18  31  51  75 105 132 165 208 252 308
#     4  10  20  34  54  76 100 135 174 211 250 298
#     4   8  14  28  47  72  98 127 166 199 244 303
#     4  10  20  34  55  75  97 136 180 214 246 298
#     4   9  18  30  51  75 104 132 164 208 258 306
#     4  10  19  33  53  77 100 130 168 217 255 293
#
# _framework density 19.667888999999999
#
# number of rings (size 3 to 8) (size 9 to 14) (size 15 to 20)
#    0.000    2.667    0.000    2.500    2.333    1.333 
#    0.000    0.833    3.667   14.500    0.000    2.333 
#    0.000    0.000    0.000    0.000    0.000    0.000 
#
# Total GULP energy -133625.221205 kJ/mol
# GULP energy per Si atom -5567.717550 kJ/mol
# Density = 1.962312 g / cm^3
# Si number density = 19.667889 Si / 1000 Ang^3
#
#
#
# Elastic Constant Matrix: (Units=GPa)
#
#
# Indices 1 2 3 4 5 6 
#
# 1 48.4057 10.8706 11.0771 0.0000 0.9573 0.0000
# 2 10.8706 96.2092 79.5083 0.0000 8.2611 0.0000
# 3 11.0771 79.5083 130.3637 0.0000 5.5025 0.0000
# 4 0.0000 0.0000 0.0000 19.7574 0.0000 2.3434
# 5 0.9573 8.2611 5.5025 0.0000 26.0477 0.0000
# 6 0.0000 0.0000 0.0000 2.3434 0.0000 20.3544
#
#
#
# Elastic Compliance Matrix: (Units=1/GPa)
#
#
# Indices 1 2 3 4 5 6 
#
# 1 0.021227 -0.001825 -0.000688 0.000000 -0.000056 0.000000
# 2 -0.001825 0.021531 -0.012805 0.000000 -0.004056 0.000000
# 3 -0.000688 -0.012805 0.015505 0.000000 0.000811 0.000000
# 4 0.000000 0.000000 0.000000 0.051315 0.000000 -0.005908
# 5 -0.000056 -0.004056 0.000811 0.000000 0.039508 0.000000
# 6 0.000000 0.000000 0.000000 -0.005908 0.000000 0.049810
#
#
# Mechanical properties :
#
#
# Convention : Reuss Voigt Hill
#
# Bulk Modulus (GPa) = 36.19757 53.09895 44.64826
# Shear Modulus (GPa) = 20.94314 24.80008 22.87161
#
# Velocity S-wave (km/s) = 3.26673 3.55483 3.41382
# Velocity P-wave (km/s) = 5.71603 6.62612 6.18783
#
# Compressibility (1/GPa) = 0.02762617
#
# Stress axis : x y z
#
# Youngs Moduli (GPa) = 47.10943 46.44454 64.49488
#
# Poissons Ratio (x) = 0.08475 0.04440
# Poissons Ratio (y) = 0.08596 0.82589
# Poissons Ratio (z) = 0.03243 0.59474
#
# Static dielectric constant tensor:
#      x y z
#    x 1.785740 0.000000 -0.026120 
#    y 0.000000 1.662340 0.000000 
#    z -0.026120 0.000000 1.781360 
# 
# From -- ./inp_files/256225.got.cif
#   From: 2010.05.17/outbox.cif.g08.bks.cpg/sg12_129_cif.got.tgz:256225.got - 2010.06.03 13:09:07.
