data_PCOD9182499
_publ_section_title
;
Structure prediction by ZEFSAII (Michael W. Deem and Ramdas Pophale) SiO2 
 PCOD9182499
Probable space group: C 2/M
;
_chemical_formula_sum "Si O2"
_cell_formula_units_Z 50
_cell_length_a 19.958427
_cell_length_b 7.708574
_cell_length_c 17.469275
_cell_angle_alpha 90.000000
_cell_angle_beta 71.136761
_cell_angle_gamma 90.000000
_cell_volume 2543.319142
_symmetry_space_group_name_H-M "C 2/M"
_symmetry_group_IT_number 12
_symmetry_cell_setting 'monoclinic'
loop_
_space_group_symop_operation_xyz
x,y,z
-x,y,-z
-x,-y,-z
x,-y,z
1/2+x,1/2+y,z
1/2-x,1/2+y,-z
1/2-x,1/2-y,-z
1/2+x,1/2-y,z
loop_
_atom_site_type_symbol
_atom_site_label
_atom_site_fract_x
_atom_site_fract_y
_atom_site_fract_z
Si Si1 0.634208 0.789526 0.267071
Si Si2 0.500000 0.500000 0.500000
Si Si3 0.181773 0.206241 0.973389
Si Si4 0.207596 0.213141 0.790738
Si Si5 0.075960 0.798488 0.742649
Si Si6 0.434445 0.204557 0.865623
Si Si7 0.488257 0.799150 0.393853
O O1 0.712688 0.731324 0.258770
O O2 0.612844 0.732398 0.189174
O O3 0.569659 0.740275 0.345785
O O4 0.635004 0.000000 0.265705
O O5 0.462007 0.655645 0.462259
O O6 0.191273 0.271575 0.883474
O O7 0.178528 0.000000 0.970115
O O8 0.250000 0.250000 0.000000
O O9 0.110711 0.266738 0.041811
O O10 0.147018 0.271433 0.755073
O O11 0.206395 0.000000 0.791344
O O12 0.050244 0.709551 0.674285
O O13 0.011478 0.786484 0.827377
O O14 0.086614 0.000000 0.720084
O O15 0.444903 0.000000 0.851608
O O16 0.486595 0.000000 0.419342
#
# Coordination Sequence:
#
# PCOD9182499 Si02
#       7
#     8   2   8   8   8   8   8
#     4   8  15  32  55  81 109 149 194 236 283 335
#     4  12  22  40  68  98 120 146 190 224 292 354
#     4  11  20  32  49  76 109 149 200 253 298 337
#     4   9  18  32  54  79 110 153 199 239 292 347
#     4  10  19  35  57  84 111 151 195 235 291 352
#     4  10  19  33  52  71 111 151 193 251 294 329
#     4  10  21  38  64  94 122 148 185 237 282 343
#
# _framework density 19.659348999999999
#
# number of rings (size 3 to 8) (size 9 to 14) (size 15 to 20)
#    0.000    2.240    2.400    2.640    0.000    0.640 
#    0.000    6.400    3.520    0.960    0.000    0.000 
#    0.000    0.000    0.000    0.000    0.000    0.000 
#
# Total GULP energy -139223.932604 kJ/mol
# GULP energy per Si atom -5568.957304 kJ/mol
# Density = 1.961460 g / cm^3
# Si number density = 19.659349 Si / 1000 Ang^3
#
#
#
# Elastic Constant Matrix: (Units=GPa)
#
#
# Indices 1 2 3 4 5 6 
#
# 1 136.3164 7.1320 26.1424 0.0000 4.8298 0.0000
# 2 7.1320 75.2031 12.7717 0.0000 6.4193 0.0000
# 3 26.1424 12.7717 47.0460 0.0000 15.7247 0.0000
# 4 0.0000 0.0000 0.0000 9.6425 0.0000 3.2680
# 5 4.8298 6.4193 15.7247 0.0000 15.8623 0.0000
# 6 0.0000 0.0000 0.0000 3.2680 0.0000 15.4001
#
#
#
# Elastic Compliance Matrix: (Units=1/GPa)
#
#
# Indices 1 2 3 4 5 6 
#
# 1 0.008310 -0.000096 -0.005621 0.000000 0.003081 0.000000
# 2 -0.000096 0.014026 -0.002792 0.000000 -0.002879 0.000000
# 3 -0.005621 -0.002792 0.036173 0.000000 -0.033018 0.000000
# 4 0.000000 0.000000 0.000000 0.111744 0.000000 -0.023713
# 5 0.003081 -0.002879 -0.033018 0.000000 0.096002 0.000000
# 6 0.000000 0.000000 0.000000 -0.023713 0.000000 0.069967
#
#
# Mechanical properties :
#
#
# Convention : Reuss Voigt Hill
#
# Bulk Modulus (GPa) = 24.10186 38.96194 31.53190
# Shear Modulus (GPa) = 13.62134 22.34893 17.98513
#
# Velocity S-wave (km/s) = 2.63509 3.37532 3.02791
# Velocity P-wave (km/s) = 4.64162 5.92047 5.31961
#
# Compressibility (1/GPa) = 0.04149058
#
# Stress axis : x y z
#
# Youngs Moduli (GPa) = 120.34010 71.29425 27.64464
#
# Poissons Ratio (x) = 0.00688 0.15540
# Poissons Ratio (y) = 0.01161 0.07718
# Poissons Ratio (z) = 0.67647 0.19903
#
# Static dielectric constant tensor:
#      x y z
#    x 1.685920 0.000000 0.000720 
#    y 0.000000 1.742550 0.000000 
#    z 0.000720 0.000000 1.710380 
# 
# From -- ./inp_files/274205.got.cif
#   From: 2010.05.17/outbox.cif.g08.bks.cpg/sg12_138_cif.got.tgz:274205.got - 2010.06.03 13:09:07.
