data_PCOD9182998
_publ_section_title
;
Structure prediction by ZEFSAII (Michael W. Deem and Ramdas Pophale) SiO2 
 PCOD9182998
Probable space group: C 2/M
;
_chemical_formula_sum "Si O2"
_cell_formula_units_Z 56
_cell_length_a 25.339063
_cell_length_b 8.904137
_cell_length_c 15.216867
_cell_angle_alpha 90.000000
_cell_angle_beta 121.635912
_cell_angle_gamma 90.000000
_cell_volume 2923.078169
_symmetry_space_group_name_H-M "C 2/M"
_symmetry_group_IT_number 12
_symmetry_cell_setting 'monoclinic'
loop_
_space_group_symop_operation_xyz
x,y,z
-x,y,-z
-x,-y,-z
x,-y,z
1/2+x,1/2+y,z
1/2-x,1/2+y,-z
1/2-x,1/2-y,-z
1/2+x,1/2-y,z
loop_
_atom_site_type_symbol
_atom_site_label
_atom_site_fract_x
_atom_site_fract_y
_atom_site_fract_z
Si Si1 0.104335 0.169342 0.425667
Si Si2 0.435353 0.325975 0.802683
Si Si3 0.831421 0.319135 0.818545
Si Si4 0.564295 0.319926 0.821572
Si Si5 0.508272 0.174172 0.606288
Si Si6 0.741763 0.326100 0.586497
Si Si7 0.691825 0.181085 0.001547
O O1 0.107806 0.180522 0.322897
O O2 0.167881 0.178774 0.533744
O O3 0.059949 0.302656 0.414222
O O4 0.077542 0.000000 0.417319
O O5 0.440793 0.500000 0.833587
O O6 0.398888 0.238461 0.846421
O O7 0.503694 0.276667 0.828295
O O8 0.832758 0.500000 0.819057
O O9 0.781353 0.265658 0.702238
O O10 0.810336 0.273532 0.897388
O O11 0.569602 0.500000 0.830650
O O12 0.550236 0.268271 0.709593
O O13 0.626869 0.240973 0.906705
O O14 0.500000 0.230587 0.500000
O O15 0.527222 0.000000 0.621572
O O16 0.759909 0.500000 0.591889
O O17 0.750000 0.250000 0.500000
O O18 0.694585 0.000000 0.998483
O O19 0.750000 0.250000 0.000000
#
# Coordination Sequence:
#
# PCOD9182998 Si02
#       7
#     8   8   8   8   8   8   8
#     4   9  18  32  51  79 117 157 194 235 287 348
#     4   9  18  34  57  87 119 149 192 242 295 356
#     4  10  22  37  58  88 121 158 200 247 302 357
#     4  10  22  41  64  88 117 157 199 246 304 356
#     4  10  21  36  56  86 119 151 195 244 294 353
#     4  10  19  33  53  82 118 154 191 231 283 347
#     4  11  25  45  64  87 119 157 205 255 302 357
#
# _framework density 19.157886999999999
#
# number of rings (size 3 to 8) (size 9 to 14) (size 15 to 20)
#    0.000    2.143    1.429    2.143    0.000    7.429 
#    0.000    4.286    0.000    0.000    0.000    0.000 
#    0.000    0.000    0.000    0.000    0.000    0.000 
#
# Total GULP energy -156033.100183 kJ/mol
# GULP energy per Si atom -5572.610721 kJ/mol
# Density = 1.911428 g / cm^3
# Si number density = 19.157887 Si / 1000 Ang^3
#
#
#
# Elastic Constant Matrix: (Units=GPa)
#
#
# Indices 1 2 3 4 5 6 
#
# 1 110.3401 37.3469 80.6241 0.0000 -4.4785 0.0000
# 2 37.3469 34.5273 44.1623 0.0000 -3.4351 0.0000
# 3 80.6241 44.1623 133.0409 0.0000 -2.7163 0.0000
# 4 0.0000 0.0000 0.0000 21.8601 0.0000 0.9637
# 5 -4.4785 -3.4351 -2.7163 0.0000 30.8170 0.0000
# 6 0.0000 0.0000 0.0000 0.9637 0.0000 32.8391
#
#
#
# Elastic Compliance Matrix: (Units=1/GPa)
#
#
# Indices 1 2 3 4 5 6 
#
# 1 0.017931 -0.009441 -0.007715 0.000000 0.000873 0.000000
# 2 -0.009441 0.055837 -0.012738 0.000000 0.003729 0.000000
# 3 -0.007715 -0.012738 0.016397 0.000000 -0.001096 0.000000
# 4 0.000000 0.000000 0.000000 0.045805 0.000000 -0.001344
# 5 0.000873 0.003729 -0.001096 0.000000 0.032896 0.000000
# 6 0.000000 0.000000 0.000000 -0.001344 0.000000 0.030491
#
#
# Mechanical properties :
#
#
# Convention : Reuss Voigt Hill
#
# Bulk Modulus (GPa) = 32.91671 66.90830 49.91250
# Shear Modulus (GPa) = 18.56878 24.82157 21.69517
#
# Velocity S-wave (km/s) = 3.11666 3.60339 3.36883
# Velocity P-wave (km/s) = 5.49277 7.23278 6.42198
#
# Compressibility (1/GPa) = 0.03037971
#
# Stress axis : x y z
#
# Youngs Moduli (GPa) = 55.77048 17.90913 60.98530
#
# Poissons Ratio (x) = 0.16907 0.47047
# Poissons Ratio (y) = 0.52651 0.77681
# Poissons Ratio (z) = 0.43024 0.22812
#
# Static dielectric constant tensor:
#      x y z
#    x 1.697710 0.000000 -0.003400 
#    y 0.000000 1.664870 0.000000 
#    z -0.003400 0.000000 1.699880 
# 
# From -- ./inp_files/238930.got.cif
#   From: 2010.05.17/outbox.cif.g08.bks.cpg/sg12_120_cif.got.tgz:238930.got - 2010.06.03 13:09:07.
