data_PCOD9182038
_publ_section_title
;
Structure prediction by ZEFSAII (Michael W. Deem and Ramdas Pophale) SiO2 
 PCOD9182038
Probable space group: C 2/M
;
_chemical_formula_sum "Si O2"
_cell_formula_units_Z 48
_cell_length_a 16.456347
_cell_length_b 7.940882
_cell_length_c 14.862755
_cell_angle_alpha 90.000000
_cell_angle_beta 79.279885
_cell_angle_gamma 90.000000
_cell_volume 1908.337025
_symmetry_space_group_name_H-M "C 2/M"
_symmetry_group_IT_number 12
_symmetry_cell_setting 'monoclinic'
loop_
_space_group_symop_operation_xyz
x,y,z
-x,y,-z
-x,-y,-z
x,-y,z
1/2+x,1/2+y,z
1/2-x,1/2+y,-z
1/2-x,1/2-y,-z
1/2+x,1/2-y,z
loop_
_atom_site_type_symbol
_atom_site_label
_atom_site_fract_x
_atom_site_fract_y
_atom_site_fract_z
Si Si1 0.413284 0.196667 0.612467
Si Si2 0.342322 0.797151 0.447742
Si Si3 0.664004 0.689927 0.059083
Si Si4 0.527873 0.700376 0.214334
Si Si5 0.768094 0.295082 0.284473
Si Si6 0.113682 0.303498 0.890379
O O1 0.405061 0.266326 0.511862
O O2 0.470549 0.268954 0.679245
O O3 0.319785 0.220791 0.669741
O O4 0.433460 0.000000 0.602062
O O5 0.250000 0.750000 0.500000
O O6 0.336097 0.741589 0.345668
O O7 0.350391 0.000000 0.445962
O O8 0.679273 0.500000 0.084004
O O9 0.613845 0.767793 0.152312
O O10 0.750000 0.750000 0.000000
O O11 0.604048 0.703516 0.984439
O O12 0.522838 0.500000 0.200942
O O13 0.457440 0.783285 0.168637
O O14 0.760987 0.500000 0.288952
O O15 0.803516 0.248840 0.180242
O O16 0.119791 0.500000 0.913592
#
# Coordination Sequence:
#
# PCOD9182038 Si02
#       6
#     8   8   8   8   8   8
#     4  10  19  32  55  84 109 140 184 227 266 313
#     4   8  15  29  50  77 108 140 176 220 267 314
#     4  11  24  41  61  84 109 140 178 220 268 320
#     4  11  24  40  56  77 110 148 180 217 270 324
#     4   9  18  34  55  80 111 144 178 220 271 322
#     4  11  23  38  58  83 110 143 181 221 268 320
#
# _framework density 25.152791000000001
#
# number of rings (size 3 to 8) (size 9 to 14) (size 15 to 20)
#    0.000    2.000    0.000    3.500    0.000   10.667 
#    0.000    0.833    0.000    5.000    0.000    0.000 
#    0.000    0.000    0.000    0.000    0.000    0.000 
#
# Total GULP energy -134138.982192 kJ/mol
# GULP energy per Si atom -5589.124258 kJ/mol
# Density = 2.509554 g / cm^3
# Si number density = 25.152791 Si / 1000 Ang^3
#
#
#
# Elastic Constant Matrix: (Units=GPa)
#
#
# Indices 1 2 3 4 5 6 
#
# 1 95.4543 -4.3048 14.2755 0.0000 18.2640 0.0000
# 2 -4.3048 26.3740 -6.5829 0.0000 -2.2212 0.0000
# 3 14.2755 -6.5829 152.8867 0.0000 19.1087 0.0000
# 4 0.0000 0.0000 0.0000 20.3588 0.0000 12.8242
# 5 18.2640 -2.2212 19.1087 0.0000 49.6934 0.0000
# 6 0.0000 0.0000 0.0000 12.8242 0.0000 23.2980
#
#
#
# Elastic Compliance Matrix: (Units=1/GPa)
#
#
# Indices 1 2 3 4 5 6 
#
# 1 0.011365 0.001397 -0.000511 0.000000 -0.003918 0.000000
# 2 0.001397 0.038561 0.001448 0.000000 0.000653 0.000000
# 3 -0.000511 0.001448 0.006954 0.000000 -0.002421 0.000000
# 4 0.000000 0.000000 0.000000 0.075189 0.000000 -0.041387
# 5 -0.003918 0.000653 -0.002421 0.000000 0.022524 0.000000
# 6 0.000000 0.000000 0.000000 -0.041387 0.000000 0.065704
#
#
# Mechanical properties :
#
#
# Convention : Reuss Voigt Hill
#
# Bulk Modulus (GPa) = 16.24739 31.27673 23.76206
# Shear Modulus (GPa) = 21.17357 36.75853 28.96605
#
# Velocity S-wave (km/s) = 2.90452 3.82699 3.39721
# Velocity P-wave (km/s) = 4.20973 5.65592 4.98554
#
# Compressibility (1/GPa) = 0.06154834
#
# Stress axis : x y z
#
# Youngs Moduli (GPa) = 87.98642 25.93310 143.81242
#
# Poissons Ratio (x) = -0.03624 0.07354
# Poissons Ratio (y) = -0.12296 -0.20827
# Poissons Ratio (z) = 0.04499 -0.03756
#
# Static dielectric constant tensor:
#      x y z
#    x 2.044340 0.000000 0.000420 
#    y 0.000000 1.898270 0.000000 
#    z 0.000420 0.000000 1.983620 
# 
# From -- ./inp_files/221583.got.cif
#   From: 2010.05.17/outbox.cif.g08.bks.cpg/sg12_111_cif.got.tgz:221583.got - 2010.06.03 13:09:07.
