data_PCOD9182055
_publ_section_title
;
Structure prediction by ZEFSAII (Michael W. Deem and Ramdas Pophale) SiO2 
 PCOD9182055
Probable space group: C 2/M
;
_chemical_formula_sum "Si O2"
_cell_formula_units_Z 58
_cell_length_a 21.586947
_cell_length_b 7.695263
_cell_length_c 25.998813
_cell_angle_alpha 90.000000
_cell_angle_beta 138.047495
_cell_angle_gamma 90.000000
_cell_volume 2887.213818
_symmetry_space_group_name_H-M "C 2/M"
_symmetry_group_IT_number 12
_symmetry_cell_setting 'monoclinic'
loop_
_space_group_symop_operation_xyz
x,y,z
-x,y,-z
-x,-y,-z
x,-y,z
1/2+x,1/2+y,z
1/2-x,1/2+y,-z
1/2-x,1/2-y,-z
1/2+x,1/2-y,z
loop_
_atom_site_type_symbol
_atom_site_label
_atom_site_fract_x
_atom_site_fract_y
_atom_site_fract_z
Si Si1 0.443678 0.295492 0.811622
Si Si2 0.079057 0.799310 0.486875
Si Si3 0.093868 0.297117 0.380171
Si Si4 0.500000 0.000000 0.500000
Si Si5 0.282690 0.790830 0.638798
Si Si6 0.734768 0.790906 0.050479
Si Si7 0.960155 0.296630 0.028030
Si Si8 0.431420 0.711063 0.207013
O O1 0.458486 0.500000 0.826422
O O2 0.343133 0.265059 0.724894
O O3 0.466450 0.214444 0.880363
O O4 0.515915 0.230973 0.812708
O O5 0.096901 0.793059 0.436829
O O6 0.175895 0.739028 0.572997
O O7 0.006277 0.655844 0.459680
O O8 0.058993 0.000000 0.487891
O O9 0.114715 0.500000 0.401068
O O10 0.165111 0.227274 0.380770
O O11 0.992902 0.277646 0.291931
O O12 0.285011 0.000000 0.638211
O O13 0.825349 0.731449 0.137696
O O14 0.733132 0.000000 0.052857
O O15 0.750000 0.750000 0.000000
O O16 0.637182 0.721763 0.011375
O O17 0.941725 0.500000 0.006366
O O18 0.000000 0.219279 0.000000
O O19 0.434659 0.500000 0.210343
#
# Coordination Sequence:
#
# PCOD9182055 Si02
#       8
#     8   8   8   2   8   8   8   8
#     4  10  19  32  55  84 116 150 188 243 300 358
#     4  11  23  42  65  91 122 166 209 253 304 358
#     4  10  19  35  60  93 127 154 193 255 314 364
#     4  12  26  44  64  86 124 168 220 246 282 378
#     4   9  20  36  61  93 123 154 196 247 310 369
#     4  10  19  33  55  79 108 147 196 247 298 358
#     4  10  21  36  54  77 111 153 194 241 301 362
#     4   9  18  32  51  83 116 149 191 241 305 367
#
# _framework density 20.088571999999999
#
# number of rings (size 3 to 8) (size 9 to 14) (size 15 to 20)
#    0.000    2.069    2.069    1.448    0.966    1.931 
#    0.000    1.379    0.000    4.966    0.000    0.000 
#    0.000    0.000    0.000    0.000    0.000    0.000 
#
# Total GULP energy -161617.783423 kJ/mol
# GULP energy per Si atom -5573.027015 kJ/mol
# Density = 2.004285 g / cm^3
# Si number density = 20.088572 Si / 1000 Ang^3
#
#
#
# Elastic Constant Matrix: (Units=GPa)
#
#
# Indices 1 2 3 4 5 6 
#
# 1 83.2703 11.3562 43.3424 0.0000 -9.4768 0.0000
# 2 11.3562 64.3224 1.1211 0.0000 1.4368 0.0000
# 3 43.3424 1.1211 84.9679 0.0000 -0.6324 0.0000
# 4 0.0000 0.0000 0.0000 21.5275 0.0000 -4.3012
# 5 -9.4768 1.4368 -0.6324 0.0000 16.1480 0.0000
# 6 0.0000 0.0000 0.0000 -4.3012 0.0000 8.7164
#
#
#
# Elastic Compliance Matrix: (Units=1/GPa)
#
#
# Indices 1 2 3 4 5 6 
#
# 1 0.018562 -0.003356 -0.009344 0.000000 0.010827 0.000000
# 2 -0.003356 0.016188 0.001473 0.000000 -0.003352 0.000000
# 3 -0.009344 0.001473 0.016479 0.000000 -0.004969 0.000000
# 4 0.000000 0.000000 0.000000 0.051533 0.000000 0.025429
# 5 0.010827 -0.003352 -0.004969 0.000000 0.068385 0.000000
# 6 0.000000 0.000000 0.000000 0.025429 0.000000 0.127274
#
#
# Mechanical properties :
#
#
# Convention : Reuss Voigt Hill
#
# Bulk Modulus (GPa) = 34.75039 38.24446 36.49743
# Shear Modulus (GPa) = 15.13008 21.06110 18.09559
#
# Velocity S-wave (km/s) = 2.74737 3.24143 3.00457
# Velocity P-wave (km/s) = 5.23452 5.75225 5.49948
#
# Compressibility (1/GPa) = 0.02877666
#
# Stress axis : x y z
#
# Youngs Moduli (GPa) = 53.87209 61.77249 60.68294
#
# Poissons Ratio (x) = 0.20732 0.56702
# Poissons Ratio (y) = 0.18081 -0.08941
# Poissons Ratio (z) = 0.50338 -0.09102
#
# Static dielectric constant tensor:
#      x y z
#    x 1.738440 0.000000 0.029490 
#    y 0.000000 1.726620 0.000000 
#    z 0.029490 0.000000 1.705890 
# 
# From -- ./inp_files/346572.got.cif
#   From: 2010.05.17/outbox.cif.g08.bks.cpg/sg12_174_cif.got.tgz:346572.got - 2010.06.03 13:09:07.
