data_PCOD9182444
_publ_section_title
;
Structure prediction by ZEFSAII (Michael W. Deem and Ramdas Pophale) SiO2 
 PCOD9182444
Probable space group: C 2/M
;
_chemical_formula_sum "Si O2"
_cell_formula_units_Z 64
_cell_length_a 13.607381
_cell_length_b 10.798429
_cell_length_c 26.632075
_cell_angle_alpha 90.000000
_cell_angle_beta 67.642374
_cell_angle_gamma 90.000000
_cell_volume 3619.102746
_symmetry_space_group_name_H-M "C 2/M"
_symmetry_group_IT_number 12
_symmetry_cell_setting 'monoclinic'
loop_
_space_group_symop_operation_xyz
x,y,z
-x,y,-z
-x,-y,-z
x,-y,z
1/2+x,1/2+y,z
1/2-x,1/2+y,-z
1/2-x,1/2-y,-z
1/2+x,1/2-y,z
loop_
_atom_site_type_symbol
_atom_site_label
_atom_site_fract_x
_atom_site_fract_y
_atom_site_fract_z
Si Si1 0.514941 0.860983 0.375525
Si Si2 0.441921 0.142969 0.750506
Si Si3 0.288442 0.356202 0.161134
Si Si4 0.899716 0.639892 0.986624
Si Si5 0.491422 0.357912 0.187306
Si Si6 0.195408 0.793200 0.086744
Si Si7 0.429628 0.360432 0.563631
Si Si8 0.775118 0.365674 0.460146
O O1 0.529791 0.844722 0.313324
O O2 0.561730 0.746937 0.397480
O O3 0.391705 0.859010 0.414822
O O4 0.556196 0.000000 0.380650
O O5 0.314994 0.155994 0.783226
O O6 0.494999 0.251779 0.773109
O O7 0.468944 0.000000 0.761020
O O8 0.302895 0.500000 0.146071
O O9 0.395231 0.317918 0.169189
O O10 0.256807 0.288486 0.116224
O O11 0.928528 0.500000 0.965975
O O12 0.867973 0.717315 0.943785
O O13 0.791544 0.637450 0.040378
O O14 0.000000 0.688526 0.000000
O O15 0.469480 0.500000 0.209314
O O16 0.602450 0.361290 0.135259
O O17 0.500000 0.332588 0.500000
O O18 0.460856 0.500000 0.574563
O O19 0.309923 0.364490 0.567559
O O20 0.763733 0.500000 0.488905
O O21 0.750000 0.250000 0.500000
#
# Coordination Sequence:
#
# PCOD9182444 Si02
#       8
#     8   8   8   8   8   8   8   8
#     4  10  21  36  55  78 106 138 175 216 257 311
#     4   9  20  38  55  76 106 138 171 213 266 320
#     4   9  18  34  55  75 101 137 176 215 264 322
#     4  10  20  32  48  73 106 141 178 216 259 309
#     4  10  20  35  56  80 103 132 176 223 264 309
#     4  10  19  33  51  74 105 139 175 219 263 307
#     4  10  20  34  52  76 106 138 172 212 258 307
#     4  10  20  34  52  75 104 137 172 211 255 305
#
# _framework density 17.683941999999998
#
# number of rings (size 3 to 8) (size 9 to 14) (size 15 to 20)
#    0.000    2.250    1.250    1.500    0.000    2.750 
#    0.000    3.125    0.000    6.000    0.000    0.000 
#    0.000    0.000    0.000    0.000    0.000    0.000 
#
# Total GULP energy -178219.226233 kJ/mol
# GULP energy per Si atom -5569.350820 kJ/mol
# Density = 1.764369 g / cm^3
# Si number density = 17.683942 Si / 1000 Ang^3
#
#
#
# Elastic Constant Matrix: (Units=GPa)
#
#
# Indices 1 2 3 4 5 6 
#
# 1 95.8807 55.5463 16.4659 0.0000 18.5380 0.0000
# 2 55.5463 126.6482 66.1305 0.0000 21.8879 0.0000
# 3 16.4659 66.1305 76.3676 0.0000 11.3536 0.0000
# 4 0.0000 0.0000 0.0000 -150.4281 0.0000 5.1664
# 5 18.5380 21.8879 11.3536 0.0000 16.4097 0.0000
# 6 0.0000 0.0000 0.0000 5.1664 0.0000 19.2911
#
#
#
# Elastic Compliance Matrix: (Units=1/GPa)
#
#
# Indices 1 2 3 4 5 6 
#
# 1 0.016269 -0.007685 0.004855 0.000000 -0.011487 0.000000
# 2 -0.007685 0.020434 -0.014799 0.000000 -0.008335 0.000000
# 3 0.004855 -0.014799 0.025351 0.000000 -0.003285 0.000000
# 4 0.000000 0.000000 0.000000 -0.006587 0.000000 0.001764
# 5 -0.011487 -0.008335 -0.003285 0.000000 0.087308 0.000000
# 6 0.000000 0.000000 0.000000 0.001764 0.000000 0.051365
#
#
# Mechanical properties :
#
#
# Convention : Reuss Voigt Hill
#
# Bulk Modulus (GPa) = 37.31817 63.90909 50.61363
# Shear Modulus (GPa) = 20.97920 -12.22855 4.37532
#
# Velocity S-wave (km/s) = 3.44807 -2.63250 1.57466
# Velocity P-wave (km/s) = 6.08284 5.19403 5.65592
#
# Compressibility (1/GPa) = 0.02679660
#
# Stress axis : x y z
#
# Youngs Moduli (GPa) = 61.46602 48.93695 39.44565
#
# Poissons Ratio (x) = 0.37609 -0.19151
# Poissons Ratio (y) = 0.47238 0.58375
# Poissons Ratio (z) = -0.29842 0.72422
#
# Static dielectric constant tensor:
#      x y z
#    x 1.593940 0.000000 -0.011050 
#    y 0.000000 1.634070 0.000000 
#    z -0.011050 0.000000 1.580480 
# 
# From -- ./inp_files/335632.got.cif
#   From: 2010.05.17/outbox.cif.g08.bks.cpg/sg12_168_cif.got.tgz:335632.got - 2010.06.03 13:09:07.
