data_PCOD9182841
_publ_section_title
;
Structure prediction by ZEFSAII (Michael W. Deem and Ramdas Pophale) SiO2 
 PCOD9182841
Probable space group: C 2/M
;
_chemical_formula_sum "Si O2"
_cell_formula_units_Z 56
_cell_length_a 21.045224
_cell_length_b 7.530443
_cell_length_c 31.430771
_cell_angle_alpha 90.000000
_cell_angle_beta 146.698635
_cell_angle_gamma 90.000000
_cell_volume 2734.860999
_symmetry_space_group_name_H-M "C 2/M"
_symmetry_group_IT_number 12
_symmetry_cell_setting 'monoclinic'
loop_
_space_group_symop_operation_xyz
x,y,z
-x,y,-z
-x,-y,-z
x,-y,z
1/2+x,1/2+y,z
1/2-x,1/2+y,-z
1/2-x,1/2-y,-z
1/2+x,1/2-y,z
loop_
_atom_site_type_symbol
_atom_site_label
_atom_site_fract_x
_atom_site_fract_y
_atom_site_fract_z
Si Si1 0.187963 0.215491 0.740645
Si Si2 0.942761 0.789916 0.011183
Si Si3 0.691820 0.713873 0.841033
Si Si4 0.929086 0.207360 0.834573
Si Si5 0.954764 0.217847 0.753540
Si Si6 0.430559 0.288658 0.584270
Si Si7 0.210457 0.786681 0.412051
O O1 0.201174 0.273685 0.797252
O O2 0.295421 0.280277 0.773326
O O3 0.061647 0.276293 0.654156
O O4 0.191809 0.000000 0.742090
O O5 0.805797 0.767794 0.930375
O O6 0.970123 0.000000 0.026729
O O7 0.000000 0.714935 0.000000
O O8 0.997256 0.714768 0.084941
O O9 0.688189 0.500000 0.837805
O O10 0.573168 0.773031 0.796570
O O11 0.948372 0.282107 0.798345
O O12 0.961880 0.000000 0.849799
O O13 0.847180 0.274885 0.663893
O O14 0.953492 0.000000 0.753288
O O15 0.439702 0.500000 0.595171
O O16 0.342988 0.257177 0.496540
O O17 0.366434 0.218957 0.590981
O O18 0.202273 0.000000 0.407977
#
# Coordination Sequence:
#
# PCOD9182841 Si02
#       7
#     8   8   8   8   8   8   8
#     4  10  19  33  53  77 103 132 169 211 252 299
#     4  10  20  34  50  75 108 135 164 209 260 301
#     4  10  19  33  56  78  98 131 174 213 249 298
#     4  10  21  36  54  73 102 140 171 205 254 307
#     4   9  18  35  55  76 102 135 172 209 252 299
#     4   9  17  30  50  77 104 129 162 208 257 296
#     4   9  16  30  52  76 101 129 166 210 249 294
#
# _framework density 20.476362000000002
#
# number of rings (size 3 to 8) (size 9 to 14) (size 15 to 20)
#    0.000    2.429    2.857    0.000    0.000    2.000 
#    0.000    2.857    0.000    4.286    0.000    0.000 
#    0.000    0.000    0.000    0.000    0.000    0.000 
#
# Total GULP energy -156279.324349 kJ/mol
# GULP energy per Si atom -5581.404441 kJ/mol
# Density = 2.042976 g / cm^3
# Si number density = 20.476362 Si / 1000 Ang^3
#
#
#
# Elastic Constant Matrix: (Units=GPa)
#
#
# Indices 1 2 3 4 5 6 
#
# 1 73.1033 -9.9830 25.3253 0.0007 -17.0617 -0.0006
# 2 -9.9830 46.9349 -12.8744 0.0018 -9.1063 -0.0022
# 3 25.3253 -12.8744 131.3545 -0.0006 -5.6514 0.0011
# 4 0.0007 0.0018 -0.0006 18.8438 -0.0004 10.1108
# 5 -17.0617 -9.1063 -5.6514 -0.0004 29.8117 0.0005
# 6 -0.0006 -0.0022 0.0011 10.1108 0.0005 8.8341
#
#
#
# Elastic Compliance Matrix: (Units=1/GPa)
#
#
# Indices 1 2 3 4 5 6 
#
# 1 0.017925 0.005362 -0.002438 -0.000006 0.011435 0.000009
# 2 0.005362 0.025124 0.001906 -0.000014 0.011105 0.000022
# 3 -0.002438 0.001906 0.008303 0.000002 0.000761 -0.000003
# 4 -0.000006 -0.000014 0.000002 0.137516 -0.000003 -0.157390
# 5 0.011435 0.011105 0.000761 -0.000003 0.043624 0.000004
# 6 0.000009 0.000022 -0.000003 -0.157390 0.000004 0.293333
#
#
# Mechanical properties :
#
#
# Convention : Reuss Voigt Hill
#
# Bulk Modulus (GPa) = 16.39012 28.48095 22.43554
# Shear Modulus (GPa) = 9.31962 28.09291 18.70627
#
# Velocity S-wave (km/s) = 2.13572 3.70803 3.02578
# Velocity P-wave (km/s) = 3.75546 5.68084 4.81537
#
# Compressibility (1/GPa) = 0.06101236
#
# Stress axis : x y z
#
# Youngs Moduli (GPa) = 55.78793 39.80236 120.44275
#
# Poissons Ratio (x) = -0.21343 0.29369
# Poissons Ratio (y) = -0.29915 -0.22961
# Poissons Ratio (z) = 0.13604 -0.07588
#
# Static dielectric constant tensor:
#      x y z
#    x 1.695710 0.000000 -0.013420 
#    y 0.000000 1.808880 0.000000 
#    z -0.013420 0.000000 1.731960 
# 
# From -- ./inp_files/275680.got.cif
#   From: 2010.05.17/outbox.cif.g08.bks.cpg/sg12_138_cif.got.tgz:275680.got - 2010.06.03 13:09:07.
