data_PCOD9182106
_publ_section_title
;
Structure prediction by ZEFSAII (Michael W. Deem and Ramdas Pophale) SiO2 
 PCOD9182106
Probable space group: C 2/M
;
_chemical_formula_sum "Si O2"
_cell_formula_units_Z 50
_cell_length_a 26.439306
_cell_length_b 7.776750
_cell_length_c 13.883374
_cell_angle_alpha 90.000000
_cell_angle_beta 128.620267
_cell_angle_gamma 90.000000
_cell_volume 2230.287718
_symmetry_space_group_name_H-M "C 2/M"
_symmetry_group_IT_number 12
_symmetry_cell_setting 'monoclinic'
loop_
_space_group_symop_operation_xyz
x,y,z
-x,y,-z
-x,-y,-z
x,-y,z
1/2+x,1/2+y,z
1/2-x,1/2+y,-z
1/2-x,1/2-y,-z
1/2+x,1/2-y,z
loop_
_atom_site_type_symbol
_atom_site_label
_atom_site_fract_x
_atom_site_fract_y
_atom_site_fract_z
Si Si1 0.840588 0.208704 0.633995
Si Si2 0.421253 0.692799 0.290123
Si Si3 0.722137 0.193449 0.835937
Si Si4 0.428423 0.292567 0.904085
Si Si5 0.500000 0.000000 0.500000
Si Si6 0.867642 0.700218 0.033355
Si Si7 0.280804 0.300531 0.379574
O O1 0.901532 0.261094 0.768671
O O2 0.781367 0.283953 0.625441
O O3 0.837579 0.260614 0.518933
O O4 0.834009 0.000000 0.626606
O O5 0.444638 0.500000 0.341696
O O6 0.344645 0.707482 0.225746
O O7 0.460403 0.845377 0.390185
O O8 0.415466 0.711243 0.166797
O O9 0.728626 0.196194 0.727719
O O10 0.712376 0.000000 0.858713
O O11 0.791549 0.256256 0.957153
O O12 0.429473 0.500000 0.905360
O O13 0.500000 0.224020 0.000000
O O14 0.385311 0.241720 0.944026
O O15 0.875867 0.500000 0.057842
O O16 0.289853 0.500000 0.363742
#
# Coordination Sequence:
#
# PCOD9182106 Si02
#       7
#     8   8   8   8   2   8   8
#     4   9  18  34  54  81 122 170 217 273 336 405
#     4  12  26  49  77 106 142 188 232 289 353 420
#     4  12  23  41  67 104 142 179 238 296 358 419
#     4  10  21  39  61  91 130 179 232 282 349 424
#     4  12  26  56  72 106 146 184 232 282 340 442
#     4  12  24  43  69 103 140 179 237 300 359 421
#     4  10  19  32  55  89 125 167 217 274 346 404
#
# _framework density 22.418633
#
# number of rings (size 3 to 8) (size 9 to 14) (size 15 to 20)
#    0.000    1.120    3.200    4.080    0.000    0.960 
#    2.880    0.000    0.000    0.000    0.000    0.000 
#    0.000    0.000    0.000    0.000    0.000    0.000 
#
# Total GULP energy -139377.224531 kJ/mol
# GULP energy per Si atom -5575.088981 kJ/mol
# Density = 2.236761 g / cm^3
# Si number density = 22.418633 Si / 1000 Ang^3
#
#
#
# Elastic Constant Matrix: (Units=GPa)
#
#
# Indices 1 2 3 4 5 6 
#
# 1 20.9258 -5.6886 15.2908 0.0000 -0.7267 0.0000
# 2 -5.6886 123.5968 49.3385 0.0000 0.8948 0.0000
# 3 15.2908 49.3385 175.2386 0.0000 3.0072 0.0000
# 4 0.0000 0.0000 0.0000 30.5248 0.0000 -1.2275
# 5 -0.7267 0.8948 3.0072 0.0000 24.0226 0.0000
# 6 0.0000 0.0000 0.0000 -1.2275 0.0000 20.4973
#
#
#
# Elastic Compliance Matrix: (Units=1/GPa)
#
#
# Indices 1 2 3 4 5 6 
#
# 1 0.053646 0.004886 -0.006094 0.000000 0.002204 0.000000
# 2 0.004886 0.009560 -0.003121 0.000000 0.000182 0.000000
# 3 -0.006094 -0.003121 0.007134 0.000000 -0.000961 0.000000
# 4 0.000000 0.000000 0.000000 0.032839 0.000000 0.001967
# 5 0.002204 0.000182 -0.000961 0.000000 0.041808 0.000000
# 6 0.000000 0.000000 0.000000 0.001967 0.000000 0.048905
#
#
# Mechanical properties :
#
#
# Convention : Reuss Voigt Hill
#
# Bulk Modulus (GPa) = 16.21254 48.62694 32.41974
# Shear Modulus (GPa) = 22.41036 32.39698 27.40367
#
# Velocity S-wave (km/s) = 3.16512 3.80556 3.50002
# Velocity P-wave (km/s) = 4.53925 6.40681 5.55212
#
# Compressibility (1/GPa) = 0.06168064
#
# Stress axis : x y z
#
# Youngs Moduli (GPa) = 18.64069 104.59894 140.18267
#
# Poissons Ratio (x) = -0.51107 0.85434
# Poissons Ratio (y) = -0.09108 0.43754
# Poissons Ratio (z) = 0.11360 0.32647
#
# Static dielectric constant tensor:
#      x y z
#    x 1.874250 0.000000 -0.030720 
#    y 0.000000 1.816630 0.000000 
#    z -0.030720 0.000000 1.932210 
# 
# From -- ./inp_files/244419.got.cif
#   From: 2010.05.17/outbox.cif.g08.bks.cpg/sg12_123_cif.got.tgz:244419.got - 2010.06.03 13:09:07.
