data_PCOD9182985
_publ_section_title
;
Structure prediction by ZEFSAII (Michael W. Deem and Ramdas Pophale) SiO2 
 PCOD9182985
Probable space group: C 2/M
;
_chemical_formula_sum "Si O2"
_cell_formula_units_Z 64
_cell_length_a 23.223569
_cell_length_b 7.799928
_cell_length_c 26.739578
_cell_angle_alpha 90.000000
_cell_angle_beta 144.853804
_cell_angle_gamma 90.000000
_cell_volume 2788.327085
_symmetry_space_group_name_H-M "C 2/M"
_symmetry_group_IT_number 12
_symmetry_cell_setting 'monoclinic'
loop_
_space_group_symop_operation_xyz
x,y,z
-x,y,-z
-x,-y,-z
x,-y,z
1/2+x,1/2+y,z
1/2-x,1/2+y,-z
1/2-x,1/2-y,-z
1/2+x,1/2-y,z
loop_
_atom_site_type_symbol
_atom_site_label
_atom_site_fract_x
_atom_site_fract_y
_atom_site_fract_z
Si Si1 0.463780 0.706901 0.282369
Si Si2 0.980856 0.789820 0.789531
Si Si3 0.396048 0.700046 0.450691
Si Si4 0.305881 0.699340 0.726299
Si Si5 0.742945 0.299412 0.143252
Si Si6 0.579973 0.806850 0.097144
Si Si7 0.165444 0.794712 0.482143
Si Si8 0.167843 0.205484 0.982541
O O1 0.454969 0.500000 0.276156
O O2 0.482116 0.763311 0.238427
O O3 0.361075 0.781523 0.229360
O O4 0.560249 0.754047 0.382326
O O5 0.869935 0.731688 0.724788
O O6 0.062341 0.729425 0.887548
O O7 0.978845 0.000000 0.788727
O O8 0.500000 0.771028 0.500000
O O9 0.418020 0.500000 0.476261
O O10 0.301670 0.713081 0.345834
O O11 0.349845 0.770393 0.470922
O O12 0.283580 0.500000 0.703985
O O13 0.386533 0.714127 0.828523
O O14 0.716030 0.500000 0.130275
O O15 0.684427 0.193155 0.142281
O O16 0.704099 0.234463 0.061981
O O17 0.545958 0.000000 0.084654
O O18 0.500000 0.732518 0.000000
O O19 0.250000 0.750000 0.500000
O O20 0.173576 0.000000 0.491751
O O21 0.160871 0.000000 0.980843
O O22 0.250000 0.250000 0.000000
#
# Coordination Sequence:
#
# PCOD9182985 Si02
#       8
#     8   8   8   8   8   8   8   8
#     4  10  20  36  60  88 120 163 207 247 308 379
#     4   9  18  34  57  85 121 160 200 249 307 367
#     4  10  23  43  65  93 131 173 217 265 326 393
#     4  11  23  41  67  96 126 163 210 264 316 370
#     4  11  23  37  57  89 124 159 204 258 311 362
#     4  11  25  44  65  90 123 167 212 254 309 379
#     4  10  22  40  64  93 125 166 212 267 325 383
#     4  10  19  33  53  81 118 159 200 244 298 358
#
# _framework density 22.952831
#
# number of rings (size 3 to 8) (size 9 to 14) (size 15 to 20)
#    0.000    1.750    1.250    2.625    1.750    4.750 
#    0.000    2.500    0.000    0.000    0.000    0.000 
#    0.000    0.000    0.000    0.000    0.000    0.000 
#
# Total GULP energy -178599.468463 kJ/mol
# GULP energy per Si atom -5581.233389 kJ/mol
# Density = 2.290059 g / cm^3
# Si number density = 22.952831 Si / 1000 Ang^3
#
#
#
# Elastic Constant Matrix: (Units=GPa)
#
#
# Indices 1 2 3 4 5 6 
#
# 1 119.8322 9.1265 42.7870 -0.0001 22.8089 -0.0001
# 2 9.1265 36.6884 9.2953 -0.0004 0.3079 -0.0011
# 3 42.7870 9.2953 125.2743 -0.0001 20.9719 0.0000
# 4 -0.0001 -0.0004 -0.0001 13.5434 0.0000 -0.9268
# 5 22.8089 0.3079 20.9719 0.0000 36.7947 0.0000
# 6 -0.0001 -0.0011 0.0000 -0.9268 0.0000 16.1215
#
#
#
# Elastic Compliance Matrix: (Units=1/GPa)
#
#
# Indices 1 2 3 4 5 6 
#
# 1 0.010344 -0.001881 -0.002568 0.000000 -0.004933 0.000000
# 2 -0.001881 0.028157 -0.001772 0.000001 0.001940 0.000002
# 3 -0.002568 -0.001772 0.009642 0.000000 -0.003889 0.000000
# 4 0.000000 0.000001 0.000000 0.074128 0.000000 0.004261
# 5 -0.004933 0.001940 -0.003889 0.000000 0.032436 0.000000
# 6 0.000000 0.000002 0.000000 0.004261 0.000000 0.062274
#
#
# Mechanical properties :
#
#
# Convention : Reuss Voigt Hill
#
# Bulk Modulus (GPa) = 28.00931 44.91252 36.46092
# Shear Modulus (GPa) = 20.71912 27.99766 24.35839
#
# Velocity S-wave (km/s) = 3.00773 3.49634 3.26120
# Velocity P-wave (km/s) = 4.92863 5.99241 5.48636
#
# Compressibility (1/GPa) = 0.03570241
#
# Stress axis : x y z
#
# Youngs Moduli (GPa) = 96.67440 35.51500 103.71350
#
# Poissons Ratio (x) = 0.06681 0.26629
# Poissons Ratio (y) = 0.18187 0.18373
# Poissons Ratio (z) = 0.24822 0.06292
#
# Static dielectric constant tensor:
#      x y z
#    x 1.925700 0.000000 -0.054470 
#    y 0.000000 1.848490 0.000000 
#    z -0.054470 0.000000 1.877340 
# 
# From -- ./inp_files/382540.got.cif
#   From: 2010.05.17/outbox.cif.g08.bks.cpg/sg12_192_cif.got.tgz:382540.got - 2010.06.03 13:09:07.
