data_PCOD9182642
_publ_section_title
;
Structure prediction by ZEFSAII (Michael W. Deem and Ramdas Pophale) SiO2 
 PCOD9182642
Probable space group: C 2/M
;
_chemical_formula_sum "Si O2"
_cell_formula_units_Z 58
_cell_length_a 20.571815
_cell_length_b 17.062057
_cell_length_c 9.890409
_cell_angle_alpha 90.000000
_cell_angle_beta 68.617883
_cell_angle_gamma 90.000000
_cell_volume 3232.563499
_symmetry_space_group_name_H-M "C 2/M"
_symmetry_group_IT_number 12
_symmetry_cell_setting 'monoclinic'
loop_
_space_group_symop_operation_xyz
x,y,z
-x,y,-z
-x,-y,-z
x,-y,z
1/2+x,1/2+y,z
1/2-x,1/2+y,-z
1/2-x,1/2-y,-z
1/2+x,1/2-y,z
loop_
_atom_site_type_symbol
_atom_site_label
_atom_site_fract_x
_atom_site_fract_y
_atom_site_fract_z
Si Si1 0.286431 0.593528 0.807618
Si Si2 0.442086 0.637037 0.358660
Si Si3 0.415281 0.693383 0.833429
Si Si4 0.094683 0.086290 0.913350
Si Si5 0.255744 0.087235 0.718857
Si Si6 0.284652 0.668946 0.519014
Si Si7 0.804703 0.318963 0.920858
Si Si8 0.500000 0.500000 0.500000
O O1 0.297271 0.500000 0.786333
O O2 0.357863 0.635279 0.806773
O O3 0.268570 0.635622 0.679481
O O4 0.223305 0.612326 0.959988
O O5 0.488654 0.690352 0.700644
O O6 0.432002 0.599150 0.217502
O O7 0.368507 0.677307 0.446178
O O8 0.456037 0.568212 0.452907
O O9 0.379280 0.777560 0.878964
O O10 0.427503 0.654344 0.969916
O O11 0.178537 0.088311 0.842928
O O12 0.074822 0.000000 0.980693
O O13 0.242280 0.108090 0.573687
O O14 0.297188 0.151384 0.773158
O O15 0.285141 0.000000 0.711057
O O16 0.250000 0.750000 0.500000
O O17 0.750000 0.250000 0.000000
#
# Coordination Sequence:
#
# PCOD9182642 Si02
#       8
#     8   8   8   8   8   8   8   2
#     4  11  22  35  57  86 117 156 193 246 304 349
#     4  11  25  36  54  79 120 157 195 229 297 354
#     4  11  22  34  56  81 118 151 196 237 295 354
#     4  10  19  33  52  78 108 150 188 223 270 340
#     4  10  19  35  56  81 111 145 194 239 279 342
#     4  11  24  39  58  82 117 156 199 239 293 359
#     4  10  19  35  56  81 111 153 196 247 287 337
#     4  12  24  40  50  88 132 160 194 238 288 394
#
# _framework density 17.942415
#
# number of rings (size 3 to 8) (size 9 to 14) (size 15 to 20)
#    0.000    1.379    3.448    4.138    7.724    0.552 
#    0.000    0.000    0.000    0.000    0.000    5.793 
#    0.000    0.000    0.000    0.000    0.000    0.000 
#
# Total GULP energy -161578.104859 kJ/mol
# GULP energy per Si atom -5571.658788 kJ/mol
# Density = 1.790158 g / cm^3
# Si number density = 17.942415 Si / 1000 Ang^3
#
#
#
# Elastic Constant Matrix: (Units=GPa)
#
#
# Indices 1 2 3 4 5 6 
#
# 1 96.7766 48.0623 34.0252 0.0000 -0.3615 0.0000
# 2 48.0623 71.9519 16.8910 0.0000 5.4814 0.0000
# 3 34.0252 16.8910 62.6733 0.0000 13.3966 0.0000
# 4 0.0000 0.0000 0.0000 21.4645 0.0000 10.2842
# 5 -0.3615 5.4814 13.3966 0.0000 28.0590 0.0000
# 6 0.0000 0.0000 0.0000 10.2842 0.0000 12.7338
#
#
#
# Elastic Compliance Matrix: (Units=1/GPa)
#
#
# Indices 1 2 3 4 5 6 
#
# 1 0.018924 -0.011102 -0.008684 0.000000 0.006559 0.000000
# 2 -0.011102 0.021381 0.001323 0.000000 -0.004952 0.000000
# 3 -0.008684 0.001323 0.022710 0.000000 -0.011213 0.000000
# 4 0.000000 0.000000 0.000000 0.075996 0.000000 -0.061376
# 5 0.006559 -0.004952 -0.011213 0.000000 0.042045 0.000000
# 6 0.000000 0.000000 0.000000 -0.061376 0.000000 0.128100
#
#
# Mechanical properties :
#
#
# Convention : Reuss Voigt Hill
#
# Bulk Modulus (GPa) = 38.32811 47.70654 43.01733
# Shear Modulus (GPa) = 14.09334 21.27969 17.68651
#
# Velocity S-wave (km/s) = 2.80567 3.44757 3.14305
# Velocity P-wave (km/s) = 5.64835 6.51875 6.09910
#
# Compressibility (1/GPa) = 0.02609051
#
# Stress axis : x y z
#
# Youngs Moduli (GPa) = 52.84205 46.77121 44.03272
#
# Poissons Ratio (x) = 0.51926 0.38237
# Poissons Ratio (y) = 0.58666 -0.05828
# Poissons Ratio (z) = 0.45887 -0.06190
#
# Static dielectric constant tensor:
#      x y z
#    x 1.626440 0.000000 -0.002430 
#    y 0.000000 1.620280 0.000000 
#    z -0.002430 0.000000 1.668980 
# 
# From -- ./inp_files/97681.got.cif
#   From: 2010.05.17/outbox.cif.g08.bks.cpg/sg12_49_cif.got.tgz:97681.got - 2010.06.03 13:09:07.
