data_PCOD9182228
_publ_section_title
;
Structure prediction by ZEFSAII (Michael W. Deem and Ramdas Pophale) SiO2 
 PCOD9182228
Probable space group: C 2/M
;
_chemical_formula_sum "Si O2"
_cell_formula_units_Z 56
_cell_length_a 27.901723
_cell_length_b 8.100416
_cell_length_c 13.123128
_cell_angle_alpha 90.000000
_cell_angle_beta 67.620676
_cell_angle_gamma 90.000000
_cell_volume 2742.640047
_symmetry_space_group_name_H-M "C 2/M"
_symmetry_group_IT_number 12
_symmetry_cell_setting 'monoclinic'
loop_
_space_group_symop_operation_xyz
x,y,z
-x,y,-z
-x,-y,-z
x,-y,z
1/2+x,1/2+y,z
1/2-x,1/2+y,-z
1/2-x,1/2-y,-z
1/2+x,1/2-y,z
loop_
_atom_site_type_symbol
_atom_site_label
_atom_site_fract_x
_atom_site_fract_y
_atom_site_fract_z
Si Si1 0.995604 0.298595 0.814249
Si Si2 0.387806 0.199452 0.231072
Si Si3 0.842992 0.803172 0.664715
Si Si4 0.195476 0.802932 0.090369
Si Si5 0.890946 0.300743 0.001414
Si Si6 0.191157 0.802705 0.528477
Si Si7 0.541141 0.800302 0.380946
O O1 0.996761 0.500000 0.816521
O O2 0.978580 0.249430 0.714424
O O3 0.053635 0.242435 0.791948
O O4 0.949458 0.245595 0.926979
O O5 0.374330 0.256197 0.127368
O O6 0.347176 0.248732 0.350257
O O7 0.388915 0.000000 0.228917
O O8 0.812754 0.736557 0.788183
O O9 0.827080 0.735878 0.567179
O O10 0.903125 0.771281 0.637902
O O11 0.834006 0.000000 0.668566
O O12 0.194366 0.000000 0.096519
O O13 0.250000 0.750000 0.000000
O O14 0.148648 0.749443 0.054769
O O15 0.891797 0.500000 0.002063
O O16 0.250000 0.750000 0.500000
O O17 0.189230 0.000000 0.526592
O O18 0.500000 0.752040 0.500000
O O19 0.545282 0.000000 0.377517
#
# Coordination Sequence:
#
# PCOD9182228 Si02
#       7
#     8   8   8   8   8   8   8
#     4   9  17  33  57  89 123 156 195 237 289 349
#     4  10  21  38  62  90 122 159 200 244 292 349
#     4  10  23  42  61  84 118 155 194 242 295 354
#     4  11  24  41  62  89 119 155 201 248 299 354
#     4  10  20  37  62  91 123 160 198 240 293 353
#     4  11  25  44  63  86 116 155 201 248 301 355
#     4  10  19  32  57  90 121 153 196 243 284 340
#
# _framework density 20.418282999999999
#
# number of rings (size 3 to 8) (size 9 to 14) (size 15 to 20)
#    0.000    1.857    1.429    2.143    2.000    5.429 
#    0.000    1.429    0.000    1.714    0.000    0.000 
#    0.000    0.000    0.000    0.000    0.000    0.000 
#
# Total GULP energy -156431.417672 kJ/mol
# GULP energy per Si atom -5586.836345 kJ/mol
# Density = 2.037181 g / cm^3
# Si number density = 20.418283 Si / 1000 Ang^3
#
#
#
# Elastic Constant Matrix: (Units=GPa)
#
#
# Indices 1 2 3 4 5 6 
#
# 1 76.7241 12.9542 69.6153 0.0000 -11.4488 0.0000
# 2 12.9542 15.5673 24.8158 0.0000 3.6013 0.0000
# 3 69.6153 24.8158 212.7593 0.0000 -5.8982 0.0000
# 4 0.0000 0.0000 0.0000 23.7702 0.0000 -1.4299
# 5 -11.4488 3.6013 -5.8982 0.0000 40.1513 0.0000
# 6 0.0000 0.0000 0.0000 -1.4299 0.0000 27.0004
#
#
#
# Elastic Compliance Matrix: (Units=1/GPa)
#
#
# Indices 1 2 3 4 5 6 
#
# 1 0.020461 -0.009810 -0.005387 0.000000 0.005923 0.000000
# 2 -0.009810 0.086585 -0.007211 0.000000 -0.011623 0.000000
# 3 -0.005387 -0.007211 0.007309 0.000000 0.000185 0.000000
# 4 0.000000 0.000000 0.000000 0.042204 0.000000 0.002235
# 5 0.005923 -0.011623 0.000185 0.000000 0.027664 0.000000
# 6 0.000000 0.000000 0.000000 0.002235 0.000000 0.037155
#
#
# Mechanical properties :
#
#
# Convention : Reuss Voigt Hill
#
# Bulk Modulus (GPa) = 14.38044 57.75795 36.06919
# Shear Modulus (GPa) = 17.27865 31.36208 24.32036
#
# Velocity S-wave (km/s) = 2.91217 3.92341 3.45499
# Velocity P-wave (km/s) = 4.28554 6.99092 5.79822
#
# Compressibility (1/GPa) = 0.06953889
#
# Stress axis : x y z
#
# Youngs Moduli (GPa) = 48.87246 11.54934 136.81983
#
# Poissons Ratio (x) = 0.11330 0.73699
# Poissons Ratio (y) = 0.47945 0.98666
# Poissons Ratio (z) = 0.26325 0.08329
#
# Static dielectric constant tensor:
#      x y z
#    x 1.785810 0.000000 -0.095100 
#    y 0.000000 1.738050 0.000000 
#    z -0.095100 0.000000 1.847510 
# 
# From -- ./inp_files/180821.got.cif
#   From: 2010.05.17/outbox.cif.g08.bks.cpg/sg12_91_cif.got.tgz:180821.got - 2010.06.03 13:09:07.
