data_PCOD9182328
_publ_section_title
;
Structure prediction by ZEFSAII (Michael W. Deem and Ramdas Pophale) SiO2 
 PCOD9182328
Probable space group: C 2/M
;
_chemical_formula_sum "Si O2"
_cell_formula_units_Z 64
_cell_length_a 8.336760
_cell_length_b 15.142323
_cell_length_c 27.117458
_cell_angle_alpha 90.000000
_cell_angle_beta 120.256370
_cell_angle_gamma 90.000000
_cell_volume 2956.934263
_symmetry_space_group_name_H-M "C 2/M"
_symmetry_group_IT_number 12
_symmetry_cell_setting 'monoclinic'
loop_
_space_group_symop_operation_xyz
x,y,z
-x,y,-z
-x,-y,-z
x,-y,z
1/2+x,1/2+y,z
1/2-x,1/2+y,-z
1/2-x,1/2-y,-z
1/2+x,1/2-y,z
loop_
_atom_site_type_symbol
_atom_site_label
_atom_site_fract_x
_atom_site_fract_y
_atom_site_fract_z
Si Si1 0.226112 0.098854 0.988384
Si Si2 0.253169 0.846390 0.883695
Si Si3 0.567356 0.093526 0.184832
Si Si4 0.118004 0.204660 0.223798
Si Si5 0.306828 0.649997 0.912416
Si Si6 0.594712 0.308697 0.618062
Si Si7 0.198761 0.689096 0.539270
Si Si8 0.513826 0.206700 0.300728
O O1 0.297984 0.122560 0.945586
O O2 0.003574 0.103596 0.946450
O O3 0.281911 0.000000 0.010908
O O4 0.264878 0.159545 0.041806
O O5 0.344317 0.904193 0.855908
O O6 0.326063 0.746316 0.892247
O O7 0.035524 0.838225 0.835111
O O8 0.625844 0.188985 0.215136
O O9 0.347630 0.099594 0.141930
O O10 0.617400 0.000000 0.216899
O O11 0.323413 0.165042 0.250734
O O12 0.053087 0.209131 0.270818
O O13 0.397662 0.358746 0.579865
O O14 0.648159 0.253150 0.577421
O O15 0.543833 0.242209 0.654599
O O16 0.795265 0.348317 0.664688
O O17 0.250000 0.750000 0.500000
O O18 0.000000 0.640630 0.500000
#
# Coordination Sequence:
#
# PCOD9182328 Si02
#       8
#     8   8   8   8   8   8   8   8
#     4  11  22  37  54  75 100 124 150 192 246 303
#     4  11  22  35  53  74  96 123 161 196 246 298
#     4  11  22  36  52  74  98 120 154 202 255 304
#     4  10  19  33  49  70  90 127 161 215 245 291
#     4  10  21  38  55  73  95 125 153 187 237 307
#     4   8  14  22  37  62  88 129 178 216 237 279
#     4   8  12  19  32  56  96 137 174 205 243 293
#     4   9  16  28  45  64  90 121 177 217 239 283
#
# _framework density 21.644037999999998
#
# number of rings (size 3 to 8) (size 9 to 14) (size 15 to 20)
#    0.000    2.250    1.250    3.750    1.750    1.500 
#    0.000    1.250    0.000    0.000    0.000    0.000 
#    0.000    0.000    0.000    0.000    0.000 1072.500 
#
# Total GULP energy -178227.938729 kJ/mol
# GULP energy per Si atom -5569.623085 kJ/mol
# Density = 2.159478 g / cm^3
# Si number density = 21.644038 Si / 1000 Ang^3
#
#
#
# Elastic Constant Matrix: (Units=GPa)
#
#
# Indices 1 2 3 4 5 6 
#
# 1 109.7124 5.9320 43.5024 0.0000 18.8573 0.0000
# 2 5.9320 58.2332 6.3138 0.0000 5.4915 0.0000
# 3 43.5024 6.3138 93.3115 0.0000 9.5760 0.0000
# 4 0.0000 0.0000 0.0000 -2.2397 0.0000 -1.9711
# 5 18.8573 5.4915 9.5760 0.0000 70.2938 0.0000
# 6 0.0000 0.0000 0.0000 -1.9711 0.0000 2.2163
#
#
#
# Elastic Compliance Matrix: (Units=1/GPa)
#
#
# Indices 1 2 3 4 5 6 
#
# 1 0.011578 -0.000399 -0.005127 0.000000 -0.002376 0.000000
# 2 -0.000399 0.017415 -0.000876 0.000000 -0.001134 0.000000
# 3 -0.005127 -0.000876 0.013203 0.000000 -0.000355 0.000000
# 4 0.000000 0.000000 0.000000 -0.250458 0.000000 -0.222744
# 5 -0.002376 -0.001134 -0.000355 0.000000 0.015000 0.000000
# 6 0.000000 0.000000 0.000000 -0.222744 0.000000 0.253102
#
#
# Mechanical properties :
#
#
# Convention : Reuss Voigt Hill
#
# Bulk Modulus (GPa) = 34.02364 41.41707 37.72035
# Shear Modulus (GPa) = 60.65020 27.75467 44.20244
#
# Velocity S-wave (km/s) = 5.29929 3.58484 4.52402
# Velocity P-wave (km/s) = 7.29363 6.02593 6.68988
#
# Compressibility (1/GPa) = 0.02939133
#
# Stress axis : x y z
#
# Youngs Moduli (GPa) = 86.37413 57.42200 75.74297
#
# Poissons Ratio (x) = 0.02294 0.38831
# Poissons Ratio (y) = 0.03450 0.06633
# Poissons Ratio (z) = 0.44281 0.05029
#
# Static dielectric constant tensor:
#      x y z
#    x 1.909530 0.000000 0.013980 
#    y 0.000000 1.737310 0.000000 
#    z 0.013980 0.000000 1.888820 
# 
# From -- ./inp_files/372393.got.cif
#   From: 2010.05.17/outbox.cif.g08.bks.cpg/sg12_187_cif.got.tgz:372393.got - 2010.06.03 13:09:07.
