data_PCOD9182071
_publ_section_title
;
Structure prediction by ZEFSAII (Michael W. Deem and Ramdas Pophale) SiO2 
 PCOD9182071
Probable space group: C 2/M
;
_chemical_formula_sum "Si O2"
_cell_formula_units_Z 58
_cell_length_a 32.213908
_cell_length_b 8.046217
_cell_length_c 11.471027
_cell_angle_alpha 90.000000
_cell_angle_beta 100.525000
_cell_angle_gamma 90.000000
_cell_volume 2923.266541
_symmetry_space_group_name_H-M "C 2/M"
_symmetry_group_IT_number 12
_symmetry_cell_setting 'monoclinic'
loop_
_space_group_symop_operation_xyz
x,y,z
-x,y,-z
-x,-y,-z
x,-y,z
1/2+x,1/2+y,z
1/2-x,1/2+y,-z
1/2-x,1/2-y,-z
1/2+x,1/2-y,z
loop_
_atom_site_type_symbol
_atom_site_label
_atom_site_fract_x
_atom_site_fract_y
_atom_site_fract_z
Si Si1 0.152228 0.694520 0.914854
Si Si2 0.443268 0.312299 0.515175
Si Si3 0.000000 0.500000 0.500000
Si Si4 0.177796 0.194150 0.181587
Si Si5 0.515891 0.701051 0.137009
Si Si6 0.101904 0.690781 0.299128
Si Si7 0.763661 0.699826 0.137598
Si Si8 0.566164 0.306580 0.765379
O O1 0.160059 0.500000 0.942682
O O2 0.187254 0.751572 0.837213
O O3 0.105455 0.715945 0.843219
O O4 0.159752 0.786548 0.040681
O O5 0.461342 0.500000 0.543656
O O6 0.472520 0.151091 0.549612
O O7 0.405476 0.295822 0.587536
O O8 0.431815 0.296042 0.373139
O O9 0.144684 0.273837 0.251874
O O10 0.225898 0.263615 0.200460
O O11 0.179659 0.000000 0.210924
O O12 0.519711 0.500000 0.142780
O O13 0.561267 0.771280 0.196230
O O14 0.478652 0.752164 0.206904
O O15 0.500000 0.747971 0.000000
O O16 0.101815 0.500000 0.332084
O O17 0.762454 0.500000 0.148013
O O18 0.750000 0.750000 0.000000
O O19 0.569751 0.500000 0.800153
#
# Coordination Sequence:
#
# PCOD9182071 Si02
#       8
#     8   8   2   8   8   8   8   8
#     4  10  19  32  55  85 118 148 187 239 289 345
#     4  11  24  41  61  86 116 151 198 252 293 342
#     4  12  22  40  64  86 106 144 198 244 292 332
#     4  10  19  34  56  80 115 154 191 233 292 355
#     4  10  21  37  56  79 111 148 185 227 282 346
#     4  12  24  38  57  83 113 147 196 244 292 348
#     4   8  16  30  50  80 111 147 187 231 285 346
#     4  10  22  37  56  81 113 153 192 232 284 345
#
# _framework density 19.840819
#
# number of rings (size 3 to 8) (size 9 to 14) (size 15 to 20)
#    0.000    1.793    0.690    3.931    0.966    4.138 
#    0.000    0.000    0.000    0.828    0.000    0.000 
#    0.000    0.000    0.000    0.000    0.000    0.000 
#
# Total GULP energy -161494.267075 kJ/mol
# GULP energy per Si atom -5568.767830 kJ/mol
# Density = 1.979566 g / cm^3
# Si number density = 19.840819 Si / 1000 Ang^3
#
#
#
# Elastic Constant Matrix: (Units=GPa)
#
#
# Indices 1 2 3 4 5 6 
#
# 1 113.0793 21.3671 9.8195 0.0000 -42.4542 0.0000
# 2 21.3671 71.7876 9.1800 0.0000 -7.7536 0.0000
# 3 9.8195 9.1800 43.6038 0.0000 -26.0972 0.0000
# 4 0.0000 0.0000 0.0000 38.0662 0.0000 -8.6595
# 5 -42.4542 -7.7536 -26.0972 0.0000 33.9955 0.0000
# 6 0.0000 0.0000 0.0000 -8.6595 0.0000 19.6419
#
#
#
# Elastic Compliance Matrix: (Units=1/GPa)
#
#
# Indices 1 2 3 4 5 6 
#
# 1 0.028643 -0.006094 0.028507 0.000000 0.056264 0.000000
# 2 -0.006094 0.015669 -0.008033 0.000000 -0.010203 0.000000
# 3 0.028507 -0.008033 0.071068 0.000000 0.088325 0.000000
# 4 0.000000 0.000000 0.000000 0.029198 0.000000 0.012873
# 5 0.056264 -0.010203 0.088325 0.000000 0.165156 0.000000
# 6 0.000000 0.000000 0.000000 0.012873 0.000000 0.056587
#
#
# Mechanical properties :
#
#
# Convention : Reuss Voigt Hill
#
# Bulk Modulus (GPa) = 6.93771 34.35600 20.64685
# Shear Modulus (GPa) = 12.96654 30.88099 21.92377
#
# Velocity S-wave (km/s) = 2.55919 3.94945 3.32773
# Velocity P-wave (km/s) = 3.49813 6.17665 5.01936
#
# Compressibility (1/GPa) = 0.14413985
#
# Stress axis : x y z
#
# Youngs Moduli (GPa) = 34.91270 63.82014 14.07096
#
# Poissons Ratio (x) = 0.38891 -0.40112
# Poissons Ratio (y) = 0.21275 0.11304
# Poissons Ratio (z) = -0.99525 0.51268
#
# Static dielectric constant tensor:
#      x y z
#    x 1.762260 0.000000 -0.027930 
#    y 0.000000 1.755760 0.000000 
#    z -0.027930 0.000000 1.678350 
# 
# From -- ./inp_files/186736.got.cif
#   From: 2010.05.17/outbox.cif.g08.bks.cpg/sg12_94_cif.got.tgz:186736.got - 2010.06.03 13:09:07.
