data_PCOD9182931
_publ_section_title
;
Structure prediction by ZEFSAII (Michael W. Deem and Ramdas Pophale) SiO2 
 PCOD9182931
Probable space group: C 2/M
;
_chemical_formula_sum "Si O2"
_cell_formula_units_Z 48
_cell_length_a 19.508158
_cell_length_b 21.498234
_cell_length_c 16.946833
_cell_angle_alpha 90.000000
_cell_angle_beta 21.519169
_cell_angle_gamma 90.000000
_cell_volume 2607.064124
_symmetry_space_group_name_H-M "C 2/M"
_symmetry_group_IT_number 12
_symmetry_cell_setting 'monoclinic'
loop_
_space_group_symop_operation_xyz
x,y,z
-x,y,-z
-x,-y,-z
x,-y,z
1/2+x,1/2+y,z
1/2-x,1/2+y,-z
1/2-x,1/2-y,-z
1/2+x,1/2-y,z
loop_
_atom_site_type_symbol
_atom_site_label
_atom_site_fract_x
_atom_site_fract_y
_atom_site_fract_z
Si Si1 0.283047 0.613796 0.241067
Si Si2 0.148661 0.708799 0.995632
Si Si3 0.248959 0.187945 0.447343
Si Si4 0.203254 0.242151 0.322705
Si Si5 0.373346 0.340274 0.896328
Si Si6 0.584305 0.073213 0.291041
O O1 0.281247 0.688410 0.249710
O O2 0.181173 0.591123 0.270622
O O3 0.135713 0.591552 0.466310
O O4 0.500000 0.593253 0.000000
O O5 0.130713 0.782058 0.038273
O O6 0.964962 0.670136 0.215103
O O7 0.181859 0.706228 0.867377
O O8 0.312505 0.685728 0.876382
O O9 0.250000 0.250000 0.500000
O O10 0.202782 0.208750 0.407304
O O11 0.091254 0.142983 0.652082
O O12 0.000000 0.249137 0.500000
O O13 0.217678 0.389164 0.088748
O O14 0.596195 0.000000 0.265449
#
# Coordination Sequence:
#
# PCOD9182931 Si02
#       6
#     8   8   8   8   8   8
#     4  11  22  35  56  77 107 150 190 223 262 320
#     4  10  19  33  53  79 110 141 178 222 273 333
#     4  10  22  31  53  81 111 145 178 216 275 336
#     4  12  19  35  55  85 117 148 179 218 278 336
#     4  10  20  35  51  79 108 141 181 227 274 317
#     4  11  24  39  53  75 109 148 192 233 266 316
#
# _framework density 18.411515000000001
#
# number of rings (size 3 to 8) (size 9 to 14) (size 15 to 20)
#    0.000    1.333    5.000    2.500    7.000    1.333 
#    0.000    0.000    0.000    0.000    0.000    2.333 
#    0.000    2.667    0.000    0.000    0.000    0.000 
#
# Total GULP energy -133754.344146 kJ/mol
# GULP energy per Si atom -5573.097673 kJ/mol
# Density = 1.836961 g / cm^3
# Si number density = 18.411515 Si / 1000 Ang^3
#
#
#
# Elastic Constant Matrix: (Units=GPa)
#
#
# Indices 1 2 3 4 5 6 
#
# 1 68.1280 -11.0691 18.7587 -0.0064 10.3262 0.0095
# 2 -11.0691 35.7699 31.6344 -0.0120 6.8815 0.0225
# 3 18.7587 31.6344 166.9772 -0.0062 -4.4419 0.0106
# 4 -0.0064 -0.0120 -0.0062 17.6113 -0.0056 9.5232
# 5 10.3262 6.8815 -4.4419 -0.0056 35.6484 -0.0034
# 6 0.0095 0.0225 0.0106 9.5232 -0.0034 9.8681
#
#
#
# Elastic Compliance Matrix: (Units=1/GPa)
#
#
# Indices 1 2 3 4 5 6 
#
# 1 0.019060 0.011516 -0.004544 0.000070 -0.008310 -0.000110
# 2 0.011516 0.042547 -0.009694 0.000169 -0.012757 -0.000266
# 3 -0.004544 -0.009694 0.008449 -0.000030 0.004240 0.000048
# 4 0.000070 0.000169 -0.000030 0.118752 -0.000049 -0.114602
# 5 -0.008310 -0.012757 0.004240 -0.000049 0.033450 0.000092
# 6 -0.000110 -0.000266 0.000048 -0.114602 0.000092 0.211934
#
#
# Mechanical properties :
#
#
# Convention : Reuss Voigt Hill
#
# Bulk Modulus (GPa) = 15.47701 38.83589 27.15645
# Shear Modulus (GPa) = 10.84191 28.06231 19.45211
#
# Velocity S-wave (km/s) = 2.42929 3.90830 3.25394
# Velocity P-wave (km/s) = 4.03646 6.44247 5.37580
#
# Compressibility (1/GPa) = 0.06461197
#
# Stress axis : x y z
#
# Youngs Moduli (GPa) = 52.46572 23.50316 118.36226
#
# Poissons Ratio (x) = -0.27066 0.53784
# Poissons Ratio (y) = -0.60418 1.14738
# Poissons Ratio (z) = 0.23840 0.22783
#
# Static dielectric constant tensor:
#      x y z
#    x 1.635620 -0.000020 -0.009070 
#    y -0.000020 1.577960 0.000000 
#    z -0.009070 0.000000 1.742790 
# 
# From -- ./inp_files/285854.got.cif
#   From: 2010.05.17/outbox.cif.g08.bks.cpg/sg12_143_cif.got.tgz:285854.got - 2010.06.03 13:09:07.
