data_PCOD9182451
_publ_section_title
;
Structure prediction by ZEFSAII (Michael W. Deem and Ramdas Pophale) SiO2 
 PCOD9182451
Probable space group: C 2/M
;
_chemical_formula_sum "Si O2"
_cell_formula_units_Z 50
_cell_length_a 25.144397
_cell_length_b 7.809644
_cell_length_c 15.535295
_cell_angle_alpha 90.000000
_cell_angle_beta 59.668435
_cell_angle_gamma 90.000000
_cell_volume 2633.066776
_symmetry_space_group_name_H-M "C 2/M"
_symmetry_group_IT_number 12
_symmetry_cell_setting 'monoclinic'
loop_
_space_group_symop_operation_xyz
x,y,z
-x,y,-z
-x,-y,-z
x,-y,z
1/2+x,1/2+y,z
1/2-x,1/2+y,-z
1/2-x,1/2-y,-z
1/2+x,1/2-y,z
loop_
_atom_site_type_symbol
_atom_site_label
_atom_site_fract_x
_atom_site_fract_y
_atom_site_fract_z
Si Si1 0.135049 0.199530 0.557041
Si Si2 0.000000 0.500000 0.500000
Si Si3 0.496064 0.295963 0.266809
Si Si4 0.538935 0.200746 0.889579
Si Si5 0.919751 0.803260 0.645493
Si Si6 0.200722 0.304002 0.331547
Si Si7 0.168189 0.297603 0.715773
O O1 0.065785 0.266626 0.632921
O O2 0.170330 0.290590 0.451575
O O3 0.169735 0.214684 0.619788
O O4 0.130409 0.000000 0.536006
O O5 0.050518 0.653494 0.436072
O O6 0.488292 0.500000 0.262087
O O7 0.496720 0.217258 0.171802
O O8 0.553990 0.266186 0.280647
O O9 0.607320 0.271146 0.814100
O O10 0.548031 0.000000 0.901816
O O11 0.500000 0.276904 0.000000
O O12 0.846780 0.791042 0.692100
O O13 0.938869 0.000000 0.608729
O O14 0.204936 0.500000 0.301787
O O15 0.269084 0.230720 0.284771
O O16 0.159584 0.500000 0.707775
#
# Coordination Sequence:
#
# PCOD9182451 Si02
#       7
#     8   2   8   8   8   8   8
#     4  10  19  33  51  75 107 146 188 233 278 327
#     4  12  22  36  56  82 110 160 204 232 280 320
#     4   9  20  35  55  80 112 147 184 237 285 333
#     4   9  19  36  61  88 110 137 180 236 296 354
#     4  11  23  38  54  81 117 154 201 244 279 332
#     4  12  23  35  51  76 109 154 199 231 278 336
#     4  10  20  35  53  76 109 145 183 233 290 341
#
# _framework density 18.989263999999999
#
# number of rings (size 3 to 8) (size 9 to 14) (size 15 to 20)
#    0.000    1.760    0.800    4.080    1.120    2.880 
#    0.000    0.000    0.000    0.960    0.000    0.000 
#    0.000    0.000    0.000    0.000    0.000    0.000 
#
# Total GULP energy -139308.023417 kJ/mol
# GULP energy per Si atom -5572.320937 kJ/mol
# Density = 1.894604 g / cm^3
# Si number density = 18.989264 Si / 1000 Ang^3
#
#
#
# Elastic Constant Matrix: (Units=GPa)
#
#
# Indices 1 2 3 4 5 6 
#
# 1 148.4157 0.0768 43.6722 0.0000 -1.8625 -0.0001
# 2 0.0768 65.0304 9.4747 0.0000 -0.0751 -0.0003
# 3 43.6722 9.4747 73.4133 0.0000 -3.2196 0.0001
# 4 0.0000 0.0000 0.0000 9.8007 0.0000 3.6748
# 5 -1.8625 -0.0751 -3.2196 0.0000 8.0729 0.0000
# 6 -0.0001 -0.0003 0.0001 3.6748 0.0000 26.4139
#
#
#
# Elastic Compliance Matrix: (Units=1/GPa)
#
#
# Indices 1 2 3 4 5 6 
#
# 1 0.008200 0.000715 -0.004974 0.000000 -0.000085 0.000000
# 2 0.000715 0.015738 -0.002486 0.000000 -0.000680 0.000000
# 3 -0.004974 -0.002486 0.017150 0.000000 0.005669 0.000000
# 4 0.000000 0.000000 0.000000 0.107650 0.000000 -0.014977
# 5 -0.000085 -0.000680 0.005669 0.000000 0.126106 0.000000
# 6 0.000000 0.000000 0.000000 -0.014977 0.000000 0.039943
#
#
# Mechanical properties :
#
#
# Convention : Reuss Voigt Hill
#
# Bulk Modulus (GPa) = 36.23552 43.70074 39.96813
# Shear Modulus (GPa) = 14.81589 24.43320 19.62454
#
# Velocity S-wave (km/s) = 2.79628 3.59093 3.21823
# Velocity P-wave (km/s) = 5.43591 6.34479 5.90786
#
# Compressibility (1/GPa) = 0.02759723
#
# Stress axis : x y z
#
# Youngs Moduli (GPa) = 121.95065 63.54037 58.30908
#
# Poissons Ratio (x) = -0.04543 0.29003
# Poissons Ratio (y) = -0.08719 0.14497
# Poissons Ratio (z) = 0.60659 0.15798
#
# Static dielectric constant tensor:
#      x y z
#    x 1.694180 0.000000 -0.007950 
#    y 0.000000 1.691150 0.000000 
#    z -0.007950 0.000000 1.651100 
# 
# From -- ./inp_files/237242.got.cif
#   From: 2010.05.17/outbox.cif.g08.bks.cpg/sg12_119_cif.got.tgz:237242.got - 2010.06.03 13:09:07.
