data_PCOD9182584
_publ_section_title
;
Structure prediction by ZEFSAII (Michael W. Deem and Ramdas Pophale) SiO2 
 PCOD9182584
Probable space group: C 2/M
;
_chemical_formula_sum "Si O2"
_cell_formula_units_Z 56
_cell_length_a 10.022479
_cell_length_b 14.047250
_cell_length_c 18.141684
_cell_angle_alpha 90.000000
_cell_angle_beta 122.321897
_cell_angle_gamma 90.000000
_cell_volume 2158.392154
_symmetry_space_group_name_H-M "C 2/M"
_symmetry_group_IT_number 12
_symmetry_cell_setting 'monoclinic'
loop_
_space_group_symop_operation_xyz
x,y,z
-x,y,-z
-x,-y,-z
x,-y,z
1/2+x,1/2+y,z
1/2-x,1/2+y,-z
1/2-x,1/2-y,-z
1/2+x,1/2-y,z
loop_
_atom_site_type_symbol
_atom_site_label
_atom_site_fract_x
_atom_site_fract_y
_atom_site_fract_z
Si Si1 0.415234 0.397269 0.684128
Si Si2 0.876033 0.670146 0.685491
Si Si3 0.649953 0.660657 0.497496
Si Si4 0.782617 0.353451 0.183525
Si Si5 0.387519 0.870471 0.052427
Si Si6 0.273971 0.866002 0.822152
Si Si7 0.050642 0.142693 0.931247
O O1 0.337015 0.500000 0.680988
O O2 0.359504 0.287196 0.684875
O O3 0.406296 0.393863 0.591575
O O4 0.595567 0.402235 0.766255
O O5 0.767269 0.618991 0.593406
O O6 0.827395 0.636743 0.752126
O O7 0.059161 0.645998 0.721938
O O8 0.500000 0.692897 0.500000
O O9 0.750000 0.750000 0.500000
O O10 0.836150 0.395158 0.121062
O O11 0.749547 0.242432 0.158655
O O12 0.609325 0.386260 0.158899
O O13 0.566269 0.903812 0.092027
O O14 0.417260 0.756123 0.059839
O O15 0.223909 0.895494 0.962425
O O16 0.000000 0.117988 0.000000
#
# Coordination Sequence:
#
# PCOD9182584 Si02
#       7
#     8   8   8   8   8   8   8
#     4  10  20  32  49  74 100 126 164 212 256 300
#     4   9  17  30  46  67  95 130 163 199 252 308
#     4  10  19  33  52  75  97 133 171 209 255 315
#     4   8  14  22  38  61  87 118 155 197 238 282
#     4   8  13  20  34  57  91 120 151 192 240 281
#     4   9  15  27  43  65  91 126 164 197 244 298
#     4   8  12  19  31  55  91 121 147 190 244 278
#
# _framework density 25.945239999999998
#
# number of rings (size 3 to 8) (size 9 to 14) (size 15 to 20)
#    0.000    3.143    1.429    0.000    0.000    0.286 
#    0.000    0.000    0.000    6.857    0.000    9.000 
#    0.000  715.429    0.000    0.000    0.000   85.714 
#
# Total GULP energy -156033.148622 kJ/mol
# GULP energy per Si atom -5572.612451 kJ/mol
# Density = 2.588619 g / cm^3
# Si number density = 25.945240 Si / 1000 Ang^3
#
#
#
# Elastic Constant Matrix: (Units=GPa)
#
#
# Indices 1 2 3 4 5 6 
#
# 1 157.2123 5.0220 47.8628 0.0000 38.3951 0.0000
# 2 5.0220 107.3770 0.9858 0.0000 5.7220 0.0000
# 3 47.8628 0.9858 155.5417 0.0000 32.4881 0.0000
# 4 0.0000 0.0000 0.0000 -83.8608 0.0000 18.7393
# 5 38.3951 5.7220 32.4881 0.0000 52.7702 0.0000
# 6 0.0000 0.0000 0.0000 18.7393 0.0000 -31.3634
#
#
#
# Elastic Compliance Matrix: (Units=1/GPa)
#
#
# Indices 1 2 3 4 5 6 
#
# 1 0.008004 -0.000098 -0.001432 0.000000 -0.004931 0.000000
# 2 -0.000098 0.009372 0.000193 0.000000 -0.001064 0.000000
# 3 -0.001432 0.000193 0.007638 0.000000 -0.003681 0.000000
# 4 0.000000 0.000000 0.000000 -0.013762 0.000000 -0.008223
# 5 -0.004931 -0.001064 -0.003681 0.000000 0.024920 0.000000
# 6 0.000000 0.000000 0.000000 -0.008223 0.000000 -0.036797
#
#
# Mechanical properties :
#
#
# Convention : Reuss Voigt Hill
#
# Bulk Modulus (GPa) = 44.76530 58.65245 51.70888
# Shear Modulus (GPa) = 526.49599 11.92656 269.21128
#
# Velocity S-wave (km/s) = 14.26066 2.14635 10.19738
# Velocity P-wave (km/s) = 16.98371 5.36635 12.59453
#
# Compressibility (1/GPa) = 0.02233873
#
# Stress axis : x y z
#
# Youngs Moduli (GPa) = 124.93054 106.69527 130.93266
#
# Poissons Ratio (x) = 0.01050 0.18756
# Poissons Ratio (y) = 0.01230 -0.02527
# Poissons Ratio (z) = 0.17896 -0.02059
#
# Static dielectric constant tensor:
#      x y z
#    x 2.142330 0.000000 -0.150480 
#    y 0.000000 2.188180 0.000000 
#    z -0.150480 0.000000 2.319010 
# 
# From -- ./inp_files/336181.got.cif
#   From: 2010.05.17/outbox.cif.g08.bks.cpg/sg12_169_cif.got.tgz:336181.got - 2010.06.03 13:09:07.
