data_PCOD9182303
_publ_section_title
;
Structure prediction by ZEFSAII (Michael W. Deem and Ramdas Pophale) SiO2 
 PCOD9182303
Probable space group: C 2/M
;
_chemical_formula_sum "Si O2"
_cell_formula_units_Z 64
_cell_length_a 11.498486
_cell_length_b 20.972823
_cell_length_c 18.884715
_cell_angle_alpha 90.000000
_cell_angle_beta 126.348642
_cell_angle_gamma 90.000000
_cell_volume 3668.033606
_symmetry_space_group_name_H-M "C 2/M"
_symmetry_group_IT_number 12
_symmetry_cell_setting 'monoclinic'
loop_
_space_group_symop_operation_xyz
x,y,z
-x,y,-z
-x,-y,-z
x,-y,z
1/2+x,1/2+y,z
1/2-x,1/2+y,-z
1/2-x,1/2-y,-z
1/2+x,1/2-y,z
loop_
_atom_site_type_symbol
_atom_site_label
_atom_site_fract_x
_atom_site_fract_y
_atom_site_fract_z
Si Si1 0.969237 0.074521 0.842303
Si Si2 0.774564 0.617418 0.999462
Si Si3 0.853415 0.278521 0.913742
Si Si4 0.096783 0.926979 0.746678
Si Si5 0.372396 0.577803 0.401709
Si Si6 0.778022 0.651160 0.167036
Si Si7 0.052257 0.426818 0.288218
Si Si8 0.579397 0.094046 0.131811
O O1 0.855142 0.115457 0.844226
O O2 0.995638 0.100080 0.771662
O O3 0.927060 0.000000 0.825795
O O4 0.127061 0.080530 0.934135
O O5 0.781263 0.635975 0.084329
O O6 0.924884 0.579454 0.040878
O O7 0.781168 0.679362 0.950341
O O8 0.750496 0.226538 0.842383
O O9 0.906835 0.329779 0.875108
O O10 0.000000 0.248497 0.000000
O O11 0.101924 0.898492 0.669697
O O12 0.262365 0.928458 0.834923
O O13 0.050043 0.000000 0.721503
O O14 0.500000 0.597351 0.500000
O O15 0.370942 0.500000 0.397904
O O16 0.211505 0.594334 0.370357
O O17 0.922626 0.622234 0.253996
O O18 0.020960 0.500000 0.299800
O O19 0.069058 0.427768 0.208845
#
# Coordination Sequence:
#
# PCOD9182303 Si02
#       8
#     8   8   8   8   8   8   8   8
#     4  11  22  32  44  64  98 137 165 191 230 292
#     4  10  20  32  48  64  89 126 171 219 246 262
#     4  10  19  33  48  66  88 123 171 220 250 261
#     4   9  17  30  47  71 100 124 151 192 246 295
#     4   8  14  28  54  82 100 114 142 191 247 295
#     4  11  22  33  46  63  94 134 170 197 230 276
#     4   9  18  32  51  73  98 121 147 194 243 287
#     4   9  17  31  48  67  91 118 160 209 253 275
#
# _framework density 17.448039999999999
#
# number of rings (size 3 to 8) (size 9 to 14) (size 15 to 20)
#    0.000    2.375    1.250    3.000    0.000    5.500 
#    0.000    1.250    0.000    0.750    0.000    7.875 
#    0.000    0.000    0.000    0.000    0.000    0.000 
#
# Total GULP energy -178138.441340 kJ/mol
# GULP energy per Si atom -5566.826292 kJ/mol
# Density = 1.740833 g / cm^3
# Si number density = 17.448040 Si / 1000 Ang^3
#
#
#
# Elastic Constant Matrix: (Units=GPa)
#
#
# Indices 1 2 3 4 5 6 
#
# 1 97.9959 25.8418 31.5522 0.0000 10.2459 0.0000
# 2 25.8418 55.8592 24.5367 0.0000 10.0323 0.0000
# 3 31.5522 24.5367 85.2702 0.0000 20.0404 0.0000
# 4 0.0000 0.0000 0.0000 5.8763 0.0000 0.4225
# 5 10.2459 10.0323 20.0404 0.0000 22.1434 0.0000
# 6 0.0000 0.0000 0.0000 0.4225 0.0000 22.2952
#
#
#
# Elastic Compliance Matrix: (Units=1/GPa)
#
#
# Indices 1 2 3 4 5 6 
#
# 1 0.012430 -0.004183 -0.003162 0.000000 -0.000995 0.000000
# 2 -0.004183 0.022348 -0.003757 0.000000 -0.004789 0.000000
# 3 -0.003162 -0.003757 0.016810 0.000000 -0.012048 0.000000
# 4 0.000000 0.000000 0.000000 0.170408 0.000000 -0.003229
# 5 -0.000995 -0.004789 -0.012048 0.000000 0.058694 0.000000
# 6 0.000000 0.000000 0.000000 -0.003229 0.000000 0.044914
#
#
# Mechanical properties :
#
#
# Convention : Reuss Voigt Hill
#
# Bulk Modulus (GPa) = 34.03270 44.77630 39.40450
# Shear Modulus (GPa) = 13.98204 20.54264 17.26234
#
# Velocity S-wave (km/s) = 2.83389 3.43499 3.14882
# Velocity P-wave (km/s) = 5.50049 6.43821 5.98774
#
# Compressibility (1/GPa) = 0.02938351
#
# Stress axis : x y z
#
# Youngs Moduli (GPa) = 80.45356 44.74736 59.48760
#
# Poissons Ratio (x) = 0.18716 0.18810
# Poissons Ratio (y) = 0.33651 0.22352
# Poissons Ratio (z) = 0.25439 0.16813
#
# Static dielectric constant tensor:
#      x y z
#    x 1.639850 0.000000 0.002520 
#    y 0.000000 1.622480 0.000000 
#    z 0.002520 0.000000 1.612030 
# 
# From -- ./inp_files/306635.got.cif
#   From: 2010.05.17/outbox.cif.g08.bks.cpg/sg12_154_cif.got.tgz:306635.got - 2010.06.03 13:09:07.
