data_PCOD9182284
_publ_section_title
;
Structure prediction by ZEFSAII (Michael W. Deem and Ramdas Pophale) SiO2 
 PCOD9182284
Probable space group: C 2/M
;
_chemical_formula_sum "Si O2"
_cell_formula_units_Z 56
_cell_length_a 14.744892
_cell_length_b 20.141153
_cell_length_c 12.860860
_cell_angle_alpha 90.000000
_cell_angle_beta 133.465370
_cell_angle_gamma 90.000000
_cell_volume 2772.088466
_symmetry_space_group_name_H-M "C 2/M"
_symmetry_group_IT_number 12
_symmetry_cell_setting 'monoclinic'
loop_
_space_group_symop_operation_xyz
x,y,z
-x,y,-z
-x,-y,-z
x,-y,z
1/2+x,1/2+y,z
1/2-x,1/2+y,-z
1/2-x,1/2-y,-z
1/2+x,1/2-y,z
loop_
_atom_site_type_symbol
_atom_site_label
_atom_site_fract_x
_atom_site_fract_y
_atom_site_fract_z
Si Si1 0.809739 0.860323 0.574380
Si Si2 0.941684 0.923852 0.294047
Si Si3 0.628723 0.792023 0.875696
Si Si4 0.752630 0.927781 0.964056
Si Si5 0.142249 0.717770 0.310186
Si Si6 0.626992 0.286073 0.663679
Si Si7 0.124041 0.923245 0.155510
O O1 0.856295 0.784471 0.619128
O O2 0.681308 0.846828 0.410617
O O3 0.817855 0.887490 0.698504
O O4 0.912325 0.904086 0.594982
O O5 0.873926 0.863047 0.298589
O O6 0.925301 0.000000 0.318172
O O7 0.882227 0.920806 0.130984
O O8 0.664095 0.867812 0.919054
O O9 0.501024 0.782347 0.838019
O O10 0.613070 0.767035 0.745161
O O11 0.750000 0.750000 0.000000
O O12 0.779556 0.924988 0.863175
O O13 0.701979 0.000000 0.952269
O O14 0.247774 0.724575 0.304984
O O15 0.500000 0.278833 0.500000
O O16 0.094417 0.000000 0.161886
O O17 0.000000 0.894478 0.000000
#
# Coordination Sequence:
#
# PCOD9182284 Si02
#       7
#     8   8   8   8   8   8   8
#     4  11  19  40  59  93 127 166 213 281 339 396
#     4  11  21  39  66  95 135 176 223 285 338 400
#     4  12  24  44  66  94 130 181 229 277 337 402
#     4  10  21  39  61  91 129 170 219 279 335 395
#     4  11  24  39  65  91 130 172 224 273 338 399
#     4  12  23  43  67 100 135 171 221 283 343 407
#     4  10  19  32  60  96 126 162 212 270 339 402
#
# _framework density 20.201374999999999
#
# number of rings (size 3 to 8) (size 9 to 14) (size 15 to 20)
#    0.000    1.000    5.714    2.143    0.000    0.857 
#    0.000    2.143    0.000    3.857    0.000    0.000 
#    0.000    0.000    0.000    0.000    0.000    0.000 
#
# Total GULP energy -156079.239943 kJ/mol
# GULP energy per Si atom -5574.258569 kJ/mol
# Density = 2.015540 g / cm^3
# Si number density = 20.201375 Si / 1000 Ang^3
#
#
#
# Elastic Constant Matrix: (Units=GPa)
#
#
# Indices 1 2 3 4 5 6 
#
# 1 72.8499 6.9640 35.2506 0.0000 20.7795 0.0000
# 2 6.9640 94.4324 26.0067 0.0000 13.1101 0.0000
# 3 35.2506 26.0067 75.1496 0.0000 4.4219 0.0000
# 4 0.0000 0.0000 0.0000 38.6393 0.0000 -2.3210
# 5 20.7795 13.1101 4.4219 0.0000 34.5504 0.0000
# 6 0.0000 0.0000 0.0000 -2.3210 0.0000 25.1731
#
#
#
# Elastic Compliance Matrix: (Units=1/GPa)
#
#
# Indices 1 2 3 4 5 6 
#
# 1 0.022485 0.003186 -0.010865 0.000000 -0.013341 0.000000
# 2 0.003186 0.012718 -0.005541 0.000000 -0.006033 0.000000
# 3 -0.010865 -0.005541 0.019963 0.000000 0.006082 0.000000
# 4 0.000000 0.000000 0.000000 0.026025 0.000000 0.002400
# 5 -0.013341 -0.006033 0.006082 0.000000 0.038478 0.000000
# 6 0.000000 0.000000 0.000000 0.002400 0.000000 0.039946
#
#
# Mechanical properties :
#
#
# Convention : Reuss Voigt Hill
#
# Bulk Modulus (GPa) = 34.81035 42.09717 38.45376
# Shear Modulus (GPa) = 25.55862 31.28662 28.42262
#
# Velocity S-wave (km/s) = 3.56081 3.93967 3.75502
# Velocity P-wave (km/s) = 5.84593 6.44815 6.15441
#
# Compressibility (1/GPa) = 0.02872709
#
# Stress axis : x y z
#
# Youngs Moduli (GPa) = 44.47422 78.62795 50.09339
#
# Poissons Ratio (x) = -0.25052 0.54425
# Poissons Ratio (y) = -0.14170 0.27756
# Poissons Ratio (z) = 0.48320 0.43567
#
# Static dielectric constant tensor:
#      x y z
#    x 1.763030 0.000000 -0.000270 
#    y 0.000000 1.748290 0.000000 
#    z -0.000270 0.000000 1.894610 
# 
# From -- ./inp_files/217745.got.cif
#   From: 2010.05.17/outbox.cif.g08.bks.cpg/sg12_109_cif.got.tgz:217745.got - 2010.06.03 13:09:07.
