data_PCOD9182343
_publ_section_title
;
Structure prediction by ZEFSAII (Michael W. Deem and Ramdas Pophale) SiO2 
 PCOD9182343
Probable space group: C 2/M
;
_chemical_formula_sum "Si O2"
_cell_formula_units_Z 56
_cell_length_a 31.399427
_cell_length_b 7.544077
_cell_length_c 17.377507
_cell_angle_alpha 90.000000
_cell_angle_beta 45.463263
_cell_angle_gamma 90.000000
_cell_volume 2934.158310
_symmetry_space_group_name_H-M "C 2/M"
_symmetry_group_IT_number 12
_symmetry_cell_setting 'monoclinic'
loop_
_space_group_symop_operation_xyz
x,y,z
-x,y,-z
-x,-y,-z
x,-y,z
1/2+x,1/2+y,z
1/2-x,1/2+y,-z
1/2-x,1/2-y,-z
1/2+x,1/2-y,z
loop_
_atom_site_type_symbol
_atom_site_label
_atom_site_fract_x
_atom_site_fract_y
_atom_site_fract_z
Si Si1 0.308339 0.287716 0.477021
Si Si2 0.551690 0.704210 0.116789
Si Si3 0.922308 0.784700 0.236813
Si Si4 0.282117 0.710111 0.840290
Si Si5 0.341423 0.715225 0.918619
Si Si6 0.122232 0.708277 0.876210
Si Si7 0.260174 0.282529 0.699640
O O1 0.314474 0.500000 0.474063
O O2 0.250000 0.250000 0.500000
O O3 0.367215 0.221101 0.359034
O O4 0.295597 0.222162 0.579368
O O5 0.542119 0.500000 0.152017
O O6 0.486181 0.781830 0.186027
O O7 0.597301 0.781984 0.121671
O O8 0.586531 0.706214 0.991460
O O9 0.910113 0.733429 0.164173
O O10 0.923051 0.000000 0.237053
O O11 0.292989 0.500000 0.822462
O O12 0.324604 0.780171 0.854423
O O13 0.286157 0.778805 0.748454
O O14 0.214424 0.736140 0.956162
O O15 0.343122 0.500000 0.915070
O O16 0.124743 0.500000 0.890921
O O17 0.190631 0.772499 0.782693
O O18 0.260233 0.500000 0.699103
#
# Coordination Sequence:
#
# PCOD9182343 Si02
#       7
#     8   8   8   8   8   8   8
#     4  10  19  33  50  67  88 121 158 194 231 267
#     4  10  20  33  46  67  98 128 156 186 227 280
#     4  10  21  34  48  65  93 130 160 188 228 277
#     4   9  16  29  47  68  92 118 148 186 234 274
#     4   9  17  28  46  68  92 120 150 185 224 274
#     4  11  20  31  48  71  96 124 156 191 231 275
#     4   9  17  29  47  69  94 117 145 190 235 270
#
# _framework density 19.085542
#
# number of rings (size 3 to 8) (size 9 to 14) (size 15 to 20)
#    0.000    2.286    2.857    0.857    0.000    2.286 
#    0.000    0.714    0.000    0.857    0.000    6.000 
#    0.000    0.000    0.000   11.000    0.000   11.714 
#
# Total GULP energy -156261.691599 kJ/mol
# GULP energy per Si atom -5580.774700 kJ/mol
# Density = 1.904210 g / cm^3
# Si number density = 19.085542 Si / 1000 Ang^3
#
#
#
# Elastic Constant Matrix: (Units=GPa)
#
#
# Indices 1 2 3 4 5 6 
#
# 1 177.3913 -5.6572 68.8637 -0.0001 6.9862 -0.0002
# 2 -5.6572 46.4420 -3.9288 0.0107 0.0144 -0.0054
# 3 68.8637 -3.9288 74.0979 0.0017 -2.1189 -0.0009
# 4 -0.0001 0.0107 0.0017 7.4326 -0.0001 -4.0718
# 5 6.9862 0.0144 -2.1189 -0.0001 34.4292 0.0001
# 6 -0.0002 -0.0054 -0.0009 -4.0718 0.0001 9.6943
#
#
#
# Elastic Compliance Matrix: (Units=1/GPa)
#
#
# Indices 1 2 3 4 5 6 
#
# 1 0.009011 0.000386 -0.008421 0.000002 -0.002347 0.000000
# 2 0.000386 0.021646 0.000788 -0.000032 -0.000039 -0.000001
# 3 -0.008421 0.000788 0.021450 -0.000006 0.003029 0.000000
# 4 0.000002 -0.000032 -0.000006 0.174751 -0.000001 0.073398
# 5 -0.002347 -0.000039 0.003029 -0.000001 0.029708 0.000000
# 6 0.000000 -0.000001 0.000000 0.073398 0.000000 0.133982
#
#
# Mechanical properties :
#
#
# Convention : Reuss Voigt Hill
#
# Bulk Modulus (GPa) = 26.58676 46.27630 36.43153
# Shear Modulus (GPa) = 11.97373 26.22145 19.09759
#
# Velocity S-wave (km/s) = 2.50746 3.71062 3.16671
# Velocity P-wave (km/s) = 4.72691 6.53129 5.70094
#
# Compressibility (1/GPa) = 0.03761271
#
# Stress axis : x y z
#
# Youngs Moduli (GPa) = 110.97371 46.19804 46.61915
#
# Poissons Ratio (x) = -0.01783 0.39259
# Poissons Ratio (y) = -0.04283 -0.03673
# Poissons Ratio (z) = 0.93454 -0.03640
#
# Static dielectric constant tensor:
#      x y z
#    x 1.680200 0.000000 0.001040 
#    y 0.000000 1.727580 0.000000 
#    z 0.001040 0.000000 1.635210 
# 
# From -- ./inp_files/287346.got.cif
#   From: 2010.05.17/outbox.cif.g08.bks.cpg/sg12_144_cif.got.tgz:287346.got - 2010.06.03 13:09:07.
