data_PCOD9182854
_publ_section_title
;
Structure prediction by ZEFSAII (Michael W. Deem and Ramdas Pophale) SiO2 
 PCOD9182854
Probable space group: C 2/M
;
_chemical_formula_sum "Si O2"
_cell_formula_units_Z 56
_cell_length_a 23.006420
_cell_length_b 7.497188
_cell_length_c 17.941199
_cell_angle_alpha 90.000000
_cell_angle_beta 128.328696
_cell_angle_gamma 90.000000
_cell_volume 2427.576684
_symmetry_space_group_name_H-M "C 2/M"
_symmetry_group_IT_number 12
_symmetry_cell_setting 'monoclinic'
loop_
_space_group_symop_operation_xyz
x,y,z
-x,y,-z
-x,-y,-z
x,-y,z
1/2+x,1/2+y,z
1/2-x,1/2+y,-z
1/2-x,1/2-y,-z
1/2+x,1/2-y,z
loop_
_atom_site_type_symbol
_atom_site_label
_atom_site_fract_x
_atom_site_fract_y
_atom_site_fract_z
Si Si1 0.581117 0.210485 0.577731
Si Si2 0.584253 0.717851 0.042236
Si Si3 0.699833 0.785343 0.556758
Si Si4 0.648927 0.717735 0.248089
Si Si5 0.336788 0.285896 0.049942
Si Si6 0.413622 0.287862 0.655377
Si Si7 0.070769 0.215327 0.733765
O O1 0.500000 0.288491 0.500000
O O2 0.638201 0.285268 0.564607
O O3 0.604248 0.231260 0.681425
O O4 0.577382 0.000000 0.558810
O O5 0.582120 0.500000 0.037015
O O6 0.634211 0.774315 0.152580
O O7 0.500000 0.770784 0.000000
O O8 0.623822 0.776997 0.996226
O O9 0.775984 0.720123 0.652849
O O10 0.664204 0.744207 0.448257
O O11 0.705107 0.000000 0.562737
O O12 0.649533 0.500000 0.246500
O O13 0.587269 0.772645 0.259597
O O14 0.342994 0.500000 0.052104
O O15 0.384299 0.221786 0.158704
O O16 0.250000 0.250000 0.000000
O O17 0.421476 0.500000 0.663788
O O18 0.485679 0.217413 0.670247
O O19 0.070396 0.000000 0.734863
#
# Coordination Sequence:
#
# PCOD9182854 Si02
#       7
#     8   8   8   8   8   8   8
#     4  10  20  34  52  76 105 141 181 216 254 314
#     4   9  17  33  58  83 107 140 187 234 274 321
#     4  10  20  33  50  75 108 138 174 216 260 317
#     4   9  18  31  51  77 103 134 173 220 266 312
#     4  10  22  38  58  85 114 145 184 233 284 333
#     4  10  19  33  53  77 106 138 174 216 265 318
#     4  10  21  35  53  78 108 140 176 218 269 322
#
# _framework density 23.068273000000001
#
# number of rings (size 3 to 8) (size 9 to 14) (size 15 to 20)
#    0.000    2.286    1.429    1.286    2.000    4.857 
#    0.000    0.000    0.000    1.286    0.000    0.000 
#    0.000    0.000    0.000    0.000    0.000    0.000 
#
# Total GULP energy -156226.270480 kJ/mol
# GULP energy per Si atom -5579.509660 kJ/mol
# Density = 2.301577 g / cm^3
# Si number density = 23.068273 Si / 1000 Ang^3
#
#
#
# Elastic Constant Matrix: (Units=GPa)
#
#
# Indices 1 2 3 4 5 6 
#
# 1 112.3184 -3.0166 65.7070 0.0000 -18.8598 0.0000
# 2 -3.0166 61.1134 -12.5150 0.0000 1.7681 0.0000
# 3 65.7070 -12.5150 141.0268 0.0000 -24.2179 0.0000
# 4 0.0000 0.0000 0.0000 21.5832 0.0000 -7.4282
# 5 -18.8598 1.7681 -24.2179 0.0000 46.0631 0.0000
# 6 0.0000 0.0000 0.0000 -7.4282 0.0000 18.7475
#
#
#
# Elastic Compliance Matrix: (Units=1/GPa)
#
#
# Indices 1 2 3 4 5 6 
#
# 1 0.012467 -0.000570 -0.005473 0.000000 0.002249 0.000000
# 2 -0.000570 0.016693 0.001756 0.000000 0.000049 0.000000
# 3 -0.005473 0.001756 0.010333 0.000000 0.003124 0.000000
# 4 0.000000 0.000000 0.000000 0.053648 0.000000 0.021257
# 5 0.002249 0.000049 0.003124 0.000000 0.024271 0.000000
# 6 0.000000 0.000000 0.000000 0.021257 0.000000 0.061763
#
#
# Mechanical properties :
#
#
# Convention : Reuss Voigt Hill
#
# Bulk Modulus (GPa) = 32.34443 46.08994 39.21718
# Shear Modulus (GPa) = 25.24514 34.89763 30.07139
#
# Velocity S-wave (km/s) = 3.31171 3.89369 3.61443
# Velocity P-wave (km/s) = 5.35489 6.34331 5.86994
#
# Compressibility (1/GPa) = 0.03091723
#
# Stress axis : x y z
#
# Youngs Moduli (GPa) = 80.20895 59.90555 96.77476
#
# Poissons Ratio (x) = 0.03418 0.52967
# Poissons Ratio (y) = 0.04576 -0.16989
# Poissons Ratio (z) = 0.43900 -0.10517
#
# Static dielectric constant tensor:
#      x y z
#    x 1.890290 0.000000 0.020000 
#    y 0.000000 1.886800 0.000000 
#    z 0.020000 0.000000 1.839620 
# 
# From -- ./inp_files/288456.got.cif
#   From: 2010.05.17/outbox.cif.g08.bks.cpg/sg12_145_cif.got.tgz:288456.got - 2010.06.03 13:09:07.
