data_PCOD9182751
_publ_section_title
;
Structure prediction by ZEFSAII (Michael W. Deem and Ramdas Pophale) SiO2 
 PCOD9182751
Probable space group: C 2/M
;
_chemical_formula_sum "Si O2"
_cell_formula_units_Z 56
_cell_length_a 31.672309
_cell_length_b 7.414025
_cell_length_c 19.655934
_cell_angle_alpha 90.000000
_cell_angle_beta 34.233932
_cell_angle_gamma 90.000000
_cell_volume 2596.608157
_symmetry_space_group_name_H-M "C 2/M"
_symmetry_group_IT_number 12
_symmetry_cell_setting 'monoclinic'
loop_
_space_group_symop_operation_xyz
x,y,z
-x,y,-z
-x,-y,-z
x,-y,z
1/2+x,1/2+y,z
1/2-x,1/2+y,-z
1/2-x,1/2-y,-z
1/2+x,1/2-y,z
loop_
_atom_site_type_symbol
_atom_site_label
_atom_site_fract_x
_atom_site_fract_y
_atom_site_fract_z
Si Si1 0.805019 0.281595 0.833674
Si Si2 0.557915 0.707682 0.868168
Si Si3 0.640751 0.790359 0.093086
Si Si4 0.076421 0.720134 0.435445
Si Si5 0.995720 0.280988 0.208221
Si Si6 0.625986 0.219739 0.518246
Si Si7 0.275931 0.716223 0.387472
O O1 0.804308 0.500000 0.836727
O O2 0.842935 0.215015 0.853471
O O3 0.853866 0.226030 0.704570
O O4 0.719060 0.222180 0.949066
O O5 0.570284 0.500000 0.873668
O O6 0.517475 0.710876 0.849312
O O7 0.641322 0.786018 0.742933
O O8 0.500000 0.789313 0.000000
O O9 0.572119 0.715896 0.141695
O O10 0.621799 0.000000 0.129803
O O11 0.073646 0.500000 0.440452
O O12 0.091107 0.779669 0.493003
O O13 0.000000 0.778898 0.500000
O O14 0.996742 0.500000 0.202439
O O15 0.927587 0.228431 0.348215
O O16 0.710005 0.279699 0.424758
O O17 0.626858 0.000000 0.514993
O O18 0.279363 0.500000 0.377595
O O19 0.250000 0.750000 0.500000
#
# Coordination Sequence:
#
# PCOD9182751 Si02
#       7
#     8   8   8   8   8   8   8
#     4   9  17  30  49  73 100 134 171 207 251 304
#     4  10  22  37  53  77 109 137 166 216 274 319
#     4   9  18  31  48  71 101 134 169 209 253 302
#     4   9  16  27  47  76 105 129 163 212 256 297
#     4  10  19  33  53  75 100 133 174 215 257 311
#     4   9  17  29  49  75  99 130 171 213 256 300
#     4  10  19  34  55  76 102 136 173 216 260 310
#
# _framework density 21.566597000000002
#
# number of rings (size 3 to 8) (size 9 to 14) (size 15 to 20)
#    0.000    2.571    1.429    0.857    0.000    5.429 
#    0.000    2.857    0.000    2.143    0.000    0.000 
#    0.000    0.000    0.000    0.000    0.000    0.000 
#
# Total GULP energy -156318.986468 kJ/mol
# GULP energy per Si atom -5582.820945 kJ/mol
# Density = 2.151751 g / cm^3
# Si number density = 21.566597 Si / 1000 Ang^3
#
#
#
# Elastic Constant Matrix: (Units=GPa)
#
#
# Indices 1 2 3 4 5 6 
#
# 1 150.4387 -0.4571 88.5514 -0.0112 -16.3882 -0.0005
# 2 -0.4571 69.9088 -1.5231 0.0027 -1.3169 -0.0062
# 3 88.5514 -1.5231 154.4838 -0.0139 4.2497 -0.0073
# 4 -0.0112 0.0027 -0.0139 15.9458 -0.0116 0.1701
# 5 -16.3882 -1.3169 4.2497 -0.0116 38.8502 0.0044
# 6 -0.0005 -0.0062 -0.0073 0.1701 0.0044 10.8480
#
#
#
# Elastic Compliance Matrix: (Units=1/GPa)
#
#
# Indices 1 2 3 4 5 6 
#
# 1 0.011046 0.000032 -0.006479 0.000006 0.005369 -0.000006
# 2 0.000032 0.014316 0.000109 -0.000002 0.000487 0.000008
# 3 -0.006479 0.000109 0.010294 0.000002 -0.003855 0.000008
# 4 0.000006 -0.000002 0.000002 0.062723 0.000021 -0.000984
# 5 0.005369 0.000487 -0.003855 0.000021 0.028443 -0.000014
# 6 -0.000006 0.000008 0.000008 -0.000984 -0.000014 0.092198
#
#
# Mechanical properties :
#
#
# Convention : Reuss Voigt Hill
#
# Bulk Modulus (GPa) = 43.51391 60.88597 52.19994
# Shear Modulus (GPa) = 20.88938 32.34614 26.61776
#
# Velocity S-wave (km/s) = 3.11561 3.87696 3.51695
# Velocity P-wave (km/s) = 5.75873 6.95226 6.38346
#
# Compressibility (1/GPa) = 0.02298116
#
# Stress axis : x y z
#
# Youngs Moduli (GPa) = 90.53114 69.85134 97.14276
#
# Poissons Ratio (x) = -0.00225 0.62939
# Poissons Ratio (y) = -0.00292 -0.01062
# Poissons Ratio (z) = 0.58655 -0.00763
#
# Static dielectric constant tensor:
#      x y z
#    x 1.746210 -0.000010 -0.020010 
#    y -0.000010 1.876040 0.000010 
#    z -0.020010 0.000010 1.756120 
# 
# From -- ./inp_files/280854.got.cif
#   From: 2010.05.17/outbox.cif.g08.bks.cpg/sg12_141_cif.got.tgz:280854.got - 2010.06.03 13:09:07.
