data_PCOD9182873
_publ_section_title
;
Structure prediction by ZEFSAII (Michael W. Deem and Ramdas Pophale) SiO2 
 PCOD9182873
Probable space group: C 2/M
;
_chemical_formula_sum "Si O2"
_cell_formula_units_Z 64
_cell_length_a 30.534701
_cell_length_b 7.512060
_cell_length_c 15.385845
_cell_angle_alpha 90.000000
_cell_angle_beta 128.131529
_cell_angle_gamma 90.000000
_cell_volume 2776.038286
_symmetry_space_group_name_H-M "C 2/M"
_symmetry_group_IT_number 12
_symmetry_cell_setting 'monoclinic'
loop_
_space_group_symop_operation_xyz
x,y,z
-x,y,-z
-x,-y,-z
x,-y,z
1/2+x,1/2+y,z
1/2-x,1/2+y,-z
1/2-x,1/2-y,-z
1/2+x,1/2-y,z
loop_
_atom_site_type_symbol
_atom_site_label
_atom_site_fract_x
_atom_site_fract_y
_atom_site_fract_z
Si Si1 0.125489 0.297836 0.165220
Si Si2 0.377628 0.717256 0.520266
Si Si3 0.181645 0.285531 0.067353
Si Si4 0.192745 0.217977 0.734137
Si Si5 0.311024 0.289449 0.606692
Si Si6 0.877664 0.211974 0.186726
Si Si7 0.982159 0.798568 0.886881
Si Si8 0.999832 0.781571 0.284968
O O1 0.106199 0.500000 0.132476
O O2 0.137562 0.219925 0.085738
O O3 0.181318 0.296781 0.289772
O O4 0.083590 0.197511 0.177484
O O5 0.376928 0.500000 0.519281
O O6 0.337606 0.774042 0.392216
O O7 0.352487 0.776267 0.581773
O O8 0.442792 0.770759 0.596846
O O9 0.182163 0.500000 0.075730
O O10 0.243778 0.223642 0.168502
O O11 0.159598 0.242396 0.944785
O O12 0.154484 0.277992 0.767920
O O13 0.193998 0.000000 0.734962
O O14 0.317637 0.500000 0.623961
O O15 0.250000 0.250000 0.500000
O O16 0.940839 0.278781 0.251184
O O17 0.882772 0.000000 0.203546
O O18 0.996599 0.720711 0.811521
O O19 0.004987 0.000000 0.914556
O O20 0.000000 0.713256 0.000000
O O21 0.000086 0.000000 0.283703
#
# Coordination Sequence:
#
# PCOD9182873 Si02
#       8
#     8   8   8   8   8   8   8   8
#     4  11  22  35  53  79 109 144 187 225 267 325
#     4   9  17  32  54  78 111 145 175 218 279 332
#     4  10  21  37  54  76 112 148 180 222 283 337
#     4   9  18  33  54  81 108 139 178 227 278 326
#     4  11  21  35  56  80 111 149 185 222 272 327
#     4  10  20  34  57  85 107 134 183 233 272 323
#     4  10  19  33  53  77 110 147 180 222 277 331
#     4   9  17  31  51  80 112 141 175 220 275 330
#
# _framework density 23.054438000000001
#
# number of rings (size 3 to 8) (size 9 to 14) (size 15 to 20)
#    0.000    2.125    1.250    2.625    0.000    4.750 
#    0.000    3.125    0.000    1.500    0.000    0.875 
#    0.000    0.000    0.000    0.000    0.000    0.000 
#
# Total GULP energy -178687.479841 kJ/mol
# GULP energy per Si atom -5583.983745 kJ/mol
# Density = 2.300196 g / cm^3
# Si number density = 23.054438 Si / 1000 Ang^3
#
#
#
# Elastic Constant Matrix: (Units=GPa)
#
#
# Indices 1 2 3 4 5 6 
#
# 1 103.2437 13.2679 17.5348 0.0000 0.4420 0.0000
# 2 13.2679 65.6870 -0.8160 0.0000 1.8125 0.0000
# 3 17.5348 -0.8160 108.8562 0.0000 3.2877 0.0000
# 4 0.0000 0.0000 0.0000 3.2739 0.0000 0.1649
# 5 0.4420 1.8125 3.2877 0.0000 44.5433 0.0000
# 6 0.0000 0.0000 0.0000 0.1649 0.0000 2.9749
#
#
#
# Elastic Compliance Matrix: (Units=1/GPa)
#
#
# Indices 1 2 3 4 5 6 
#
# 1 0.010237 -0.002091 -0.001668 0.000000 0.000107 0.000000
# 2 -0.002091 0.015670 0.000474 0.000000 -0.000652 0.000000
# 3 -0.001668 0.000474 0.009480 0.000000 -0.000702 0.000000
# 4 0.000000 0.000000 0.000000 0.306303 0.000000 -0.016979
# 5 0.000107 -0.000652 -0.000702 0.000000 0.022527 0.000000
# 6 0.000000 0.000000 0.000000 -0.016979 0.000000 0.337092
#
#
# Mechanical properties :
#
#
# Convention : Reuss Voigt Hill
#
# Bulk Modulus (GPa) = 34.70228 37.52892 36.11560
# Shear Modulus (GPa) = 6.96878 26.67842 16.82360
#
# Velocity S-wave (km/s) = 1.74049 3.40544 2.70429
# Velocity P-wave (km/s) = 4.37311 5.63706 5.04483
#
# Compressibility (1/GPa) = 0.02881655
#
# Stress axis : x y z
#
# Youngs Moduli (GPa) = 97.68082 63.81603 105.48660
#
# Poissons Ratio (x) = 0.13347 0.17595
# Poissons Ratio (y) = 0.20430 -0.05001
# Poissons Ratio (z) = 0.16293 -0.03025
#
# Static dielectric constant tensor:
#      x y z
#    x 1.928170 0.000000 0.161130 
#    y 0.000000 1.874610 0.000000 
#    z 0.161130 0.000000 2.185750 
# 
# From -- ./inp_files/250113.got.cif
#   From: 2010.05.17/outbox.cif.g08.bks.cpg/sg12_126_cif.got.tgz:250113.got - 2010.06.03 13:09:07.
