data_PCOD9182957
_publ_section_title
;
Structure prediction by ZEFSAII (Michael W. Deem and Ramdas Pophale) SiO2 
 PCOD9182957
Probable space group: C 2/M
;
_chemical_formula_sum "Si O2"
_cell_formula_units_Z 64
_cell_length_a 12.727469
_cell_length_b 11.892882
_cell_length_c 22.644418
_cell_angle_alpha 90.000000
_cell_angle_beta 109.423035
_cell_angle_gamma 90.000000
_cell_volume 3232.533386
_symmetry_space_group_name_H-M "C 2/M"
_symmetry_group_IT_number 12
_symmetry_cell_setting 'monoclinic'
loop_
_space_group_symop_operation_xyz
x,y,z
-x,y,-z
-x,-y,-z
x,-y,z
1/2+x,1/2+y,z
1/2-x,1/2+y,-z
1/2-x,1/2-y,-z
1/2+x,1/2-y,z
loop_
_atom_site_type_symbol
_atom_site_label
_atom_site_fract_x
_atom_site_fract_y
_atom_site_fract_z
Si Si1 0.280499 0.364648 0.800552
Si Si2 0.619203 0.373253 0.554526
Si Si3 0.492983 0.370141 0.215221
Si Si4 0.615090 0.868260 0.993176
Si Si5 0.297523 0.259047 0.104683
Si Si6 0.775265 0.372953 0.425708
Si Si7 0.401129 0.874788 0.325298
Si Si8 0.981140 0.165569 0.641181
O O1 0.280057 0.500000 0.797977
O O2 0.391539 0.322037 0.789153
O O3 0.271466 0.323152 0.865433
O O4 0.173370 0.328594 0.742067
O O5 0.500000 0.368158 0.500000
O O6 0.667642 0.500000 0.551640
O O7 0.681457 0.254892 0.548707
O O8 0.580918 0.371087 0.616276
O O9 0.488387 0.500000 0.196973
O O10 0.389747 0.312805 0.164084
O O11 0.499118 0.366781 0.287330
O O12 0.713630 0.845755 0.058210
O O13 0.604037 0.000000 0.979204
O O14 0.500000 0.826268 0.000000
O O15 0.644263 0.805901 0.938135
O O16 0.809878 0.500000 0.456578
O O17 0.820630 0.377227 0.367010
O O18 0.641102 0.371227 0.401982
O O19 0.507734 0.800048 0.358507
O O20 0.436237 0.000000 0.317260
#
# Coordination Sequence:
#
# PCOD9182957 Si02
#       8
#     8   8   8   8   8   8   8   8
#     4  10  19  33  53  80 112 140 175 224 279 333
#     4  10  23  41  59  84 120 158 199 248 295 342
#     4  11  21  33  54  84 112 141 181 233 284 341
#     4  10  22  40  57  76 107 146 185 228 274 328
#     4  11  21  36  58  81 106 143 186 225 278 336
#     4  10  20  36  61  86 112 153 196 235 287 350
#     4   9  18  33  52  80 115 146 179 226 281 341
#     4  11  20  36  59  83 115 154 191 233 291 353
#
# _framework density 19.798712999999999
#
# number of rings (size 3 to 8) (size 9 to 14) (size 15 to 20)
#    0.000    1.750    2.500    2.625    0.000    1.250 
#    0.000    0.000    0.000    6.750    0.000    0.000 
#    0.000    0.000    0.000    0.000    0.000    0.000 
#
# Total GULP energy -178275.671687 kJ/mol
# GULP energy per Si atom -5571.114740 kJ/mol
# Density = 1.975365 g / cm^3
# Si number density = 19.798713 Si / 1000 Ang^3
#
#
#
# Elastic Constant Matrix: (Units=GPa)
#
#
# Indices 1 2 3 4 5 6 
#
# 1 73.6005 36.8290 22.3944 0.0000 -12.4543 0.0000
# 2 36.8290 108.9873 17.9011 0.0000 12.0163 0.0000
# 3 22.3944 17.9011 65.6730 0.0000 -13.2061 0.0000
# 4 0.0000 0.0000 0.0000 19.6699 0.0000 11.2415
# 5 -12.4543 12.0163 -13.2061 0.0000 31.1099 0.0000
# 6 0.0000 0.0000 0.0000 11.2415 0.0000 20.0738
#
#
#
# Elastic Compliance Matrix: (Units=1/GPa)
#
#
# Indices 1 2 3 4 5 6 
#
# 1 0.019664 -0.007222 -0.002835 0.000000 0.009458 0.000000
# 2 -0.007222 0.013119 -0.002967 0.000000 -0.009218 0.000000
# 3 -0.002835 -0.002967 0.018592 0.000000 0.007903 0.000000
# 4 0.000000 0.000000 0.000000 0.074769 0.000000 -0.041871
# 5 0.009458 -0.009218 0.007903 0.000000 0.042846 0.000000
# 6 0.000000 0.000000 0.000000 -0.041871 0.000000 0.073264
#
#
# Mechanical properties :
#
#
# Convention : Reuss Voigt Hill
#
# Bulk Modulus (GPa) = 39.48336 44.72330 42.10333
# Shear Modulus (GPa) = 18.06726 25.57981 21.82354
#
# Velocity S-wave (km/s) = 3.02412 3.59833 3.32365
# Velocity P-wave (km/s) = 5.67269 6.31680 6.00339
#
# Compressibility (1/GPa) = 0.02532713
#
# Stress axis : x y z
#
# Youngs Moduli (GPa) = 50.85536 76.22247 53.78756
#
# Poissons Ratio (x) = 0.55047 0.15248
# Poissons Ratio (y) = 0.36727 0.15959
# Poissons Ratio (z) = 0.14417 0.22616
#
# Static dielectric constant tensor:
#      x y z
#    x 1.707910 0.000000 -0.007230 
#    y 0.000000 1.745480 0.000000 
#    z -0.007230 0.000000 1.686520 
# 
# From -- ./inp_files/335208.got.cif
#   From: 2010.05.17/outbox.cif.g08.bks.cpg/sg12_168_cif.got.tgz:335208.got - 2010.06.03 13:09:07.
