data_PCOD9182316
_publ_section_title
;
Structure prediction by ZEFSAII (Michael W. Deem and Ramdas Pophale) SiO2 
 PCOD9182316
Probable space group: C 2/M
;
_chemical_formula_sum "Si O2"
_cell_formula_units_Z 44
_cell_length_a 5.256406
_cell_length_b 14.560454
_cell_length_c 28.635110
_cell_angle_alpha 90.000000
_cell_angle_beta 106.041525
_cell_angle_gamma 90.000000
_cell_volume 2106.269476
_symmetry_space_group_name_H-M "C 2/M"
_symmetry_group_IT_number 12
_symmetry_cell_setting 'monoclinic'
loop_
_space_group_symop_operation_xyz
x,y,z
-x,y,-z
-x,-y,-z
x,-y,z
1/2+x,1/2+y,z
1/2-x,1/2+y,-z
1/2-x,1/2-y,-z
1/2+x,1/2-y,z
loop_
_atom_site_type_symbol
_atom_site_label
_atom_site_fract_x
_atom_site_fract_y
_atom_site_fract_z
Si Si1 0.905366 0.110011 0.310889
Si Si2 0.405383 0.187543 0.896119
Si Si3 0.859590 0.809172 0.206438
Si Si4 0.009375 0.611785 0.633118
Si Si5 0.000000 0.314571 0.000000
Si Si6 0.782549 0.352986 0.521587
O O1 0.880419 0.138521 0.256049
O O2 0.661201 0.140965 0.330544
O O3 0.186784 0.141051 0.345984
O O4 0.906880 0.000000 0.312893
O O5 0.688798 0.231258 0.895960
O O6 0.275900 0.139384 0.844525
O O7 0.436233 0.136663 0.947479
O O8 0.648580 0.727156 0.206091
O O9 0.002993 0.500000 0.630159
O O10 0.876698 0.648179 0.579380
O O11 0.250000 0.250000 0.000000
O O12 0.500000 0.397757 0.500000
O O13 0.750000 0.250000 0.500000
O O14 0.000000 0.398092 0.500000
#
# Coordination Sequence:
#
# PCOD9182316 Si02
#       6
#     8   8   8   8   4   8
#     4  10  21  38  55  76 104 135 170 203 244 298
#     4   8  14  23  39  59  95 123 161 203 245 291
#     4  10  19  33  48  77 103 132 167 213 254 293
#     4  10  21  38  58  76  99 132 166 199 236 292
#     4   8  12  20  34  58  83 128 159 194 246 290
#     4  10  21  38  53  77 104 126 154 197 242 286
#
# _framework density 20.890014000000001
#
# number of rings (size 3 to 8) (size 9 to 14) (size 15 to 20)
#    0.000    2.545    0.000    2.182    0.000    0.727 
#   19.636    0.000    0.000    0.000    0.000    0.636 
#    0.000    0.000    0.000   48.909    0.000    1.818 
#
# Total GULP energy -122660.730680 kJ/mol
# GULP energy per Si atom -5575.487758 kJ/mol
# Density = 2.084247 g / cm^3
# Si number density = 20.890014 Si / 1000 Ang^3
#
#
#
# Elastic Constant Matrix: (Units=GPa)
#
#
# Indices 1 2 3 4 5 6 
#
# 1 124.4971 -4.1191 -9.1272 0.0000 -4.2401 0.0000
# 2 -4.1191 45.8811 -2.9958 0.0000 1.9556 0.0000
# 3 -9.1272 -2.9958 133.6701 0.0000 -1.4872 0.0000
# 4 0.0000 0.0000 0.0000 45.2032 0.0000 -21.2890
# 5 -4.2401 1.9556 -1.4872 0.0000 35.3959 0.0000
# 6 0.0000 0.0000 0.0000 -21.2890 0.0000 -1.1357
#
#
#
# Elastic Compliance Matrix: (Units=1/GPa)
#
#
# Indices 1 2 3 4 5 6 
#
# 1 0.008132 0.000727 0.000582 0.000000 0.000958 0.000000
# 2 0.000727 0.021942 0.000529 0.000000 -0.001103 0.000000
# 3 0.000582 0.000529 0.007537 0.000000 0.000357 0.000000
# 4 0.000000 0.000000 0.000000 0.002251 0.000000 -0.042193
# 5 0.000958 -0.001103 0.000357 0.000000 0.028443 0.000000
# 6 0.000000 0.000000 0.000000 -0.042193 0.000000 -0.089590
#
#
# Mechanical properties :
#
#
# Convention : Reuss Voigt Hill
#
# Bulk Modulus (GPa) = 24.22022 30.17381 27.19702
# Shear Modulus (GPa) = -446.42101 37.24537 -204.58782
#
# Velocity S-wave (km/s) = -14.63436 4.22705 -9.90698
# Velocity P-wave (km/s) = 16.55094 6.18866 10.85435
#
# Compressibility (1/GPa) = 0.04128781
#
# Stress axis : x y z
#
# Youngs Moduli (GPa) = 122.97553 45.57406 132.68427
#
# Poissons Ratio (x) = -0.03314 -0.07725
# Poissons Ratio (y) = -0.08943 -0.07021
# Poissons Ratio (z) = -0.07160 -0.02412
#
# Static dielectric constant tensor:
#      x y z
#    x 1.753650 0.000000 -0.001380 
#    y 0.000000 1.731060 0.000000 
#    z -0.001380 0.000000 1.788830 
# 
# From -- ./inp_files/297619.got.cif
#   From: 2010.05.17/outbox.cif.g08.bks.cpg/sg12_149_cif.got.tgz:297619.got - 2010.06.03 13:09:07.
