data_PCOD9182829
_publ_section_title
;
Structure prediction by ZEFSAII (Michael W. Deem and Ramdas Pophale) SiO2 
 PCOD9182829
Probable space group: C 2/M
;
_chemical_formula_sum "Si O2"
_cell_formula_units_Z 56
_cell_length_a 27.622904
_cell_length_b 8.547436
_cell_length_c 15.155486
_cell_angle_alpha 90.000000
_cell_angle_beta 127.393997
_cell_angle_gamma 90.000000
_cell_volume 2842.870474
_symmetry_space_group_name_H-M "C 2/M"
_symmetry_group_IT_number 12
_symmetry_cell_setting 'monoclinic'
loop_
_space_group_symop_operation_xyz
x,y,z
-x,y,-z
-x,-y,-z
x,-y,z
1/2+x,1/2+y,z
1/2-x,1/2+y,-z
1/2-x,1/2-y,-z
1/2+x,1/2-y,z
loop_
_atom_site_type_symbol
_atom_site_label
_atom_site_fract_x
_atom_site_fract_y
_atom_site_fract_z
Si Si1 0.355645 0.175549 0.785932
Si Si2 0.424870 0.809795 0.155053
Si Si3 0.809715 0.319014 0.929653
Si Si4 0.522184 0.678430 0.125635
Si Si5 0.189859 0.689332 0.707553
Si Si6 0.556334 0.809354 0.623356
Si Si7 0.243289 0.676532 0.587810
O O1 0.351932 0.185240 0.887861
O O2 0.420225 0.207143 0.813908
O O3 0.310427 0.308246 0.702618
O O4 0.333677 0.000000 0.738722
O O5 0.470504 0.738481 0.134055
O O6 0.446697 0.765780 0.277066
O O7 0.425406 0.000000 0.148606
O O8 0.355049 0.759019 0.056044
O O9 0.795338 0.500000 0.932483
O O10 0.746181 0.238479 0.832859
O O11 0.539430 0.500000 0.167948
O O12 0.500000 0.676484 0.000000
O O13 0.190688 0.500000 0.705924
O O14 0.123108 0.740799 0.663726
O O15 0.203154 0.749049 0.622504
O O16 0.500000 0.755655 0.500000
O O17 0.555807 0.000000 0.619689
O O18 0.222467 0.500000 0.553012
O O19 0.250000 0.750000 0.500000
#
# Coordination Sequence:
#
# PCOD9182829 Si02
#       7
#     8   8   8   8   8   8   8
#     4  10  19  33  53  76 110 149 184 226 278 334
#     4  10  20  35  57  83 111 147 191 235 278 337
#     4   9  18  32  52  81 111 139 178 227 280 334
#     4  11  22  34  52  81 117 150 181 224 282 339
#     4   9  19  35  56  80 109 146 185 230 282 334
#     4   9  19  37  59  82 109 144 189 236 278 328
#     4  10  20  34  53  80 113 146 189 235 281 336
#
# _framework density 19.698398999999998
#
# number of rings (size 3 to 8) (size 9 to 14) (size 15 to 20)
#    0.000    2.286    1.429    1.286    0.000    4.000 
#    0.000    3.571    0.000    1.714    0.000    0.000 
#    0.000    0.000    0.000    0.000    0.000    0.000 
#
# Total GULP energy -156014.206115 kJ/mol
# GULP energy per Si atom -5571.935933 kJ/mol
# Density = 1.965356 g / cm^3
# Si number density = 19.698399 Si / 1000 Ang^3
#
#
#
# Elastic Constant Matrix: (Units=GPa)
#
#
# Indices 1 2 3 4 5 6 
#
# 1 125.9703 18.3647 61.8479 0.0000 8.4940 0.0000
# 2 18.3647 24.6634 15.1270 0.0000 -3.7173 0.0000
# 3 61.8479 15.1270 123.1130 0.0000 -7.3910 0.0000
# 4 0.0000 0.0000 0.0000 21.8873 0.0000 7.5593
# 5 8.4940 -3.7173 -7.3910 0.0000 24.0846 0.0000
# 6 0.0000 0.0000 0.0000 7.5593 0.0000 13.9438
#
#
#
# Elastic Compliance Matrix: (Units=1/GPa)
#
#
# Indices 1 2 3 4 5 6 
#
# 1 0.012202 -0.006633 -0.005740 0.000000 -0.007089 0.000000
# 2 -0.006633 0.048108 -0.002030 0.000000 0.009141 0.000000
# 3 -0.005740 -0.002030 0.011572 0.000000 0.005262 0.000000
# 4 0.000000 0.000000 0.000000 0.056214 0.000000 -0.030475
# 5 -0.007089 0.009141 0.005262 0.000000 0.047046 0.000000
# 6 0.000000 0.000000 0.000000 -0.030475 0.000000 0.088238
#
#
# Mechanical properties :
#
#
# Convention : Reuss Voigt Hill
#
# Bulk Modulus (GPa) = 23.21562 51.60289 37.40925
# Shear Modulus (GPa) = 16.31088 23.87695 20.09392
#
# Velocity S-wave (km/s) = 2.88067 3.48534 3.19733
# Velocity P-wave (km/s) = 4.78283 6.51538 5.71514
#
# Compressibility (1/GPa) = 0.04307446
#
# Stress axis : x y z
#
# Youngs Moduli (GPa) = 81.95590 20.78659 86.41797
#
# Poissons Ratio (x) = 0.13788 0.49606
# Poissons Ratio (y) = 0.54363 0.17542
# Poissons Ratio (z) = 0.47045 0.04220
#
# Static dielectric constant tensor:
#      x y z
#    x 1.700060 0.000000 -0.015240 
#    y 0.000000 1.704880 0.000000 
#    z -0.015240 0.000000 1.738380 
# 
# From -- ./inp_files/238998.got.cif
#   From: 2010.05.17/outbox.cif.g08.bks.cpg/sg12_120_cif.got.tgz:238998.got - 2010.06.03 13:09:07.
