data_PCOD9182615
_publ_section_title
;
Structure prediction by ZEFSAII (Michael W. Deem and Ramdas Pophale) SiO2 
 PCOD9182615
Probable space group: C 2/M
;
_chemical_formula_sum "Si O2"
_cell_formula_units_Z 56
_cell_length_a 19.576999
_cell_length_b 8.825248
_cell_length_c 22.334651
_cell_angle_alpha 90.000000
_cell_angle_beta 124.501888
_cell_angle_gamma 90.000000
_cell_volume 3180.065658
_symmetry_space_group_name_H-M "C 2/M"
_symmetry_group_IT_number 12
_symmetry_cell_setting 'monoclinic'
loop_
_space_group_symop_operation_xyz
x,y,z
-x,y,-z
-x,-y,-z
x,-y,z
1/2+x,1/2+y,z
1/2-x,1/2+y,-z
1/2-x,1/2-y,-z
1/2+x,1/2-y,z
loop_
_atom_site_type_symbol
_atom_site_label
_atom_site_fract_x
_atom_site_fract_y
_atom_site_fract_z
Si Si1 0.991052 0.316350 0.400978
Si Si2 0.942906 0.317566 0.915892
Si Si3 0.468943 0.319881 0.799010
Si Si4 0.744463 0.819869 0.193738
Si Si5 0.135909 0.683007 0.555669
Si Si6 0.585964 0.181258 0.761944
Si Si7 0.205219 0.680062 0.313442
O O1 0.991739 0.500000 0.400855
O O2 0.080369 0.269498 0.471127
O O3 0.920903 0.274285 0.414896
O O4 0.965054 0.265515 0.322388
O O5 0.947913 0.500000 0.910434
O O6 0.969518 0.241316 0.867117
O O7 0.845869 0.281744 0.877589
O O8 0.000000 0.274076 0.000000
O O9 0.467720 0.500000 0.798288
O O10 0.545822 0.256793 0.799754
O O11 0.384349 0.256946 0.727024
O O12 0.819595 0.728983 0.202594
O O13 0.737093 0.789016 0.261327
O O14 0.758757 0.000000 0.193622
O O15 0.143782 0.500000 0.559505
O O16 0.225287 0.756752 0.607611
O O17 0.579314 0.000000 0.762861
O O18 0.195768 0.500000 0.315254
#
# Coordination Sequence:
#
# PCOD9182615 Si02
#       7
#     8   8   8   8   8   8   8
#     4   8  16  28  48  75 105 139 177 224 272 320
#     4   9  19  39  64  87 112 140 171 212 261 313
#     4  11  23  37  55  79 109 143 178 220 266 315
#     4   9  18  32  53  81 109 137 173 215 259 311
#     4   9  15  29  50  75 103 136 181 227 274 318
#     4  11  20  34  54  78 108 144 182 219 267 320
#     4  10  19  33  52  77 106 139 182 228 269 318
#
# _framework density 17.609698000000002
#
# number of rings (size 3 to 8) (size 9 to 14) (size 15 to 20)
#    0.000    2.429    1.429    3.857    0.000    2.571 
#    0.000    4.286    0.000    0.000    0.000    0.000 
#    0.000    0.000    0.000    0.000    0.000    0.000 
#
# Total GULP energy -156202.056154 kJ/mol
# GULP energy per Si atom -5578.644863 kJ/mol
# Density = 1.756962 g / cm^3
# Si number density = 17.609698 Si / 1000 Ang^3
#
#
#
# Elastic Constant Matrix: (Units=GPa)
#
#
# Indices 1 2 3 4 5 6 
#
# 1 84.9864 46.3687 44.2316 0.0000 3.9842 0.0000
# 2 46.3687 49.3011 35.0263 0.0000 4.2778 0.0000
# 3 44.2316 35.0263 112.3988 0.0000 18.9763 0.0000
# 4 0.0000 0.0000 0.0000 23.0485 0.0000 4.8291
# 5 3.9842 4.2778 18.9763 0.0000 19.2910 0.0000
# 6 0.0000 0.0000 0.0000 4.8291 0.0000 24.9404
#
#
#
# Elastic Compliance Matrix: (Units=1/GPa)
#
#
# Indices 1 2 3 4 5 6 
#
# 1 0.025223 -0.021271 -0.003854 0.000000 0.003299 0.000000
# 2 -0.021271 0.044102 -0.005352 0.000000 -0.000122 0.000000
# 3 -0.003854 -0.005352 0.014086 0.000000 -0.011873 0.000000
# 4 0.000000 0.000000 0.000000 0.045221 0.000000 -0.008756
# 5 0.003299 -0.000122 -0.011873 0.000000 0.062863 0.000000
# 6 0.000000 0.000000 0.000000 -0.008756 0.000000 0.041791
#
#
# Mechanical properties :
#
#
# Convention : Reuss Voigt Hill
#
# Bulk Modulus (GPa) = 44.53009 55.32662 49.92836
# Shear Modulus (GPa) = 16.57118 21.52662 19.04890
#
# Velocity S-wave (km/s) = 3.07094 3.50012 3.29253
# Velocity P-wave (km/s) = 6.15763 6.91527 6.54742
#
# Compressibility (1/GPa) = 0.02245672
#
# Stress axis : x y z
#
# Youngs Moduli (GPa) = 39.64560 22.67448 70.99161
#
# Poissons Ratio (x) = 0.48231 0.27363
# Poissons Ratio (y) = 0.84330 0.37997
# Poissons Ratio (z) = 0.15281 0.12136
#
# Static dielectric constant tensor:
#      x y z
#    x 1.582160 0.000000 0.007780 
#    y 0.000000 1.585040 0.000000 
#    z 0.007780 0.000000 1.603810 
# 
# From -- ./inp_files/314372.got.cif
#   From: 2010.05.17/outbox.cif.g08.bks.cpg/sg12_158_cif.got.tgz:314372.got - 2010.06.03 13:09:07.
