data_PCOD9182264
_publ_section_title
;
Structure prediction by ZEFSAII (Michael W. Deem and Ramdas Pophale) SiO2 
 PCOD9182264
Probable space group: C 2/M
;
_chemical_formula_sum "Si O2"
_cell_formula_units_Z 48
_cell_length_a 9.308453
_cell_length_b 22.974794
_cell_length_c 14.537561
_cell_angle_alpha 90.000000
_cell_angle_beta 40.474668
_cell_angle_gamma 90.000000
_cell_volume 2018.088386
_symmetry_space_group_name_H-M "C 2/M"
_symmetry_group_IT_number 12
_symmetry_cell_setting 'monoclinic'
loop_
_space_group_symop_operation_xyz
x,y,z
-x,y,-z
-x,-y,-z
x,-y,z
1/2+x,1/2+y,z
1/2-x,1/2+y,-z
1/2-x,1/2-y,-z
1/2+x,1/2-y,z
loop_
_atom_site_type_symbol
_atom_site_label
_atom_site_fract_x
_atom_site_fract_y
_atom_site_fract_z
Si Si1 0.752604 0.825549 0.614107
Si Si2 0.004135 0.261760 0.898007
Si Si3 0.671023 0.151788 0.265018
Si Si4 0.288211 0.433178 0.707882
Si Si5 0.419130 0.568771 0.263071
Si Si6 0.796716 0.433954 0.925472
O O1 0.618082 0.800027 0.765382
O O2 0.577956 0.821675 0.616235
O O3 0.782301 0.893830 0.620738
O O4 0.000000 0.800162 0.500000
O O5 0.149508 0.203056 0.829856
O O6 0.000000 0.290422 0.000000
O O7 0.750000 0.250000 0.000000
O O8 0.724408 0.110886 0.325471
O O9 0.702272 0.111419 0.158675
O O10 0.339049 0.500000 0.663762
O O11 0.457988 0.412300 0.703028
O O12 0.031341 0.431092 0.863982
O O13 0.360959 0.500000 0.298697
O O14 0.600776 0.574446 0.093019
O O15 0.779229 0.500000 0.895704
#
# Coordination Sequence:
#
# PCOD9182264 Si02
#       6
#     8   8   8   8   8   8
#     4  11  27  47  68  95 132 178 225 271 327 395
#     4  12  26  46  71 102 130 172 219 278 332 393
#     4  11  23  39  62  91 132 170 222 265 330 390
#     4   9  20  37  61  93 128 173 218 263 324 393
#     4  10  19  32  58  97 134 168 212 274 333 385
#     4   9  17  31  56  92 133 171 212 266 327 392
#
# _framework density 23.784883000000001
#
# number of rings (size 3 to 8) (size 9 to 14) (size 15 to 20)
#    0.000    1.667    1.667    2.500    4.667    5.000 
#    0.000    0.833    0.000    2.000    0.000    0.000 
#    0.000    0.000    0.000    0.000    0.000    0.000 
#
# Total GULP energy -134209.074216 kJ/mol
# GULP energy per Si atom -5592.044759 kJ/mol
# Density = 2.373075 g / cm^3
# Si number density = 23.784883 Si / 1000 Ang^3
#
#
#
# Elastic Constant Matrix: (Units=GPa)
#
#
# Indices 1 2 3 4 5 6 
#
# 1 160.8090 31.3124 39.5607 0.0000 -40.2902 0.0000
# 2 31.3124 73.5607 8.2521 0.0000 -11.6289 0.0000
# 3 39.5607 8.2521 88.3119 0.0000 -42.9489 0.0000
# 4 0.0000 0.0000 0.0000 1.3391 0.0000 -8.2280
# 5 -40.2902 -11.6289 -42.9489 0.0000 40.5699 0.0000
# 6 0.0000 0.0000 0.0000 -8.2280 0.0000 36.4171
#
#
#
# Elastic Compliance Matrix: (Units=1/GPa)
#
#
# Indices 1 2 3 4 5 6 
#
# 1 0.008685 -0.002421 0.000397 0.000000 0.008352 0.000000
# 2 -0.002421 0.014993 0.001246 0.000000 0.003212 0.000000
# 3 0.000397 0.001246 0.023487 0.000000 0.025616 0.000000
# 4 0.000000 0.000000 0.000000 -1.923333 0.000000 -0.434553
# 5 0.008352 0.003212 0.025616 0.000000 0.060982 0.000000
# 6 0.000000 0.000000 0.000000 -0.434553 0.000000 -0.070722
#
#
# Mechanical properties :
#
#
# Convention : Reuss Voigt Hill
#
# Bulk Modulus (GPa) = 21.92586 53.43691 37.68139
# Shear Modulus (GPa) = -2.67501 31.90229 14.61364
#
# Velocity S-wave (km/s) = -1.06165 3.66633 2.48142
# Velocity P-wave (km/s) = 2.78129 6.35910 4.90784
#
# Compressibility (1/GPa) = 0.04560824
#
# Stress axis : x y z
#
# Youngs Moduli (GPa) = 115.14532 66.69867 42.57680
#
# Poissons Ratio (x) = 0.16148 -0.01692
# Poissons Ratio (y) = 0.27878 -0.05303
# Poissons Ratio (z) = -0.04576 -0.08308
#
# Static dielectric constant tensor:
#      x y z
#    x 1.900990 0.000000 -0.046020 
#    y 0.000000 1.915330 0.000000 
#    z -0.046020 0.000000 1.930110 
# 
# From -- ./inp_files/200156.got.cif
#   From: 2010.05.17/outbox.cif.g08.bks.cpg/sg12_101_cif.got.tgz:200156.got - 2010.06.03 13:09:07.
