data_PCOD9182046
_publ_section_title
;
Structure prediction by ZEFSAII (Michael W. Deem and Ramdas Pophale) SiO2 
 PCOD9182046
Probable space group: C 2/M
;
_chemical_formula_sum "Si O2"
_cell_formula_units_Z 64
_cell_length_a 15.841622
_cell_length_b 8.652117
_cell_length_c 24.462747
_cell_angle_alpha 90.000000
_cell_angle_beta 88.496767
_cell_angle_gamma 90.000000
_cell_volume 3351.797432
_symmetry_space_group_name_H-M "C 2/M"
_symmetry_group_IT_number 12
_symmetry_cell_setting 'monoclinic'
loop_
_space_group_symop_operation_xyz
x,y,z
-x,y,-z
-x,-y,-z
x,-y,z
1/2+x,1/2+y,z
1/2-x,1/2+y,-z
1/2-x,1/2-y,-z
1/2+x,1/2-y,z
loop_
_atom_site_type_symbol
_atom_site_label
_atom_site_fract_x
_atom_site_fract_y
_atom_site_fract_z
Si Si1 0.399823 0.813115 0.673853
Si Si2 0.850455 0.183670 0.439278
Si Si3 0.848801 0.685048 0.554037
Si Si4 0.413639 0.186008 0.325127
Si Si5 0.238201 0.314523 0.134152
Si Si6 0.243652 0.314616 0.744804
Si Si7 0.894359 0.812272 0.056939
Si Si8 0.084880 0.186905 0.068959
O O1 0.392573 0.770180 0.609910
O O2 0.492164 0.766426 0.693180
O O3 0.324582 0.738237 0.708803
O O4 0.391396 0.000000 0.677109
O O5 0.881803 0.239237 0.497935
O O6 0.750607 0.225937 0.438345
O O7 0.895036 0.259023 0.386809
O O8 0.856987 0.000000 0.435287
O O9 0.854570 0.500000 0.547911
O O10 0.339896 0.240714 0.286114
O O11 0.411941 0.000000 0.325419
O O12 0.238574 0.500000 0.134559
O O13 0.251308 0.253315 0.194829
O O14 0.315525 0.259298 0.094188
O O15 0.150286 0.256543 0.110389
O O16 0.241577 0.500000 0.747720
O O17 0.986821 0.765678 0.077533
O O18 0.893964 0.000000 0.057195
O O19 0.889226 0.766219 0.993368
O O20 0.088351 0.000000 0.071834
#
# Coordination Sequence:
#
# PCOD9182046 Si02
#       8
#     8   8   8   8   8   8   8   8
#     4  10  21  40  62  83 108 144 185 229 282 338
#     4  10  19  32  55  84 113 145 182 223 272 332
#     4   9  18  33  55  81 111 146 180 219 276 337
#     4  10  22  39  60  82 109 143 183 231 284 336
#     4  11  22  36  56  83 114 150 189 230 277 329
#     4  11  24  41  58  80 109 145 188 236 282 326
#     4   8  17  34  58  86 118 154 186 223 276 331
#     4   9  17  35  60  86 117 151 189 229 271 325
#
# _framework density 19.094234
#
# number of rings (size 3 to 8) (size 9 to 14) (size 15 to 20)
#    0.000    2.250    1.250    2.250    0.000    3.500 
#    0.000    8.125    0.000    0.000    0.000    0.000 
#    0.000    0.000    0.000    0.000    0.000    0.000 
#
# Total GULP energy -178669.224889 kJ/mol
# GULP energy per Si atom -5583.413278 kJ/mol
# Density = 1.905077 g / cm^3
# Si number density = 19.094234 Si / 1000 Ang^3
#
#
#
# Elastic Constant Matrix: (Units=GPa)
#
#
# Indices 1 2 3 4 5 6 
#
# 1 100.4770 24.6965 38.6350 0.0000 14.6310 0.0000
# 2 24.6965 14.7961 16.4265 0.0000 6.0839 0.0000
# 3 38.6350 16.4265 73.0125 0.0000 11.2571 0.0000
# 4 0.0000 0.0000 0.0000 9.3007 0.0000 -4.1188
# 5 14.6310 6.0839 11.2571 0.0000 -6.1620 0.0000
# 6 0.0000 0.0000 0.0000 -4.1188 0.0000 20.3797
#
#
#
# Elastic Compliance Matrix: (Units=1/GPa)
#
#
# Indices 1 2 3 4 5 6 
#
# 1 0.017136 -0.026863 -0.004063 0.000000 0.006742 0.000000
# 2 -0.026863 0.120869 -0.016809 0.000000 0.024845 0.000000
# 3 -0.004063 -0.016809 0.018472 0.000000 0.007501 0.000000
# 4 0.000000 0.000000 0.000000 0.118087 0.000000 0.023866
# 5 0.006742 0.024845 0.007501 0.000000 -0.108043 0.000000
# 6 0.000000 0.000000 0.000000 0.023866 0.000000 0.053892
#
#
# Mechanical properties :
#
#
# Convention : Reuss Voigt Hill
#
# Bulk Modulus (GPa) = 16.39199 38.64461 27.51830
# Shear Modulus (GPa) = 14.87129 11.93885 13.40507
#
# Velocity S-wave (km/s) = 2.79379 2.50323 2.65249
# Velocity P-wave (km/s) = 4.36010 5.35142 4.88099
#
# Compressibility (1/GPa) = 0.06100540
#
# Stress axis : x y z
#
# Youngs Moduli (GPa) = 58.35669 8.27343 54.13709
#
# Poissons Ratio (x) = 0.22225 0.21998
# Poissons Ratio (y) = 1.56764 0.90999
# Poissons Ratio (z) = 0.23713 0.13907
#
# Static dielectric constant tensor:
#      x y z
#    x 1.680620 0.000000 0.008080 
#    y 0.000000 1.644180 0.000000 
#    z 0.008080 0.000000 1.632240 
# 
# From -- ./inp_files/338766.got.cif
#   From: 2010.05.17/outbox.cif.g08.bks.cpg/sg12_170_cif.got.tgz:338766.got - 2010.06.03 13:09:07.
