data_PCOD9182161
_publ_section_title
;
Structure prediction by ZEFSAII (Michael W. Deem and Ramdas Pophale) SiO2 
 PCOD9182161
Probable space group: C 2/M
;
_chemical_formula_sum "Si O2"
_cell_formula_units_Z 56
_cell_length_a 31.358115
_cell_length_b 7.551341
_cell_length_c 12.205071
_cell_angle_alpha 90.000000
_cell_angle_beta 122.326807
_cell_angle_gamma 90.000000
_cell_volume 2442.176682
_symmetry_space_group_name_H-M "C 2/M"
_symmetry_group_IT_number 12
_symmetry_cell_setting 'monoclinic'
loop_
_space_group_symop_operation_xyz
x,y,z
-x,y,-z
-x,-y,-z
x,-y,z
1/2+x,1/2+y,z
1/2-x,1/2+y,-z
1/2-x,1/2-y,-z
1/2+x,1/2-y,z
loop_
_atom_site_type_symbol
_atom_site_label
_atom_site_fract_x
_atom_site_fract_y
_atom_site_fract_z
Si Si1 0.077000 0.714272 0.841959
Si Si2 0.230913 0.696881 0.854509
Si Si3 0.632495 0.216916 0.318981
Si Si4 0.517122 0.784163 0.145111
Si Si5 0.653608 0.205264 0.581209
Si Si6 0.443290 0.704914 0.430391
Si Si7 0.331573 0.215320 0.871452
O O1 0.077021 0.500000 0.837904
O O2 0.080354 0.780819 0.723187
O O3 0.024276 0.773594 0.823708
O O4 0.122824 0.766510 0.984402
O O5 0.211200 0.500000 0.847786
O O6 0.186844 0.789556 0.723918
O O7 0.279798 0.706786 0.844792
O O8 0.250000 0.750000 0.000000
O O9 0.574096 0.273450 0.242974
O O10 0.658797 0.280638 0.466417
O O11 0.656178 0.269638 0.235819
O O12 0.632493 0.000000 0.319666
O O13 0.516870 0.000000 0.146173
O O14 0.500000 0.730784 0.000000
O O15 0.595304 0.209026 0.537883
O O16 0.669506 0.000000 0.593538
O O17 0.500000 0.780805 0.500000
O O18 0.447879 0.500000 0.468836
O O19 0.328058 0.000000 0.869786
#
# Coordination Sequence:
#
# PCOD9182161 Si02
#       7
#     8   8   8   8   8   8   8
#     4  10  19  32  56  86 113 145 190 236 275 327
#     4  11  24  41  60  83 111 145 191 239 284 333
#     4   9  17  32  55  84 117 146 179 228 281 332
#     4   9  14  25  49  83 115 141 175 222 271 319
#     4  10  22  40  61  84 110 146 192 237 277 327
#     4  11  24  39  55  80 116 152 186 227 280 338
#     4  10  20  35  58  88 116 144 183 230 283 339
#
# _framework density 22.930365999999999
#
# number of rings (size 3 to 8) (size 9 to 14) (size 15 to 20)
#    0.000    2.000    1.429    2.571    0.000    8.000 
#    0.000    0.714    0.000    1.286    0.000    0.000 
#    0.000    0.000    0.000    0.000    0.000    0.000 
#
# Total GULP energy -156478.836319 kJ/mol
# GULP energy per Si atom -5588.529869 kJ/mol
# Density = 2.287818 g / cm^3
# Si number density = 22.930366 Si / 1000 Ang^3
#
#
#
# Elastic Constant Matrix: (Units=GPa)
#
#
# Indices 1 2 3 4 5 6 
#
# 1 87.0946 -16.1671 33.3316 0.0000 -4.1952 0.0000
# 2 -16.1671 50.3688 3.3763 0.0000 3.8555 0.0000
# 3 33.3316 3.3763 164.1887 0.0000 -12.2902 0.0000
# 4 0.0000 0.0000 0.0000 -41.8371 0.0000 25.0342
# 5 -4.1952 3.8555 -12.2902 0.0000 36.4650 0.0000
# 6 0.0000 0.0000 0.0000 25.0342 0.0000 1.9236
#
#
#
# Elastic Compliance Matrix: (Units=1/GPa)
#
#
# Indices 1 2 3 4 5 6 
#
# 1 0.013391 0.004476 -0.002801 0.000000 0.000123 0.000000
# 2 0.004476 0.021567 -0.001523 0.000000 -0.002279 0.000000
# 3 -0.002801 -0.001523 0.006851 0.000000 0.002148 0.000000
# 4 0.000000 0.000000 0.000000 -0.002720 0.000000 0.035400
# 5 0.000123 -0.002279 0.002148 0.000000 0.028403 0.000000
# 6 0.000000 0.000000 0.000000 0.035400 0.000000 0.059160
#
#
# Mechanical properties :
#
#
# Convention : Reuss Voigt Hill
#
# Bulk Modulus (GPa) = 23.74530 38.08153 30.91341
# Shear Modulus (GPa) = 35.61656 18.05104 26.83380
#
# Velocity S-wave (km/s) = 3.94540 2.80877 3.42457
# Velocity P-wave (km/s) = 5.57968 5.21176 5.39886
#
# Compressibility (1/GPa) = 0.04211360
#
# Stress axis : x y z
#
# Youngs Moduli (GPa) = 74.67869 46.36742 145.95714
#
# Poissons Ratio (x) = -0.20756 0.40886
# Poissons Ratio (y) = -0.33429 0.22226
# Poissons Ratio (z) = 0.20919 0.07061
#
# Static dielectric constant tensor:
#      x y z
#    x 1.802570 0.000000 0.008740 
#    y 0.000000 1.882920 0.000000 
#    z 0.008740 0.000000 1.887540 
# 
# From -- ./inp_files/187768.got.cif
#   From: 2010.05.17/outbox.cif.g08.bks.cpg/sg12_94_cif.got.tgz:187768.got - 2010.06.03 13:09:07.
