data_PCOD9183387
_publ_section_title
;
Structure prediction by ZEFSAII (Michael W. Deem and Ramdas Pophale) SiO2 
 PCOD9183387
Probable space group: C 2/M
;
_chemical_formula_sum "Si O2"
_cell_formula_units_Z 48
_cell_length_a 22.019880
_cell_length_b 13.020991
_cell_length_c 11.255120
_cell_angle_alpha 90.000000
_cell_angle_beta 61.501344
_cell_angle_gamma 90.000000
_cell_volume 2836.045228
_symmetry_space_group_name_H-M "C 2/M"
_symmetry_group_IT_number 12
_symmetry_cell_setting 'monoclinic'
loop_
_space_group_symop_operation_xyz
x,y,z
-x,y,-z
-x,-y,-z
x,-y,z
1/2+x,1/2+y,z
1/2-x,1/2+y,-z
1/2-x,1/2-y,-z
1/2+x,1/2-y,z
loop_
_atom_site_type_symbol
_atom_site_label
_atom_site_fract_x
_atom_site_fract_y
_atom_site_fract_z
Si Si1 0.788194 0.383646 0.883336
Si Si2 0.292027 0.620200 0.544037
Si Si3 0.921470 0.878595 0.043274
Si Si4 0.285677 0.693399 0.285120
Si Si5 0.646388 0.672434 0.137206
Si Si6 0.923875 0.880284 0.551205
O O1 0.813597 0.500000 0.864207
O O2 0.758407 0.357304 0.779994
O O3 0.842344 0.295025 0.865022
O O4 0.721879 0.371336 0.032155
O O5 0.286966 0.500000 0.578688
O O6 0.277218 0.637047 0.419031
O O7 0.240948 0.691360 0.667838
O O8 0.370151 0.658213 0.501897
O O9 0.904236 0.858791 0.921769
O O10 0.910506 0.000000 0.078516
O O11 0.864773 0.816229 0.170447
O O12 0.000000 0.853034 0.000000
O O13 0.617503 0.630607 0.287227
O O14 0.000000 0.833310 0.500000
O O15 0.935038 0.000000 0.510791
#
# Coordination Sequence:
#
# PCOD9183387 Si02
#       6
#     8   8   8   8   8   8
#     4  10  19  33  55  76 101 135 171 215 256 299
#     4  10  20  33  53  78 106 139 173 210 257 307
#     4  10  21  35  55  79 105 135 167 213 264 309
#     4  10  19  35  52  77 106 136 175 213 254 304
#     4  10  19  34  51  78 103 131 171 212 256 307
#     4  10  20  32  50  78 108 135 164 208 264 311
#
# _framework density 16.924976999999998
#
# number of rings (size 3 to 8) (size 9 to 14) (size 15 to 20)
#    0.000    2.000    1.667    4.000    2.333    0.000 
#    0.000    0.000    0.000    2.500    0.000    0.000 
#    0.000    0.000    0.000    0.000    0.000    0.000 
#
# Total GULP energy -133824.044399 kJ/mol
# GULP energy per Si atom -5576.001850 kJ/mol
# Density = 1.688645 g / cm^3
# Si number density = 16.924977 Si / 1000 Ang^3
#
#
#
# Elastic Constant Matrix: (Units=GPa)
#
#
# Indices 1 2 3 4 5 6 
#
# 1 61.4034 18.3139 11.0206 0.0000 -17.3189 0.0000
# 2 18.3139 77.1208 0.4590 0.0000 -11.6821 0.0000
# 3 11.0206 0.4590 39.9597 0.0000 5.0003 0.0000
# 4 0.0000 0.0000 0.0000 14.4256 0.0000 -1.5784
# 5 -17.3189 -11.6821 5.0003 0.0000 16.0782 0.0000
# 6 0.0000 0.0000 0.0000 -1.5784 0.0000 20.2691
#
#
#
# Elastic Compliance Matrix: (Units=1/GPa)
#
#
# Indices 1 2 3 4 5 6 
#
# 1 0.028164 -0.001645 -0.011857 0.000000 0.032830 0.000000
# 2 -0.001645 0.014759 -0.000870 0.000000 0.009223 0.000000
# 3 -0.011857 -0.000870 0.031196 0.000000 -0.023106 0.000000
# 4 0.000000 0.000000 0.000000 0.069917 0.000000 0.005445
# 5 0.032830 0.009223 -0.023106 0.000000 0.111447 0.000000
# 6 0.000000 0.000000 0.000000 0.005445 0.000000 0.049760
#
#
# Mechanical properties :
#
#
# Convention : Reuss Voigt Hill
#
# Bulk Modulus (GPa) = 22.03739 26.45232 24.24486
# Shear Modulus (GPa) = 14.32203 20.06725 17.19464
#
# Velocity S-wave (km/s) = 2.91212 3.44708 3.19083
# Velocity P-wave (km/s) = 4.93520 5.61304 5.28500
#
# Compressibility (1/GPa) = 0.04537742
#
# Stress axis : x y z
#
# Youngs Moduli (GPa) = 35.50642 67.75306 32.05491
#
# Poissons Ratio (x) = 0.11142 0.38006
# Poissons Ratio (y) = 0.05839 0.02789
# Poissons Ratio (z) = 0.42098 0.05895
#
# Static dielectric constant tensor:
#      x y z
#    x 1.598230 0.000000 0.012440 
#    y 0.000000 1.574920 0.000000 
#    z 0.012440 0.000000 1.572340 
# 
# From -- ./inp_files/164002.got.cif
#   From: 2010.05.17/outbox.cif.g08.bks.cpg/sg12_83_cif.got.tgz:164002.got - 2010.06.03 13:09:07.
