data_PCOD9183893
_publ_section_title
;
Structure prediction by ZEFSAII (Michael W. Deem and Ramdas Pophale) SiO2 
 PCOD9183893
Probable space group: C 2/M
;
_chemical_formula_sum "Si O2"
_cell_formula_units_Z 56
_cell_length_a 18.014541
_cell_length_b 8.985239
_cell_length_c 19.029928
_cell_angle_alpha 90.000000
_cell_angle_beta 104.219498
_cell_angle_gamma 90.000000
_cell_volume 2985.904323
_symmetry_space_group_name_H-M "C 2/M"
_symmetry_group_IT_number 12
_symmetry_cell_setting 'monoclinic'
loop_
_space_group_symop_operation_xyz
x,y,z
-x,y,-z
-x,-y,-z
x,-y,z
1/2+x,1/2+y,z
1/2-x,1/2+y,-z
1/2-x,1/2-y,-z
1/2+x,1/2-y,z
loop_
_atom_site_type_symbol
_atom_site_label
_atom_site_fract_x
_atom_site_fract_y
_atom_site_fract_z
Si Si1 0.408774 0.670861 0.496264
Si Si2 0.809599 0.322380 0.068004
Si Si3 0.268657 0.676128 0.206485
Si Si4 0.529097 0.675232 0.927233
Si Si5 0.445875 0.823080 0.645021
Si Si6 0.624842 0.176417 0.652972
Si Si7 0.091510 0.323148 0.204377
O O1 0.500000 0.674346 0.500000
O O2 0.383411 0.500000 0.487898
O O3 0.402704 0.738678 0.572421
O O4 0.369788 0.765351 0.425590
O O5 0.804242 0.500000 0.064072
O O6 0.791201 0.263394 0.141520
O O7 0.894097 0.267903 0.067309
O O8 0.750000 0.250000 0.000000
O O9 0.282383 0.500000 0.199972
O O10 0.318608 0.736905 0.282576
O O11 0.179059 0.697919 0.201933
O O12 0.544468 0.500000 0.919844
O O13 0.464817 0.732157 0.858610
O O14 0.500000 0.695539 0.000000
O O15 0.537058 0.796310 0.657573
O O16 0.420080 0.780145 0.716967
O O17 0.433805 0.000000 0.633291
O O18 0.638616 0.000000 0.659594
O O19 0.073361 0.500000 0.194491
#
# Coordination Sequence:
#
# PCOD9183893 Si02
#       7
#     8   8   8   8   8   8   8
#     4   9  17  30  51  80 111 143 183 234 289 343
#     4  12  25  42  64  89 119 154 193 236 284 338
#     4  11  23  39  59  85 118 154 194 239 287 341
#     4  11  24  41  63  91 120 151 190 236 285 340
#     4   9  18  34  55  80 109 143 187 235 286 345
#     4  10  19  33  56  83 112 149 191 237 289 346
#     4  10  22  39  59  84 116 154 192 236 290 344
#
# _framework density 18.754788000000001
#
# number of rings (size 3 to 8) (size 9 to 14) (size 15 to 20)
#    0.000    1.714    0.000    4.714    0.000    8.571 
#    0.000    0.714    0.000    0.000    0.000    0.000 
#    0.000    0.000    0.000    0.000    0.000    0.000 
#
# Total GULP energy -156508.957306 kJ/mol
# GULP energy per Si atom -5589.605618 kJ/mol
# Density = 1.871210 g / cm^3
# Si number density = 18.754788 Si / 1000 Ang^3
#
#
#
# Elastic Constant Matrix: (Units=GPa)
#
#
# Indices 1 2 3 4 5 6 
#
# 1 68.8711 73.1380 57.9230 0.0000 -1.6369 0.0000
# 2 73.1380 135.8853 88.6382 0.0000 2.0159 0.0000
# 3 57.9230 88.6382 155.1535 0.0000 -1.0924 0.0000
# 4 0.0000 0.0000 0.0000 37.3520 0.0000 8.1260
# 5 -1.6369 2.0159 -1.0924 0.0000 25.2377 0.0000
# 6 0.0000 0.0000 0.0000 8.1260 0.0000 17.0833
#
#
#
# Elastic Compliance Matrix: (Units=1/GPa)
#
#
# Indices 1 2 3 4 5 6 
#
# 1 0.035472 -0.016772 -0.003637 0.000000 0.003483 0.000000
# 2 -0.016772 0.019699 -0.005013 0.000000 -0.002878 0.000000
# 3 -0.003637 -0.005013 0.010671 0.000000 0.000626 0.000000
# 4 0.000000 0.000000 0.000000 0.029863 0.000000 -0.014205
# 5 0.003483 -0.002878 0.000626 0.000000 0.040106 0.000000
# 6 0.000000 0.000000 0.000000 -0.014205 0.000000 0.065294
#
#
# Mechanical properties :
#
#
# Convention : Reuss Voigt Hill
#
# Bulk Modulus (GPa) = 66.66784 88.81206 77.73995
# Shear Modulus (GPa) = 19.45937 25.28199 22.37068
#
# Velocity S-wave (km/s) = 3.22463 3.67553 3.45744
# Velocity P-wave (km/s) = 7.03481 8.09135 7.58150
#
# Compressibility (1/GPa) = 0.01499974
#
# Stress axis : x y z
#
# Youngs Moduli (GPa) = 28.19134 50.76469 93.71218
#
# Poissons Ratio (x) = 0.85141 0.34079
# Poissons Ratio (y) = 0.47282 0.46975
# Poissons Ratio (z) = 0.10252 0.25447
#
# Static dielectric constant tensor:
#      x y z
#    x 1.630290 0.000000 -0.008270 
#    y 0.000000 1.628760 0.000000 
#    z -0.008270 0.000000 1.617550 
# 
# From -- ./inp_files/275498.got.cif
#   From: 2010.05.17/outbox.cif.g08.bks.cpg/sg12_138_cif.got.tgz:275498.got - 2010.06.03 13:09:07.
