data_PCOD9183856
_publ_section_title
;
Structure prediction by ZEFSAII (Michael W. Deem and Ramdas Pophale) SiO2 
 PCOD9183856
Probable space group: C 2/M
;
_chemical_formula_sum "Si O2"
_cell_formula_units_Z 64
_cell_length_a 30.128991
_cell_length_b 7.532645
_cell_length_c 19.773851
_cell_angle_alpha 90.000000
_cell_angle_beta 141.834810
_cell_angle_gamma 90.000000
_cell_volume 2773.085196
_symmetry_space_group_name_H-M "C 2/M"
_symmetry_group_IT_number 12
_symmetry_cell_setting 'monoclinic'
loop_
_space_group_symop_operation_xyz
x,y,z
-x,y,-z
-x,-y,-z
x,-y,z
1/2+x,1/2+y,z
1/2-x,1/2+y,-z
1/2-x,1/2-y,-z
1/2+x,1/2-y,z
loop_
_atom_site_type_symbol
_atom_site_label
_atom_site_fract_x
_atom_site_fract_y
_atom_site_fract_z
Si Si1 0.852004 0.291335 0.183156
Si Si2 0.125172 0.713621 0.937068
Si Si3 0.626911 0.282167 0.471001
Si Si4 0.247969 0.705544 0.818263
Si Si5 0.994465 0.785300 0.570873
Si Si6 0.272929 0.797384 0.699618
Si Si7 0.569362 0.797324 0.119775
Si Si8 0.959682 0.791242 0.764044
O O1 0.834291 0.500000 0.158514
O O2 0.843311 0.219847 0.096952
O O3 0.803461 0.215970 0.185194
O O4 0.934681 0.271079 0.303703
O O5 0.128262 0.500000 0.941682
O O6 0.042628 0.767859 0.843432
O O7 0.172509 0.782755 0.055359
O O8 0.627735 0.500000 0.472922
O O9 0.575883 0.226748 0.472295
O O10 0.708283 0.218989 0.578353
O O11 0.589811 0.226802 0.356790
O O12 0.228630 0.500000 0.783549
O O13 0.244878 0.798917 0.742840
O O14 0.000000 0.722931 0.500000
O O15 0.993680 0.000000 0.568760
O O16 0.352005 0.713510 0.795475
O O17 0.283209 0.000000 0.687716
O O18 0.554317 0.799474 0.181362
O O19 0.574588 0.000000 0.098436
O O20 0.500000 0.715101 0.000000
O O21 0.945427 0.000000 0.756401
#
# Coordination Sequence:
#
# PCOD9183856 Si02
#       8
#     8   8   8   8   8   8   8   8
#     4  10  22  37  54  82 118 154 195 244 296 351
#     4  11  22  38  59  84 116 157 202 241 293 360
#     4   9  19  36  57  86 119 154 199 245 293 346
#     4  11  23  38  57  86 121 154 194 247 301 349
#     4  10  19  33  56  82 113 157 206 247 287 346
#     4  10  21  40  63  85 117 159 199 241 292 354
#     4  10  22  40  62  89 119 152 196 247 299 361
#     4  11  22  38  62  89 120 155 194 250 304 351
#
# _framework density 23.078989
#
# number of rings (size 3 to 8) (size 9 to 14) (size 15 to 20)
#    0.000    1.750    1.250    3.000    0.000    5.000 
#    0.000    1.875    0.000    0.000    0.000    0.000 
#    0.000    0.000    0.000    0.000    0.000    0.000 
#
# Total GULP energy -178941.835578 kJ/mol
# GULP energy per Si atom -5591.932362 kJ/mol
# Density = 2.302646 g / cm^3
# Si number density = 23.078989 Si / 1000 Ang^3
#
#
#
# Elastic Constant Matrix: (Units=GPa)
#
#
# Indices 1 2 3 4 5 6 
#
# 1 91.4072 -4.2602 49.2757 0.0000 5.5067 0.0000
# 2 -4.2602 68.6852 -8.1368 0.0000 -1.3219 0.0001
# 3 49.2757 -8.1368 131.6986 0.0000 26.6510 0.0000
# 4 0.0000 0.0000 0.0000 6.8929 0.0000 -3.0380
# 5 5.5067 -1.3219 26.6510 0.0000 41.6863 0.0000
# 6 0.0000 0.0001 0.0000 -3.0380 0.0000 14.7217
#
#
#
# Elastic Compliance Matrix: (Units=1/GPa)
#
#
# Indices 1 2 3 4 5 6 
#
# 1 0.013812 0.000238 -0.005497 0.000000 0.001697 0.000000
# 2 0.000238 0.014671 0.000838 0.000000 -0.000102 0.000000
# 3 -0.005497 0.000838 0.010968 0.000000 -0.006259 0.000000
# 4 0.000000 0.000000 0.000000 0.159593 0.000000 0.032934
# 5 0.001697 -0.000102 -0.006259 0.000000 0.027763 0.000000
# 6 0.000000 0.000000 0.000000 0.032934 0.000000 0.074723
#
#
# Mechanical properties :
#
#
# Convention : Reuss Voigt Hill
#
# Bulk Modulus (GPa) = 32.66842 40.61649 36.64245
# Shear Modulus (GPa) = 15.59697 29.65432 22.62565
#
# Velocity S-wave (km/s) = 2.60245 3.58845 3.13446
# Velocity P-wave (km/s) = 4.81831 5.89969 5.38621
#
# Compressibility (1/GPa) = 0.03061060
#
# Stress axis : x y z
#
# Youngs Moduli (GPa) = 72.40088 68.16045 91.17343
#
# Poissons Ratio (x) = -0.01624 0.50114
# Poissons Ratio (y) = -0.01725 -0.07640
# Poissons Ratio (z) = 0.39795 -0.05712
#
# Static dielectric constant tensor:
#      x y z
#    x 1.850780 0.000000 0.018480 
#    y 0.000000 1.885580 0.000000 
#    z 0.018480 0.000000 1.836220 
# 
# From -- ./inp_files/295619.got.cif
#   From: 2010.05.17/outbox.cif.g08.bks.cpg/sg12_148_cif.got.tgz:295619.got - 2010.06.03 13:09:07.
