data_PCOD9183035
_publ_section_title
;
Structure prediction by ZEFSAII (Michael W. Deem and Ramdas Pophale) SiO2 
 PCOD9183035
Probable space group: C 2/M
;
_chemical_formula_sum "Si O2"
_cell_formula_units_Z 56
_cell_length_a 12.221375
_cell_length_b 14.696711
_cell_length_c 17.152769
_cell_angle_alpha 90.000000
_cell_angle_beta 118.442724
_cell_angle_gamma 90.000000
_cell_volume 2708.996281
_symmetry_space_group_name_H-M "C 2/M"
_symmetry_group_IT_number 12
_symmetry_cell_setting 'monoclinic'
loop_
_space_group_symop_operation_xyz
x,y,z
-x,y,-z
-x,-y,-z
x,-y,z
1/2+x,1/2+y,z
1/2-x,1/2+y,-z
1/2-x,1/2-y,-z
1/2+x,1/2-y,z
loop_
_atom_site_type_symbol
_atom_site_label
_atom_site_fract_x
_atom_site_fract_y
_atom_site_fract_z
Si Si1 0.657331 0.260548 0.642505
Si Si2 0.458493 0.403739 0.606756
Si Si3 0.809728 0.345499 0.495352
Si Si4 0.365358 0.787198 0.185162
Si Si5 0.519427 0.602020 0.809324
Si Si6 0.374751 0.394061 0.914533
Si Si7 0.108371 0.607698 0.316246
O O1 0.532140 0.320623 0.594789
O O2 0.652226 0.176951 0.580111
O O3 0.666913 0.230809 0.735072
O O4 0.771979 0.330003 0.664726
O O5 0.517564 0.500000 0.603588
O O6 0.313277 0.406119 0.540906
O O7 0.470765 0.393519 0.704276
O O8 0.750000 0.250000 0.500000
O O9 0.904014 0.378063 0.593860
O O10 0.393127 0.689962 0.154788
O O11 0.248100 0.838172 0.109133
O O12 0.489886 0.848906 0.232016
O O13 0.574765 0.500000 0.839170
O O14 0.409745 0.610034 0.834828
O O15 0.356278 0.500000 0.929025
O O16 0.500000 0.361940 0.000000
O O17 0.123074 0.500000 0.305189
#
# Coordination Sequence:
#
# PCOD9183035 Si02
#       7
#     8   8   8   8   8   8   8
#     4  10  20  36  55  75 104 143 185 223 266 318
#     4  10  19  33  54  76 100 138 183 223 263 309
#     4  10  20  33  48  71 104 139 179 223 264 307
#     4  11  21  37  59  82 108 142 178 222 277 322
#     4   9  19  36  57  83 111 140 179 222 263 316
#     4  10  21  38  60  84 110 143 180 215 260 326
#     4  11  23  36  51  78 112 142 180 231 278 318
#
# _framework density 20.671862999999998
#
# number of rings (size 3 to 8) (size 9 to 14) (size 15 to 20)
#    0.000    1.857    0.000    6.429    0.000    6.286 
#    0.000    6.429    0.000    1.286    0.000    0.000 
#    0.000    0.000    0.000    0.000    0.000    0.000 
#
# Total GULP energy -156284.452781 kJ/mol
# GULP energy per Si atom -5581.587599 kJ/mol
# Density = 2.062481 g / cm^3
# Si number density = 20.671863 Si / 1000 Ang^3
#
#
#
# Elastic Constant Matrix: (Units=GPa)
#
#
# Indices 1 2 3 4 5 6 
#
# 1 76.5537 35.1246 21.4727 0.0000 21.0282 0.0000
# 2 35.1246 99.5146 24.0057 0.0000 30.7877 0.0000
# 3 21.4727 24.0057 41.1548 0.0000 26.0438 0.0000
# 4 0.0000 0.0000 0.0000 9.1574 0.0000 3.8763
# 5 21.0282 30.7877 26.0438 0.0000 35.9284 0.0000
# 6 0.0000 0.0000 0.0000 3.8763 0.0000 29.3223
#
#
#
# Elastic Compliance Matrix: (Units=1/GPa)
#
#
# Indices 1 2 3 4 5 6 
#
# 1 0.017032 -0.003880 -0.004469 0.000000 -0.003404 0.000000
# 2 -0.003880 0.014582 -0.000020 0.000000 -0.010210 0.000000
# 3 -0.004469 -0.000020 0.046142 0.000000 -0.030815 0.000000
# 4 0.000000 0.000000 0.000000 0.115674 0.000000 -0.015291
# 5 -0.003404 -0.010210 -0.030815 0.000000 0.060911 0.000000
# 6 0.000000 0.000000 0.000000 -0.015291 0.000000 0.036125
#
#
# Mechanical properties :
#
#
# Convention : Reuss Voigt Hill
#
# Bulk Modulus (GPa) = 16.38888 42.04767 29.21828
# Shear Modulus (GPa) = 15.26515 23.98964 19.62739
#
# Velocity S-wave (km/s) = 2.72039 3.41030 3.08470
# Velocity P-wave (km/s) = 4.22051 5.99096 5.18191
#
# Compressibility (1/GPa) = 0.06101698
#
# Stress axis : x y z
#
# Youngs Moduli (GPa) = 58.71448 68.57787 21.67210
#
# Poissons Ratio (x) = 0.26611 0.09685
# Poissons Ratio (y) = 0.22784 0.00043
# Poissons Ratio (z) = 0.26239 0.00137
#
# Static dielectric constant tensor:
#      x y z
#    x 1.787600 0.000000 -0.010690 
#    y 0.000000 1.918660 0.000000 
#    z -0.010690 0.000000 1.758030 
# 
# From -- ./inp_files/205041.got.cif
#   From: 2010.05.17/outbox.cif.g08.bks.cpg/sg12_103_cif.got.tgz:205041.got - 2010.06.03 13:09:07.
