data_PCOD9183262
_publ_section_title
;
Structure prediction by ZEFSAII (Michael W. Deem and Ramdas Pophale) SiO2 
 PCOD9183262
Probable space group: C 2/M
;
_chemical_formula_sum "Si O2"
_cell_formula_units_Z 56
_cell_length_a 18.442607
_cell_length_b 14.486558
_cell_length_c 14.003496
_cell_angle_alpha 90.000000
_cell_angle_beta 58.192072
_cell_angle_gamma 90.000000
_cell_volume 3179.441388
_symmetry_space_group_name_H-M "C 2/M"
_symmetry_group_IT_number 12
_symmetry_cell_setting 'monoclinic'
loop_
_space_group_symop_operation_xyz
x,y,z
-x,y,-z
-x,-y,-z
x,-y,z
1/2+x,1/2+y,z
1/2-x,1/2+y,-z
1/2-x,1/2-y,-z
1/2+x,1/2-y,z
loop_
_atom_site_type_symbol
_atom_site_label
_atom_site_fract_x
_atom_site_fract_y
_atom_site_fract_z
Si Si1 0.613804 0.891765 0.666478
Si Si2 0.040071 0.755479 0.571823
Si Si3 0.552302 0.400055 0.865395
Si Si4 0.571639 0.607144 0.228614
Si Si5 0.307213 0.605608 0.580222
Si Si6 0.251885 0.106248 0.157864
Si Si7 0.409716 0.795992 0.116621
O O1 0.566955 0.826727 0.623401
O O2 0.716653 0.879301 0.590734
O O3 0.588595 0.860963 0.791385
O O4 0.595727 0.000000 0.665741
O O5 0.122260 0.820368 0.496393
O O6 0.000000 0.722553 0.500000
O O7 0.970821 0.822239 0.669195
O O8 0.595679 0.500000 0.821235
O O9 0.483769 0.387830 0.828742
O O10 0.607752 0.307930 0.833677
O O11 0.500000 0.404322 0.000000
O O12 0.568053 0.500000 0.265155
O O13 0.671647 0.628950 0.146690
O O14 0.336081 0.500000 0.540624
O O15 0.285662 0.611639 0.708007
O O16 0.334196 0.170360 0.100339
O O17 0.277876 0.000000 0.123528
O O18 0.500000 0.797747 0.000000
#
# Coordination Sequence:
#
# PCOD9183262 Si02
#       7
#     8   8   8   8   8   8   8
#     4  10  22  38  53  75 109 143 179 220 263 312
#     4  12  21  32  55  80 106 141 179 215 261 324
#     4   9  18  34  56  80 107 137 170 212 267 324
#     4  10  19  33  54  81 110 136 172 221 269 311
#     4   9  18  33  53  79 108 136 172 223 267 306
#     4   9  18  32  52  81 112 137 170 223 271 302
#     4  10  19  35  59  84 101 136 181 221 263 311
#
# _framework density 17.613157000000001
#
# number of rings (size 3 to 8) (size 9 to 14) (size 15 to 20)
#    0.000    2.143    2.857    2.143    0.000    2.000 
#    0.000    2.857    0.000    0.857    0.000    0.000 
#    0.000    0.000    0.000    0.000    0.000    0.000 
#
# Total GULP energy -156113.313587 kJ/mol
# GULP energy per Si atom -5575.475485 kJ/mol
# Density = 1.757307 g / cm^3
# Si number density = 17.613157 Si / 1000 Ang^3
#
#
#
# Elastic Constant Matrix: (Units=GPa)
#
#
# Indices 1 2 3 4 5 6 
#
# 1 53.5487 35.6273 10.9578 0.0000 -9.4373 0.0000
# 2 35.6273 93.4899 17.3349 0.0000 -21.3643 0.0000
# 3 10.9578 17.3349 30.3155 0.0000 -6.6910 0.0000
# 4 0.0000 0.0000 0.0000 20.8800 0.0000 -0.3887
# 5 -9.4373 -21.3643 -6.6910 0.0000 26.6853 0.0000
# 6 0.0000 0.0000 0.0000 -0.3887 0.0000 39.8482
#
#
#
# Elastic Compliance Matrix: (Units=1/GPa)
#
#
# Indices 1 2 3 4 5 6 
#
# 1 0.025485 -0.008740 -0.003990 0.000000 0.001015 0.000000
# 2 -0.008740 0.017008 -0.004492 0.000000 0.009399 0.000000
# 3 -0.003990 -0.004492 0.037995 0.000000 0.004520 0.000000
# 4 0.000000 0.000000 0.000000 0.047901 0.000000 0.000467
# 5 0.001015 0.009399 0.004520 0.000000 0.046491 0.000000
# 6 0.000000 0.000000 0.000000 0.000467 0.000000 0.025100
#
#
# Mechanical properties :
#
#
# Convention : Reuss Voigt Hill
#
# Bulk Modulus (GPa) = 21.71840 33.91046 27.81443
# Shear Modulus (GPa) = 20.01835 25.04498 22.53167
#
# Velocity S-wave (km/s) = 3.37494 3.77496 3.58054
# Velocity P-wave (km/s) = 5.24829 6.18831 5.73758
#
# Compressibility (1/GPa) = 0.04604392
#
# Stress axis : x y z
#
# Youngs Moduli (GPa) = 39.23891 58.79659 26.31959
#
# Poissons Ratio (x) = 0.51388 0.10501
# Poissons Ratio (y) = 0.34295 0.11822
# Poissons Ratio (z) = 0.15656 0.26409
#
# Static dielectric constant tensor:
#      x y z
#    x 1.617810 0.000000 0.005450 
#    y 0.000000 1.619300 0.000000 
#    z 0.005450 0.000000 1.588390 
# 
# From -- ./inp_files/225211.got.cif
#   From: 2010.05.17/outbox.cif.g08.bks.cpg/sg12_113_cif.got.tgz:225211.got - 2010.06.03 13:09:07.
