data_PCOD9183987
_publ_section_title
;
Structure prediction by ZEFSAII (Michael W. Deem and Ramdas Pophale) SiO2 
 PCOD9183987
Probable space group: C 2/M
;
_chemical_formula_sum "Si O2"
_cell_formula_units_Z 48
_cell_length_a 30.948402
_cell_length_b 11.121620
_cell_length_c 7.730808
_cell_angle_alpha 90.000000
_cell_angle_beta 109.607026
_cell_angle_gamma 90.000000
_cell_volume 2506.626296
_symmetry_space_group_name_H-M "C 2/M"
_symmetry_group_IT_number 12
_symmetry_cell_setting 'monoclinic'
loop_
_space_group_symop_operation_xyz
x,y,z
-x,y,-z
-x,-y,-z
x,-y,z
1/2+x,1/2+y,z
1/2-x,1/2+y,-z
1/2-x,1/2-y,-z
1/2+x,1/2-y,z
loop_
_atom_site_type_symbol
_atom_site_label
_atom_site_fract_x
_atom_site_fract_y
_atom_site_fract_z
Si Si1 0.889764 0.139289 0.166740
Si Si2 0.692125 0.201930 0.085332
Si Si3 0.143552 0.633848 0.362342
Si Si4 0.088657 0.139971 0.406351
Si Si5 0.723122 0.131809 0.752299
Si Si6 0.011794 0.855176 0.822160
O O1 0.889493 0.143622 0.374289
O O2 0.939148 0.191423 0.174338
O O3 0.887627 0.000000 0.112145
O O4 0.846798 0.205577 0.029039
O O5 0.670075 0.133424 0.216082
O O6 0.737780 0.268871 0.212067
O O7 0.705972 0.134684 0.927778
O O8 0.121989 0.500000 0.357454
O O9 0.111113 0.751775 0.327692
O O10 0.180922 0.649588 0.565400
O O11 0.034183 0.165735 0.349377
O O12 0.093226 0.000000 0.346486
O O13 0.743041 0.000000 0.741950
O O14 0.016624 0.000000 0.831419
O O15 0.000000 0.814549 0.000000
#
# Coordination Sequence:
#
# PCOD9183987 Si02
#       6
#     8   8   8   8   8   8
#     4  10  19  33  56  87 118 150 192 243 295 345
#     4  11  21  37  60  84 112 154 198 239 287 350
#     4  11  23  40  60  86 120 158 196 237 290 346
#     4  10  20  36  58  87 118 153 195 240 288 344
#     4  10  22  39  57  82 117 153 194 243 290 343
#     4   9  17  30  52  83 117 150 187 238 293 342
#
# _framework density 19.149242999999998
#
# number of rings (size 3 to 8) (size 9 to 14) (size 15 to 20)
#    0.000    1.833    1.667    3.000    0.000    4.667 
#    0.000    0.833    0.000    7.500    0.000    0.000 
#    0.000    0.000    0.000    0.000    0.000    0.000 
#
# Total GULP energy -133808.351496 kJ/mol
# GULP energy per Si atom -5575.347979 kJ/mol
# Density = 1.910566 g / cm^3
# Si number density = 19.149243 Si / 1000 Ang^3
#
#
#
# Elastic Constant Matrix: (Units=GPa)
#
#
# Indices 1 2 3 4 5 6 
#
# 1 67.2473 43.2645 -5.8944 0.0000 -4.7916 0.0000
# 2 43.2645 91.0813 8.4463 0.0000 3.1192 0.0000
# 3 -5.8944 8.4463 31.0916 0.0000 4.8022 0.0000
# 4 0.0000 0.0000 0.0000 13.9876 0.0000 1.9703
# 5 -4.7916 3.1192 4.8022 0.0000 26.4518 0.0000
# 6 0.0000 0.0000 0.0000 1.9703 0.0000 20.4303
#
#
#
# Elastic Compliance Matrix: (Units=1/GPa)
#
#
# Indices 1 2 3 4 5 6 
#
# 1 0.023495 -0.011962 0.007026 0.000000 0.004391 0.000000
# 2 -0.011962 0.017370 -0.006518 0.000000 -0.003032 0.000000
# 3 0.007026 -0.006518 0.035959 0.000000 -0.004487 0.000000
# 4 0.000000 0.000000 0.000000 0.072476 0.000000 -0.006990
# 5 0.004391 -0.003032 -0.004487 0.000000 0.039772 0.000000
# 6 0.000000 0.000000 0.000000 -0.006990 0.000000 0.049621
#
#
# Mechanical properties :
#
#
# Convention : Reuss Voigt Hill
#
# Bulk Modulus (GPa) = 18.54805 31.22812 24.88808
# Shear Modulus (GPa) = 17.88431 21.74753 19.81592
#
# Velocity S-wave (km/s) = 3.05936 3.37365 3.22034
# Velocity P-wave (km/s) = 4.71027 5.61413 5.18195
#
# Compressibility (1/GPa) = 0.05391403
#
# Stress axis : x y z
#
# Youngs Moduli (GPa) = 42.56150 57.57127 27.80967
#
# Poissons Ratio (x) = 0.68869 -0.19538
# Poissons Ratio (y) = 0.50914 0.18127
# Poissons Ratio (z) = -0.29903 0.37526
#
# Static dielectric constant tensor:
#      x y z
#    x 1.664240 0.000000 -0.017690 
#    y 0.000000 1.685140 0.000000 
#    z -0.017690 0.000000 1.681150 
# 
# From -- ./inp_files/102034.got.cif
#   From: 2010.05.17/outbox.cif.g08.bks.cpg/sg12_52_cif.got.tgz:102034.got - 2010.06.03 13:09:07.
