data_PCOD9183595
_publ_section_title
;
Structure prediction by ZEFSAII (Michael W. Deem and Ramdas Pophale) SiO2 
 PCOD9183595
Probable space group: C 2/M
;
_chemical_formula_sum "Si O2"
_cell_formula_units_Z 56
_cell_length_a 29.075256
_cell_length_b 8.924208
_cell_length_c 13.727093
_cell_angle_alpha 90.000000
_cell_angle_beta 121.896054
_cell_angle_gamma 90.000000
_cell_volume 3024.012837
_symmetry_space_group_name_H-M "C 2/M"
_symmetry_group_IT_number 12
_symmetry_cell_setting 'monoclinic'
loop_
_space_group_symop_operation_xyz
x,y,z
-x,y,-z
-x,-y,-z
x,-y,z
1/2+x,1/2+y,z
1/2-x,1/2+y,-z
1/2-x,1/2-y,-z
1/2+x,1/2-y,z
loop_
_atom_site_type_symbol
_atom_site_label
_atom_site_fract_x
_atom_site_fract_y
_atom_site_fract_z
Si Si1 0.868583 0.179593 0.189840
Si Si2 0.585288 0.180621 0.279129
Si Si3 0.699176 0.179537 0.727441
Si Si4 0.024718 0.178332 0.807204
Si Si5 0.415414 0.175707 0.947065
Si Si6 0.199422 0.680506 0.499794
Si Si7 0.304985 0.824008 0.941156
O O1 0.851964 0.251827 0.273168
O O2 0.928402 0.220096 0.217609
O O3 0.864257 0.000000 0.188524
O O4 0.826823 0.243778 0.062543
O O5 0.533197 0.247174 0.274361
O O6 0.582156 0.225106 0.161820
O O7 0.642470 0.228230 0.388434
O O8 0.582963 0.000000 0.280090
O O9 0.700233 0.219771 0.614803
O O10 0.752180 0.246853 0.838648
O O11 0.698974 0.000000 0.736171
O O12 0.019723 0.000000 0.802053
O O13 0.047111 0.233733 0.936895
O O14 0.354144 0.187535 0.918607
O O15 0.431094 0.000000 0.970032
O O16 0.202701 0.500000 0.495812
O O17 0.250000 0.750000 0.500000
O O18 0.295062 0.000000 0.949369
#
# Coordination Sequence:
#
# PCOD9183595 Si02
#       7
#     8   8   8   8   8   8   8
#     4  10  21  37  55  78 110 144 180 223 270 322
#     4  10  20  36  56  78 107 143 181 218 263 319
#     4  11  22  36  55  80 109 142 182 224 269 319
#     4  10  21  35  53  80 110 139 176 222 269 316
#     4   9  18  32  53  80 109 143 178 213 261 323
#     4  10  23  41  60  83 110 141 179 223 266 316
#     4  10  19  33  55  82 112 145 180 220 270 323
#
# _framework density 18.518439000000001
#
# number of rings (size 3 to 8) (size 9 to 14) (size 15 to 20)
#    0.000    2.000    0.000    3.429    0.000    7.429 
#    0.000    0.714    0.000    4.286    0.000    0.000 
#    0.000    0.000    0.000    0.000    0.000    0.000 
#
# Total GULP energy -156438.803360 kJ/mol
# GULP energy per Si atom -5587.100120 kJ/mol
# Density = 1.847629 g / cm^3
# Si number density = 18.518439 Si / 1000 Ang^3
#
#
#
# Elastic Constant Matrix: (Units=GPa)
#
#
# Indices 1 2 3 4 5 6 
#
# 1 157.4400 55.5133 96.3216 0.0000 1.6003 0.0000
# 2 55.5133 47.4739 37.4318 0.0000 -4.0488 0.0000
# 3 96.3216 37.4318 78.0868 0.0000 -4.1609 0.0000
# 4 0.0000 0.0000 0.0000 17.1577 0.0000 3.8346
# 5 1.6003 -4.0488 -4.1609 0.0000 33.4237 0.0000
# 6 0.0000 0.0000 0.0000 3.8346 0.0000 34.1501
#
#
#
# Elastic Compliance Matrix: (Units=1/GPa)
#
#
# Indices 1 2 3 4 5 6 
#
# 1 0.029392 -0.009753 -0.031930 0.000000 -0.006564 0.000000
# 2 -0.009753 0.037246 -0.005595 0.000000 0.004282 0.000000
# 3 -0.031930 -0.005595 0.055287 0.000000 0.007734 0.000000
# 4 0.000000 0.000000 0.000000 0.059783 0.000000 -0.006713
# 5 -0.006564 0.004282 0.007734 0.000000 0.031715 0.000000
# 6 0.000000 0.000000 0.000000 -0.006713 0.000000 0.030036
#
#
# Mechanical properties :
#
#
# Convention : Reuss Voigt Hill
#
# Bulk Modulus (GPa) = 36.53933 73.50379 55.02156
# Shear Modulus (GPa) = 14.40340 23.19523 18.79932
#
# Velocity S-wave (km/s) = 2.79191 3.54297 3.18963
# Velocity P-wave (km/s) = 5.49246 7.51766 6.58340
#
# Compressibility (1/GPa) = 0.02736777
#
# Stress axis : x y z
#
# Youngs Moduli (GPa) = 34.02245 26.84844 18.08735
#
# Poissons Ratio (x) = 0.26186 0.57754
# Poissons Ratio (y) = 0.33183 0.10120
# Poissons Ratio (z) = 1.08635 0.15022
#
# Static dielectric constant tensor:
#      x y z
#    x 1.652400 0.000000 -0.007210 
#    y 0.000000 1.618760 0.000000 
#    z -0.007210 0.000000 1.611720 
# 
# From -- ./inp_files/187760.got.cif
#   From: 2010.05.17/outbox.cif.g08.bks.cpg/sg12_94_cif.got.tgz:187760.got - 2010.06.03 13:09:07.
