data_PCOD9183274
_publ_section_title
;
Structure prediction by ZEFSAII (Michael W. Deem and Ramdas Pophale) SiO2 
 PCOD9183274
Probable space group: C 2/M
;
_chemical_formula_sum "Si O2"
_cell_formula_units_Z 64
_cell_length_a 28.709068
_cell_length_b 8.722978
_cell_length_c 18.490369
_cell_angle_alpha 90.000000
_cell_angle_beta 45.479375
_cell_angle_gamma 90.000000
_cell_volume 3301.549538
_symmetry_space_group_name_H-M "C 2/M"
_symmetry_group_IT_number 12
_symmetry_cell_setting 'monoclinic'
loop_
_space_group_symop_operation_xyz
x,y,z
-x,y,-z
-x,-y,-z
x,-y,z
1/2+x,1/2+y,z
1/2-x,1/2+y,-z
1/2-x,1/2-y,-z
1/2+x,1/2-y,z
loop_
_atom_site_type_symbol
_atom_site_label
_atom_site_fract_x
_atom_site_fract_y
_atom_site_fract_z
Si Si1 0.838651 0.185851 0.191888
Si Si2 0.794928 0.680222 0.728349
Si Si3 0.923080 0.177373 0.809199
Si Si4 0.938050 0.180738 0.957556
Si Si5 0.941564 0.320555 0.368667
Si Si6 0.202678 0.679924 0.110606
Si Si7 0.931927 0.817354 0.536574
Si Si8 0.420271 0.183801 0.231065
O O1 0.764785 0.238390 0.255716
O O2 0.866891 0.245755 0.236202
O O3 0.838080 0.000000 0.191522
O O4 0.889340 0.235084 0.073256
O O5 0.804824 0.500000 0.701788
O O6 0.770959 0.692852 0.837078
O O7 0.865212 0.758100 0.645001
O O8 0.906110 0.193706 0.912636
O O9 0.863306 0.224064 0.824983
O O10 0.981943 0.290539 0.728107
O O11 0.942908 0.000000 0.775841
O O12 0.008176 0.262495 0.874877
O O13 0.951171 0.000000 0.955937
O O14 0.927447 0.500000 0.393648
O O15 0.926546 0.233724 0.458864
O O16 0.911326 0.267358 0.324818
O O17 0.190507 0.500000 0.109496
O O18 0.250000 0.750000 0.000000
O O19 0.000000 0.760386 0.500000
O O20 0.933588 0.000000 0.539068
O O21 0.418403 0.000000 0.231376
#
# Coordination Sequence:
#
# PCOD9183274 Si02
#       8
#     8   8   8   8   8   8   8   8
#     4  10  20  36  56  78 109 151 194 231 275 333
#     4  10  23  41  59  82 113 150 191 232 279 339
#     4  10  19  33  54  81 113 146 185 233 281 332
#     4   9  18  33  54  80 113 154 193 228 272 331
#     4  10  21  38  59  83 112 145 183 227 278 337
#     4  11  22  36  55  80 113 152 190 227 273 331
#     4  11  24  41  63  90 115 141 180 232 285 336
#     4  10  21  35  54  84 116 146 187 236 280 324
#
# _framework density 19.384836
#
# number of rings (size 3 to 8) (size 9 to 14) (size 15 to 20)
#    0.000    1.875    0.000    3.750    0.000   10.500 
#    0.000    1.875    0.000    0.000    0.000    0.000 
#    0.000    0.000    0.000    0.000    0.000    0.000 
#
# Total GULP energy -178622.775075 kJ/mol
# GULP energy per Si atom -5581.961721 kJ/mol
# Density = 1.934072 g / cm^3
# Si number density = 19.384836 Si / 1000 Ang^3
#
#
#
# Elastic Constant Matrix: (Units=GPa)
#
#
# Indices 1 2 3 4 5 6 
#
# 1 124.2460 31.1500 39.5797 0.0200 -6.6702 -0.0070
# 2 31.1500 34.7243 22.5159 0.0231 0.7874 -0.0129
# 3 39.5797 22.5159 88.8241 0.0275 6.5824 -0.0171
# 4 0.0200 0.0231 0.0275 23.2358 -0.0139 4.6261
# 5 -6.6702 0.7874 6.5824 -0.0139 19.4859 0.0044
# 6 -0.0070 -0.0129 -0.0171 4.6261 0.0044 27.6038
#
#
#
# Elastic Compliance Matrix: (Units=1/GPa)
#
#
# Indices 1 2 3 4 5 6 
#
# 1 0.011493 -0.008199 -0.003445 0.000007 0.005429 -0.000005
# 2 -0.008199 0.040361 -0.006409 -0.000031 -0.002273 0.000018
# 3 -0.003445 -0.006409 0.014858 -0.000014 -0.005940 0.000009
# 4 0.000007 -0.000031 -0.000014 0.044523 0.000042 -0.007462
# 5 0.005429 -0.002273 -0.005940 0.000042 0.055276 -0.000019
# 6 -0.000005 0.000018 0.000009 -0.007462 -0.000019 0.037477
#
#
# Mechanical properties :
#
#
# Convention : Reuss Voigt Hill
#
# Bulk Modulus (GPa) = 32.67425 48.25394 40.46410
# Shear Modulus (GPa) = 19.97624 24.36834 22.17229
#
# Velocity S-wave (km/s) = 3.21364 3.54938 3.38567
# Velocity P-wave (km/s) = 5.53734 6.46097 6.01690
#
# Compressibility (1/GPa) = 0.03060514
#
# Stress axis : x y z
#
# Youngs Moduli (GPa) = 87.00782 24.77643 67.30309
#
# Poissons Ratio (x) = 0.20315 0.23188
# Poissons Ratio (y) = 0.71341 0.43135
# Poissons Ratio (z) = 0.29976 0.15879
#
# Static dielectric constant tensor:
#      x y z
#    x 1.682180 0.000000 0.022280 
#    y 0.000000 1.660320 0.000000 
#    z 0.022280 0.000000 1.683760 
# 
# From -- ./inp_files/295487.got.cif
#   From: 2010.05.17/outbox.cif.g08.bks.cpg/sg12_148_cif.got.tgz:295487.got - 2010.06.03 13:09:07.
