data_PCOD9183249
_publ_section_title
;
Structure prediction by ZEFSAII (Michael W. Deem and Ramdas Pophale) SiO2 
 PCOD9183249
Probable space group: C 2/M
;
_chemical_formula_sum "Si O2"
_cell_formula_units_Z 58
_cell_length_a 22.699385
_cell_length_b 20.899569
_cell_length_c 8.557099
_cell_angle_alpha 90.000000
_cell_angle_beta 35.606209
_cell_angle_gamma 90.000000
_cell_volume 2363.515441
_symmetry_space_group_name_H-M "C 2/M"
_symmetry_group_IT_number 12
_symmetry_cell_setting 'monoclinic'
loop_
_space_group_symop_operation_xyz
x,y,z
-x,y,-z
-x,-y,-z
x,-y,z
1/2+x,1/2+y,z
1/2-x,1/2+y,-z
1/2-x,1/2-y,-z
1/2+x,1/2-y,z
loop_
_atom_site_type_symbol
_atom_site_label
_atom_site_fract_x
_atom_site_fract_y
_atom_site_fract_z
Si Si1 0.609006 0.754053 0.236199
Si Si2 0.292005 0.925780 0.815494
Si Si3 0.784895 0.744616 0.658529
Si Si4 0.982065 0.576463 0.211521
Si Si5 0.578977 0.387627 0.153314
Si Si6 0.500000 0.500000 0.500000
Si Si7 0.829684 0.155799 0.331694
Si Si8 0.207056 0.575442 0.841308
O O1 0.500000 0.783957 0.500000
O O2 0.665561 0.763842 0.279063
O O3 0.589708 0.678756 0.229087
O O4 0.676956 0.776373 0.943264
O O5 0.386082 0.898596 0.515330
O O6 0.318221 0.000000 0.786344
O O7 0.186167 0.922871 0.954384
O O8 0.270854 0.898376 0.032720
O O9 0.854304 0.788963 0.402592
O O10 0.748750 0.687251 0.624957
O O11 0.962468 0.500000 0.232529
O O12 0.087077 0.582987 0.074808
O O13 0.000000 0.604315 0.000000
O O14 0.497355 0.441196 0.374837
O O15 0.580163 0.369029 0.969872
O O16 0.770443 0.104954 0.563635
O O17 0.229542 0.500000 0.791236
#
# Coordination Sequence:
#
# PCOD9183249 Si02
#       8
#     8   8   8   8   8   2   8   8
#     4  10  20  41  71  96 123 170 216 272 336 382
#     4  10  19  33  54  80 120 172 208 248 302 371
#     4   9  21  42  66  93 126 165 221 271 327 394
#     4   9  17  30  49  78 112 154 203 245 295 364
#     4  11  22  38  64  91 129 170 213 268 323 387
#     4  12  24  40  64 102 132 168 230 264 308 432
#     4  10  21  40  63  91 129 172 208 272 333 379
#     4  10  20  33  55  85 125 164 207 254 314 395
#
# _framework density 24.539717
#
# number of rings (size 3 to 8) (size 9 to 14) (size 15 to 20)
#    0.000    2.069    1.379    2.069    0.966    2.759 
#    0.000   14.483    0.000    3.310    0.000    0.000 
#    0.000    0.552    0.000    0.000    0.000    0.000 
#
# Total GULP energy -161693.431825 kJ/mol
# GULP energy per Si atom -5575.635580 kJ/mol
# Density = 2.448386 g / cm^3
# Si number density = 24.539717 Si / 1000 Ang^3
#
#
#
# Elastic Constant Matrix: (Units=GPa)
#
#
# Indices 1 2 3 4 5 6 
#
# 1 74.3103 -0.6921 28.3849 0.0000 36.9156 0.0000
# 2 -0.6921 83.0859 10.5677 0.0000 22.0332 0.0000
# 3 28.3849 10.5677 84.0333 0.0000 33.0277 0.0000
# 4 0.0000 0.0000 0.0000 28.0390 0.0000 9.6162
# 5 36.9156 22.0332 33.0277 0.0000 34.2625 0.0000
# 6 0.0000 0.0000 0.0000 9.6162 0.0000 25.2785
#
#
#
# Elastic Compliance Matrix: (Units=1/GPa)
#
#
# Indices 1 2 3 4 5 6 
#
# 1 0.042575 0.016526 0.009252 0.000000 -0.065417 0.000000
# 2 0.016526 0.021399 0.006655 0.000000 -0.037981 0.000000
# 3 0.009252 0.006655 0.021795 0.000000 -0.035258 0.000000
# 4 0.000000 0.000000 0.000000 0.041016 0.000000 -0.015603
# 5 -0.065417 -0.037981 -0.035258 0.000000 0.158081 0.000000
# 6 0.000000 0.000000 0.000000 -0.015603 0.000000 0.045495
#
#
# Mechanical properties :
#
#
# Convention : Reuss Voigt Hill
#
# Bulk Modulus (GPa) = 6.63863 35.32784 20.98323
# Shear Modulus (GPa) = 15.83744 31.06060 23.44902
#
# Velocity S-wave (km/s) = 2.54319 3.56157 3.09456
# Velocity P-wave (km/s) = 3.36673 5.59825 4.61927
#
# Compressibility (1/GPa) = 0.15063351
#
# Stress axis : x y z
#
# Youngs Moduli (GPa) = 23.48814 46.73096 45.88115
#
# Poissons Ratio (x) = -0.77226 -0.42448
# Poissons Ratio (y) = -0.38816 -0.30533
# Poissons Ratio (z) = -0.21731 -0.31098
#
# Static dielectric constant tensor:
#      x y z
#    x 1.937590 0.000000 -0.011330 
#    y 0.000000 2.040150 0.000000 
#    z -0.011330 0.000000 1.989100 
# 
# From -- ./inp_files/106898.got.cif
#   From: 2010.05.17/outbox.cif.g08.bks.cpg/sg12_54_cif.got.tgz:106898.got - 2010.06.03 13:09:07.
