data_PCOD9183569
_publ_section_title
;
Structure prediction by ZEFSAII (Michael W. Deem and Ramdas Pophale) SiO2 
 PCOD9183569
Probable space group: C 2/M
;
_chemical_formula_sum "Si O2"
_cell_formula_units_Z 56
_cell_length_a 26.822889
_cell_length_b 17.273200
_cell_length_c 9.982127
_cell_angle_alpha 90.000000
_cell_angle_beta 139.676991
_cell_angle_gamma 90.000000
_cell_volume 2992.748084
_symmetry_space_group_name_H-M "C 2/M"
_symmetry_group_IT_number 12
_symmetry_cell_setting 'monoclinic'
loop_
_space_group_symop_operation_xyz
x,y,z
-x,y,-z
-x,-y,-z
x,-y,z
1/2+x,1/2+y,z
1/2-x,1/2+y,-z
1/2-x,1/2-y,-z
1/2+x,1/2-y,z
loop_
_atom_site_type_symbol
_atom_site_label
_atom_site_fract_x
_atom_site_fract_y
_atom_site_fract_z
Si Si1 0.360217 0.092866 0.493885
Si Si2 0.520965 0.171734 0.892378
Si Si3 0.567509 0.735947 0.747372
Si Si4 0.181672 0.406686 0.291018
Si Si5 0.799268 0.909562 0.315922
Si Si6 0.200119 0.670832 0.897126
Si Si7 0.908358 0.086626 0.322369
O O1 0.449256 0.120756 0.691423
O O2 0.319470 0.111245 0.553027
O O3 0.320462 0.138093 0.290510
O O4 0.357946 0.000000 0.468811
O O5 0.534280 0.244037 0.822941
O O6 0.500000 0.195188 0.000000
O O7 0.601446 0.125298 0.067397
O O8 0.500000 0.733715 0.500000
O O9 0.622568 0.804687 0.813679
O O10 0.611576 0.654007 0.823263
O O11 0.179721 0.500000 0.275380
O O12 0.255162 0.376462 0.355685
O O13 0.880054 0.885178 0.412022
O O14 0.808720 0.000000 0.362932
O O15 0.742853 0.892058 0.075886
O O16 0.250000 0.750000 0.000000
O O17 0.000000 0.079045 0.500000
O O18 0.876547 0.000000 0.232629
#
# Coordination Sequence:
#
# PCOD9183569 Si02
#       7
#     8   8   8   8   8   8   8
#     4  10  21  37  55  82 118 156 187 222 273 334
#     4  10  19  33  56  84 118 153 187 219 273 338
#     4  11  20  35  56  79 112 145 185 231 280 332
#     4   9  18  33  55  82 118 154 187 222 269 337
#     4  10  19  33  55  82 108 142 183 227 278 333
#     4  12  22  35  53  81 113 148 187 233 279 327
#     4   9  19  35  57  78  99 136 187 238 284 327
#
# _framework density 18.711898999999999
#
# number of rings (size 3 to 8) (size 9 to 14) (size 15 to 20)
#    0.000    1.857    4.286    0.857    0.000    1.714 
#    0.000    1.429    6.286    0.429    0.000    0.000 
#    0.000    0.000    0.000    0.000    0.000    0.000 
#
# Total GULP energy -155878.042465 kJ/mol
# GULP energy per Si atom -5567.072945 kJ/mol
# Density = 1.866931 g / cm^3
# Si number density = 18.711899 Si / 1000 Ang^3
#
#
#
# Elastic Constant Matrix: (Units=GPa)
#
#
# Indices 1 2 3 4 5 6 
#
# 1 156.2666 42.4393 33.6950 0.0000 -10.1639 0.0000
# 2 42.4393 59.4531 20.9933 0.0000 -15.9978 0.0000
# 3 33.6950 20.9933 59.1024 0.0000 -17.3523 0.0000
# 4 0.0000 0.0000 0.0000 6.6653 0.0000 14.0282
# 5 -10.1639 -15.9978 -17.3523 0.0000 28.7944 0.0000
# 6 0.0000 0.0000 0.0000 14.0282 0.0000 6.5168
#
#
#
# Elastic Compliance Matrix: (Units=1/GPa)
#
#
# Indices 1 2 3 4 5 6 
#
# 1 0.008488 -0.005378 -0.003555 0.000000 -0.002134 0.000000
# 2 -0.005378 0.024277 -0.002618 0.000000 0.010012 0.000000
# 3 -0.003555 -0.002618 0.023183 0.000000 0.011261 0.000000
# 4 0.000000 0.000000 0.000000 -0.042495 0.000000 0.091475
# 5 -0.002134 0.010012 0.011261 0.000000 0.046325 0.000000
# 6 0.000000 0.000000 0.000000 0.091475 0.000000 -0.043463
#
#
# Mechanical properties :
#
#
# Convention : Reuss Voigt Hill
#
# Bulk Modulus (GPa) = 30.44518 52.11969 41.28244
# Shear Modulus (GPa) = 99.27559 20.24159 59.75859
#
# Velocity S-wave (km/s) = 7.29177 3.29256 5.65734
# Velocity P-wave (km/s) = 9.33805 6.50914 8.04885
#
# Compressibility (1/GPa) = 0.03284592
#
# Stress axis : x y z
#
# Youngs Moduli (GPa) = 117.81926 41.19097 43.13525
#
# Poissons Ratio (x) = 0.22151 0.15336
# Poissons Ratio (y) = 0.63358 0.11293
# Poissons Ratio (z) = 0.41889 0.10784
#
# Static dielectric constant tensor:
#      x y z
#    x 1.738160 0.000000 0.052230 
#    y 0.000000 1.696300 0.000000 
#    z 0.052230 0.000000 1.668630 
# 
# From -- ./inp_files/98898.got.cif
#   From: 2010.05.17/outbox.cif.g08.bks.cpg/sg12_50_cif.got.tgz:98898.got - 2010.06.03 13:09:07.
