data_PCOD9183772
_publ_section_title
;
Structure prediction by ZEFSAII (Michael W. Deem and Ramdas Pophale) SiO2 
 PCOD9183772
Probable space group: C 2/M
;
_chemical_formula_sum "Si O2"
_cell_formula_units_Z 48
_cell_length_a 29.889318
_cell_length_b 7.730960
_cell_length_c 19.548264
_cell_angle_alpha 90.000000
_cell_angle_beta 30.985901
_cell_angle_gamma 90.000000
_cell_volume 2325.514516
_symmetry_space_group_name_H-M "C 2/M"
_symmetry_group_IT_number 12
_symmetry_cell_setting 'monoclinic'
loop_
_space_group_symop_operation_xyz
x,y,z
-x,y,-z
-x,-y,-z
x,-y,z
1/2+x,1/2+y,z
1/2-x,1/2+y,-z
1/2-x,1/2-y,-z
1/2+x,1/2-y,z
loop_
_atom_site_type_symbol
_atom_site_label
_atom_site_fract_x
_atom_site_fract_y
_atom_site_fract_z
Si Si1 0.341327 0.205762 0.346406
Si Si2 0.499870 0.296201 0.763080
Si Si3 0.018715 0.788711 0.585103
Si Si4 0.668776 0.794699 0.932180
Si Si5 0.638557 0.711170 0.304414
Si Si6 0.100710 0.711688 0.875698
O O1 0.250000 0.250000 0.500000
O O2 0.421657 0.266742 0.287185
O O3 0.349896 0.270372 0.257287
O O4 0.348814 0.000000 0.333285
O O5 0.488036 0.500000 0.771019
O O6 0.522421 0.226247 0.658072
O O7 0.410079 0.228747 0.912111
O O8 0.928949 0.735029 0.665919
O O9 0.096653 0.736496 0.432214
O O10 0.020810 0.000000 0.583041
O O11 0.762774 0.726916 0.831960
O O12 0.639977 0.725159 0.895649
O O13 0.680224 0.000000 0.908249
O O14 0.637920 0.500000 0.303563
O O15 0.102541 0.500000 0.875150
O O16 0.000000 0.761455 0.000000
#
# Coordination Sequence:
#
# PCOD9183772 Si02
#       6
#     8   8   8   8   8   8
#     4  11  23  39  58  81 110 140 179 222 266 317
#     4  11  22  35  53  79 113 144 174 219 275 322
#     4   8  16  31  51  78 108 137 178 229 268 311
#     4  10  19  33  56  80 103 139 185 225 266 316
#     4   8  15  30  54  79 101 135 186 230 263 310
#     4   9  17  33  55  76 102 138 178 219 258 309
#
# _framework density 20.640594
#
# number of rings (size 3 to 8) (size 9 to 14) (size 15 to 20)
#    0.000    2.500    1.667    2.000    2.333    0.667 
#    0.000    2.500    0.000    1.000    0.000    5.833 
#    0.000    0.000    0.000    0.000    0.000    0.000 
#
# Total GULP energy -133953.736784 kJ/mol
# GULP energy per Si atom -5581.405699 kJ/mol
# Density = 2.059361 g / cm^3
# Si number density = 20.640594 Si / 1000 Ang^3
#
#
#
# Elastic Constant Matrix: (Units=GPa)
#
#
# Indices 1 2 3 4 5 6 
#
# 1 36.8041 6.7507 16.3909 0.0145 4.6779 -0.0137
# 2 6.7507 13.5313 -10.6674 -0.0125 1.4460 -0.0004
# 3 16.3909 -10.6674 96.6867 -0.0033 -7.2541 -0.0070
# 4 0.0145 -0.0125 -0.0033 24.6632 0.0044 2.7270
# 5 4.6779 1.4460 -7.2541 0.0044 44.6429 -0.0030
# 6 -0.0137 -0.0004 -0.0070 2.7270 -0.0030 -2.7783
#
#
#
# Elastic Compliance Matrix: (Units=1/GPa)
#
#
# Indices 1 2 3 4 5 6 
#
# 1 0.036471 -0.025031 -0.009283 -0.000016 -0.004519 -0.000164
# 2 -0.025031 0.098184 0.015220 0.000053 0.001916 0.000120
# 3 -0.009283 0.015220 0.013800 0.000013 0.002722 0.000018
# 4 -0.000016 0.000053 0.000013 0.036577 0.000001 0.035901
# 5 -0.004519 0.001916 0.002722 0.000001 0.023254 -0.000009
# 6 -0.000164 0.000120 0.000018 0.035901 -0.000009 -0.324696
#
#
# Mechanical properties :
#
#
# Convention : Reuss Voigt Hill
#
# Bulk Modulus (GPa) = 9.06901 19.10784 14.08842
# Shear Modulus (GPa) = -120.58005 22.27542 -49.15232
#
# Velocity S-wave (km/s) = -7.65152 3.28869 -4.88519
# Velocity P-wave (km/s) = 8.58240 4.86807 4.99797
#
# Compressibility (1/GPa) = 0.11026563
#
# Stress axis : x y z
#
# Youngs Moduli (GPa) = 27.41908 10.18494 72.46434
#
# Poissons Ratio (x) = 0.25494 0.67272
# Poissons Ratio (y) = 0.68632 -1.10289
# Poissons Ratio (z) = 0.25454 -0.15501
#
# Static dielectric constant tensor:
#      x y z
#    x 1.722040 0.000000 0.022610 
#    y 0.000000 1.783070 0.000010 
#    z 0.022610 0.000010 1.708250 
# 
# From -- ./inp_files/295366.got.cif
#   From: 2010.05.17/outbox.cif.g08.bks.cpg/sg12_148_cif.got.tgz:295366.got - 2010.06.03 13:09:07.
