data_PCOD9183324
_publ_section_title
;
Structure prediction by ZEFSAII (Michael W. Deem and Ramdas Pophale) SiO2 
 PCOD9183324
Probable space group: C 2/M
;
_chemical_formula_sum "Si O2"
_cell_formula_units_Z 64
_cell_length_a 34.620994
_cell_length_b 8.889076
_cell_length_c 14.715253
_cell_angle_alpha 90.000000
_cell_angle_beta 133.809274
_cell_angle_gamma 90.000000
_cell_volume 3268.055402
_symmetry_space_group_name_H-M "C 2/M"
_symmetry_group_IT_number 12
_symmetry_cell_setting 'monoclinic'
loop_
_space_group_symop_operation_xyz
x,y,z
-x,y,-z
-x,-y,-z
x,-y,z
1/2+x,1/2+y,z
1/2-x,1/2+y,-z
1/2-x,1/2-y,-z
1/2+x,1/2-y,z
loop_
_atom_site_type_symbol
_atom_site_label
_atom_site_fract_x
_atom_site_fract_y
_atom_site_fract_z
Si Si1 0.918709 0.820206 0.017888
Si Si2 0.588709 0.321482 0.780576
Si Si3 0.466419 0.320378 0.582419
Si Si4 0.971266 0.679268 0.790796
Si Si5 0.817203 0.318840 0.754147
Si Si6 0.297799 0.679675 0.355067
Si Si7 0.866556 0.321645 0.315366
Si Si8 0.648268 0.821020 0.383172
O O1 0.909703 0.781999 0.110268
O O2 0.974837 0.746419 0.079110
O O3 0.923237 0.000000 0.018801
O O4 0.868289 0.759057 0.881553
O O5 0.598165 0.500000 0.787291
O O6 0.527288 0.293282 0.649397
O O7 0.628763 0.233954 0.780522
O O8 0.457331 0.500000 0.566555
O O9 0.465445 0.257960 0.683198
O O10 0.420419 0.239165 0.451603
O O11 0.977709 0.500000 0.790752
O O12 0.913923 0.706688 0.743803
O O13 0.823548 0.500000 0.769507
O O14 0.762577 0.277420 0.715966
O O15 0.816154 0.279139 0.645665
O O16 0.301298 0.500000 0.353887
O O17 0.318495 0.752537 0.295925
O O18 0.334875 0.735008 0.498753
O O19 0.864746 0.500000 0.317012
O O20 0.653453 0.000000 0.409370
#
# Coordination Sequence:
#
# PCOD9183324 Si02
#       8
#     8   8   8   8   8   8   8   8
#     4  10  22  40  61  85 117 156 197 242 287 339
#     4   9  20  37  56  81 114 151 191 236 286 341
#     4  10  19  33  54  82 119 155 189 233 287 345
#     4  10  19  33  57  87 121 157 189 234 291 344
#     4  10  23  42  62  85 114 154 199 243 294 346
#     4  11  23  39  61  86 117 155 194 242 294 346
#     4  12  23  34  54  85 117 151 192 237 289 349
#     4  10  21  38  61  90 121 150 189 241 296 348
#
# _framework density 19.583511999999999
#
# number of rings (size 3 to 8) (size 9 to 14) (size 15 to 20)
#    0.000    1.750    1.250    4.125    0.000    7.000 
#    0.000    3.125    0.000    0.000    0.000    0.000 
#    0.000    0.000    0.000    0.000    0.000    0.000 
#
# Total GULP energy -178792.227978 kJ/mol
# GULP energy per Si atom -5587.257124 kJ/mol
# Density = 1.953894 g / cm^3
# Si number density = 19.583512 Si / 1000 Ang^3
#
#
#
# Elastic Constant Matrix: (Units=GPa)
#
#
# Indices 1 2 3 4 5 6 
#
# 1 102.1829 42.6391 0.3991 0.0000 4.0596 0.0000
# 2 42.6391 51.0690 8.6053 0.0000 4.8996 0.0000
# 3 0.3991 8.6053 39.4760 0.0000 10.3229 0.0000
# 4 0.0000 0.0000 0.0000 29.0331 0.0000 0.1313
# 5 4.0596 4.8996 10.3229 0.0000 18.6104 0.0000
# 6 0.0000 0.0000 0.0000 0.1313 0.0000 18.4665
#
#
#
# Elastic Compliance Matrix: (Units=1/GPa)
#
#
# Indices 1 2 3 4 5 6 
#
# 1 0.015338 -0.013181 0.003141 0.000000 -0.001618 0.000000
# 2 -0.013181 0.031838 -0.006278 0.000000 -0.002025 0.000000
# 3 0.003141 -0.006278 0.030897 0.000000 -0.016171 0.000000
# 4 0.000000 0.000000 0.000000 0.034445 0.000000 -0.000245
# 5 -0.001618 -0.002025 -0.016171 0.000000 0.063589 0.000000
# 6 0.000000 0.000000 0.000000 -0.000245 0.000000 0.054154
#
#
# Mechanical properties :
#
#
# Convention : Reuss Voigt Hill
#
# Bulk Modulus (GPa) = 22.00706 32.89057 27.44882
# Shear Modulus (GPa) = 17.98291 22.62762 20.30526
#
# Velocity S-wave (km/s) = 3.03358 3.40287 3.22352
# Velocity P-wave (km/s) = 4.85099 5.68074 5.28218
#
# Compressibility (1/GPa) = 0.04543996
#
# Stress axis : x y z
#
# Youngs Moduli (GPa) = 65.19574 31.40870 32.36552
#
# Poissons Ratio (x) = 0.41399 -0.10167
# Poissons Ratio (y) = 0.85932 0.20318
# Poissons Ratio (z) = -0.20480 0.19717
#
# Static dielectric constant tensor:
#      x y z
#    x 1.711650 0.000000 0.003740 
#    y 0.000000 1.648170 0.000000 
#    z 0.003740 0.000000 1.668940 
# 
# From -- ./inp_files/250014.got.cif
#   From: 2010.05.17/outbox.cif.g08.bks.cpg/sg12_126_cif.got.tgz:250014.got - 2010.06.03 13:09:07.
