data_PCOD9183051
_publ_section_title
;
Structure prediction by ZEFSAII (Michael W. Deem and Ramdas Pophale) SiO2 
 PCOD9183051
Probable space group: C 2/M
;
_chemical_formula_sum "Si O2"
_cell_formula_units_Z 48
_cell_length_a 22.275794
_cell_length_b 12.659225
_cell_length_c 23.618647
_cell_angle_alpha 90.000000
_cell_angle_beta 23.881983
_cell_angle_gamma 90.000000
_cell_volume 2696.459125
_symmetry_space_group_name_H-M "C 2/M"
_symmetry_group_IT_number 12
_symmetry_cell_setting 'monoclinic'
loop_
_space_group_symop_operation_xyz
x,y,z
-x,y,-z
-x,-y,-z
x,-y,z
1/2+x,1/2+y,z
1/2-x,1/2+y,-z
1/2-x,1/2-y,-z
1/2+x,1/2-y,z
loop_
_atom_site_type_symbol
_atom_site_label
_atom_site_fract_x
_atom_site_fract_y
_atom_site_fract_z
Si Si1 0.541558 0.262066 0.732202
Si Si2 0.019766 0.696213 0.573033
Si Si3 0.836707 0.875267 0.481904
Si Si4 0.774082 0.375707 0.703125
Si Si5 0.978820 0.125874 0.904655
Si Si6 0.354490 0.879744 0.820706
O O1 0.673525 0.176520 0.623382
O O2 0.592959 0.344880 0.639692
O O3 0.513142 0.316669 0.816248
O O4 0.398823 0.200877 0.831379
O O5 0.873571 0.691324 0.660237
O O6 0.978827 0.633195 0.665174
O O7 0.071064 0.810842 0.550113
O O8 0.147814 0.641726 0.425372
O O9 0.834235 0.000000 0.492481
O O10 0.786372 0.500000 0.708323
O O11 0.602985 0.344672 0.843681
O O12 0.997540 0.000000 0.880846
O O13 0.806620 0.144615 0.066705
O O14 0.351082 0.000000 0.844268
#
# Coordination Sequence:
#
# PCOD9183051 Si02
#       6
#     8   8   8   8   8   8
#     4  10  19  34  51  74 105 138 165 205 258 302
#     4  10  19  34  52  75 101 134 169 210 255 297
#     4  10  20  33  53  78 102 131 173 216 252 298
#     4  10  19  33  54  76 104 135 168 211 256 303
#     4  10  20  33  51  77 106 134 167 205 252 306
#     4  10  20  32  51  78 105 135 167 205 251 304
#
# _framework density 17.801123
#
# number of rings (size 3 to 8) (size 9 to 14) (size 15 to 20)
#    0.000    2.000    1.667    3.500    0.000    0.667 
#    0.000    4.167    0.000    1.000    0.000    4.667 
#    0.000    0.000    0.000    0.000    0.000    0.000 
#
# Total GULP energy -133892.018244 kJ/mol
# GULP energy per Si atom -5578.834094 kJ/mol
# Density = 1.776061 g / cm^3
# Si number density = 17.801123 Si / 1000 Ang^3
#
#
#
# Elastic Constant Matrix: (Units=GPa)
#
#
# Indices 1 2 3 4 5 6 
#
# 1 59.3923 27.5744 15.8815 0.0005 -22.0861 0.0001
# 2 27.5744 77.5682 26.4383 0.0020 -20.1148 -0.0005
# 3 15.8815 26.4383 59.3994 0.0033 -21.2616 -0.0003
# 4 0.0005 0.0020 0.0033 18.8368 -0.0008 -8.1691
# 5 -22.0861 -20.1148 -21.2616 -0.0008 35.7264 -0.0003
# 6 0.0001 -0.0005 -0.0003 -8.1691 -0.0003 15.1973
#
#
#
# Elastic Compliance Matrix: (Units=1/GPa)
#
#
# Indices 1 2 3 4 5 6 
#
# 1 0.023657 -0.005474 0.000309 0.000000 0.011726 0.000000
# 2 -0.005474 0.017457 -0.005082 -0.000001 0.003420 0.000000
# 3 0.000309 -0.005082 0.022947 -0.000004 0.010986 -0.000001
# 4 0.000000 -0.000001 -0.000004 0.069225 0.000000 0.037211
# 5 0.011726 0.003420 0.010986 0.000000 0.043703 0.000001
# 6 0.000000 0.000000 -0.000001 0.037211 0.000001 0.085804
#
#
# Mechanical properties :
#
#
# Convention : Reuss Voigt Hill
#
# Bulk Modulus (GPa) = 22.95387 37.34981 30.15184
# Shear Modulus (GPa) = 16.78926 22.38315 19.58621
#
# Velocity S-wave (km/s) = 3.07442 3.54983 3.32064
# Velocity P-wave (km/s) = 5.05226 6.15053 5.62825
#
# Compressibility (1/GPa) = 0.04356565
#
# Stress axis : x y z
#
# Youngs Moduli (GPa) = 42.27119 57.28388 43.57880
#
# Poissons Ratio (x) = 0.31357 -0.01345
# Poissons Ratio (y) = 0.23139 0.22148
# Poissons Ratio (z) = -0.01305 0.29113
#
# Static dielectric constant tensor:
#      x y z
#    x 1.627750 0.000000 -0.017260 
#    y 0.000000 1.567950 0.000000 
#    z -0.017260 0.000000 1.645030 
# 
# From -- ./inp_files/94345.got.cif
#   From: 2010.05.17/outbox.cif.g08.bks.cpg/sg12_48_cif.got.tgz:94345.got - 2010.06.03 13:09:07.
