data_PCOD9183672
_publ_section_title
;
Structure prediction by ZEFSAII (Michael W. Deem and Ramdas Pophale) SiO2 
 PCOD9183672
Probable space group: C 2/M
;
_chemical_formula_sum "Si O2"
_cell_formula_units_Z 56
_cell_length_a 27.472088
_cell_length_b 7.854272
_cell_length_c 18.772129
_cell_angle_alpha 90.000000
_cell_angle_beta 141.739033
_cell_angle_gamma 90.000000
_cell_volume 2508.263294
_symmetry_space_group_name_H-M "C 2/M"
_symmetry_group_IT_number 12
_symmetry_cell_setting 'monoclinic'
loop_
_space_group_symop_operation_xyz
x,y,z
-x,y,-z
-x,-y,-z
x,-y,z
1/2+x,1/2+y,z
1/2-x,1/2+y,-z
1/2-x,1/2-y,-z
1/2+x,1/2-y,z
loop_
_atom_site_type_symbol
_atom_site_label
_atom_site_fract_x
_atom_site_fract_y
_atom_site_fract_z
Si Si1 0.003169 0.198302 0.297222
Si Si2 0.774767 0.807459 0.606804
Si Si3 0.836018 0.297516 0.071988
Si Si4 0.050085 0.697071 0.195388
Si Si5 0.933117 0.790744 0.478014
Si Si6 0.117311 0.292806 0.035176
Si Si7 0.737045 0.695529 0.712357
O O1 0.908950 0.213870 0.197061
O O2 0.027493 0.294488 0.253223
O O3 0.044465 0.261348 0.416144
O O4 0.023635 0.000000 0.309842
O O5 0.750000 0.750000 0.500000
O O6 0.868696 0.792765 0.721143
O O7 0.737862 0.699623 0.627990
O O8 0.748679 0.000000 0.587534
O O9 0.845644 0.500000 0.088391
O O10 0.750000 0.250000 0.000000
O O11 0.848396 0.250196 0.003354
O O12 0.063646 0.500000 0.190395
O O13 0.973037 0.766226 0.066209
O O14 0.845794 0.729461 0.358032
O O15 0.000000 0.736861 0.500000
O O16 0.932056 0.000000 0.476977
O O17 0.110913 0.500000 0.032487
O O18 0.181307 0.229261 0.165066
O O19 0.737506 0.500000 0.737892
#
# Coordination Sequence:
#
# PCOD9183672 Si02
#       7
#     8   8   8   8   8   8   8
#     4  10  19  33  55  84 115 150 195 244 296 350
#     4  12  25  41  62  89 118 152 197 244 300 357
#     4  10  20  34  54  82 112 152 200 248 299 350
#     4  10  20  38  61  87 120 155 197 243 293 349
#     4   9  19  33  55  84 112 149 196 241 286 344
#     4   8  18  35  58  85 116 156 197 239 290 356
#     4  10  20  38  62  87 118 155 198 244 293 351
#
# _framework density 22.326205000000002
#
# number of rings (size 3 to 8) (size 9 to 14) (size 15 to 20)
#    0.000    2.143    0.000    4.286    2.000    1.714 
#    0.000    7.857    0.000    2.143    0.000    0.000 
#    0.000    0.000    0.000    0.000    0.000    0.000 
#
# Total GULP energy -156443.683817 kJ/mol
# GULP energy per Si atom -5587.274422 kJ/mol
# Density = 2.227539 g / cm^3
# Si number density = 22.326205 Si / 1000 Ang^3
#
#
#
# Elastic Constant Matrix: (Units=GPa)
#
#
# Indices 1 2 3 4 5 6 
#
# 1 67.7886 -11.3549 34.7840 0.0000 24.4622 0.0000
# 2 -11.3549 40.9200 1.5152 0.0000 -0.1792 0.0000
# 3 34.7840 1.5152 135.9970 0.0000 12.8812 0.0000
# 4 0.0000 0.0000 0.0000 16.5012 0.0000 2.7035
# 5 24.4622 -0.1792 12.8812 0.0000 31.3009 0.0000
# 6 0.0000 0.0000 0.0000 2.7035 0.0000 19.6136
#
#
#
# Elastic Compliance Matrix: (Units=1/GPa)
#
#
# Indices 1 2 3 4 5 6 
#
# 1 0.024537 0.006908 -0.004724 0.000000 -0.017192 0.000000
# 2 0.006908 0.026395 -0.001627 0.000000 -0.004578 0.000000
# 3 -0.004724 -0.001627 0.008565 0.000000 0.000158 0.000000
# 4 0.000000 0.000000 0.000000 0.062002 0.000000 -0.008546
# 5 -0.017192 -0.004578 0.000158 0.000000 0.045293 0.000000
# 6 0.000000 0.000000 0.000000 -0.008546 0.000000 0.052163
#
#
# Mechanical properties :
#
#
# Convention : Reuss Voigt Hill
#
# Bulk Modulus (GPa) = 16.49886 32.73269 24.61577
# Shear Modulus (GPa) = 21.00445 28.13390 24.56917
#
# Velocity S-wave (km/s) = 3.07057 3.55368 3.32092
# Velocity P-wave (km/s) = 4.46958 5.61526 5.07485
#
# Compressibility (1/GPa) = 0.06061026
#
# Stress axis : x y z
#
# Youngs Moduli (GPa) = 40.75433 37.88571 116.75946
#
# Poissons Ratio (x) = -0.26173 0.55163
# Poissons Ratio (y) = -0.28155 0.19002
# Poissons Ratio (z) = 0.19254 0.06166
#
# Static dielectric constant tensor:
#      x y z
#    x 1.805790 0.000000 0.012730 
#    y 0.000000 1.828660 0.000000 
#    z 0.012730 0.000000 1.851390 
# 
# From -- ./inp_files/292499.got.cif
#   From: 2010.05.17/outbox.cif.g08.bks.cpg/sg12_147_cif.got.tgz:292499.got - 2010.06.03 13:09:07.
