data_PCOD9183916
_publ_section_title
;
Structure prediction by ZEFSAII (Michael W. Deem and Ramdas Pophale) SiO2 
 PCOD9183916
Probable space group: C 2/M
;
_chemical_formula_sum "Si O2"
_cell_formula_units_Z 56
_cell_length_a 30.852255
_cell_length_b 7.603692
_cell_length_c 22.749823
_cell_angle_alpha 90.000000
_cell_angle_beta 151.925088
_cell_angle_gamma 90.000000
_cell_volume 2511.683893
_symmetry_space_group_name_H-M "C 2/M"
_symmetry_group_IT_number 12
_symmetry_cell_setting 'monoclinic'
loop_
_space_group_symop_operation_xyz
x,y,z
-x,y,-z
-x,-y,-z
x,-y,z
1/2+x,1/2+y,z
1/2-x,1/2+y,-z
1/2-x,1/2-y,-z
1/2+x,1/2-y,z
loop_
_atom_site_type_symbol
_atom_site_label
_atom_site_fract_x
_atom_site_fract_y
_atom_site_fract_z
Si Si1 0.779860 0.300555 0.602264
Si Si2 0.111022 0.286273 0.836801
Si Si3 0.773830 0.202810 0.804556
Si Si4 0.584994 0.213553 0.420909
Si Si5 0.761652 0.702986 0.111736
Si Si6 0.406123 0.204741 0.858264
Si Si7 0.941409 0.296472 0.482266
O O1 0.810289 0.500000 0.632021
O O2 0.750000 0.250000 0.500000
O O3 0.682739 0.286640 0.519717
O O4 0.857167 0.219539 0.739804
O O5 0.118769 0.500000 0.846150
O O6 0.150960 0.227497 0.820756
O O7 0.005485 0.242872 0.724763
O O8 0.179230 0.211320 0.966709
O O9 0.774416 0.283521 0.870662
O O10 0.830456 0.288651 0.819748
O O11 0.665818 0.201341 0.661132
O O12 0.807266 0.000000 0.846588
O O13 0.555652 0.280046 0.449749
O O14 0.595080 0.000000 0.434212
O O15 0.784571 0.500000 0.153914
O O16 0.427057 0.000000 0.870307
O O17 0.500000 0.280924 0.000000
O O18 0.974416 0.500000 0.527758
O O19 0.000000 0.215504 0.500000
#
# Coordination Sequence:
#
# PCOD9183916 Si02
#       7
#     8   8   8   8   8   8   8
#     4  11  24  42  64  87 115 150 193 247 304 361
#     4   9  18  32  51  77 112 155 194 229 275 339
#     4  10  19  33  56  84 111 141 184 235 282 332
#     4  10  19  34  57  83 112 146 189 234 282 342
#     4   9  18  32  50  78 115 151 191 235 280 331
#     4  10  23  43  63  83 112 151 193 241 300 362
#     4   9  16  28  52  84 114 144 179 222 273 329
#
# _framework density 22.2958
#
# number of rings (size 3 to 8) (size 9 to 14) (size 15 to 20)
#    0.000    2.286    1.429    1.286    0.000    6.571 
#    0.000    4.286    0.000    3.429    0.000    0.000 
#    0.000    0.000    0.000    0.000    0.000    0.000 
#
# Total GULP energy -155980.545098 kJ/mol
# GULP energy per Si atom -5570.733754 kJ/mol
# Density = 2.224505 g / cm^3
# Si number density = 22.295800 Si / 1000 Ang^3
#
#
#
# Elastic Constant Matrix: (Units=GPa)
#
#
# Indices 1 2 3 4 5 6 
#
# 1 87.3223 -2.5051 61.0923 0.0000 -15.4343 0.0000
# 2 -2.5051 46.0438 8.6402 -0.0001 -4.6433 0.0000
# 3 61.0923 8.6402 140.5240 0.0000 -10.1520 0.0000
# 4 0.0000 -0.0001 0.0000 62.5545 0.0000 10.4640
# 5 -15.4343 -4.6433 -10.1520 0.0000 34.1383 0.0000
# 6 0.0000 0.0000 0.0000 10.4640 0.0000 12.4609
#
#
#
# Elastic Compliance Matrix: (Units=1/GPa)
#
#
# Indices 1 2 3 4 5 6 
#
# 1 0.017906 0.003017 -0.007517 0.000000 0.006270 0.000000
# 2 0.003017 0.022716 -0.002439 0.000000 0.003728 0.000000
# 3 -0.007517 -0.002439 0.010490 0.000000 -0.000611 0.000000
# 4 0.000000 0.000000 0.000000 0.018599 0.000000 -0.015618
# 5 0.006270 0.003728 -0.000611 0.000000 0.032453 0.000000
# 6 0.000000 0.000000 0.000000 -0.015618 0.000000 0.093366
#
#
# Mechanical properties :
#
#
# Convention : Reuss Voigt Hill
#
# Bulk Modulus (GPa) = 26.85701 45.37165 36.11433
# Shear Modulus (GPa) = 22.54095 35.60827 29.07461
#
# Velocity S-wave (km/s) = 3.18306 4.00069 3.61507
# Velocity P-wave (km/s) = 5.05778 6.46024 5.80155
#
# Compressibility (1/GPa) = 0.03723422
#
# Stress axis : x y z
#
# Youngs Moduli (GPa) = 55.84832 44.02122 95.32866
#
# Poissons Ratio (x) = -0.13282 0.71658
# Poissons Ratio (y) = -0.16850 0.23251
# Poissons Ratio (z) = 0.41981 0.10737
#
# Static dielectric constant tensor:
#      x y z
#    x 1.827380 0.000000 -0.043420 
#    y 0.000000 1.956060 0.000000 
#    z -0.043420 0.000000 1.892080 
# 
# From -- ./inp_files/329665.got.cif
#   From: 2010.05.17/outbox.cif.g08.bks.cpg/sg12_165_cif.got.tgz:329665.got - 2010.06.03 13:09:07.
