data_PCOD9183377
_publ_section_title
;
Structure prediction by ZEFSAII (Michael W. Deem and Ramdas Pophale) SiO2 
 PCOD9183377
Probable space group: C 2/M
;
_chemical_formula_sum "Si O2"
_cell_formula_units_Z 64
_cell_length_a 9.268307
_cell_length_b 21.753913
_cell_length_c 16.009691
_cell_angle_alpha 90.000000
_cell_angle_beta 89.042492
_cell_angle_gamma 90.000000
_cell_volume 3227.454291
_symmetry_space_group_name_H-M "C 2/M"
_symmetry_group_IT_number 12
_symmetry_cell_setting 'monoclinic'
loop_
_space_group_symop_operation_xyz
x,y,z
-x,y,-z
-x,-y,-z
x,-y,z
1/2+x,1/2+y,z
1/2-x,1/2+y,-z
1/2-x,1/2-y,-z
1/2+x,1/2-y,z
loop_
_atom_site_type_symbol
_atom_site_label
_atom_site_fract_x
_atom_site_fract_y
_atom_site_fract_z
Si Si1 0.672271 0.927200 0.516227
Si Si2 0.800480 0.819069 0.934191
Si Si3 0.768367 0.320809 0.881012
Si Si4 0.248071 0.196825 0.570460
Si Si5 0.014803 0.843188 0.213850
Si Si6 0.276513 0.571153 0.703105
Si Si7 0.065555 0.641109 0.815978
Si Si8 0.005202 0.261432 0.679958
O O1 0.500000 0.921285 0.500000
O O2 0.752695 0.872886 0.464030
O O3 0.711368 0.913203 0.612549
O O4 0.708743 0.000000 0.499037
O O5 0.825191 0.746886 0.911006
O O6 0.645192 0.833756 0.896956
O O7 0.910454 0.855317 0.875105
O O8 0.804172 0.838277 0.029912
O O9 0.647967 0.325378 0.809567
O O10 0.899812 0.361641 0.845361
O O11 0.250000 0.250000 0.500000
O O12 0.114195 0.217068 0.629502
O O13 0.396585 0.204979 0.619491
O O14 0.081554 0.782778 0.256752
O O15 0.073734 0.895126 0.274945
O O16 0.306560 0.500000 0.701470
O O17 0.155607 0.585624 0.775033
O O18 0.077813 0.690022 0.740430
#
# Coordination Sequence:
#
# PCOD9183377 Si02
#       8
#     8   8   8   8   8   8   8   8
#     4  10  21  41  64  87 112 153 207 255 302 361
#     4  10  19  33  54  86 130 159 188 230 299 360
#     4  11  19  32  56  91 124 158 192 237 294 360
#     4  12  23  36  56  85 119 150 188 242 304 364
#     4  11  21  36  57  85 124 157 195 243 297 358
#     4  10  23  42  62  81 113 162 204 242 296 355
#     4  11  20  35  57  86 121 154 198 247 291 350
#     4  12  22  35  56  89 119 148 189 237 310 359
#
# _framework density 19.82987
#
# number of rings (size 3 to 8) (size 9 to 14) (size 15 to 20)
#    0.000    1.125    2.500    6.375    0.000    2.000 
#    0.000    1.250    0.000   15.000    0.000    1.750 
#    0.000    0.000    0.000    0.000    0.000    0.000 
#
# Total GULP energy -178283.484956 kJ/mol
# GULP energy per Si atom -5571.358905 kJ/mol
# Density = 1.978474 g / cm^3
# Si number density = 19.829870 Si / 1000 Ang^3
#
#
#
# Elastic Constant Matrix: (Units=GPa)
#
#
# Indices 1 2 3 4 5 6 
#
# 1 60.6205 10.9319 23.7761 0.0000 15.0065 0.0000
# 2 10.9319 61.3941 34.8061 0.0000 5.1497 0.0000
# 3 23.7761 34.8061 108.4678 0.0000 12.9221 0.0000
# 4 0.0000 0.0000 0.0000 20.4032 0.0000 2.8240
# 5 15.0065 5.1497 12.9221 0.0000 40.9094 0.0000
# 6 0.0000 0.0000 0.0000 2.8240 0.0000 20.9999
#
#
#
# Elastic Compliance Matrix: (Units=1/GPa)
#
#
# Indices 1 2 3 4 5 6 
#
# 1 0.019430 -0.001158 -0.003175 0.000000 -0.005979 0.000000
# 2 -0.001158 0.019990 -0.006143 0.000000 -0.000151 0.000000
# 3 -0.003175 -0.006143 0.012111 0.000000 -0.001888 0.000000
# 4 0.000000 0.000000 0.000000 0.049942 0.000000 -0.006716
# 5 -0.005979 -0.000151 -0.001888 0.000000 0.027253 0.000000
# 6 0.000000 0.000000 0.000000 -0.006716 0.000000 0.048522
#
#
# Mechanical properties :
#
#
# Convention : Reuss Voigt Hill
#
# Bulk Modulus (GPa) = 32.70191 41.05675 36.87933
# Shear Modulus (GPa) = 23.99316 27.19370 25.59343
#
# Velocity S-wave (km/s) = 3.48221 3.70719 3.59646
# Velocity P-wave (km/s) = 5.71793 6.25091 5.99035
#
# Compressibility (1/GPa) = 0.03057925
#
# Stress axis : x y z
#
# Youngs Moduli (GPa) = 51.46602 50.02623 82.56770
#
# Poissons Ratio (x) = 0.05794 0.26217
# Poissons Ratio (y) = 0.05961 0.50717
# Poissons Ratio (z) = 0.16341 0.30729
#
# Static dielectric constant tensor:
#      x y z
#    x 1.772810 0.000000 -0.026630 
#    y 0.000000 1.705370 0.000000 
#    z -0.026630 0.000000 1.806900 
# 
# From -- ./inp_files/198862.got.cif
#   From: 2010.05.17/outbox.cif.g08.bks.cpg/sg12_100_cif.got.tgz:198862.got - 2010.06.03 13:09:07.
