data_PCOD9183807
_publ_section_title
;
Structure prediction by ZEFSAII (Michael W. Deem and Ramdas Pophale) SiO2 
 PCOD9183807
Probable space group: C 2/M
;
_chemical_formula_sum "Si O2"
_cell_formula_units_Z 56
_cell_length_a 28.283691
_cell_length_b 13.775037
_cell_length_c 12.982975
_cell_angle_alpha 90.000000
_cell_angle_beta 140.930201
_cell_angle_gamma 90.000000
_cell_volume 3188.066806
_symmetry_space_group_name_H-M "C 2/M"
_symmetry_group_IT_number 12
_symmetry_cell_setting 'monoclinic'
loop_
_space_group_symop_operation_xyz
x,y,z
-x,y,-z
-x,-y,-z
x,-y,z
1/2+x,1/2+y,z
1/2-x,1/2+y,-z
1/2-x,1/2-y,-z
1/2+x,1/2-y,z
loop_
_atom_site_type_symbol
_atom_site_label
_atom_site_fract_x
_atom_site_fract_y
_atom_site_fract_z
Si Si1 0.788105 0.716794 0.668257
Si Si2 0.928958 0.383739 0.813347
Si Si3 0.919746 0.770341 0.390676
Si Si4 0.787398 0.112362 0.810149
Si Si5 0.817918 0.259217 0.036054
Si Si6 0.105097 0.613813 0.480180
Si Si7 0.716975 0.385064 0.734352
O O1 0.750000 0.750000 0.500000
O O2 0.855732 0.647149 0.752411
O O3 0.816433 0.814345 0.772439
O O4 0.729165 0.663166 0.643417
O O5 0.933304 0.500000 0.816593
O O6 0.919356 0.353639 0.676690
O O7 0.000000 0.347654 0.000000
O O8 0.888909 0.731040 0.229049
O O9 0.927074 0.683148 0.485556
O O10 0.856081 0.840736 0.331959
O O11 0.000000 0.816243 0.500000
O O12 0.696211 0.118572 0.647002
O O13 0.808216 0.000000 0.835948
O O14 0.815458 0.162172 0.962798
O O15 0.750000 0.250000 0.000000
O O16 0.792305 0.348166 0.920899
O O17 0.084629 0.500000 0.458354
O O18 0.712761 0.500000 0.723298
#
# Coordination Sequence:
#
# PCOD9183807 Si02
#       7
#     8   8   8   8   8   8   8
#     4  11  19  35  58  83 112 145 189 231 276 326
#     4  10  21  36  58  87 119 151 180 223 288 343
#     4  11  22  38  56  81 116 150 188 231 286 337
#     4  10  19  33  56  81 109 143 189 233 271 327
#     4   9  18  35  53  78 100 142 188 231 274 317
#     4  10  19  35  55  82 114 145 187 231 275 332
#     4  10  21  36  55  83 112 144 189 233 273 328
#
# _framework density 17.565505000000002
#
# number of rings (size 3 to 8) (size 9 to 14) (size 15 to 20)
#    0.000    1.857    5.714    0.429    0.000    6.286 
#    0.000    1.429    0.000    0.429    0.000    0.000 
#    0.000    0.000    0.000    0.000    0.000    0.000 
#
# Total GULP energy -155944.268372 kJ/mol
# GULP energy per Si atom -5569.438156 kJ/mol
# Density = 1.752552 g / cm^3
# Si number density = 17.565505 Si / 1000 Ang^3
#
#
#
# Elastic Constant Matrix: (Units=GPa)
#
#
# Indices 1 2 3 4 5 6 
#
# 1 62.0021 28.0529 59.2418 0.0000 -15.0756 0.0000
# 2 28.0529 101.1596 28.2147 0.0000 -18.1864 0.0000
# 3 59.2418 28.2147 96.8903 0.0000 -14.2765 0.0000
# 4 0.0000 0.0000 0.0000 14.1407 0.0000 -2.1573
# 5 -15.0756 -18.1864 -14.2765 0.0000 34.6438 0.0000
# 6 0.0000 0.0000 0.0000 -2.1573 0.0000 20.8919
#
#
#
# Elastic Compliance Matrix: (Units=1/GPa)
#
#
# Indices 1 2 3 4 5 6 
#
# 1 0.042028 -0.003901 -0.023602 0.000000 0.006515 0.000000
# 2 -0.003901 0.011870 -0.000429 0.000000 0.004357 0.000000
# 3 -0.023602 -0.000429 0.024838 0.000000 -0.000260 0.000000
# 4 0.000000 0.000000 0.000000 0.071850 0.000000 0.007419
# 5 0.006515 0.004357 -0.000260 0.000000 0.033880 0.000000
# 6 0.000000 0.000000 0.000000 0.007419 0.000000 0.048632
#
#
# Mechanical properties :
#
#
# Convention : Reuss Voigt Hill
#
# Bulk Modulus (GPa) = 43.71958 54.56342 49.14150
# Shear Modulus (GPa) = 16.85844 23.57143 20.21493
#
# Velocity S-wave (km/s) = 3.10134 3.66719 3.39607
# Velocity P-wave (km/s) = 6.14556 7.00438 6.58898
#
# Compressibility (1/GPa) = 0.02287305
#
# Stress axis : x y z
#
# Youngs Moduli (GPa) = 23.79338 84.24450 40.26022
#
# Poissons Ratio (x) = 0.32864 0.95020
# Poissons Ratio (y) = 0.09282 0.01729
# Poissons Ratio (z) = 0.56156 0.03618
#
# Static dielectric constant tensor:
#      x y z
#    x 1.599640 0.000000 0.010660 
#    y 0.000000 1.586320 0.000000 
#    z 0.010660 0.000000 1.841200 
# 
# From -- ./inp_files/183555.got.cif
#   From: 2010.05.17/outbox.cif.g08.bks.cpg/sg12_92_cif.got.tgz:183555.got - 2010.06.03 13:09:07.
