data_PCOD9183961
_publ_section_title
;
Structure prediction by ZEFSAII (Michael W. Deem and Ramdas Pophale) SiO2 
 PCOD9183961
Probable space group: C 2/M
;
_chemical_formula_sum "Si O2"
_cell_formula_units_Z 64
_cell_length_a 14.750918
_cell_length_b 13.198266
_cell_length_c 12.531372
_cell_angle_alpha 90.000000
_cell_angle_beta 93.164488
_cell_angle_gamma 90.000000
_cell_volume 2435.969340
_symmetry_space_group_name_H-M "C 2/M"
_symmetry_group_IT_number 12
_symmetry_cell_setting 'monoclinic'
loop_
_space_group_symop_operation_xyz
x,y,z
-x,y,-z
-x,-y,-z
x,-y,z
1/2+x,1/2+y,z
1/2-x,1/2+y,-z
1/2-x,1/2-y,-z
1/2+x,1/2-y,z
loop_
_atom_site_type_symbol
_atom_site_label
_atom_site_fract_x
_atom_site_fract_y
_atom_site_fract_z
Si Si1 0.839098 0.329938 0.932201
Si Si2 0.856597 0.614684 0.697836
Si Si3 0.962949 0.613115 0.379697
Si Si4 0.674413 0.620912 0.557183
Si Si5 0.674766 0.222945 0.854524
Si Si6 0.244900 0.378653 0.656489
Si Si7 0.919578 0.891657 0.905910
Si Si8 0.948450 0.116418 0.266903
O O1 0.858972 0.389172 0.826005
O O2 0.731768 0.311594 0.915355
O O3 0.882948 0.219771 0.921403
O O4 0.858614 0.355193 0.056828
O O5 0.863159 0.500000 0.654978
O O6 0.759472 0.650360 0.642061
O O7 0.951961 0.666640 0.672556
O O8 0.952242 0.500000 0.328576
O O9 0.859165 0.647650 0.384752
O O10 0.000000 0.604486 0.500000
O O11 0.681251 0.500000 0.547695
O O12 0.691051 0.656610 0.437183
O O13 0.578793 0.636997 0.611882
O O14 0.741317 0.169019 0.774192
O O15 0.597235 0.287945 0.794485
O O16 0.254511 0.500000 0.666265
O O17 0.955506 0.891549 0.785395
O O18 0.868779 0.000000 0.917024
O O19 0.000000 0.897389 0.000000
O O20 0.909798 0.000000 0.244911
#
# Coordination Sequence:
#
# PCOD9183961 Si02
#       8
#     8   8   8   8   8   8   8   8
#     4  11  24  39  57  85 122 154 197 246 299 359
#     4  10  19  33  56  85 116 154 192 237 294 354
#     4   9  16  30  54  83 114 149 191 233 279 349
#     4   9  17  34  60  85 114 150 195 246 292 349
#     4  11  24  38  57  88 119 156 195 245 300 358
#     4  10  21  37  57  86 125 161 192 234 298 365
#     4  10  21  39  64  85 108 154 208 255 296 340
#     4  10  20  38  62  88 110 142 204 259 295 339
#
# _framework density 26.272907
#
# number of rings (size 3 to 8) (size 9 to 14) (size 15 to 20)
#    0.000    2.000    3.750    0.000    1.750    1.500 
#    0.000    2.500    0.000    2.625    0.000    3.500 
#    0.000    0.000    0.000    0.000    0.000    0.000 
#
# Total GULP energy -178296.364441 kJ/mol
# GULP energy per Si atom -5571.761389 kJ/mol
# Density = 2.621311 g / cm^3
# Si number density = 26.272907 Si / 1000 Ang^3
#
#
#
# Elastic Constant Matrix: (Units=GPa)
#
#
# Indices 1 2 3 4 5 6 
#
# 1 54.6885 -7.7484 19.1416 0.0000 -21.2248 0.0000
# 2 -7.7484 73.3244 14.7088 0.0000 -3.6112 0.0000
# 3 19.1416 14.7088 163.3577 0.0000 -41.7648 0.0000
# 4 0.0000 0.0000 0.0000 11.4691 0.0000 1.6008
# 5 -21.2248 -3.6112 -41.7648 0.0000 55.3480 0.0000
# 6 0.0000 0.0000 0.0000 1.6008 0.0000 12.2842
#
#
#
# Elastic Compliance Matrix: (Units=1/GPa)
#
#
# Indices 1 2 3 4 5 6 
#
# 1 0.022103 0.002891 -0.000787 0.000000 0.008071 0.000000
# 2 0.002891 0.014267 -0.001365 0.000000 0.001009 0.000000
# 3 -0.000787 -0.001365 0.007728 0.000000 0.005440 0.000000
# 4 0.000000 0.000000 0.000000 0.088806 0.000000 -0.011573
# 5 0.008071 0.001009 0.005440 0.000000 0.025334 0.000000
# 6 0.000000 0.000000 0.000000 -0.011573 0.000000 0.082913
#
#
# Mechanical properties :
#
#
# Convention : Reuss Voigt Hill
#
# Bulk Modulus (GPa) = 21.94182 38.17495 30.05839
# Shear Modulus (GPa) = 19.61826 33.50483 26.56154
#
# Velocity S-wave (km/s) = 2.73556 3.57495 3.18305
# Velocity P-wave (km/s) = 4.28338 5.62157 4.99747
#
# Compressibility (1/GPa) = 0.04557508
#
# Stress axis : x y z
#
# Youngs Moduli (GPa) = 45.24331 70.09123 129.40693
#
# Poissons Ratio (x) = -0.20263 0.10182
# Poissons Ratio (y) = -0.13080 0.17669
# Poissons Ratio (z) = 0.03560 0.09570
#
# Static dielectric constant tensor:
#      x y z
#    x 2.141930 0.000000 -0.006890 
#    y 0.000000 2.133200 0.000000 
#    z -0.006890 0.000000 2.194110 
# 
# From -- ./inp_files/156634.got.cif
#   From: 2010.05.17/outbox.cif.g08.bks.cpg/sg12_79_cif.got.tgz:156634.got - 2010.06.03 13:09:07.
