data_PCOD9183356
_publ_section_title
;
Structure prediction by ZEFSAII (Michael W. Deem and Ramdas Pophale) SiO2 
 PCOD9183356
Probable space group: C 2/M
;
_chemical_formula_sum "Si O2"
_cell_formula_units_Z 48
_cell_length_a 17.836846
_cell_length_b 20.414494
_cell_length_c 20.419807
_cell_angle_alpha 90.000000
_cell_angle_beta 159.860463
_cell_angle_gamma 90.000000
_cell_volume 2560.088445
_symmetry_space_group_name_H-M "C 2/M"
_symmetry_group_IT_number 12
_symmetry_cell_setting 'monoclinic'
loop_
_space_group_symop_operation_xyz
x,y,z
-x,y,-z
-x,-y,-z
x,-y,z
1/2+x,1/2+y,z
1/2-x,1/2+y,-z
1/2-x,1/2-y,-z
1/2+x,1/2-y,z
loop_
_atom_site_type_symbol
_atom_site_label
_atom_site_fract_x
_atom_site_fract_y
_atom_site_fract_z
Si Si1 0.967636 0.275577 0.781369
Si Si2 0.321033 0.424961 0.628346
Si Si3 0.471173 0.357960 0.871316
Si Si4 0.626965 0.853815 0.701365
Si Si5 0.995370 0.203431 0.420307
Si Si6 0.629287 0.676347 0.814846
O O1 0.951222 0.212014 0.816792
O O2 0.735920 0.309027 0.590142
O O3 0.027107 0.244646 0.759683
O O4 0.150777 0.323023 0.961544
O O5 0.306394 0.500000 0.596715
O O6 0.460616 0.414382 0.809010
O O7 0.456751 0.379759 0.690116
O O8 0.082162 0.396055 0.449591
O O9 0.268293 0.371555 0.753088
O O10 0.692810 0.354974 0.093708
O O11 0.546232 0.780939 0.618874
O O12 0.000000 0.183330 0.500000
O O13 0.831836 0.176101 0.231025
#
# Coordination Sequence:
#
# PCOD9183356 Si02
#       6
#     8   8   8   8   8   8
#     4  10  19  33  54  84 113 146 174 227 286 342
#     4  11  24  40  55  74 109 159 201 227 262 318
#     4  10  20  34  55  82 117 144 179 226 278 332
#     4  11  20  34  55  86 118 147 175 225 278 341
#     4  12  20  32  57  87 118 141 174 226 294 346
#     4  10  22  34  54  82 113 145 186 233 278 329
#
# _framework density 18.749351999999998
#
# number of rings (size 3 to 8) (size 9 to 14) (size 15 to 20)
#    0.000    1.333    6.667    1.000    0.000    2.667 
#    0.000    1.667    0.000    0.500    0.000    1.167 
#    0.000    0.000    0.000    0.000    0.000    0.000 
#
# Total GULP energy -133806.578033 kJ/mol
# GULP energy per Si atom -5575.274085 kJ/mol
# Density = 1.870668 g / cm^3
# Si number density = 18.749352 Si / 1000 Ang^3
#
#
#
# Elastic Constant Matrix: (Units=GPa)
#
#
# Indices 1 2 3 4 5 6 
#
# 1 76.4600 23.7352 20.3737 -0.0216 -23.8787 -0.0189
# 2 23.7352 61.5222 12.7571 0.0146 4.1828 0.0033
# 3 20.3737 12.7571 70.3272 0.0154 -0.5723 0.0042
# 4 -0.0216 0.0146 0.0154 10.2270 0.0014 2.3532
# 5 -23.8787 4.1828 -0.5723 0.0014 30.0372 -0.0126
# 6 -0.0189 0.0033 0.0042 2.3532 -0.0126 10.3190
#
#
#
# Elastic Compliance Matrix: (Units=1/GPa)
#
#
# Indices 1 2 3 4 5 6 
#
# 1 0.023546 -0.009412 -0.004952 0.000054 0.019935 0.000060
# 2 -0.009412 0.020829 -0.001136 -0.000040 -0.010405 -0.000027
# 3 -0.004952 -0.001136 0.015832 -0.000029 -0.003477 -0.000013
# 4 0.000054 -0.000040 -0.000029 0.103195 0.000033 -0.023533
# 5 0.019935 -0.010405 -0.003477 0.000033 0.050522 0.000095
# 6 0.000060 -0.000027 -0.000013 -0.023533 0.000095 0.102275
#
#
# Mechanical properties :
#
#
# Convention : Reuss Voigt Hill
#
# Bulk Modulus (GPa) = 34.24013 35.78237 35.01125
# Shear Modulus (GPa) = 14.00820 20.21288 17.11054
#
# Velocity S-wave (km/s) = 2.73633 3.28694 3.02419
# Velocity P-wave (km/s) = 5.31837 5.79062 5.55951
#
# Compressibility (1/GPa) = 0.02920550
#
# Stress axis : x y z
#
# Youngs Moduli (GPa) = 42.47066 48.01086 63.16510
#
# Poissons Ratio (x) = 0.45190 0.31277
# Poissons Ratio (y) = 0.39975 0.07176
# Poissons Ratio (z) = 0.21030 0.05455
#
# Static dielectric constant tensor:
#      x y z
#    x 1.714570 -0.000020 -0.007580 
#    y -0.000020 1.618710 -0.000030 
#    z -0.007580 -0.000030 1.698270 
# 
# From -- ./inp_files/285354.got.cif
#   From: 2010.05.17/outbox.cif.g08.bks.cpg/sg12_143_cif.got.tgz:285354.got - 2010.06.03 13:09:07.
