data_PCOD9183885
_publ_section_title
;
Structure prediction by ZEFSAII (Michael W. Deem and Ramdas Pophale) SiO2 
 PCOD9183885
Probable space group: C 2/M
;
_chemical_formula_sum "Si O2"
_cell_formula_units_Z 56
_cell_length_a 23.696156
_cell_length_b 22.394836
_cell_length_c 15.311967
_cell_angle_alpha 90.000000
_cell_angle_beta 158.178437
_cell_angle_gamma 90.000000
_cell_volume 3020.434872
_symmetry_space_group_name_H-M "C 2/M"
_symmetry_group_IT_number 12
_symmetry_cell_setting 'monoclinic'
loop_
_space_group_symop_operation_xyz
x,y,z
-x,y,-z
-x,-y,-z
x,-y,z
1/2+x,1/2+y,z
1/2-x,1/2+y,-z
1/2-x,1/2-y,-z
1/2+x,1/2-y,z
loop_
_atom_site_type_symbol
_atom_site_label
_atom_site_fract_x
_atom_site_fract_y
_atom_site_fract_z
Si Si1 0.819329 0.278759 0.738080
Si Si2 0.419408 0.430811 0.007772
Si Si3 0.640083 0.068504 0.482175
Si Si4 0.467359 0.565176 0.277734
Si Si5 0.639118 0.335861 0.630340
Si Si6 0.694841 0.933843 0.021644
Si Si7 0.300990 0.342697 0.605614
O O1 0.731970 0.287617 0.705359
O O2 0.734118 0.317580 0.540865
O O3 0.809630 0.211758 0.686000
O O4 0.000000 0.294199 0.000000
O O5 0.462967 0.500000 0.049692
O O6 0.406315 0.426909 0.092931
O O7 0.549335 0.383504 0.171931
O O8 0.262843 0.418201 0.733245
O O9 0.465249 0.074215 0.256137
O O10 0.667565 0.113143 0.442553
O O11 0.666220 0.000000 0.492859
O O12 0.546488 0.500000 0.395039
O O13 0.566344 0.619326 0.454819
O O14 0.327922 0.562924 0.143158
O O15 0.500000 0.319261 0.500000
O O16 0.760330 0.377803 0.854558
O O17 0.689716 0.000000 0.058652
#
# Coordination Sequence:
#
# PCOD9183885 Si02
#       7
#     8   8   8   8   8   8   8
#     4  11  23  38  60  84 110 150 189 234 283 329
#     4  10  19  33  56  83 112 146 187 231 274 332
#     4  10  20  34  54  81 113 147 184 232 283 328
#     4   9  17  31  54  83 113 148 186 223 276 339
#     4  10  19  36  60  82 115 149 190 229 277 334
#     4   9  18  32  54  84 116 148 180 225 283 335
#     4  11  22  38  58  79 113 146 191 230 277 338
#
# _framework density 18.540376999999999
#
# number of rings (size 3 to 8) (size 9 to 14) (size 15 to 20)
#    0.000    2.000    1.429    3.000    0.000    3.429 
#    0.000    2.857    6.286    6.857    0.000    0.000 
#    0.000    0.000    0.000    0.000    0.000    0.000 
#
# Total GULP energy -155950.531076 kJ/mol
# GULP energy per Si atom -5569.661824 kJ/mol
# Density = 1.849818 g / cm^3
# Si number density = 18.540377 Si / 1000 Ang^3
#
#
#
# Elastic Constant Matrix: (Units=GPa)
#
#
# Indices 1 2 3 4 5 6 
#
# 1 70.3437 33.5490 19.3603 0.0000 -14.8187 0.0000
# 2 33.5490 68.7842 37.5119 -0.0001 -3.5006 0.0000
# 3 19.3603 37.5119 93.9687 0.0006 4.1272 0.0002
# 4 0.0000 -0.0001 0.0006 2566.7123 0.0003 766.0043
# 5 -14.8187 -3.5006 4.1272 0.0003 20.1647 0.0001
# 6 0.0000 0.0000 0.0002 766.0043 0.0001 251.6703
#
#
#
# Elastic Compliance Matrix: (Units=1/GPa)
#
#
# Indices 1 2 3 4 5 6 
#
# 1 0.022209 -0.009218 -0.001556 0.000000 0.015039 0.000000
# 2 -0.009218 0.022880 -0.007176 0.000000 -0.001334 0.000000
# 3 -0.001556 -0.007176 0.014058 0.000000 -0.005267 0.000000
# 4 0.000000 0.000000 0.000000 0.004251 0.000000 -0.012939
# 5 0.015039 -0.001334 -0.005267 0.000000 0.061490 0.000000
# 6 0.000000 0.000000 0.000000 -0.012939 0.000000 0.043355
#
#
# Mechanical properties :
#
#
# Convention : Reuss Voigt Hill
#
# Bulk Modulus (GPa) = 43.01710 45.99322 44.50516
# Shear Modulus (GPa) = 23.59693 577.22115 300.40904
#
# Velocity S-wave (km/s) = 3.57141 17.66374 12.74290
# Velocity P-wave (km/s) = 6.34498 20.99694 15.51016
#
# Compressibility (1/GPa) = 0.02324657
#
# Stress axis : x y z
#
# Youngs Moduli (GPa) = 45.02712 43.70687 71.13205
#
# Poissons Ratio (x) = 0.40289 0.11071
# Poissons Ratio (y) = 0.41506 0.51042
# Poissons Ratio (z) = 0.07008 0.31363
#
# Static dielectric constant tensor:
#      x y z
#    x 1.651550 0.000000 0.007050 
#    y 0.000000 1.737610 0.000000 
#    z 0.007050 0.000000 1.634580 
# 
# From -- ./inp_files/133178.got.cif
#   From: 2010.05.17/outbox.cif.g08.bks.cpg/sg12_67_cif.got.tgz:133178.got - 2010.06.03 13:09:07.
