data_PCOD9183979
_publ_section_title
;
Structure prediction by ZEFSAII (Michael W. Deem and Ramdas Pophale) SiO2 
 PCOD9183979
Probable space group: C 2/M
;
_chemical_formula_sum "Si O2"
_cell_formula_units_Z 60
_cell_length_a 7.468176
_cell_length_b 26.614470
_cell_length_c 25.081000
_cell_angle_alpha 90.000000
_cell_angle_beta 145.068602
_cell_angle_gamma 90.000000
_cell_volume 2854.466431
_symmetry_space_group_name_H-M "C 2/M"
_symmetry_group_IT_number 12
_symmetry_cell_setting 'monoclinic'
loop_
_space_group_symop_operation_xyz
x,y,z
-x,y,-z
-x,-y,-z
x,-y,z
1/2+x,1/2+y,z
1/2-x,1/2+y,-z
1/2-x,1/2-y,-z
1/2+x,1/2-y,z
loop_
_atom_site_type_symbol
_atom_site_label
_atom_site_fract_x
_atom_site_fract_y
_atom_site_fract_z
Si Si1 0.777639 0.094877 0.720068
Si Si2 0.364821 0.942147 0.526621
Si Si3 0.500000 0.103200 0.000000
Si Si4 0.337168 0.220700 0.076730
Si Si5 0.715102 0.058487 0.319119
Si Si6 0.505124 0.862563 0.185971
Si Si7 0.936108 0.176711 0.831875
Si Si8 0.505209 0.942620 0.111926
O O1 0.561225 0.089960 0.615828
O O2 0.607971 0.065810 0.727633
O O3 0.795815 0.152204 0.744787
O O4 0.122624 0.072205 0.794591
O O5 0.500000 0.937514 0.500000
O O6 0.996564 0.933039 0.429639
O O7 0.407654 0.000000 0.554552
O O8 0.413916 0.070096 0.029577
O O9 0.781858 0.139858 0.083741
O O10 0.573630 0.176601 0.153580
O O11 0.429253 0.267458 0.136818
O O12 0.250000 0.250000 0.000000
O O13 0.000000 0.194559 0.000000
O O14 0.730826 0.102602 0.278396
O O15 0.745138 0.000000 0.307440
O O16 0.313580 0.829577 0.181505
O O17 0.335670 0.907450 0.113192
O O18 0.460501 0.000000 0.113808
#
# Coordination Sequence:
#
# PCOD9183979 Si02
#       8
#     8   8   4   8   8   8   8   8
#     4  10  21  35  59  86 118 153 197 237 282 337
#     4  10  19  33  56  86 119 158 198 234 277 333
#     4  10  21  36  56  78 108 148 191 230 282 344
#     4  12  23  39  65  85 110 143 193 248 292 344
#     4  10  20  37  59  86 122 157 193 235 281 340
#     4  11  24  37  57  85 114 146 190 240 294 339
#     4  10  22  39  58  85 111 144 189 245 293 339
#     4  11  22  36  53  77 115 154 190 231 282 342
#
# _framework density 21.019691999999999
#
# number of rings (size 3 to 8) (size 9 to 14) (size 15 to 20)
#    0.000    1.467    2.000    3.800    1.867    2.133 
#    0.000    2.667    0.000    0.800    0.000    3.733 
#    0.000    0.000    0.000    0.000    0.000    0.000 
#
# Total GULP energy -167226.951808 kJ/mol
# GULP energy per Si atom -5574.231727 kJ/mol
# Density = 2.097185 g / cm^3
# Si number density = 21.019692 Si / 1000 Ang^3
#
#
#
# Elastic Constant Matrix: (Units=GPa)
#
#
# Indices 1 2 3 4 5 6 
#
# 1 50.5290 14.6481 22.8056 0.0000 -1.4376 0.0000
# 2 14.6481 152.4084 60.1019 0.0000 -19.4020 0.0000
# 3 22.8056 60.1019 116.1802 0.0001 -25.4435 0.0000
# 4 0.0000 0.0000 0.0001 38.2198 0.0000 -8.6493
# 5 -1.4376 -19.4020 -25.4435 0.0000 34.3228 0.0000
# 6 0.0000 0.0000 0.0000 -8.6493 0.0000 24.2091
#
#
#
# Elastic Compliance Matrix: (Units=1/GPa)
#
#
# Indices 1 2 3 4 5 6 
#
# 1 0.021977 -0.000664 -0.004598 0.000000 -0.002863 0.000000
# 2 -0.000664 0.008356 -0.003777 0.000000 0.001896 0.000000
# 3 -0.004598 -0.003777 0.013077 0.000000 0.007366 0.000000
# 4 0.000000 0.000000 0.000000 0.028466 0.000000 0.010170
# 5 -0.002863 0.001896 0.007366 0.000000 0.035547 0.000000
# 6 0.000000 0.000000 0.000000 0.010170 0.000000 0.044940
#
#
# Mechanical properties :
#
#
# Convention : Reuss Voigt Hill
#
# Bulk Modulus (GPa) = 39.47462 57.13653 48.30557
# Shear Modulus (GPa) = 27.95101 34.12114 31.03607
#
# Velocity S-wave (km/s) = 3.65053 4.03338 3.84672
# Velocity P-wave (km/s) = 6.04890 6.99516 6.53917
#
# Compressibility (1/GPa) = 0.02533273
#
# Stress axis : x y z
#
# Youngs Moduli (GPa) = 45.50299 119.67495 76.46982
#
# Poissons Ratio (x) = 0.07942 0.35157
# Poissons Ratio (y) = 0.03020 0.28885
# Poissons Ratio (z) = 0.20920 0.45205
#
# Static dielectric constant tensor:
#      x y z
#    x 1.937810 0.000000 -0.002230 
#    y 0.000000 1.742320 0.000000 
#    z -0.002230 0.000000 1.770050 
# 
# From -- ./inp_files/357140.got.cif
#   From: 2010.05.17/outbox.cif.g08.bks.cpg/sg12_179_cif.got.tgz:357140.got - 2010.06.03 13:09:07.
