data_PCOD9183700
_publ_section_title
;
Structure prediction by ZEFSAII (Michael W. Deem and Ramdas Pophale) SiO2 
 PCOD9183700
Probable space group: C 2/M
;
_chemical_formula_sum "Si O2"
_cell_formula_units_Z 40
_cell_length_a 22.583799
_cell_length_b 8.767206
_cell_length_c 14.822888
_cell_angle_alpha 90.000000
_cell_angle_beta 141.827592
_cell_angle_gamma 90.000000
_cell_volume 1813.846407
_symmetry_space_group_name_H-M "C 2/M"
_symmetry_group_IT_number 12
_symmetry_cell_setting 'monoclinic'
loop_
_space_group_symop_operation_xyz
x,y,z
-x,y,-z
-x,-y,-z
x,-y,z
1/2+x,1/2+y,z
1/2-x,1/2+y,-z
1/2-x,1/2-y,-z
1/2+x,1/2-y,z
loop_
_atom_site_type_symbol
_atom_site_label
_atom_site_fract_x
_atom_site_fract_y
_atom_site_fract_z
Si Si1 0.729800 0.816179 0.575301
Si Si2 0.384259 0.329532 0.097385
Si Si3 0.837047 0.331934 0.209091
Si Si4 0.409663 0.321150 0.454146
Si Si5 0.894265 0.820879 0.912765
O O1 0.750000 0.750000 0.500000
O O2 0.631897 0.758226 0.506174
O O3 0.816750 0.766927 0.746911
O O4 0.728875 0.000000 0.569591
O O5 0.427845 0.500000 0.157225
O O6 0.403954 0.231781 0.209660
O O7 0.269552 0.348424 0.957099
O O8 0.404311 0.253651 0.025221
O O9 0.866771 0.500000 0.277022
O O10 0.829854 0.214165 0.282260
O O11 0.500000 0.266822 0.500000
O O12 0.422563 0.500000 0.486240
O O13 0.867608 0.000000 0.897794
O O14 0.000000 0.816227 0.000000
#
# Coordination Sequence:
#
# PCOD9183700 Si02
#       5
#     8   8   8   8   8
#     4  11  23  42  65  93 128 167 211 258 316 379
#     4   9  17  32  54  83 114 148 188 232 291 359
#     4  10  19  33  55  85 115 147 188 240 303 362
#     4  11  24  41  62  88 119 162 214 263 314 375
#     4   9  18  35  60  87 117 156 202 248 296 362
#
# _framework density 22.052582999999998
#
# number of rings (size 3 to 8) (size 9 to 14) (size 15 to 20)
#    0.000    2.000    2.000    1.800    0.000    4.000 
#    0.000    4.000    0.000    4.200    0.000    0.000 
#    0.000    0.000    0.000    0.000    0.000    0.000 
#
# Total GULP energy -111417.867207 kJ/mol
# GULP energy per Si atom -5570.893360 kJ/mol
# Density = 2.200239 g / cm^3
# Si number density = 22.052583 Si / 1000 Ang^3
#
#
#
# Elastic Constant Matrix: (Units=GPa)
#
#
# Indices 1 2 3 4 5 6 
#
# 1 185.8116 50.5217 53.0549 0.0000 -38.0072 0.0000
# 2 50.5217 45.8110 9.2692 0.0000 -3.7949 0.0000
# 3 53.0549 9.2692 55.8809 0.0000 -14.5812 0.0000
# 4 0.0000 0.0000 0.0000 6.3034 0.0000 -5.4814
# 5 -38.0072 -3.7949 -14.5812 0.0000 41.0001 0.0000
# 6 0.0000 0.0000 0.0000 -5.4814 0.0000 28.8186
#
#
#
# Elastic Compliance Matrix: (Units=1/GPa)
#
#
# Indices 1 2 3 4 5 6 
#
# 1 0.012188 -0.011252 -0.007748 0.000000 0.007501 0.000000
# 2 -0.011252 0.033001 0.003620 0.000000 -0.006089 0.000000
# 3 -0.007748 0.003620 0.025203 0.000000 0.002116 0.000000
# 4 0.000000 0.000000 0.000000 0.190084 0.000000 0.036155
# 5 0.007501 -0.006089 0.002116 0.000000 0.031533 0.000000
# 6 0.000000 0.000000 0.000000 0.036155 0.000000 0.041577
#
#
# Mechanical properties :
#
#
# Convention : Reuss Voigt Hill
#
# Bulk Modulus (GPa) = 25.23173 57.02167 41.12670
# Shear Modulus (GPa) = 13.24312 26.86827 20.05570
#
# Velocity S-wave (km/s) = 2.45322 3.49431 3.01898
# Velocity P-wave (km/s) = 4.41484 6.49565 5.55357
#
# Compressibility (1/GPa) = 0.03963263
#
# Stress axis : x y z
#
# Youngs Moduli (GPa) = 82.04979 30.30212 39.67833
#
# Poissons Ratio (x) = 0.34096 0.30741
# Poissons Ratio (y) = 0.92322 -0.14365
# Poissons Ratio (z) = 0.63569 -0.10970
#
# Static dielectric constant tensor:
#      x y z
#    x 1.836660 0.000000 0.024870 
#    y 0.000000 1.825380 0.000000 
#    z 0.024870 0.000000 1.943510 
# 
# From -- ./inp_files/230605.got.cif
#   From: 2010.05.17/outbox.cif.g08.bks.cpg/sg12_116_cif.got.tgz:230605.got - 2010.06.03 13:09:07.
