data_PCOD9183003
_publ_section_title
;
Structure prediction by ZEFSAII (Michael W. Deem and Ramdas Pophale) SiO2 
 PCOD9183003
Probable space group: C 2/M
;
_chemical_formula_sum "Si O2"
_cell_formula_units_Z 40
_cell_length_a 14.190934
_cell_length_b 14.170411
_cell_length_c 8.625897
_cell_angle_alpha 90.000000
_cell_angle_beta 72.757138
_cell_angle_gamma 90.000000
_cell_volume 1656.635382
_symmetry_space_group_name_H-M "C 2/M"
_symmetry_group_IT_number 12
_symmetry_cell_setting 'monoclinic'
loop_
_space_group_symop_operation_xyz
x,y,z
-x,y,-z
-x,-y,-z
x,-y,z
1/2+x,1/2+y,z
1/2-x,1/2+y,-z
1/2-x,1/2-y,-z
1/2+x,1/2-y,z
loop_
_atom_site_type_symbol
_atom_site_label
_atom_site_fract_x
_atom_site_fract_y
_atom_site_fract_z
Si Si1 0.094893 0.229123 0.566014
Si Si2 0.217250 0.201069 0.216352
Si Si3 0.027234 0.391162 0.811914
Si Si4 0.975273 0.108318 0.832655
Si Si5 0.698288 0.895461 0.095099
O O1 0.185628 0.204579 0.410009
O O2 0.000000 0.243660 0.500000
O O3 0.093257 0.319583 0.680744
O O4 0.067742 0.140521 0.685890
O O5 0.115359 0.173513 0.176416
O O6 0.247451 0.307367 0.156715
O O7 0.290750 0.128974 0.094099
O O8 0.061739 0.500000 0.797574
O O9 0.915558 0.394149 0.796678
O O10 0.000000 0.359366 0.000000
O O11 0.949429 0.000000 0.812684
O O12 0.000000 0.119077 0.000000
O O13 0.738981 0.000000 0.103712
#
# Coordination Sequence:
#
# PCOD9183003 Si02
#       5
#     8   8   8   8   8
#     4  10  19  33  53  83 108 137 181 225 268 313
#     4  10  21  35  54  84 108 141 182 227 271 319
#     4  10  20  35  58  82 109 145 183 222 267 323
#     4  10  20  34  55  79 108 146 182 221 268 322
#     4  10  20  35  56  79 111 147 180 220 273 326
#
# _framework density 24.145325
#
# number of rings (size 3 to 8) (size 9 to 14) (size 15 to 20)
#    0.000    2.000    4.000    1.200    0.000    5.600 
#    0.000    1.000    0.000    0.000    0.000    0.000 
#    0.000    0.000    0.000    0.000    0.000    0.000 
#
# Total GULP energy -111766.022148 kJ/mol
# GULP energy per Si atom -5588.301107 kJ/mol
# Density = 2.409037 g / cm^3
# Si number density = 24.145325 Si / 1000 Ang^3
#
#
#
# Elastic Constant Matrix: (Units=GPa)
#
#
# Indices 1 2 3 4 5 6 
#
# 1 52.7919 14.4427 25.8286 0.0000 -16.4445 0.0000
# 2 14.4427 154.9608 43.1317 0.0000 -13.7579 0.0000
# 3 25.8286 43.1317 164.8496 0.0000 -33.7598 0.0000
# 4 0.0000 0.0000 0.0000 -7.9126 0.0000 10.9210
# 5 -16.4445 -13.7579 -33.7598 0.0000 45.1634 0.0000
# 6 0.0000 0.0000 0.0000 10.9210 0.0000 17.6626
#
#
#
# Elastic Compliance Matrix: (Units=1/GPa)
#
#
# Indices 1 2 3 4 5 6 
#
# 1 0.022115 -0.000966 -0.001917 0.000000 0.006325 0.000000
# 2 -0.000966 0.007033 -0.001561 0.000000 0.000624 0.000000
# 3 -0.001917 -0.001561 0.007716 0.000000 0.004594 0.000000
# 4 0.000000 0.000000 0.000000 -0.068189 0.000000 0.042162
# 5 0.006325 0.000624 0.004594 0.000000 0.028069 0.000000
# 6 0.000000 0.000000 0.000000 0.042162 0.000000 0.030548
#
#
# Mechanical properties :
#
#
# Convention : Reuss Voigt Hill
#
# Bulk Modulus (GPa) = 35.74537 59.93426 47.83982
# Shear Modulus (GPa) = 109.87908 30.26262 70.07085
#
# Velocity S-wave (km/s) = 6.75324 3.54411 5.39291
# Velocity P-wave (km/s) = 8.69739 6.45165 7.65730
#
# Compressibility (1/GPa) = 0.02797565
#
# Stress axis : x y z
#
# Youngs Moduli (GPa) = 45.21887 142.18329 129.60535
#
# Poissons Ratio (x) = 0.13736 0.24843
# Poissons Ratio (y) = 0.04368 0.20232
# Poissons Ratio (z) = 0.08668 0.22196
#
# Static dielectric constant tensor:
#      x y z
#    x 2.085410 0.000000 0.016650 
#    y 0.000000 1.879080 0.000000 
#    z 0.016650 0.000000 1.924340 
# 
# From -- ./inp_files/84709.got.cif
#   From: 2010.05.17/outbox.cif.g08.bks.cpg/sg12_43_cif.got.tgz:84709.got - 2010.06.03 13:09:07.
