data_PCOD9183709
_publ_section_title
;
Structure prediction by ZEFSAII (Michael W. Deem and Ramdas Pophale) SiO2 
 PCOD9183709
Probable space group: C 2/M
;
_chemical_formula_sum "Si O2"
_cell_formula_units_Z 64
_cell_length_a 14.866793
_cell_length_b 8.478191
_cell_length_c 34.146787
_cell_angle_alpha 90.000000
_cell_angle_beta 137.229621
_cell_angle_gamma 90.000000
_cell_volume 2922.669398
_symmetry_space_group_name_H-M "C 2/M"
_symmetry_group_IT_number 12
_symmetry_cell_setting 'monoclinic'
loop_
_space_group_symop_operation_xyz
x,y,z
-x,y,-z
-x,-y,-z
x,-y,z
1/2+x,1/2+y,z
1/2-x,1/2+y,-z
1/2-x,1/2-y,-z
1/2+x,1/2-y,z
loop_
_atom_site_type_symbol
_atom_site_label
_atom_site_fract_x
_atom_site_fract_y
_atom_site_fract_z
Si Si1 0.909266 0.820139 0.510256
Si Si2 0.116140 0.685931 0.698723
Si Si3 0.626347 0.810152 0.014944
Si Si4 0.598390 0.689503 0.857959
Si Si5 0.682879 0.189863 0.807226
Si Si6 0.168029 0.188697 0.634041
Si Si7 0.327241 0.684212 0.610564
Si Si8 0.974744 0.810146 0.896221
O O1 0.781745 0.720731 0.457736
O O2 0.000000 0.825508 0.500000
O O3 0.015475 0.761667 0.575773
O O4 0.869532 0.000000 0.506835
O O5 0.144674 0.500000 0.705944
O O6 0.959265 0.716998 0.645840
O O7 0.152597 0.745203 0.753790
O O8 0.190299 0.766817 0.686115
O O9 0.592536 0.753231 0.960624
O O10 0.629715 0.000000 0.015844
O O11 0.500000 0.756575 0.000000
O O12 0.762451 0.755704 0.078092
O O13 0.600986 0.500000 0.856199
O O14 0.586541 0.754798 0.810691
O O15 0.490740 0.734563 0.855931
O O16 0.831669 0.245168 0.865171
O O17 0.681645 0.000000 0.806210
O O18 0.261653 0.267895 0.631410
O O19 0.175328 0.000000 0.630699
O O20 0.360043 0.500000 0.620874
O O21 0.979314 0.000000 0.899722
#
# Coordination Sequence:
#
# PCOD9183709 Si02
#       8
#     8   8   8   8   8   8   8   8
#     4   8  16  33  57  85 119 154 188 233 288 348
#     4  11  24  41  59  82 115 154 200 250 296 348
#     4  10  19  33  55  85 119 150 183 223 275 338
#     4  10  21  37  58  84 115 150 185 228 281 340
#     4  10  23  41  58  80 110 145 190 241 287 334
#     4  10  21  39  62  89 120 154 193 238 293 353
#     4  11  22  37  60  89 119 154 195 239 292 352
#     4  10  21  37  58  84 112 145 187 232 282 335
#
# _framework density 21.897789
#
# number of rings (size 3 to 8) (size 9 to 14) (size 15 to 20)
#    0.000    2.000    1.250    3.000    0.000    6.500 
#    0.000    1.250    0.000    0.000    0.000    0.000 
#    0.000    0.000    0.000    0.000    0.000    0.000 
#
# Total GULP energy -178784.749616 kJ/mol
# GULP energy per Si atom -5587.023426 kJ/mol
# Density = 2.184795 g / cm^3
# Si number density = 21.897789 Si / 1000 Ang^3
#
#
#
# Elastic Constant Matrix: (Units=GPa)
#
#
# Indices 1 2 3 4 5 6 
#
# 1 63.3113 -2.0091 9.1578 0.0000 -24.9247 0.0000
# 2 -2.0091 11.4790 -0.0653 0.0000 -7.1148 0.0000
# 3 9.1578 -0.0653 54.6356 0.0000 -31.2903 0.0000
# 4 0.0000 0.0000 0.0000 25.1494 0.0000 -9.1439
# 5 -24.9247 -7.1148 -31.2903 0.0000 38.0873 0.0000
# 6 0.0000 0.0000 0.0000 -9.1439 0.0000 23.5831
#
#
#
# Elastic Compliance Matrix: (Units=1/GPa)
#
#
# Indices 1 2 3 4 5 6 
#
# 1 0.029798 0.029916 0.017771 0.000000 0.039688 0.000000
# 2 0.029916 0.141860 0.040687 0.000000 0.079503 0.000000
# 3 0.017771 0.040687 0.049833 0.000000 0.060169 0.000000
# 4 0.000000 0.000000 0.000000 0.046288 0.000000 0.017947
# 5 0.039688 0.079503 0.060169 0.000000 0.116511 0.000000
# 6 0.000000 0.000000 0.000000 0.017947 0.000000 0.049362
#
#
# Mechanical properties :
#
#
# Convention : Reuss Voigt Hill
#
# Bulk Modulus (GPa) = 2.51106 15.95475 9.23291
# Shear Modulus (GPa) = 12.83206 25.52014 19.17610
#
# Velocity S-wave (km/s) = 2.42337 3.41753 2.96245
# Velocity P-wave (km/s) = 2.99658 4.78273 3.99086
#
# Compressibility (1/GPa) = 0.39823811
#
# Stress axis : x y z
#
# Youngs Moduli (GPa) = 33.55887 7.04922 20.06721
#
# Poissons Ratio (x) = -0.21088 -0.35661
# Poissons Ratio (y) = -1.00393 -0.81648
# Poissons Ratio (z) = -0.59637 -0.28681
#
# Static dielectric constant tensor:
#      x y z
#    x 1.810140 0.000000 -0.010280 
#    y 0.000000 1.741170 0.000000 
#    z -0.010280 0.000000 1.835570 
# 
# From -- ./inp_files/375650.got.cif
#   From: 2010.05.17/outbox.cif.g08.bks.cpg/sg12_188_cif.got.tgz:375650.got - 2010.06.03 13:09:07.
