data_PCOD9183783
_publ_section_title
;
Structure prediction by ZEFSAII (Michael W. Deem and Ramdas Pophale) SiO2 
 PCOD9183783
Probable space group: C 2/M
;
_chemical_formula_sum "Si O2"
_cell_formula_units_Z 56
_cell_length_a 15.051211
_cell_length_b 25.901890
_cell_length_c 9.032997
_cell_angle_alpha 90.000000
_cell_angle_beta 115.235693
_cell_angle_gamma 90.000000
_cell_volume 3185.465663
_symmetry_space_group_name_H-M "C 2/M"
_symmetry_group_IT_number 12
_symmetry_cell_setting 'monoclinic'
loop_
_space_group_symop_operation_xyz
x,y,z
-x,y,-z
-x,-y,-z
x,-y,z
1/2+x,1/2+y,z
1/2-x,1/2+y,-z
1/2-x,1/2-y,-z
1/2+x,1/2-y,z
loop_
_atom_site_type_symbol
_atom_site_label
_atom_site_fract_x
_atom_site_fract_y
_atom_site_fract_z
Si Si1 0.112789 0.337170 0.033672
Si Si2 0.897246 0.196645 0.354912
Si Si3 0.249510 0.861311 0.592977
Si Si4 0.711033 0.801827 0.680029
Si Si5 0.104204 0.217072 0.987581
Si Si6 0.588620 0.109681 0.726787
Si Si7 0.122714 0.559614 0.461701
O O1 0.127336 0.278520 0.986390
O O2 0.128537 0.380378 0.919201
O O3 0.177728 0.346052 0.222893
O O4 0.000000 0.340429 0.000000
O O5 0.856269 0.146184 0.408679
O O6 0.822846 0.243002 0.341231
O O7 0.902111 0.193445 0.180964
O O8 0.000000 0.210872 0.500000
O O9 0.261765 0.823149 0.461942
O O10 0.284954 0.916370 0.557064
O O11 0.619193 0.836433 0.670561
O O12 0.806276 0.806519 0.853777
O O13 0.000000 0.212700 0.000000
O O14 0.634609 0.068047 0.647027
O O15 0.473778 0.093978 0.648578
O O16 0.104572 0.500000 0.415797
#
# Coordination Sequence:
#
# PCOD9183783 Si02
#       7
#     8   8   8   8   8   8   8
#     4  11  20  32  51  80 115 157 191 234 279 338
#     4  12  24  34  54  83 119 154 199 239 281 349
#     4  11  23  37  56  81 117 154 195 244 295 340
#     4  11  22  35  54  82 119 162 196 228 282 351
#     4  11  23  37  54  78 121 165 207 230 273 344
#     4  10  19  33  56  80 113 149 188 232 292 340
#     4  10  22  40  60  82 111 153 203 250 299 357
#
# _framework density 17.579847000000001
#
# number of rings (size 3 to 8) (size 9 to 14) (size 15 to 20)
#    0.000    1.143    4.286    3.429    8.000    0.000 
#    0.000    2.143    0.000    0.429    0.000    0.000 
#    0.000   20.571    0.000    0.000    0.000    0.000 
#
# Total GULP energy -156157.881754 kJ/mol
# GULP energy per Si atom -5577.067206 kJ/mol
# Density = 1.753983 g / cm^3
# Si number density = 17.579847 Si / 1000 Ang^3
#
#
#
# Elastic Constant Matrix: (Units=GPa)
#
#
# Indices 1 2 3 4 5 6 
#
# 1 64.2290 37.8916 42.8239 0.0000 -8.2600 0.0000
# 2 37.8916 65.8985 27.5887 0.0000 -4.3605 0.0000
# 3 42.8239 27.5887 143.5512 0.0000 -10.9893 0.0000
# 4 0.0000 0.0000 0.0000 8.6069 0.0000 -1.0394
# 5 -8.2600 -4.3605 -10.9893 0.0000 30.7759 0.0000
# 6 0.0000 0.0000 0.0000 -1.0394 0.0000 9.3778
#
#
#
# Elastic Compliance Matrix: (Units=1/GPa)
#
#
# Indices 1 2 3 4 5 6 
#
# 1 0.027450 -0.013304 -0.005359 0.000000 0.003569 0.000000
# 2 -0.013304 0.022997 -0.000488 0.000000 -0.000487 0.000000
# 3 -0.005359 -0.000488 0.008783 0.000000 0.001629 0.000000
# 4 0.000000 0.000000 0.000000 0.117763 0.000000 0.013053
# 5 0.003569 -0.000487 0.001629 0.000000 0.033963 0.000000
# 6 0.000000 0.000000 0.000000 0.013053 0.000000 0.108082
#
#
# Mechanical properties :
#
#
# Convention : Reuss Voigt Hill
#
# Bulk Modulus (GPa) = 47.78247 54.47634 51.12941
# Shear Modulus (GPa) = 13.72438 20.77708 17.25073
#
# Velocity S-wave (km/s) = 2.79711 3.44156 3.13594
# Velocity P-wave (km/s) = 6.13767 6.84454 6.50072
#
# Compressibility (1/GPa) = 0.02092818
#
# Stress axis : x y z
#
# Youngs Moduli (GPa) = 36.43025 43.48435 113.85298
#
# Poissons Ratio (x) = 0.57851 0.61010
# Poissons Ratio (y) = 0.48467 0.05558
# Poissons Ratio (z) = 0.19522 0.02123
#
# Static dielectric constant tensor:
#      x y z
#    x 1.655330 0.000000 -0.011250 
#    y 0.000000 1.579740 0.000000 
#    z -0.011250 0.000000 1.621870 
# 
# From -- ./inp_files/66493.got.cif
#   From: 2010.05.17/outbox.cif.g08.bks.cpg/sg12_34_cif.got.tgz:66493.got - 2010.06.03 13:09:07.
