data_PCOD9183671
_publ_section_title
;
Structure prediction by ZEFSAII (Michael W. Deem and Ramdas Pophale) SiO2 
 PCOD9183671
Probable space group: C 2/M
;
_chemical_formula_sum "Si O2"
_cell_formula_units_Z 64
_cell_length_a 24.877834
_cell_length_b 8.835873
_cell_length_c 20.547833
_cell_angle_alpha 90.000000
_cell_angle_beta 53.951282
_cell_angle_gamma 90.000000
_cell_volume 3651.885631
_symmetry_space_group_name_H-M "C 2/M"
_symmetry_group_IT_number 12
_symmetry_cell_setting 'monoclinic'
loop_
_space_group_symop_operation_xyz
x,y,z
-x,y,-z
-x,-y,-z
x,-y,z
1/2+x,1/2+y,z
1/2-x,1/2+y,-z
1/2-x,1/2-y,-z
1/2+x,1/2-y,z
loop_
_atom_site_type_symbol
_atom_site_label
_atom_site_fract_x
_atom_site_fract_y
_atom_site_fract_z
Si Si1 0.811248 0.319128 0.625709
Si Si2 0.075871 0.317773 0.712557
Si Si3 0.320323 0.319417 0.972420
Si Si4 0.679891 0.182701 0.527304
Si Si5 0.077398 0.318948 0.202963
Si Si6 0.154913 0.179613 0.264399
Si Si7 0.842083 0.819953 0.230163
Si Si8 0.191063 0.319786 0.881168
O O1 0.814828 0.500000 0.475899
O O2 0.833568 0.272205 0.537790
O O3 0.846347 0.236167 0.660522
O O4 0.732036 0.288568 0.688635
O O5 0.080583 0.500000 0.715914
O O6 0.122673 0.272493 0.618600
O O7 0.104827 0.242392 0.756721
O O8 0.999496 0.279147 0.753435
O O9 0.316542 0.500000 0.972060
O O10 0.376616 0.259005 0.883921
O O11 0.250000 0.250000 0.000000
O O12 0.332379 0.263273 0.037206
O O13 0.750000 0.250000 0.500000
O O14 0.320323 0.000000 0.626540
O O15 0.084627 0.500000 0.193130
O O16 0.103869 0.263890 0.253897
O O17 0.230014 0.211927 0.185116
O O18 0.144905 0.000000 0.268025
O O19 0.844459 0.740110 0.158429
O O20 0.848305 0.000000 0.218042
O O21 0.183080 0.500000 0.893335
#
# Coordination Sequence:
#
# PCOD9183671 Si02
#       8
#     8   8   8   8   8   8   8   8
#     4   9  18  32  53  82 113 145 184 231 282 332
#     4  10  22  38  57  82 115 154 191 230 282 338
#     4  12  23  37  59  87 115 145 185 234 280 332
#     4  10  19  34  56  84 114 145 189 235 278 330
#     4  11  23  39  58  81 114 154 190 230 280 337
#     4  10  20  34  55  82 111 146 187 231 281 333
#     4  10  19  33  55  84 115 149 187 231 282 334
#     4  10  20  35  57  85 115 146 184 233 281 331
#
# _framework density 17.525193000000002
#
# number of rings (size 3 to 8) (size 9 to 14) (size 15 to 20)
#    0.000    1.750    2.500    2.625    0.000    3.000 
#    0.000    1.250    0.000    7.500    0.000    0.000 
#    0.000    0.000    0.000    0.000    0.000    0.000 
#
# Total GULP energy -178730.399095 kJ/mol
# GULP energy per Si atom -5585.324972 kJ/mol
# Density = 1.748530 g / cm^3
# Si number density = 17.525193 Si / 1000 Ang^3
#
#
#
# Elastic Constant Matrix: (Units=GPa)
#
#
# Indices 1 2 3 4 5 6 
#
# 1 152.8471 69.9127 83.1087 0.0000 16.6583 0.0001
# 2 69.9127 63.8613 50.8939 -0.0001 3.5354 0.0008
# 3 83.1087 50.8939 115.2689 0.0002 12.9089 0.0000
# 4 0.0000 -0.0001 0.0002 23.8777 -0.0001 5.5559
# 5 16.6583 3.5354 12.9089 -0.0001 30.7474 -0.0001
# 6 0.0001 0.0008 0.0000 5.5559 -0.0001 31.8579
#
#
#
# Elastic Compliance Matrix: (Units=1/GPa)
#
#
# Indices 1 2 3 4 5 6 
#
# 1 0.015764 -0.012908 -0.005117 0.000000 -0.004908 0.000000
# 2 -0.012908 0.034823 -0.006719 0.000000 0.005810 -0.000001
# 3 -0.005117 -0.006719 0.015671 0.000000 -0.003035 0.000000
# 4 0.000000 0.000000 0.000000 0.043651 0.000000 -0.007613
# 5 -0.004908 0.005810 -0.003035 0.000000 0.035788 0.000000
# 6 0.000000 -0.000001 0.000000 -0.007613 0.000000 0.032717
#
#
# Mechanical properties :
#
#
# Convention : Reuss Voigt Hill
#
# Bulk Modulus (GPa) = 59.63048 82.20089 70.91569
# Shear Modulus (GPa) = 21.41390 25.83406 23.62398
#
# Velocity S-wave (km/s) = 3.49935 3.84358 3.67550
# Velocity P-wave (km/s) = 7.10118 8.16723 7.65279
#
# Compressibility (1/GPa) = 0.01676995
#
# Stress axis : x y z
#
# Youngs Moduli (GPa) = 63.43657 28.71639 63.81143
#
# Poissons Ratio (x) = 0.37067 0.32651
# Poissons Ratio (y) = 0.81884 0.42877
# Poissons Ratio (z) = 0.32459 0.19296
#
# Static dielectric constant tensor:
#      x y z
#    x 1.572040 0.000000 0.009900 
#    y 0.000000 1.581960 0.000000 
#    z 0.009900 0.000000 1.588580 
# 
# From -- ./inp_files/324072.got.cif
#   From: 2010.05.17/outbox.cif.g08.bks.cpg/sg12_163_cif.got.tgz:324072.got - 2010.06.03 13:09:07.
