data_PCOD9183378
_publ_section_title
;
Structure prediction by ZEFSAII (Michael W. Deem and Ramdas Pophale) SiO2 
 PCOD9183378
Probable space group: C 2/M
;
_chemical_formula_sum "Si O2"
_cell_formula_units_Z 44
_cell_length_a 29.587214
_cell_length_b 7.347481
_cell_length_c 17.580308
_cell_angle_alpha 90.000000
_cell_angle_beta 152.669300
_cell_angle_gamma 90.000000
_cell_volume 1754.690625
_symmetry_space_group_name_H-M "C 2/M"
_symmetry_group_IT_number 12
_symmetry_cell_setting 'monoclinic'
loop_
_space_group_symop_operation_xyz
x,y,z
-x,y,-z
-x,-y,-z
x,-y,z
1/2+x,1/2+y,z
1/2-x,1/2+y,-z
1/2-x,1/2-y,-z
1/2+x,1/2-y,z
loop_
_atom_site_type_symbol
_atom_site_label
_atom_site_fract_x
_atom_site_fract_y
_atom_site_fract_z
Si Si1 0.753405 0.500000 0.577607
Si Si2 0.658219 0.716567 0.916780
Si Si3 0.527695 0.720555 0.455966
Si Si4 0.569061 0.713386 0.180025
Si Si5 0.701726 0.792298 0.604891
Si Si6 0.624034 0.278718 0.031757
O O1 0.836579 0.340497 0.682216
O O2 0.679426 0.658591 0.503297
O O3 0.647973 0.500000 0.908174
O O4 0.560640 0.783218 0.729905
O O5 0.750000 0.750000 0.000000
O O6 0.665068 0.786150 0.012592
O O7 0.500000 0.778549 0.500000
O O8 0.532282 0.500000 0.463960
O O9 0.626743 0.785487 0.563684
O O10 0.600126 0.500000 0.235711
O O11 0.500000 0.720672 0.000000
O O12 0.488680 0.770033 0.122803
O O13 0.804145 0.718135 0.793674
O O14 0.711940 0.000000 0.595155
O O15 0.628139 0.500000 0.041273
#
# Coordination Sequence:
#
# PCOD9183378 Si02
#       6
#     4   8   8   8   8   8
#     4  12  21  34  57  92 122 158 199 257 307 348
#     4  10  21  39  60  87 124 157 196 248 301 359
#     4  10  21  38  60  90 123 160 201 249 300 366
#     4  10  19  33  54  87 122 156 203 253 300 352
#     4  11  22  36  59  89 121 161 204 246 302 364
#     4   9  19  35  56  87 119 158 200 251 297 352
#
# _framework density 25.075645000000002
#
# number of rings (size 3 to 8) (size 9 to 14) (size 15 to 20)
#    0.000    1.818    2.727    1.909    0.000    1.091 
#    3.273    0.000    0.000    1.091    0.000    0.000 
#    0.000    0.000    0.000    0.000    0.000    0.000 
#
# Total GULP energy -122719.655244 kJ/mol
# GULP energy per Si atom -5578.166147 kJ/mol
# Density = 2.501857 g / cm^3
# Si number density = 25.075645 Si / 1000 Ang^3
#
#
#
# Elastic Constant Matrix: (Units=GPa)
#
#
# Indices 1 2 3 4 5 6 
#
# 1 149.1358 19.8213 26.5831 0.0000 22.5106 0.0000
# 2 19.8213 153.3304 9.1189 0.0000 -2.0839 0.0000
# 3 26.5831 9.1189 52.6298 0.0000 5.5733 0.0000
# 4 0.0000 0.0000 0.0000 2.7926 0.0000 21.2481
# 5 22.5106 -2.0839 5.5733 0.0000 48.3567 0.0000
# 6 0.0000 0.0000 0.0000 21.2481 0.0000 34.4749
#
#
#
# Elastic Compliance Matrix: (Units=1/GPa)
#
#
# Indices 1 2 3 4 5 6 
#
# 1 0.007949 -0.000864 -0.003513 0.000000 -0.003333 0.000000
# 2 -0.000864 0.006692 -0.000806 0.000000 0.000784 0.000000
# 3 -0.003513 -0.000806 0.021001 0.000000 -0.000820 0.000000
# 4 0.000000 0.000000 0.000000 -0.097056 0.000000 0.059819
# 5 -0.003333 0.000784 -0.000820 0.000000 0.022359 0.000000
# 6 0.000000 0.000000 0.000000 0.059819 0.000000 -0.007862
#
#
# Mechanical properties :
#
#
# Convention : Reuss Voigt Hill
#
# Bulk Modulus (GPa) = 39.56081 51.79363 45.67722
# Shear Modulus (GPa) = -177.77939 37.09636 -70.34151
#
# Velocity S-wave (km/s) = -8.42918 3.85044 -5.30213
# Velocity P-wave (km/s) = 8.88392 6.36142 4.38500
#
# Compressibility (1/GPa) = 0.02527754
#
# Stress axis : x y z
#
# Youngs Moduli (GPa) = 125.79734 149.42893 47.61610
#
# Poissons Ratio (x) = 0.12911 0.16725
# Poissons Ratio (y) = 0.10869 0.03838
# Poissons Ratio (z) = 0.44186 0.12045
#
# Static dielectric constant tensor:
#      x y z
#    x -0.817690 0.000000 -0.381630 
#    y 0.000000 1.960860 0.000000 
#    z -0.381630 0.000000 2.019450 
# 
# From -- ./inp_files/295264.got.cif
#   From: 2010.05.17/outbox.cif.g08.bks.cpg/sg12_148_cif.got.tgz:295264.got - 2010.06.03 13:09:07.
