data_PCOD9183250
_publ_section_title
;
Structure prediction by ZEFSAII (Michael W. Deem and Ramdas Pophale) SiO2 
 PCOD9183250
Probable space group: C 2/M
;
_chemical_formula_sum "Si O2"
_cell_formula_units_Z 56
_cell_length_a 21.997377
_cell_length_b 26.249079
_cell_length_c 13.491517
_cell_angle_alpha 90.000000
_cell_angle_beta 21.588098
_cell_angle_gamma 90.000000
_cell_volume 2866.240376
_symmetry_space_group_name_H-M "C 2/M"
_symmetry_group_IT_number 12
_symmetry_cell_setting 'monoclinic'
loop_
_space_group_symop_operation_xyz
x,y,z
-x,y,-z
-x,-y,-z
x,-y,z
1/2+x,1/2+y,z
1/2-x,1/2+y,-z
1/2-x,1/2-y,-z
1/2+x,1/2-y,z
loop_
_atom_site_type_symbol
_atom_site_label
_atom_site_fract_x
_atom_site_fract_y
_atom_site_fract_z
Si Si1 0.868945 0.087313 0.125034
Si Si2 0.124463 0.632513 0.070325
Si Si3 0.304472 0.734828 0.804540
Si Si4 0.603598 0.940642 0.691977
Si Si5 0.362590 0.837277 0.623249
Si Si6 0.116813 0.056777 0.591832
Si Si7 0.613033 0.559295 0.231476
O O1 0.727669 0.062666 0.408217
O O2 0.775906 0.121130 0.185375
O O3 0.000000 0.115054 0.000000
O O4 0.990627 0.052943 0.875797
O O5 0.050078 0.595331 0.099947
O O6 0.970775 0.658623 0.360062
O O7 0.229288 0.681727 0.882726
O O8 0.232987 0.596051 0.978237
O O9 0.500000 0.728339 0.500000
O O10 0.274824 0.784207 0.781493
O O11 0.250000 0.750000 0.000000
O O12 0.714688 0.922249 0.616448
O O13 0.558751 0.000000 0.773491
O O14 0.500000 0.846713 0.500000
O O15 0.010216 0.080785 0.665838
O O16 0.158134 0.000000 0.492844
O O17 0.500000 0.557393 0.500000
O O18 0.662870 0.500000 0.132068
#
# Coordination Sequence:
#
# PCOD9183250 Si02
#       7
#     8   8   8   8   8   8   8
#     4   9  17  30  53  81 115 149 184 230 290 345
#     4  11  20  35  57  82 114 148 190 243 290 339
#     4  11  21  37  58  85 113 151 193 245 295 351
#     4   9  18  32  54  85 117 150 186 228 285 353
#     4  10  19  33  54  81 107 142 190 241 288 343
#     4   9  17  31  52  79 114 153 191 229 281 350
#     4  10  21  36  55  83 117 153 192 235 285 344
#
# _framework density 19.537787999999999
#
# number of rings (size 3 to 8) (size 9 to 14) (size 15 to 20)
#    0.000    2.143    2.857    2.143    0.000    1.714 
#    0.000    0.714    0.000   23.143    0.000    0.000 
#    0.000    0.000    0.000    0.000    0.000    0.000 
#
# Total GULP energy -155880.142647 kJ/mol
# GULP energy per Si atom -5567.147952 kJ/mol
# Density = 1.949332 g / cm^3
# Si number density = 19.537788 Si / 1000 Ang^3
#
#
#
# Elastic Constant Matrix: (Units=GPa)
#
#
# Indices 1 2 3 4 5 6 
#
# 1 113.2250 47.1613 25.4282 0.2502 -31.6065 -0.6425
# 2 47.1613 111.6843 35.5566 -0.3450 -25.1494 0.8398
# 3 25.4282 35.5566 61.5873 0.0406 -8.4578 -0.1387
# 4 0.2502 -0.3450 0.0406 65.4817 -0.2107 -115.5640
# 5 -31.6065 -25.1494 -8.4578 -0.2107 38.1025 0.5443
# 6 -0.6425 0.8398 -0.1387 -115.5640 0.5443 282.8364
#
#
#
# Elastic Compliance Matrix: (Units=1/GPa)
#
#
# Indices 1 2 3 4 5 6 
#
# 1 0.012871 -0.002743 -0.002592 0.000001 0.008290 0.000020
# 2 -0.002743 0.013080 -0.005720 -0.000009 0.005089 -0.000061
# 3 -0.002592 -0.005720 0.020418 0.000017 -0.001393 0.000031
# 4 0.000001 -0.000009 0.000017 0.054754 -0.000018 0.022372
# 5 0.008290 0.005089 -0.001393 -0.000018 0.036172 -0.000074
# 6 0.000020 -0.000061 0.000031 0.022372 -0.000074 0.012677
#
#
# Mechanical properties :
#
#
# Convention : Reuss Voigt Hill
#
# Bulk Modulus (GPa) = 41.22221 55.86543 48.54382
# Shear Modulus (GPa) = 27.75172 89.17415 58.46294
#
# Velocity S-wave (km/s) = 3.77292 6.76321 5.47613
# Velocity P-wave (km/s) = 6.33439 9.46803 8.05506
#
# Compressibility (1/GPa) = 0.02425877
#
# Stress axis : x y z
#
# Youngs Moduli (GPa) = 77.69382 76.45502 48.97565
#
# Poissons Ratio (x) = 0.20973 0.12694
# Poissons Ratio (y) = 0.21313 0.28014
# Poissons Ratio (z) = 0.20137 0.43732
#
# Static dielectric constant tensor:
#      x y z
#    x 1.721390 -0.000010 -0.000730 
#    y -0.000010 1.709750 0.000020 
#    z -0.000730 0.000020 1.737180 
# 
# From -- ./inp_files/242267.got.cif
#   From: 2010.05.17/outbox.cif.g08.bks.cpg/sg12_122_cif.got.tgz:242267.got - 2010.06.03 13:09:07.
