data_PCOD9183015
_publ_section_title
;
Structure prediction by ZEFSAII (Michael W. Deem and Ramdas Pophale) SiO2 
 PCOD9183015
Probable space group: C 2/M
;
_chemical_formula_sum "Si O2"
_cell_formula_units_Z 50
_cell_length_a 16.678107
_cell_length_b 17.281896
_cell_length_c 16.687750
_cell_angle_alpha 90.000000
_cell_angle_beta 35.584822
_cell_angle_gamma 90.000000
_cell_volume 2798.916377
_symmetry_space_group_name_H-M "C 2/M"
_symmetry_group_IT_number 12
_symmetry_cell_setting 'monoclinic'
loop_
_space_group_symop_operation_xyz
x,y,z
-x,y,-z
-x,-y,-z
x,-y,z
1/2+x,1/2+y,z
1/2-x,1/2+y,-z
1/2-x,1/2-y,-z
1/2+x,1/2-y,z
loop_
_atom_site_type_symbol
_atom_site_label
_atom_site_fract_x
_atom_site_fract_y
_atom_site_fract_z
Si Si1 0.500000 0.000000 0.000000
Si Si2 0.323944 0.411250 0.817462
Si Si3 0.157953 0.808510 0.356606
Si Si4 0.285440 0.908172 0.398907
Si Si5 0.536584 0.129212 0.105986
Si Si6 0.920537 0.792390 0.143838
Si Si7 0.397070 0.410991 0.306858
O O1 0.515712 0.931657 0.918333
O O2 0.287382 0.500000 0.823434
O O3 0.333261 0.361657 0.729600
O O4 0.466170 0.409616 0.749161
O O5 0.199725 0.382633 0.974418
O O6 0.209957 0.859232 0.390467
O O7 0.265298 0.738896 0.256451
O O8 0.000000 0.785477 0.500000
O O9 0.446959 0.890499 0.256714
O O10 0.225456 0.885885 0.533930
O O11 0.258082 0.000000 0.410630
O O12 0.501613 0.215706 0.107408
O O13 0.916067 0.855738 0.216547
O O14 0.000000 0.819643 0.000000
O O15 0.374005 0.500000 0.301079
#
# Coordination Sequence:
#
# PCOD9183015 Si02
#       7
#     2   8   8   8   8   8   8
#     4  12  16  32  52  94 118 152 178 218 278 348
#     4  11  20  35  56  90 121 151 186 234 280 344
#     4  11  21  34  56  88 120 151 183 229 291 354
#     4  10  19  33  53  84 118 156 185 225 282 346
#     4  11  20  31  58  86 122 152 186 225 276 360
#     4  11  23  41  59  83 111 157 199 237 289 337
#     4  10  24  41  58  82 117 151 198 243 288 334
#
# _framework density 17.864055
#
# number of rings (size 3 to 8) (size 9 to 14) (size 15 to 20)
#    0.000    1.280    5.600    1.440    0.000    4.160 
#    0.000    0.000    0.000    0.480    0.000    0.000 
#    0.000    0.000    0.000    0.000    0.000    0.000 
#
# Total GULP energy -139331.933074 kJ/mol
# GULP energy per Si atom -5573.277323 kJ/mol
# Density = 1.782340 g / cm^3
# Si number density = 17.864055 Si / 1000 Ang^3
#
#
#
# Elastic Constant Matrix: (Units=GPa)
#
#
# Indices 1 2 3 4 5 6 
#
# 1 26.7821 28.0105 36.9757 -0.0001 7.1204 0.0000
# 2 28.0105 73.0850 54.1855 -0.0001 25.2041 0.0001
# 3 36.9757 54.1855 165.0644 -0.0001 8.7625 0.0000
# 4 -0.0001 -0.0001 -0.0001 39.5400 0.0001 17.5741
# 5 7.1204 25.2041 8.7625 0.0001 34.8600 0.0000
# 6 0.0000 0.0001 0.0000 17.5741 0.0000 22.5422
#
#
#
# Elastic Compliance Matrix: (Units=1/GPa)
#
#
# Indices 1 2 3 4 5 6 
#
# 1 0.072038 -0.022112 -0.009067 0.000000 0.003552 0.000000
# 2 -0.022112 0.031295 -0.004417 0.000000 -0.017000 0.000000
# 3 -0.009067 -0.004417 0.009397 0.000000 0.002684 0.000000
# 4 0.000000 0.000000 0.000000 0.038701 0.000000 -0.030172
# 5 0.003552 -0.017000 0.002684 0.000000 0.039577 0.000000
# 6 0.000000 0.000000 0.000000 -0.030172 0.000000 0.067883
#
#
# Mechanical properties :
#
#
# Convention : Reuss Voigt Hill
#
# Bulk Modulus (GPa) = 24.07478 55.91945 39.99711
# Shear Modulus (GPa) = 14.53786 29.10577 21.82181
#
# Velocity S-wave (km/s) = 2.85582 4.04083 3.49886
# Velocity P-wave (km/s) = 4.93763 7.28984 6.22583
#
# Compressibility (1/GPa) = 0.04153725
#
# Stress axis : x y z
#
# Youngs Moduli (GPa) = 13.88152 31.95414 106.41733
#
# Poissons Ratio (x) = 0.70657 0.96489
# Poissons Ratio (y) = 0.30695 0.47009
# Poissons Ratio (z) = 0.12586 0.14116
#
# Static dielectric constant tensor:
#      x y z
#    x 1.634870 0.000000 -0.051870 
#    y 0.000000 1.595020 0.000000 
#    z -0.051870 0.000000 1.657280 
# 
# From -- ./inp_files/226289.got.cif
#   From: 2010.05.17/outbox.cif.g08.bks.cpg/sg12_114_cif.got.tgz:226289.got - 2010.06.03 13:09:07.
