data_PCOD9183472
_publ_section_title
;
Structure prediction by ZEFSAII (Michael W. Deem and Ramdas Pophale) SiO2 
 PCOD9183472
Probable space group: C 2/M
;
_chemical_formula_sum "Si O2"
_cell_formula_units_Z 60
_cell_length_a 12.813807
_cell_length_b 12.738063
_cell_length_c 25.293771
_cell_angle_alpha 90.000000
_cell_angle_beta 46.952023
_cell_angle_gamma 90.000000
_cell_volume 3017.054910
_symmetry_space_group_name_H-M "C 2/M"
_symmetry_group_IT_number 12
_symmetry_cell_setting 'monoclinic'
loop_
_space_group_symop_operation_xyz
x,y,z
-x,y,-z
-x,-y,-z
x,-y,z
1/2+x,1/2+y,z
1/2-x,1/2+y,-z
1/2-x,1/2-y,-z
1/2+x,1/2-y,z
loop_
_atom_site_type_symbol
_atom_site_label
_atom_site_fract_x
_atom_site_fract_y
_atom_site_fract_z
Si Si1 0.000000 0.298945 0.000000
Si Si2 0.604255 0.879043 0.759908
Si Si3 0.113366 0.193506 0.524165
Si Si4 0.805746 0.118013 0.885794
Si Si5 0.443378 0.288476 0.134329
Si Si6 0.933709 0.117254 0.350257
Si Si7 0.632217 0.215357 0.227729
Si Si8 0.812059 0.757027 0.611606
O O1 0.856277 0.364898 0.038934
O O2 0.974239 0.232784 0.062216
O O3 0.563932 0.818630 0.827987
O O4 0.472695 0.866495 0.764248
O O5 0.730281 0.816271 0.686593
O O6 0.639570 0.000000 0.757187
O O7 0.250000 0.250000 0.500000
O O8 0.076471 0.112408 0.582777
O O9 0.160309 0.165562 0.448397
O O10 0.974870 0.269450 0.569592
O O11 0.827700 0.201149 0.831721
O O12 0.929004 0.143274 0.885576
O O13 0.821814 0.000000 0.861091
O O14 0.281520 0.331580 0.196126
O O15 0.786951 0.161668 0.374540
O O16 0.045140 0.210088 0.297818
O O17 0.967248 0.000000 0.318809
#
# Coordination Sequence:
#
# PCOD9183472 Si02
#       8
#     4   8   8   8   8   8   8   8
#     4  10  21  38  55  78 112 140 169 216 261 300
#     4  10  21  36  56  78 102 137 178 214 258 313
#     4   9  18  33  51  72 105 141 172 214 263 308
#     4  10  20  35  56  81 107 140 176 212 256 307
#     4  10  21  37  56  79 108 139 172 214 259 308
#     4  10  19  33  55  80 104 138 179 216 260 315
#     4   9  20  36  53  77 110 138 170 219 263 303
#     4   9  19  35  52  75 108 138 171 220 266 306
#
# _framework density 19.886942999999999
#
# number of rings (size 3 to 8) (size 9 to 14) (size 15 to 20)
#    0.000    2.400    0.000    1.800    0.000    5.867 
#    0.000    7.000    0.000   12.800    0.000    0.000 
#    0.000    0.000    0.000    0.000    0.000    0.000 
#
# Total GULP energy -167044.154585 kJ/mol
# GULP energy per Si atom -5568.138486 kJ/mol
# Density = 1.984168 g / cm^3
# Si number density = 19.886943 Si / 1000 Ang^3
#
#
#
# Elastic Constant Matrix: (Units=GPa)
#
#
# Indices 1 2 3 4 5 6 
#
# 1 111.3789 -9.0328 24.5857 0.0000 -33.6324 0.0000
# 2 -9.0328 21.4054 8.5824 0.0000 -1.4192 0.0000
# 3 24.5857 8.5824 92.9383 0.0000 -2.8329 0.0000
# 4 0.0000 0.0000 0.0000 5.3215 0.0000 2.1966
# 5 -33.6324 -1.4192 -2.8329 0.0000 38.5119 0.0000
# 6 0.0000 0.0000 0.0000 2.1966 0.0000 4.3042
#
#
#
# Elastic Compliance Matrix: (Units=1/GPa)
#
#
# Indices 1 2 3 4 5 6 
#
# 1 0.014411 0.008610 -0.004224 0.000000 0.012592 0.000000
# 2 0.008610 0.053739 -0.006966 0.000000 0.008987 0.000000
# 3 -0.004224 -0.006966 0.012428 0.000000 -0.003031 0.000000
# 4 0.000000 0.000000 0.000000 0.238066 0.000000 -0.121495
# 5 0.012592 0.008987 -0.003031 0.000000 0.037071 0.000000
# 6 0.000000 0.000000 0.000000 -0.121495 0.000000 0.294337
#
#
# Mechanical properties :
#
#
# Convention : Reuss Voigt Hill
#
# Bulk Modulus (GPa) = 13.25940 30.44368 21.85154
# Shear Modulus (GPa) = 7.34914 23.06668 15.20791
#
# Velocity S-wave (km/s) = 1.92444 3.40941 2.76835
# Velocity P-wave (km/s) = 3.40879 5.55341 4.60761
#
# Compressibility (1/GPa) = 0.07541822
#
# Stress axis : x y z
#
# Youngs Moduli (GPa) = 69.39052 18.60835 80.46328
#
# Poissons Ratio (x) = -0.16021 0.33984
# Poissons Ratio (y) = -0.59743 0.56053
# Poissons Ratio (z) = 0.29307 0.12963
#
# Static dielectric constant tensor:
#      x y z
#    x 1.776900 0.000000 -0.005850 
#    y 0.000000 1.649610 0.000000 
#    z -0.005850 0.000000 1.750760 
# 
# From -- ./inp_files/336041.got.cif
#   From: 2010.05.17/outbox.cif.g08.bks.cpg/sg12_169_cif.got.tgz:336041.got - 2010.06.03 13:09:07.
