data_PCOD9183798
_publ_section_title
;
Structure prediction by ZEFSAII (Michael W. Deem and Ramdas Pophale) SiO2 
 PCOD9183798
Probable space group: C 2/M
;
_chemical_formula_sum "Si O2"
_cell_formula_units_Z 56
_cell_length_a 16.339984
_cell_length_b 9.217355
_cell_length_c 20.636578
_cell_angle_alpha 90.000000
_cell_angle_beta 54.205975
_cell_angle_gamma 90.000000
_cell_volume 2521.060763
_symmetry_space_group_name_H-M "C 2/M"
_symmetry_group_IT_number 12
_symmetry_cell_setting 'monoclinic'
loop_
_space_group_symop_operation_xyz
x,y,z
-x,y,-z
-x,-y,-z
x,-y,z
1/2+x,1/2+y,z
1/2-x,1/2+y,-z
1/2-x,1/2-y,-z
1/2+x,1/2-y,z
loop_
_atom_site_type_symbol
_atom_site_label
_atom_site_fract_x
_atom_site_fract_y
_atom_site_fract_z
Si Si1 0.159428 0.169543 0.338485
Si Si2 0.903238 0.329681 0.901980
Si Si3 0.621418 0.334032 0.956987
Si Si4 0.933469 0.828693 0.760975
Si Si5 0.874757 0.671338 0.378096
Si Si6 0.661119 0.170602 0.460575
Si Si7 0.358384 0.169017 0.180552
O O1 0.116946 0.190830 0.286018
O O2 0.115158 0.268391 0.415565
O O3 0.278752 0.201689 0.273623
O O4 0.146223 0.000000 0.361732
O O5 0.880286 0.500000 0.910987
O O6 0.879062 0.251152 0.845773
O O7 0.025283 0.313669 0.853671
O O8 0.858973 0.254614 0.986589
O O9 0.652682 0.500000 0.950232
O O10 0.664077 0.262964 0.872364
O O11 0.500000 0.331715 0.000000
O O12 0.043233 0.757872 0.700607
O O13 0.939535 0.000000 0.771974
O O14 0.876343 0.500000 0.361569
O O15 0.763841 0.737345 0.421065
O O16 0.897601 0.688534 0.444582
O O17 0.683434 0.000000 0.443870
O O18 0.343443 0.000000 0.170088
#
# Coordination Sequence:
#
# PCOD9183798 Si02
#       7
#     8   8   8   8   8   8   8
#     4  10  22  38  55  78 112 149 182 223 274 324
#     4  10  19  33  56  81 106 140 180 225 275 326
#     4   9  17  30  51  80 109 135 170 221 273 321
#     4  11  23  37  54  79 111 147 186 225 268 322
#     4  10  21  38  59  83 111 142 178 223 274 324
#     4  10  21  37  60  86 109 138 180 227 271 322
#     4   9  18  34  55  78 104 137 178 221 269 324
#
# _framework density 22.212872000000001
#
# number of rings (size 3 to 8) (size 9 to 14) (size 15 to 20)
#    0.000    2.143    0.000    3.000    0.000    7.429 
#    0.000    3.571    0.000    0.000    0.000    0.000 
#    0.000    0.000    0.000    0.000    0.000    0.000 
#
# Total GULP energy -156581.878094 kJ/mol
# GULP energy per Si atom -5592.209932 kJ/mol
# Density = 2.216231 g / cm^3
# Si number density = 22.212872 Si / 1000 Ang^3
#
#
#
# Elastic Constant Matrix: (Units=GPa)
#
#
# Indices 1 2 3 4 5 6 
#
# 1 65.7369 31.6889 15.4326 0.0000 14.5056 0.0000
# 2 31.6889 124.3545 76.7275 0.0000 37.9064 0.0001
# 3 15.4326 76.7275 109.4081 0.0000 35.7640 0.0000
# 4 0.0000 0.0000 0.0000 37.0658 0.0000 17.8840
# 5 14.5056 37.9064 35.7640 0.0000 38.7280 0.0000
# 6 0.0000 0.0001 0.0000 17.8840 0.0000 18.3613
#
#
#
# Elastic Compliance Matrix: (Units=1/GPa)
#
#
# Indices 1 2 3 4 5 6 
#
# 1 0.017829 -0.004530 0.001999 0.000000 -0.004090 0.000000
# 2 -0.004530 0.016664 -0.008982 0.000000 -0.006319 0.000000
# 3 0.001999 -0.008982 0.017945 0.000000 -0.008529 0.000000
# 4 0.000000 0.000000 0.000000 0.050899 0.000000 -0.049576
# 5 -0.004090 -0.006319 -0.008529 0.000000 0.041415 0.000000
# 6 0.000000 0.000000 0.000000 -0.049576 0.000000 0.102749
#
#
# Mechanical properties :
#
#
# Convention : Reuss Voigt Hill
#
# Bulk Modulus (GPa) = 33.99895 60.79973 47.39934
# Shear Modulus (GPa) = 17.83611 30.54107 24.18859
#
# Velocity S-wave (km/s) = 2.83673 3.71202 3.30350
# Velocity P-wave (km/s) = 5.10574 6.76779 5.99465
#
# Compressibility (1/GPa) = 0.02941268
#
# Stress axis : x y z
#
# Youngs Moduli (GPa) = 56.08813 60.00986 55.72582
#
# Poissons Ratio (x) = 0.27184 -0.11139
# Poissons Ratio (y) = 0.25408 0.50051
# Poissons Ratio (z) = -0.11211 0.53899
#
# Static dielectric constant tensor:
#      x y z
#    x 1.905470 0.000000 0.004250 
#    y 0.000000 1.737220 0.000000 
#    z 0.004250 0.000000 1.790180 
# 
# From -- ./inp_files/275625.got.cif
#   From: 2010.05.17/outbox.cif.g08.bks.cpg/sg12_138_cif.got.tgz:275625.got - 2010.06.03 13:09:07.
