data_PCOD9183832
_publ_section_title
;
Structure prediction by ZEFSAII (Michael W. Deem and Ramdas Pophale) SiO2 
 PCOD9183832
Probable space group: C 2/M
;
_chemical_formula_sum "Si O2"
_cell_formula_units_Z 64
_cell_length_a 29.465230
_cell_length_b 13.628441
_cell_length_c 23.361500
_cell_angle_alpha 90.000000
_cell_angle_beta 157.246001
_cell_angle_gamma 90.000000
_cell_volume 3628.402853
_symmetry_space_group_name_H-M "C 2/M"
_symmetry_group_IT_number 12
_symmetry_cell_setting 'monoclinic'
loop_
_space_group_symop_operation_xyz
x,y,z
-x,y,-z
-x,-y,-z
x,-y,z
1/2+x,1/2+y,z
1/2-x,1/2+y,-z
1/2-x,1/2-y,-z
1/2+x,1/2-y,z
loop_
_atom_site_type_symbol
_atom_site_label
_atom_site_fract_x
_atom_site_fract_y
_atom_site_fract_z
Si Si1 0.430164 0.386471 0.041637
Si Si2 0.131623 0.251455 0.132180
Si Si3 0.093109 0.797387 0.863642
Si Si4 0.466557 0.618715 0.397655
Si Si5 0.703558 0.383611 0.612638
Si Si6 0.178571 0.757790 0.475609
Si Si7 0.764145 0.882134 0.077532
Si Si8 0.695796 0.388127 0.309135
O O1 0.400660 0.500000 0.992053
O O2 0.396066 0.361687 0.066453
O O3 0.571499 0.377655 0.197882
O O4 0.375599 0.303923 0.936517
O O5 0.212545 0.344877 0.238932
O O6 0.181501 0.171881 0.234600
O O7 0.000000 0.274951 0.000000
O O8 0.156032 0.853122 0.884453
O O9 0.955829 0.782950 0.691618
O O10 0.153966 0.691284 0.944868
O O11 0.500000 0.655387 0.500000
O O12 0.467404 0.500000 0.401390
O O13 0.572012 0.646863 0.477702
O O14 0.342406 0.644271 0.224691
O O15 0.709826 0.500000 0.615591
O O16 0.730909 0.335005 0.582966
O O17 0.250000 0.750000 0.500000
O O18 0.199623 0.655097 0.531918
O O19 0.740261 0.000000 0.050094
O O20 0.713531 0.500000 0.316220
#
# Coordination Sequence:
#
# PCOD9183832 Si02
#       8
#     8   8   8   8   8   8   8   8
#     4  10  19  33  56  82 108 145 191 232 277 337
#     4   9  19  34  52  78 113 142 181 230 275 339
#     4  11  22  36  59  83 112 152 190 237 290 342
#     4   9  18  34  57  82 103 139 192 238 282 337
#     4  10  21  36  57  82 112 153 191 237 293 347
#     4  11  21  36  55  83 119 149 192 237 280 348
#     4  10  22  40  58  81 113 148 191 242 292 341
#     4   9  18  33  54  77 106 147 186 227 275 327
#
# _framework density 17.638615000000001
#
# number of rings (size 3 to 8) (size 9 to 14) (size 15 to 20)
#    0.000    2.125    2.500    0.750    1.750    3.250 
#    0.000    0.000    0.000    0.000    0.000    0.875 
#    0.000    0.000    0.000    0.000    0.000    0.000 
#
# Total GULP energy -178313.628235 kJ/mol
# GULP energy per Si atom -5572.300882 kJ/mol
# Density = 1.759847 g / cm^3
# Si number density = 17.638615 Si / 1000 Ang^3
#
#
#
# Elastic Constant Matrix: (Units=GPa)
#
#
# Indices 1 2 3 4 5 6 
#
# 1 59.9716 7.0577 8.9712 0.0000 -16.4456 0.0000
# 2 7.0577 65.1405 17.3701 0.0000 -1.1651 0.0000
# 3 8.9712 17.3701 70.0249 0.0000 -13.7983 0.0000
# 4 0.0000 0.0000 0.0000 19.8637 0.0000 -1.4722
# 5 -16.4456 -1.1651 -13.7983 0.0000 20.0152 0.0000
# 6 0.0000 0.0000 0.0000 -1.4722 0.0000 17.6236
#
#
#
# Elastic Compliance Matrix: (Units=1/GPa)
#
#
# Indices 1 2 3 4 5 6 
#
# 1 0.021923 -0.002444 0.001526 0.000000 0.018923 0.000000
# 2 -0.002444 0.016791 -0.004693 0.000000 -0.004266 0.000000
# 3 0.001526 -0.004693 0.017870 0.000000 0.013300 0.000000
# 4 0.000000 0.000000 0.000000 0.050657 0.000000 0.004232
# 5 0.018923 -0.004266 0.013300 0.000000 0.074431 0.000000
# 6 0.000000 0.000000 0.000000 0.004232 0.000000 0.057095
#
#
# Mechanical properties :
#
#
# Convention : Reuss Voigt Hill
#
# Bulk Modulus (GPa) = 22.04396 29.10389 25.57392
# Shear Modulus (GPa) = 18.86018 22.28304 20.57161
#
# Velocity S-wave (km/s) = 3.27349 3.55816 3.41879
# Velocity P-wave (km/s) = 5.17807 5.78071 5.48767
#
# Compressibility (1/GPa) = 0.04536390
#
# Stress axis : x y z
#
# Youngs Moduli (GPa) = 45.61430 59.55495 55.95995
#
# Poissons Ratio (x) = 0.14554 -0.08541
# Poissons Ratio (y) = 0.11147 0.26260
# Poissons Ratio (z) = -0.06962 0.27947
#
# Static dielectric constant tensor:
#      x y z
#    x 1.610350 0.000000 -0.007180 
#    y 0.000000 1.595190 0.000000 
#    z -0.007180 0.000000 1.616860 
# 
# From -- ./inp_files/327865.got.cif
#   From: 2010.05.17/outbox.cif.g08.bks.cpg/sg12_164_cif.got.tgz:327865.got - 2010.06.03 13:09:07.
