data_PCOD9183218
_publ_section_title
;
Structure prediction by ZEFSAII (Michael W. Deem and Ramdas Pophale) SiO2 
 PCOD9183218
Probable space group: C 2/M
;
_chemical_formula_sum "Si O2"
_cell_formula_units_Z 56
_cell_length_a 18.702091
_cell_length_b 13.629042
_cell_length_c 13.760166
_cell_angle_alpha 90.000000
_cell_angle_beta 122.780502
_cell_angle_gamma 90.000000
_cell_volume 2948.808095
_symmetry_space_group_name_H-M "C 2/M"
_symmetry_group_IT_number 12
_symmetry_cell_setting 'monoclinic'
loop_
_space_group_symop_operation_xyz
x,y,z
-x,y,-z
-x,-y,-z
x,-y,z
1/2+x,1/2+y,z
1/2-x,1/2+y,-z
1/2-x,1/2-y,-z
1/2+x,1/2-y,z
loop_
_atom_site_type_symbol
_atom_site_label
_atom_site_fract_x
_atom_site_fract_y
_atom_site_fract_z
Si Si1 0.503576 0.792769 0.699709
Si Si2 0.243547 0.609470 0.036427
Si Si3 0.667352 0.886176 0.436514
Si Si4 0.738222 0.265366 0.635745
Si Si5 0.307483 0.791564 0.190482
Si Si6 0.932445 0.885987 0.538436
Si Si7 0.953291 0.384911 0.066249
O O1 0.429946 0.864921 0.608200
O O2 0.594026 0.812510 0.715597
O O3 0.470530 0.683849 0.650450
O O4 0.518483 0.817224 0.823646
O O5 0.273562 0.500000 0.077351
O O6 0.230400 0.629488 0.912085
O O7 0.149355 0.622039 0.013707
O O8 0.304007 0.690712 0.126383
O O9 0.725617 0.827933 0.556005
O O10 0.685127 0.831357 0.347492
O O11 0.686195 0.000000 0.445067
O O12 0.742675 0.227350 0.748026
O O13 0.654873 0.334557 0.560884
O O14 0.000000 0.882905 0.500000
O O15 0.918995 0.000000 0.555206
O O16 0.972453 0.500000 0.103807
O O17 0.000000 0.361577 0.000000
#
# Coordination Sequence:
#
# PCOD9183218 Si02
#       7
#     8   8   8   8   8   8   8
#     4  10  20  35  55  81 114 143 182 236 279 323
#     4   9  20  35  54  80 109 142 185 231 275 330
#     4  10  22  37  56  86 116 148 186 225 278 338
#     4  10  21  37  57  81 115 152 183 232 274 328
#     4  10  20  36  55  80 112 146 184 229 279 327
#     4  10  19  33  54  80 109 146 188 228 272 327
#     4   9  18  33  54  82 112 144 180 226 284 338
#
# _framework density 18.990725000000001
#
# number of rings (size 3 to 8) (size 9 to 14) (size 15 to 20)
#    0.000    2.286    1.429    0.857    2.000    2.857 
#    0.000    0.714    0.000    0.429    0.000    0.000 
#    0.000    0.000    0.000    0.000    0.000    0.000 
#
# Total GULP energy -156220.593396 kJ/mol
# GULP energy per Si atom -5579.306907 kJ/mol
# Density = 1.894750 g / cm^3
# Si number density = 18.990725 Si / 1000 Ang^3
#
#
#
# Elastic Constant Matrix: (Units=GPa)
#
#
# Indices 1 2 3 4 5 6 
#
# 1 49.6292 38.1869 18.0012 0.0000 -9.6333 0.0000
# 2 38.1869 79.6074 7.1194 0.0000 -11.9916 0.0000
# 3 18.0012 7.1194 24.9284 0.0000 -12.2347 0.0000
# 4 0.0000 0.0000 0.0000 11.4010 0.0000 -6.3184
# 5 -9.6333 -11.9916 -12.2347 0.0000 31.3211 0.0000
# 6 0.0000 0.0000 0.0000 -6.3184 0.0000 21.5064
#
#
#
# Elastic Compliance Matrix: (Units=1/GPa)
#
#
# Indices 1 2 3 4 5 6 
#
# 1 0.044991 -0.019736 -0.029407 0.000000 -0.005205 0.000000
# 2 -0.019736 0.022040 0.011282 0.000000 0.006775 0.000000
# 3 -0.029407 0.011282 0.069046 0.000000 0.022246 0.000000
# 4 0.000000 0.000000 0.000000 0.104770 0.000000 0.030780
# 5 -0.005205 0.006775 0.022246 0.000000 0.041610 0.000000
# 6 0.000000 0.000000 0.000000 0.030780 0.000000 0.055541
#
#
# Mechanical properties :
#
#
# Convention : Reuss Voigt Hill
#
# Bulk Modulus (GPa) = 16.56834 31.19780 23.88307
# Shear Modulus (GPa) = 11.52504 18.90288 15.21396
#
# Velocity S-wave (km/s) = 2.46616 3.15838 2.83349
# Velocity P-wave (km/s) = 4.10520 5.45564 4.82787
#
# Compressibility (1/GPa) = 0.06035608
#
# Stress axis : x y z
#
# Youngs Moduli (GPa) = 22.22660 45.37117 14.48312
#
# Poissons Ratio (x) = 0.89545 0.42591
# Poissons Ratio (y) = 0.43866 -0.16340
# Poissons Ratio (z) = 0.65362 -0.51189
#
# Static dielectric constant tensor:
#      x y z
#    x 1.693740 0.000000 0.009510 
#    y 0.000000 1.637350 0.000000 
#    z 0.009510 0.000000 1.665890 
# 
# From -- ./inp_files/224864.got.cif
#   From: 2010.05.17/outbox.cif.g08.bks.cpg/sg12_113_cif.got.tgz:224864.got - 2010.06.03 13:09:07.
