data_PCOD9183159
_publ_section_title
;
Structure prediction by ZEFSAII (Michael W. Deem and Ramdas Pophale) SiO2 
 PCOD9183159
Probable space group: C 2/M
;
_chemical_formula_sum "Si O2"
_cell_formula_units_Z 48
_cell_length_a 11.378323
_cell_length_b 23.889276
_cell_length_c 9.595932
_cell_angle_alpha 90.000000
_cell_angle_beta 111.263452
_cell_angle_gamma 90.000000
_cell_volume 2430.794928
_symmetry_space_group_name_H-M "C 2/M"
_symmetry_group_IT_number 12
_symmetry_cell_setting 'monoclinic'
loop_
_space_group_symop_operation_xyz
x,y,z
-x,y,-z
-x,-y,-z
x,-y,z
1/2+x,1/2+y,z
1/2-x,1/2+y,-z
1/2-x,1/2-y,-z
1/2+x,1/2-y,z
loop_
_atom_site_type_symbol
_atom_site_label
_atom_site_fract_x
_atom_site_fract_y
_atom_site_fract_z
Si Si1 0.304143 0.687919 0.006785
Si Si2 0.864107 0.151509 0.505700
Si Si3 0.081391 0.784399 0.216943
Si Si4 0.496492 0.064182 0.266180
Si Si5 0.791580 0.436168 0.397610
Si Si6 0.145026 0.342170 0.180795
O O1 0.442763 0.689807 0.135655
O O2 0.209637 0.651023 0.057417
O O3 0.250000 0.750000 0.000000
O O4 0.327928 0.683067 0.852592
O O5 0.877502 0.206668 0.607094
O O6 0.816361 0.104041 0.591946
O O7 0.760493 0.157484 0.340972
O O8 0.000000 0.138466 0.500000
O O9 0.082447 0.719183 0.173506
O O10 0.602031 0.063814 0.434765
O O11 0.366630 0.079636 0.289091
O O12 0.548549 0.109261 0.180419
O O13 0.486959 0.000000 0.210184
O O14 0.746931 0.500000 0.362128
#
# Coordination Sequence:
#
# PCOD9183159 Si02
#       6
#     8   8   8   8   8   8
#     4   9  19  35  52  70  99 142 177 202 247 314
#     4  11  20  32  50  80 111 134 167 219 263 296
#     4  10  20  34  50  74 109 140 169 210 255 314
#     4   8  15  30  51  75 102 133 173 217 257 302
#     4   8  16  31  49  73 105 139 172 207 259 315
#     4  10  19  33  54  79 104 136 174 210 260 310
#
# _framework density 19.746627
#
# number of rings (size 3 to 8) (size 9 to 14) (size 15 to 20)
#    0.000    2.667    1.667    1.500    0.000    3.000 
#    6.000    0.000    0.000    1.000    0.000   14.000 
#    0.000    0.000    0.000    0.000    0.000    0.000 
#
# Total GULP energy -133820.630054 kJ/mol
# GULP energy per Si atom -5575.859586 kJ/mol
# Density = 1.970168 g / cm^3
# Si number density = 19.746627 Si / 1000 Ang^3
#
#
#
# Elastic Constant Matrix: (Units=GPa)
#
#
# Indices 1 2 3 4 5 6 
#
# 1 144.5179 72.1037 44.2829 0.0000 -36.7553 0.0000
# 2 72.1037 87.3891 21.0802 0.0000 -25.6279 0.0000
# 3 44.2829 21.0802 69.4725 0.0000 -13.5450 0.0000
# 4 0.0000 0.0000 0.0000 16.6956 0.0000 -11.2997
# 5 -36.7553 -25.6279 -13.5450 0.0000 38.4476 0.0000
# 6 0.0000 0.0000 0.0000 -11.2997 0.0000 27.4262
#
#
#
# Elastic Compliance Matrix: (Units=1/GPa)
#
#
# Indices 1 2 3 4 5 6 
#
# 1 0.014583 -0.008949 -0.005395 0.000000 0.006075 0.000000
# 2 -0.008949 0.020184 0.000574 0.000000 0.005101 0.000000
# 3 -0.005395 0.000574 0.017962 0.000000 0.001553 0.000000
# 4 0.000000 0.000000 0.000000 0.083056 0.000000 0.034219
# 5 0.006075 0.005101 0.001553 0.000000 0.035764 0.000000
# 6 0.000000 0.000000 0.000000 0.034219 0.000000 0.050560
#
#
# Mechanical properties :
#
#
# Convention : Reuss Voigt Hill
#
# Bulk Modulus (GPa) = 39.70060 64.03481 51.86770
# Shear Modulus (GPa) = 19.37641 27.44140 23.40891
#
# Velocity S-wave (km/s) = 3.13589 3.73188 3.44679
# Velocity P-wave (km/s) = 5.76718 7.14618 6.49339
#
# Compressibility (1/GPa) = 0.02518854
#
# Stress axis : x y z
#
# Youngs Moduli (GPa) = 68.57403 49.54349 55.67365
#
# Poissons Ratio (x) = 0.44337 0.30038
# Poissons Ratio (y) = 0.61367 -0.03197
# Poissons Ratio (z) = 0.36999 -0.02845
#
# Static dielectric constant tensor:
#      x y z
#    x 1.702090 0.000000 0.003760 
#    y 0.000000 1.678350 0.000000 
#    z 0.003760 0.000000 1.758520 
# 
# From -- ./inp_files/51455.got.cif
#   From: 2010.05.17/outbox.cif.g08.bks.cpg/sg12_26_cif.got.tgz:51455.got - 2010.06.03 13:09:07.
