data_PCOD9183186
_publ_section_title
;
Structure prediction by ZEFSAII (Michael W. Deem and Ramdas Pophale) SiO2 
 PCOD9183186
Probable space group: C 2/M
;
_chemical_formula_sum "Si O2"
_cell_formula_units_Z 44
_cell_length_a 29.831096
_cell_length_b 10.989904
_cell_length_c 11.817430
_cell_angle_alpha 90.000000
_cell_angle_beta 143.454877
_cell_angle_gamma 90.000000
_cell_volume 2306.936211
_symmetry_space_group_name_H-M "C 2/M"
_symmetry_group_IT_number 12
_symmetry_cell_setting 'monoclinic'
loop_
_space_group_symop_operation_xyz
x,y,z
-x,y,-z
-x,-y,-z
x,-y,z
1/2+x,1/2+y,z
1/2-x,1/2+y,-z
1/2-x,1/2-y,-z
1/2+x,1/2-y,z
loop_
_atom_site_type_symbol
_atom_site_label
_atom_site_fract_x
_atom_site_fract_y
_atom_site_fract_z
Si Si1 0.776685 0.711147 0.370706
Si Si2 0.848873 0.361405 0.752603
Si Si3 0.454508 0.638146 0.291770
Si Si4 0.500000 0.276187 0.000000
Si Si5 0.215057 0.857228 0.007911
Si Si6 0.424449 0.637901 0.627702
O O1 0.811311 0.642854 0.550471
O O2 0.704697 0.782782 0.274561
O O3 0.752869 0.641913 0.209026
O O4 0.844256 0.798993 0.468923
O O5 0.851619 0.500000 0.796834
O O6 0.932231 0.305295 0.912453
O O7 0.500000 0.632523 0.500000
O O8 0.441593 0.500000 0.221510
O O9 0.512004 0.699943 0.321628
O O10 0.371411 0.683719 0.147351
O O11 0.460095 0.356323 0.824047
O O12 0.216507 0.000000 0.967870
O O13 0.250000 0.750000 0.000000
O O14 0.413298 0.500000 0.565351
#
# Coordination Sequence:
#
# PCOD9183186 Si02
#       6
#     8   8   8   4   8   8
#     4  10  21  35  55  82 110 146 190 234 282 334
#     4  10  20  35  54  78 112 150 189 233 283 339
#     4   9  18  33  54  78 104 138 181 228 277 328
#     4  10  20  32  50  78 110 148 186 224 280 338
#     4  11  23  39  60  85 115 149 187 234 286 340
#     4  10  19  33  54  79 109 142 184 235 280 329
#
# _framework density 19.072914999999998
#
# number of rings (size 3 to 8) (size 9 to 14) (size 15 to 20)
#    0.000    2.000    0.000    3.818    0.000    2.909 
#    0.000    5.455    0.000    6.000    0.000    0.000 
#    0.000    0.000    0.000    0.000    0.000    0.000 
#
# Total GULP energy -122573.459314 kJ/mol
# GULP energy per Si atom -5571.520878 kJ/mol
# Density = 1.902950 g / cm^3
# Si number density = 19.072915 Si / 1000 Ang^3
#
#
#
# Elastic Constant Matrix: (Units=GPa)
#
#
# Indices 1 2 3 4 5 6 
#
# 1 106.6597 37.6969 36.0041 0.0000 34.0530 0.0000
# 2 37.6969 77.1024 19.2741 0.0000 18.0845 0.0000
# 3 36.0041 19.2741 98.4017 0.0000 26.1266 0.0000
# 4 0.0000 0.0000 0.0000 -22.1765 0.0000 -17.0020
# 5 34.0530 18.0845 26.1266 0.0000 50.7408 0.0000
# 6 0.0000 0.0000 0.0000 -17.0020 0.0000 3.1165
#
#
#
# Elastic Compliance Matrix: (Units=1/GPa)
#
#
# Indices 1 2 3 4 5 6 
#
# 1 0.013905 -0.004681 -0.002474 0.000000 -0.006390 0.000000
# 2 -0.004681 0.015967 -0.000855 0.000000 -0.002109 0.000000
# 3 -0.002474 -0.000855 0.012410 0.000000 -0.004425 0.000000
# 4 0.000000 0.000000 0.000000 -0.008701 0.000000 -0.047467
# 5 -0.006390 -0.002109 -0.004425 0.000000 0.027026 0.000000
# 6 0.000000 0.000000 0.000000 -0.047467 0.000000 0.061914
#
#
# Mechanical properties :
#
#
# Convention : Reuss Voigt Hill
#
# Bulk Modulus (GPa) = 38.07862 52.01266 45.04564
# Shear Modulus (GPa) = 33.94528 18.94876 26.44702
#
# Velocity S-wave (km/s) = 4.22330 3.15539 3.72778
# Velocity P-wave (km/s) = 6.61739 6.37220 6.49595
#
# Compressibility (1/GPa) = 0.02626146
#
# Stress axis : x y z
#
# Youngs Moduli (GPa) = 71.91452 62.62967 80.58022
#
# Poissons Ratio (x) = 0.29319 0.19939
# Poissons Ratio (y) = 0.33666 0.06887
# Poissons Ratio (z) = 0.17794 0.05353
#
# Static dielectric constant tensor:
#      x y z
#    x 1.698170 0.000000 -0.002570 
#    y 0.000000 1.661520 0.000000 
#    z -0.002570 0.000000 1.660000 
# 
# From -- ./inp_files/175391.got.cif
#   From: 2010.05.17/outbox.cif.g08.bks.cpg/sg12_88_cif.got.tgz:175391.got - 2010.06.03 13:09:07.
