data_PCOD9183310
_publ_section_title
;
Structure prediction by ZEFSAII (Michael W. Deem and Ramdas Pophale) SiO2 
 PCOD9183310
Probable space group: C 2/M
;
_chemical_formula_sum "Si O2"
_cell_formula_units_Z 40
_cell_length_a 10.471998
_cell_length_b 18.670291
_cell_length_c 24.822664
_cell_angle_alpha 90.000000
_cell_angle_beta 155.390938
_cell_angle_gamma 90.000000
_cell_volume 2020.995734
_symmetry_space_group_name_H-M "C 2/M"
_symmetry_group_IT_number 12
_symmetry_cell_setting 'monoclinic'
loop_
_space_group_symop_operation_xyz
x,y,z
-x,y,-z
-x,-y,-z
x,-y,z
1/2+x,1/2+y,z
1/2-x,1/2+y,-z
1/2-x,1/2-y,-z
1/2+x,1/2-y,z
loop_
_atom_site_type_symbol
_atom_site_label
_atom_site_fract_x
_atom_site_fract_y
_atom_site_fract_z
Si Si1 0.044422 0.652064 0.451314
Si Si2 0.325850 0.000000 0.375911
Si Si3 0.158413 0.202222 0.115658
Si Si4 0.600956 0.000000 0.100570
Si Si5 0.277838 0.698605 0.312332
Si Si6 0.448904 0.841674 0.074693
O O1 0.400032 0.657835 0.569998
O O2 0.000000 0.658231 0.500000
O O3 0.917820 0.575155 0.384848
O O4 0.871572 0.719236 0.358641
O O5 0.500000 0.000000 0.500000
O O6 0.965392 0.000000 0.246076
O O7 0.513367 0.180568 0.254954
O O8 0.131759 0.288855 0.104814
O O9 0.000000 0.174500 0.000000
O O10 0.912680 0.177013 0.065636
O O11 0.487396 0.074421 0.081872
O O12 0.500000 0.000000 0.000000
O O13 0.100617 0.682955 0.189097
#
# Coordination Sequence:
#
# PCOD9183310 Si02
#       6
#     8   4   8   4   8   8
#     4  10  20  34  55  84 113 149 198 245 288 338
#     4  10  20  36  57  82 116 150 186 237 292 337
#     4   9  18  33  53  78 107 146 187 230 281 338
#     4  12  24  38  60  90 119 148 188 241 295 347
#     4  10  19  33  54  82 112 150 195 237 285 344
#     4  10  20  35  56  81 113 147 189 238 289 345
#
# _framework density 19.792223
#
# number of rings (size 3 to 8) (size 9 to 14) (size 15 to 20)
#    0.000    2.000    0.000    5.400    0.000    3.200 
#    0.000    5.500    0.000    0.000    0.000   42.700 
#    0.000    0.000    0.000    0.000    0.000    0.000 
#
# Total GULP energy -111409.827489 kJ/mol
# GULP energy per Si atom -5570.491374 kJ/mol
# Density = 1.974717 g / cm^3
# Si number density = 19.792223 Si / 1000 Ang^3
#
#
#
# Elastic Constant Matrix: (Units=GPa)
#
#
# Indices 1 2 3 4 5 6 
#
# 1 41.7462 26.3198 29.4542 0.0027 15.7944 -0.0004
# 2 26.3198 146.6797 38.4439 0.0049 13.1746 -0.0002
# 3 29.4542 38.4439 115.0730 0.0160 43.2046 0.0027
# 4 0.0027 0.0049 0.0160 19.9107 0.0026 4.1159
# 5 15.7944 13.1746 43.2046 0.0026 50.3798 0.0003
# 6 -0.0004 -0.0002 0.0027 4.1159 0.0003 21.7679
#
#
#
# Elastic Compliance Matrix: (Units=1/GPa)
#
#
# Indices 1 2 3 4 5 6 
#
# 1 0.031769 -0.003955 -0.005102 0.000001 -0.004550 0.000001
# 2 -0.003955 0.007967 -0.001965 0.000000 0.000842 0.000000
# 3 -0.005102 -0.001965 0.014541 -0.000009 -0.010357 0.000000
# 4 0.000001 0.000000 -0.000009 0.052267 0.000005 -0.009883
# 5 -0.004550 0.000842 -0.010357 0.000005 0.029937 0.000000
# 6 0.000001 0.000000 0.000000 -0.009883 0.000000 0.047808
#
#
# Mechanical properties :
#
#
# Convention : Reuss Voigt Hill
#
# Bulk Modulus (GPa) = 31.02459 54.65940 42.84199
# Shear Modulus (GPa) = 23.03330 32.36377 27.69853
#
# Velocity S-wave (km/s) = 3.41509 4.04812 3.74500
# Velocity P-wave (km/s) = 5.59103 7.03749 6.35554
#
# Compressibility (1/GPa) = 0.03223250
#
# Stress axis : x y z
#
# Youngs Moduli (GPa) = 31.47737 125.52281 68.77059
#
# Poissons Ratio (x) = 0.49639 0.35087
# Poissons Ratio (y) = 0.12448 0.13516
# Poissons Ratio (z) = 0.16060 0.24671
#
# Static dielectric constant tensor:
#      x y z
#    x 1.813640 0.000000 0.021840 
#    y 0.000000 1.704900 0.000000 
#    z 0.021840 0.000000 1.710790 
# 
# From -- ./inp_files/168668.got.cif
#   From: 2010.05.17/outbox.cif.g08.bks.cpg/sg12_85_cif.got.tgz:168668.got - 2010.06.03 13:09:07.
