data_PCOD9183609
_publ_section_title
;
Structure prediction by ZEFSAII (Michael W. Deem and Ramdas Pophale) SiO2 
 PCOD9183609
Probable space group: C 2/M
;
_chemical_formula_sum "Si O2"
_cell_formula_units_Z 56
_cell_length_a 14.774736
_cell_length_b 13.929895
_cell_length_c 31.903604
_cell_angle_alpha 90.000000
_cell_angle_beta 26.409377
_cell_angle_gamma 90.000000
_cell_volume 2920.480375
_symmetry_space_group_name_H-M "C 2/M"
_symmetry_group_IT_number 12
_symmetry_cell_setting 'monoclinic'
loop_
_space_group_symop_operation_xyz
x,y,z
-x,y,-z
-x,-y,-z
x,-y,z
1/2+x,1/2+y,z
1/2-x,1/2+y,-z
1/2-x,1/2-y,-z
1/2+x,1/2-y,z
loop_
_atom_site_type_symbol
_atom_site_label
_atom_site_fract_x
_atom_site_fract_y
_atom_site_fract_z
Si Si1 0.724682 0.388673 0.528863
Si Si2 0.659442 0.383956 0.258682
Si Si3 0.390154 0.811112 0.591090
Si Si4 0.930177 0.102453 0.576623
Si Si5 0.041618 0.888620 0.215608
Si Si6 0.387553 0.884847 0.923295
Si Si7 0.677843 0.779836 0.961479
O O1 0.763628 0.500000 0.524832
O O2 0.539415 0.349714 0.634190
O O3 0.632061 0.388863 0.521062
O O4 0.931027 0.332660 0.450356
O O5 0.647757 0.500000 0.264398
O O6 0.642497 0.355084 0.217408
O O7 0.878932 0.359479 0.186043
O O8 0.500000 0.821314 0.500000
O O9 0.312899 0.701985 0.629201
O O10 0.199152 0.879161 0.676826
O O11 0.000000 0.097733 0.500000
O O12 0.831462 0.000000 0.629624
O O13 0.127360 0.824838 0.142784
O O14 0.095753 0.000000 0.186034
O O15 0.234961 0.823226 0.957872
O O16 0.359999 0.000000 0.932360
O O17 0.368664 0.848334 0.979286
O O18 0.500000 0.776985 0.000000
#
# Coordination Sequence:
#
# PCOD9183609 Si02
#       7
#     8   8   8   8   8   8   8
#     4  10  19  33  55  82 115 150 189 241 293 343
#     4   9  18  33  57  87 112 147 194 242 293 351
#     4  11  21  34  54  84 117 153 189 241 296 348
#     4   9  20  37  53  72 104 154 209 244 280 341
#     4  11  22  36  58  88 120 150 192 247 302 360
#     4  10  22  41  65  92 123 159 201 249 304 369
#     4  11  23  40  64  93 121 158 201 252 311 364
#
# _framework density 19.174927
#
# number of rings (size 3 to 8) (size 9 to 14) (size 15 to 20)
#    0.000    1.857    2.857    1.286    2.000    1.429 
#    0.000    0.000    0.000    0.000    0.000    0.000 
#    0.000    0.000    0.000    0.000    0.000    0.000 
#
# Total GULP energy -156135.318205 kJ/mol
# GULP energy per Si atom -5576.261364 kJ/mol
# Density = 1.913128 g / cm^3
# Si number density = 19.174927 Si / 1000 Ang^3
#
#
#
# Elastic Constant Matrix: (Units=GPa)
#
#
# Indices 1 2 3 4 5 6 
#
# 1 95.4846 28.7898 24.4606 -0.0032 8.0752 -0.0007
# 2 28.7898 98.6515 18.9185 -0.0046 4.3143 -0.0003
# 3 24.4606 18.9185 73.6553 0.0100 2.7525 -0.0099
# 4 -0.0032 -0.0046 0.0100 21.4101 -0.0086 -0.0554
# 5 8.0752 4.3143 2.7525 -0.0086 14.2550 -0.0050
# 6 -0.0007 -0.0003 -0.0099 -0.0554 -0.0050 19.4805
#
#
#
# Elastic Compliance Matrix: (Units=1/GPa)
#
#
# Indices 1 2 3 4 5 6 
#
# 1 0.012637 -0.002814 -0.003262 0.000001 -0.005677 -0.000003
# 2 -0.002814 0.011394 -0.001937 0.000002 -0.001480 -0.000001
# 3 -0.003262 -0.001937 0.015176 -0.000008 -0.000496 0.000007
# 4 0.000001 0.000002 -0.000008 0.046707 0.000029 0.000133
# 5 -0.005677 -0.001480 -0.000496 0.000029 0.073911 0.000019
# 6 -0.000003 -0.000001 0.000007 0.000133 0.000019 0.051334
#
#
# Mechanical properties :
#
#
# Convention : Reuss Voigt Hill
#
# Bulk Modulus (GPa) = 43.13700 45.79214 44.46457
# Shear Modulus (GPa) = 21.28460 24.07061 22.67761
#
# Velocity S-wave (km/s) = 3.33531 3.54689 3.44273
# Velocity P-wave (km/s) = 6.11374 6.38020 6.24839
#
# Compressibility (1/GPa) = 0.02318195
#
# Stress axis : x y z
#
# Youngs Moduli (GPa) = 79.13216 87.76467 65.89369
#
# Poissons Ratio (x) = 0.24698 0.21493
# Poissons Ratio (y) = 0.22269 0.12762
# Poissons Ratio (z) = 0.25811 0.16998
#
# Static dielectric constant tensor:
#      x y z
#    x 1.683120 0.000000 0.014510 
#    y 0.000000 1.715340 0.000000 
#    z 0.014510 0.000000 1.661670 
# 
# From -- ./inp_files/374217.got.cif
#   From: 2010.05.17/outbox.cif.g08.bks.cpg/sg12_188_cif.got.tgz:374217.got - 2010.06.03 13:09:07.
