data_PCOD9183119
_publ_section_title
;
Structure prediction by ZEFSAII (Michael W. Deem and Ramdas Pophale) SiO2 
 PCOD9183119
Probable space group: C 2/M
;
_chemical_formula_sum "Si O2"
_cell_formula_units_Z 44
_cell_length_a 17.278532
_cell_length_b 9.766652
_cell_length_c 12.228515
_cell_angle_alpha 90.000000
_cell_angle_beta 86.382241
_cell_angle_gamma 90.000000
_cell_volume 2059.491283
_symmetry_space_group_name_H-M "C 2/M"
_symmetry_group_IT_number 12
_symmetry_cell_setting 'monoclinic'
loop_
_space_group_symop_operation_xyz
x,y,z
-x,y,-z
-x,-y,-z
x,-y,z
1/2+x,1/2+y,z
1/2-x,1/2+y,-z
1/2-x,1/2-y,-z
1/2+x,1/2-y,z
loop_
_atom_site_type_symbol
_atom_site_label
_atom_site_fract_x
_atom_site_fract_y
_atom_site_fract_z
Si Si1 0.552573 0.837416 0.825514
Si Si2 0.500000 0.241486 0.500000
Si Si3 0.867545 0.842235 0.366881
Si Si4 0.407549 0.151201 0.713125
Si Si5 0.764410 0.155756 0.687706
Si Si6 0.306748 0.847409 0.060859
O O1 0.586776 0.725820 0.738769
O O2 0.460607 0.825949 0.815630
O O3 0.601961 0.813282 0.931120
O O4 0.568701 0.000000 0.796006
O O5 0.427703 0.327759 0.460852
O O6 0.466319 0.156064 0.604553
O O7 0.792181 0.746458 0.382425
O O8 0.847453 0.000000 0.349920
O O9 0.344760 0.267034 0.699008
O O10 0.371653 0.000000 0.722061
O O11 0.725089 0.150723 0.811547
O O12 0.772670 0.000000 0.646771
O O13 0.301134 0.000000 0.014765
O O14 0.250000 0.750000 0.000000
#
# Coordination Sequence:
#
# PCOD9183119 Si02
#       6
#     8   4   8   8   8   8
#     4   8  17  34  53  76 108 140 171 215 267 310
#     4  10  22  36  54  80 110 136 174 226 268 304
#     4  10  19  33  54  78 104 138 180 217 258 315
#     4  10  20  36  58  79 103 141 183 218 260 314
#     4  10  22  38  54  77 111 142 171 219 271 308
#     4   9  18  34  56  80 105 136 173 214 262 315
#
# _framework density 21.364498999999999
#
# number of rings (size 3 to 8) (size 9 to 14) (size 15 to 20)
#    0.000    2.545    0.000    2.727    0.000   10.182 
#    0.000    0.909    0.000    5.455    0.000    0.000 
#    0.000    0.000    0.000    0.000    0.000    0.000 
#
# Total GULP energy -122651.009482 kJ/mol
# GULP energy per Si atom -5575.045886 kJ/mol
# Density = 2.131587 g / cm^3
# Si number density = 21.364499 Si / 1000 Ang^3
#
#
#
# Elastic Constant Matrix: (Units=GPa)
#
#
# Indices 1 2 3 4 5 6 
#
# 1 123.2915 80.9437 35.9266 0.0000 50.1686 0.0000
# 2 80.9437 173.1296 37.3485 0.0000 44.7915 0.0000
# 3 35.9266 37.3485 71.9370 0.0000 22.4605 0.0000
# 4 0.0000 0.0000 0.0000 17.4868 0.0000 5.6152
# 5 50.1686 44.7915 22.4605 0.0000 52.7807 0.0000
# 6 0.0000 0.0000 0.0000 5.6152 0.0000 31.4445
#
#
#
# Elastic Compliance Matrix: (Units=1/GPa)
#
#
# Indices 1 2 3 4 5 6 
#
# 1 0.015813 -0.004155 -0.002477 0.000000 -0.010450 0.000000
# 2 -0.004155 0.008799 -0.001608 0.000000 -0.002833 0.000000
# 3 -0.002477 -0.001608 0.017081 0.000000 -0.003549 0.000000
# 4 0.000000 0.000000 0.000000 0.060665 0.000000 -0.010833
# 5 -0.010450 -0.002833 -0.003549 0.000000 0.032794 0.000000
# 6 0.000000 0.000000 0.000000 -0.010833 0.000000 0.033737
#
#
# Mechanical properties :
#
#
# Convention : Reuss Voigt Hill
#
# Bulk Modulus (GPa) = 39.66466 75.19954 57.43210
# Shear Modulus (GPa) = 25.80339 34.61835 30.21087
#
# Velocity S-wave (km/s) = 3.47907 4.02975 3.76449
# Velocity P-wave (km/s) = 5.89445 7.54497 6.77020
#
# Compressibility (1/GPa) = 0.02521136
#
# Stress axis : x y z
#
# Youngs Moduli (GPa) = 63.24006 113.65555 58.54289
#
# Poissons Ratio (x) = 0.47224 0.14502
# Poissons Ratio (y) = 0.26276 0.09416
# Poissons Ratio (z) = 0.15666 0.18281
#
# Static dielectric constant tensor:
#      x y z
#    x 1.831490 0.000000 -0.021340 
#    y 0.000000 1.724570 0.000000 
#    z -0.021340 0.000000 1.826210 
# 
# From -- ./inp_files/221072.got.cif
#   From: 2010.05.17/outbox.cif.g08.bks.cpg/sg12_111_cif.got.tgz:221072.got - 2010.06.03 13:09:07.
