data_PCOD9183105
_publ_section_title
;
Structure prediction by ZEFSAII (Michael W. Deem and Ramdas Pophale) SiO2 
 PCOD9183105
Probable space group: C 2/M
;
_chemical_formula_sum "Si O2"
_cell_formula_units_Z 56
_cell_length_a 13.421897
_cell_length_b 13.494036
_cell_length_c 29.240314
_cell_angle_alpha 90.000000
_cell_angle_beta 30.258295
_cell_angle_gamma 90.000000
_cell_volume 2668.586739
_symmetry_space_group_name_H-M "C 2/M"
_symmetry_group_IT_number 12
_symmetry_cell_setting 'monoclinic'
loop_
_space_group_symop_operation_xyz
x,y,z
-x,y,-z
-x,-y,-z
x,-y,z
1/2+x,1/2+y,z
1/2-x,1/2+y,-z
1/2-x,1/2-y,-z
1/2+x,1/2-y,z
loop_
_atom_site_type_symbol
_atom_site_label
_atom_site_fract_x
_atom_site_fract_y
_atom_site_fract_z
Si Si1 0.725204 0.386894 0.536769
Si Si2 0.625836 0.382474 0.264764
Si Si3 0.385949 0.819824 0.593583
Si Si4 0.893789 0.104217 0.590812
Si Si5 0.008427 0.891036 0.212403
Si Si6 0.090960 0.880281 0.015598
Si Si7 0.996731 0.736132 0.865825
O O1 0.789539 0.500000 0.521846
O O2 0.589483 0.348886 0.632240
O O3 0.571193 0.392728 0.556709
O O4 0.923339 0.326899 0.448803
O O5 0.637513 0.500000 0.270794
O O6 0.640036 0.371338 0.204848
O O7 0.797991 0.321924 0.219881
O O8 0.500000 0.838418 0.500000
O O9 0.291541 0.710189 0.632672
O O10 0.214921 0.890127 0.678977
O O11 0.000000 0.101806 0.500000
O O12 0.781709 0.000000 0.641748
O O13 0.031984 0.811293 0.164270
O O14 0.054335 0.000000 0.176049
O O15 0.995468 0.805118 0.091317
O O16 0.072464 0.000000 0.032136
O O17 0.319179 0.843904 0.931686
O O18 0.000000 0.864635 0.000000
#
# Coordination Sequence:
#
# PCOD9183105 Si02
#       7
#     8   8   8   8   8   8   8
#     4  10  19  33  54  77 107 153 205 248 288 340
#     4  10  21  37  59  87 121 160 202 244 290 350
#     4  11  20  34  57  79 110 160 209 245 290 340
#     4   9  19  33  48  70 100 136 186 251 305 342
#     4  11  23  38  58  89 126 158 200 256 298 338
#     4  10  22  42  68  93 121 155 192 235 293 373
#     4  11  22  39  64  94 123 155 193 240 302 357
#
# _framework density 20.984891000000001
#
# number of rings (size 3 to 8) (size 9 to 14) (size 15 to 20)
#    0.000    1.714    1.429    3.429    0.000    0.571 
#    0.000    0.714    0.000    8.571    0.000    0.000 
#    0.000    0.000    0.000    0.000    0.000    0.000 
#
# Total GULP energy -156095.957814 kJ/mol
# GULP energy per Si atom -5574.855636 kJ/mol
# Density = 2.093713 g / cm^3
# Si number density = 20.984891 Si / 1000 Ang^3
#
#
#
# Elastic Constant Matrix: (Units=GPa)
#
#
# Indices 1 2 3 4 5 6 
#
# 1 69.9726 23.1267 -7.8741 -0.0001 13.6333 0.0000
# 2 23.1267 122.1649 8.6836 -0.0006 -3.6615 -0.0002
# 3 -7.8741 8.6836 30.9006 -0.0016 -3.8188 -0.0007
# 4 -0.0001 -0.0006 -0.0016 22.2835 -0.0002 -4.4629
# 5 13.6333 -3.6615 -3.8188 -0.0002 22.4275 -0.0001
# 6 0.0000 -0.0002 -0.0007 -4.4629 -0.0001 32.1248
#
#
#
# Elastic Compliance Matrix: (Units=1/GPa)
#
#
# Indices 1 2 3 4 5 6 
#
# 1 0.018303 -0.004112 0.004455 0.000000 -0.011039 0.000000
# 2 -0.004112 0.009298 -0.003232 0.000000 0.003467 0.000000
# 3 0.004455 -0.003232 0.034736 0.000003 0.002679 0.000001
# 4 0.000000 0.000000 0.000003 0.046161 0.000001 0.006413
# 5 -0.011039 0.003467 0.002679 0.000001 0.052320 0.000000
# 6 0.000000 0.000000 0.000001 0.006413 0.000000 0.032019
#
#
# Mechanical properties :
#
#
# Convention : Reuss Voigt Hill
#
# Bulk Modulus (GPa) = 17.68084 30.10117 23.89100
# Shear Modulus (GPa) = 22.99181 28.64063 25.81622
#
# Velocity S-wave (km/s) = 3.31363 3.69836 3.51127
# Velocity P-wave (km/s) = 4.80458 5.71073 5.27714
#
# Compressibility (1/GPa) = 0.05655838
#
# Stress axis : x y z
#
# Youngs Moduli (GPa) = 54.63707 107.55197 28.78818
#
# Poissons Ratio (x) = 0.44229 -0.12826
# Poissons Ratio (y) = 0.22469 0.09305
# Poissons Ratio (z) = -0.24343 0.34763
#
# Static dielectric constant tensor:
#      x y z
#    x 1.880320 0.000000 0.030790 
#    y 0.000000 1.812140 0.000000 
#    z 0.030790 0.000000 1.728580 
# 
# From -- ./inp_files/374218.got.cif
#   From: 2010.05.17/outbox.cif.g08.bks.cpg/sg12_188_cif.got.tgz:374218.got - 2010.06.03 13:09:07.
