data_PCOD9183220
_publ_section_title
;
Structure prediction by ZEFSAII (Michael W. Deem and Ramdas Pophale) SiO2 
 PCOD9183220
Probable space group: C 2/M
;
_chemical_formula_sum "Si O2"
_cell_formula_units_Z 56
_cell_length_a 20.703701
_cell_length_b 7.480611
_cell_length_c 27.405266
_cell_angle_alpha 90.000000
_cell_angle_beta 37.863778
_cell_angle_gamma 90.000000
_cell_volume 2605.170891
_symmetry_space_group_name_H-M "C 2/M"
_symmetry_group_IT_number 12
_symmetry_cell_setting 'monoclinic'
loop_
_space_group_symop_operation_xyz
x,y,z
-x,y,-z
-x,-y,-z
x,-y,z
1/2+x,1/2+y,z
1/2-x,1/2+y,-z
1/2-x,1/2-y,-z
1/2+x,1/2-y,z
loop_
_atom_site_type_symbol
_atom_site_label
_atom_site_fract_x
_atom_site_fract_y
_atom_site_fract_z
Si Si1 0.842181 0.714747 0.484200
Si Si2 0.993687 0.289472 0.058349
Si Si3 0.872589 0.714136 0.932287
Si Si4 0.728460 0.283172 0.758407
Si Si5 0.505849 0.216511 0.235765
Si Si6 0.267039 0.290675 0.355324
Si Si7 0.063783 0.281635 0.307944
O O1 0.849506 0.500000 0.483490
O O2 0.750000 0.750000 0.500000
O O3 0.808309 0.784990 0.557621
O O4 0.955236 0.778601 0.397925
O O5 0.018146 0.500000 0.039198
O O6 0.878431 0.272263 0.150851
O O7 0.076382 0.214377 0.048329
O O8 0.000000 0.213007 0.000000
O O9 0.887298 0.500000 0.923801
O O10 0.934874 0.781811 0.847778
O O11 0.750000 0.750000 0.000000
O O12 0.727118 0.500000 0.758278
O O13 0.733207 0.217406 0.699544
O O14 0.831738 0.224494 0.726225
O O15 0.385090 0.274637 0.305359
O O16 0.559548 0.274350 0.254030
O O17 0.506064 0.000000 0.235367
O O18 0.240284 0.500000 0.366412
O O19 0.063563 0.500000 0.308710
#
# Coordination Sequence:
#
# PCOD9183220 Si02
#       7
#     8   8   8   8   8   8   8
#     4  10  19  33  54  80 110 142 179 223 269 316
#     4  10  22  40  58  79 109 144 180 220 271 324
#     4  10  22  37  56  82 110 140 178 223 270 322
#     4  10  21  37  56  80 110 143 181 221 267 322
#     4  10  19  35  57  78 105 145 183 217 265 324
#     4  10  20  33  54  83 109 139 180 225 267 314
#     4   9  19  34  54  80 108 141 180 221 266 317
#
# _framework density 21.495709999999999
#
# number of rings (size 3 to 8) (size 9 to 14) (size 15 to 20)
#    0.000    2.143    2.857    0.000    2.000    2.000 
#    0.000    4.286    0.000    0.000    0.000    3.000 
#    0.000    0.000    0.000    0.000    0.000    0.000 
#
# Total GULP energy -156426.019364 kJ/mol
# GULP energy per Si atom -5586.643549 kJ/mol
# Density = 2.144678 g / cm^3
# Si number density = 21.495710 Si / 1000 Ang^3
#
#
#
# Elastic Constant Matrix: (Units=GPa)
#
#
# Indices 1 2 3 4 5 6 
#
# 1 203.4244 -3.1882 91.2217 -0.0040 17.4792 0.0089
# 2 -3.1882 58.3928 -4.5743 -0.0127 9.2814 0.0088
# 3 91.2217 -4.5743 132.6389 0.0005 21.7511 0.0009
# 4 -0.0040 -0.0127 0.0005 9.5192 0.0016 -12.2073
# 5 17.4792 9.2814 21.7511 0.0016 47.2929 -0.0037
# 6 0.0089 0.0088 0.0009 -12.2073 -0.0037 8.9680
#
#
#
# Elastic Compliance Matrix: (Units=1/GPa)
#
#
# Indices 1 2 3 4 5 6 
#
# 1 0.007116 0.000079 -0.004821 0.000007 -0.000428 0.000003
# 2 0.000079 0.017879 0.001236 0.000000 -0.004106 -0.000019
# 3 -0.004821 0.001236 0.011513 -0.000001 -0.003756 -0.000001
# 4 0.000007 0.000000 -0.000001 -0.140892 -0.000012 -0.191785
# 5 -0.000428 -0.004106 -0.003756 -0.000012 0.023836 -0.000002
# 6 0.000003 -0.000019 -0.000001 -0.191785 -0.000002 -0.149552
#
#
# Mechanical properties :
#
#
# Convention : Reuss Voigt Hill
#
# Bulk Modulus (GPa) = 33.90313 62.37494 48.13904
# Shear Modulus (GPa) = -23.44601 33.88914 5.22157
#
# Velocity S-wave (km/s) = -3.30620 3.97489 1.56025
# Velocity P-wave (km/s) = 1.10980 7.08144 5.06845
#
# Compressibility (1/GPa) = 0.02949580
#
# Stress axis : x y z
#
# Youngs Moduli (GPa) = 140.53513 55.93092 86.85604
#
# Poissons Ratio (x) = -0.00441 0.41872
# Poissons Ratio (y) = -0.01109 -0.10733
# Poissons Ratio (z) = 0.67749 -0.06911
#
# Static dielectric constant tensor:
#      x y z
#    x 1.758880 -0.000010 0.033830 
#    y -0.000010 1.786350 0.000010 
#    z 0.033830 0.000010 1.747090 
# 
# From -- ./inp_files/223141.got.cif
#   From: 2010.05.17/outbox.cif.g08.bks.cpg/sg12_112_cif.got.tgz:223141.got - 2010.06.03 13:09:07.
