data_PCOD9183201
_publ_section_title
;
Structure prediction by ZEFSAII (Michael W. Deem and Ramdas Pophale) SiO2 
 PCOD9183201
Probable space group: C 2/M
;
_chemical_formula_sum "Si O2"
_cell_formula_units_Z 64
_cell_length_a 22.425651
_cell_length_b 7.560761
_cell_length_c 24.171013
_cell_angle_alpha 90.000000
_cell_angle_beta 140.537514
_cell_angle_gamma 90.000000
_cell_volume 2604.778332
_symmetry_space_group_name_H-M "C 2/M"
_symmetry_group_IT_number 12
_symmetry_cell_setting 'monoclinic'
loop_
_space_group_symop_operation_xyz
x,y,z
-x,y,-z
-x,-y,-z
x,-y,z
1/2+x,1/2+y,z
1/2-x,1/2+y,-z
1/2-x,1/2-y,-z
1/2+x,1/2-y,z
loop_
_atom_site_type_symbol
_atom_site_label
_atom_site_fract_x
_atom_site_fract_y
_atom_site_fract_z
Si Si1 0.918569 0.785226 0.019280
Si Si2 0.652629 0.701502 0.561297
Si Si3 0.081639 0.703589 0.392091
Si Si4 0.371730 0.713776 0.866139
Si Si5 0.374252 0.699434 0.223999
Si Si6 0.072285 0.783168 0.852837
Si Si7 0.175127 0.204974 0.694609
Si Si8 0.143624 0.795189 0.323407
O O1 0.891542 0.725546 0.061174
O O2 0.026784 0.736332 0.084668
O O3 0.914761 0.000000 0.016855
O O4 0.864410 0.728519 0.925276
O O5 0.618377 0.500000 0.536531
O O6 0.612864 0.787895 0.477691
O O7 0.632253 0.780135 0.607484
O O8 0.765258 0.702005 0.635013
O O9 0.065186 0.500000 0.365625
O O10 0.150536 0.780439 0.395053
O O11 0.985776 0.807714 0.314151
O O12 0.367706 0.500000 0.861443
O O13 0.287206 0.789227 0.770799
O O14 0.334987 0.500000 0.193699
O O15 0.369011 0.779111 0.158654
O O16 0.341673 0.790345 0.257373
O O17 0.961598 0.732780 0.767886
O O18 0.073105 0.000000 0.851067
O O19 0.144007 0.000000 0.675791
O O20 0.149466 0.000000 0.310394
#
# Coordination Sequence:
#
# PCOD9183201 Si02
#       8
#     8   8   8   8   8   8   8   8
#     4   8  14  27  49  79 105 129 162 205 254 304
#     4  11  22  35  51  73 101 135 171 211 257 309
#     4  11  22  36  54  77 103 131 165 211 258 304
#     4   9  17  30  51  76 105 133 163 206 256 309
#     4   9  19  37  55  71  96 136 177 214 254 302
#     4   8  14  27  51  75  96 127 170 208 244 296
#     4  10  22  37  52  71 101 137 173 213 261 304
#     4  10  19  33  54  80 107 135 166 206 253 304
#
# _framework density 24.570228
#
# number of rings (size 3 to 8) (size 9 to 14) (size 15 to 20)
#    0.000    2.500    0.000    4.500    0.000    3.000 
#    0.000    4.375    0.000    3.750    0.000    0.000 
#    0.000    0.000    0.000    0.000    0.000    0.000 
#
# Total GULP energy -178665.910068 kJ/mol
# GULP energy per Si atom -5583.309690 kJ/mol
# Density = 2.451431 g / cm^3
# Si number density = 24.570228 Si / 1000 Ang^3
#
#
#
# Elastic Constant Matrix: (Units=GPa)
#
#
# Indices 1 2 3 4 5 6 
#
# 1 82.8228 -2.8435 42.8960 0.0001 -49.3765 -0.0001
# 2 -2.8435 76.6678 -5.6629 0.0001 -0.8303 0.0004
# 3 42.8960 -5.6629 85.0993 -0.0001 -49.0981 0.0001
# 4 0.0001 0.0001 -0.0001 0.9407 0.0000 11.4853
# 5 -49.3765 -0.8303 -49.0981 0.0000 50.7071 0.0000
# 6 -0.0001 0.0004 0.0001 11.4853 0.0000 -0.2980
#
#
#
# Elastic Compliance Matrix: (Units=1/GPa)
#
#
# Indices 1 2 3 4 5 6 
#
# 1 0.029559 0.001760 0.004170 0.000000 0.032850 0.000000
# 2 0.001760 0.013343 0.002528 -0.000001 0.004380 0.000000
# 3 0.004170 0.002528 0.027606 0.000000 0.030832 0.000000
# 4 0.000000 -0.000001 0.000000 0.002254 0.000000 0.086884
# 5 0.032850 0.004380 0.030832 0.000000 0.081634 0.000000
# 6 0.000000 0.000000 0.000000 0.086884 0.000000 -0.007116
#
#
# Mechanical properties :
#
#
# Convention : Reuss Voigt Hill
#
# Bulk Modulus (GPa) = 11.43871 34.81879 23.12875
# Shear Modulus (GPa) = 31.34710 24.28329 27.81520
#
# Velocity S-wave (km/s) = 3.57573 3.14717 3.36827
# Velocity P-wave (km/s) = 4.65977 5.23528 4.95588
#
# Compressibility (1/GPa) = 0.08742245
#
# Stress axis : x y z
#
# Youngs Moduli (GPa) = 33.83114 74.94738 36.22466
#
# Poissons Ratio (x) = -0.13191 -0.15106
# Poissons Ratio (y) = -0.05955 -0.09156
# Poissons Ratio (z) = -0.14108 -0.18944
#
# Static dielectric constant tensor:
#      x y z
#    x 2.029360 0.000000 -0.049980 
#    y 0.000000 1.904700 0.000000 
#    z -0.049980 0.000000 1.925210 
# 
# From -- ./inp_files/346179.got.cif
#   From: 2010.05.17/outbox.cif.g08.bks.cpg/sg12_174_cif.got.tgz:346179.got - 2010.06.03 13:09:07.
