data_PCOD9183978
_publ_section_title
;
Structure prediction by ZEFSAII (Michael W. Deem and Ramdas Pophale) SiO2 
 PCOD9183978
Probable space group: C 2/M
;
_chemical_formula_sum "Si O2"
_cell_formula_units_Z 64
_cell_length_a 27.033186
_cell_length_b 14.053220
_cell_length_c 9.470048
_cell_angle_alpha 90.000000
_cell_angle_beta 116.765582
_cell_angle_gamma 90.000000
_cell_volume 3212.232146
_symmetry_space_group_name_H-M "C 2/M"
_symmetry_group_IT_number 12
_symmetry_cell_setting 'monoclinic'
loop_
_space_group_symop_operation_xyz
x,y,z
-x,y,-z
-x,-y,-z
x,-y,z
1/2+x,1/2+y,z
1/2-x,1/2+y,-z
1/2-x,1/2-y,-z
1/2+x,1/2-y,z
loop_
_atom_site_type_symbol
_atom_site_label
_atom_site_fract_x
_atom_site_fract_y
_atom_site_fract_z
Si Si1 0.368024 0.608457 0.628321
Si Si2 0.701377 0.110655 0.035732
Si Si3 0.033512 0.293890 0.834007
Si Si4 0.328042 0.391902 0.277042
Si Si5 0.009055 0.109181 0.347047
Si Si6 0.871698 0.707268 0.823547
Si Si7 0.376952 0.804528 0.280102
Si Si8 0.915574 0.611022 0.623634
O O1 0.363117 0.500000 0.676116
O O2 0.325272 0.621827 0.443573
O O3 0.427308 0.615705 0.623304
O O4 0.364467 0.689127 0.742726
O O5 0.767322 0.116692 0.132709
O O6 0.673323 0.177288 0.118469
O O7 0.685562 0.000000 0.039240
O O8 0.676916 0.144655 0.854623
O O9 0.073028 0.330460 0.759549
O O10 0.022995 0.183028 0.790636
O O11 0.975197 0.346606 0.744648
O O12 0.069094 0.301394 0.021155
O O13 0.349202 0.500000 0.281701
O O14 0.365840 0.308443 0.264711
O O15 0.000000 0.135915 0.500000
O O16 0.991339 0.000000 0.308878
O O17 0.873946 0.633736 0.697533
O O18 0.393175 0.836517 0.456419
O O19 0.920528 0.500000 0.602794
#
# Coordination Sequence:
#
# PCOD9183978 Si02
#       8
#     8   8   8   8   8   8   8   8
#     4  10  20  36  59  87 121 159 198 246 302 359
#     4  10  23  41  63  89 119 160 201 248 306 355
#     4  11  23  36  57  85 119 157 198 240 295 357
#     4  10  20  39  67  92 118 154 198 246 308 367
#     4  10  19  33  56  86 119 156 197 241 295 360
#     4  11  23  40  58  85 122 159 204 250 295 353
#     4  11  22  40  62  90 122 152 198 252 302 354
#     4  12  24  39  60  85 118 161 206 248 290 349
#
# _framework density 19.923839999999998
#
# number of rings (size 3 to 8) (size 9 to 14) (size 15 to 20)
#    0.000    1.375    2.500    3.375    0.000    6.500 
#    0.000    3.125    0.000    0.750    0.000    0.000 
#    0.000    0.000    0.000    0.000    0.000    0.000 
#
# Total GULP energy -178773.193162 kJ/mol
# GULP energy per Si atom -5586.662286 kJ/mol
# Density = 1.987849 g / cm^3
# Si number density = 19.923840 Si / 1000 Ang^3
#
#
#
# Elastic Constant Matrix: (Units=GPa)
#
#
# Indices 1 2 3 4 5 6 
#
# 1 22.9138 16.3500 4.6054 0.0000 2.0901 0.0000
# 2 16.3500 100.9208 13.8193 0.0000 1.7806 0.0000
# 3 4.6054 13.8193 63.5741 0.0000 8.0296 0.0000
# 4 0.0000 0.0000 0.0000 12.7626 0.0000 -4.0718
# 5 2.0901 1.7806 8.0296 0.0000 21.7349 0.0000
# 6 0.0000 0.0000 0.0000 -4.0718 0.0000 21.7991
#
#
#
# Elastic Compliance Matrix: (Units=1/GPa)
#
#
# Indices 1 2 3 4 5 6 
#
# 1 0.049838 -0.007811 -0.001456 0.000000 -0.003615 0.000000
# 2 -0.007811 0.011437 -0.001990 0.000000 0.000549 0.000000
# 3 -0.001456 -0.001990 0.017024 0.000000 -0.005986 0.000000
# 4 0.000000 0.000000 0.000000 0.083319 0.000000 0.015563
# 5 -0.003615 0.000549 -0.005986 0.000000 0.048523 0.000000
# 6 0.000000 0.000000 0.000000 0.015563 0.000000 0.048781
#
#
# Mechanical properties :
#
#
# Convention : Reuss Voigt Hill
#
# Bulk Modulus (GPa) = 17.92585 28.55090 23.23837
# Shear Modulus (GPa) = 16.66507 21.43492 19.04999
#
# Velocity S-wave (km/s) = 2.89526 3.28356 3.09551
# Velocity P-wave (km/s) = 4.49371 5.36068 4.94622
#
# Compressibility (1/GPa) = 0.05578536
#
# Stress axis : x y z
#
# Youngs Moduli (GPa) = 20.06519 87.43588 58.74162
#
# Poissons Ratio (x) = 0.68296 0.08552
# Poissons Ratio (y) = 0.15673 0.11687
# Poissons Ratio (z) = 0.02921 0.17396
#
# Static dielectric constant tensor:
#      x y z
#    x 1.700170 0.000000 0.013030 
#    y 0.000000 1.705700 0.000000 
#    z 0.013030 0.000000 1.702830 
# 
# From -- ./inp_files/104506.got.cif
#   From: 2010.05.17/outbox.cif.g08.bks.cpg/sg12_53_cif.got.tgz:104506.got - 2010.06.03 13:09:07.
