data_PCOD9183694
_publ_section_title
;
Structure prediction by ZEFSAII (Michael W. Deem and Ramdas Pophale) SiO2 
 PCOD9183694
Probable space group: C 2/M
;
_chemical_formula_sum "Si O2"
_cell_formula_units_Z 52
_cell_length_a 28.817178
_cell_length_b 21.785071
_cell_length_c 5.158654
_cell_angle_alpha 90.000000
_cell_angle_beta 139.670519
_cell_angle_gamma 90.000000
_cell_volume 2095.913415
_symmetry_space_group_name_H-M "C 2/M"
_symmetry_group_IT_number 12
_symmetry_cell_setting 'monoclinic'
loop_
_space_group_symop_operation_xyz
x,y,z
-x,y,-z
-x,-y,-z
x,-y,z
1/2+x,1/2+y,z
1/2-x,1/2+y,-z
1/2-x,1/2-y,-z
1/2+x,1/2-y,z
loop_
_atom_site_type_symbol
_atom_site_label
_atom_site_fract_x
_atom_site_fract_y
_atom_site_fract_z
Si Si1 0.802137 0.065448 0.446889
Si Si2 0.947871 0.500000 0.528376
Si Si3 0.702220 0.793346 0.497809
Si Si4 0.202179 0.568298 0.517891
Si Si5 0.156658 0.815064 0.590951
Si Si6 0.049546 0.233356 0.464496
Si Si7 0.551835 0.132267 0.472096
O O1 0.763051 0.068623 0.555610
O O2 0.851045 0.123799 0.604401
O O3 0.839877 0.000000 0.585488
O O4 0.741248 0.066718 0.962957
O O5 0.000000 0.500000 0.500000
O O6 0.908789 0.566203 0.374583
O O7 0.000000 0.500000 0.000000
O O8 0.750000 0.750000 0.500000
O O9 0.669042 0.863127 0.330921
O O10 0.645018 0.745723 0.369572
O O11 0.761762 0.809089 0.968417
O O12 0.164447 0.500000 0.340313
O O13 0.109854 0.815206 0.649811
O O14 0.000000 0.223872 0.500000
O O15 0.087562 0.300654 0.630333
O O16 0.000000 0.232090 0.000000
O O17 0.500000 0.130838 0.500000
O O18 0.500000 0.133156 0.000000
#
# Coordination Sequence:
#
# PCOD9183694 Si02
#       7
#     8   4   8   8   8   8   8
#     4   9  17  30  50  77 105 139 179 215 261 328
#     4   8  12  20  40  62  82 110 154 208 242 286
#     4  10  19  33  55  85 111 141 179 226 279 322
#     4   9  17  30  49  76 110 142 173 213 266 327
#     4  10  21  34  55  82 112 142 182 229 272 326
#     4  10  22  36  53  76 104 142 180 221 268 317
#     4   8  14  26  42  65  87 116 161 204 247 292
#
# _framework density 24.810186999999999
#
# number of rings (size 3 to 8) (size 9 to 14) (size 15 to 20)
#    0.000    2.769    1.538    0.000    2.154    0.000 
#    0.000    0.000    1.692    0.923    0.000    0.000 
#    0.000    0.000    0.000    0.000    0.000    0.000 
#
# Total GULP energy -145105.049889 kJ/mol
# GULP energy per Si atom -5580.963457 kJ/mol
# Density = 2.475372 g / cm^3
# Si number density = 24.810187 Si / 1000 Ang^3
#
#
#
# Elastic Constant Matrix: (Units=GPa)
#
#
# Indices 1 2 3 4 5 6 
#
# 1 138.4938 42.2922 18.7282 0.0000 -16.1930 0.0000
# 2 42.2922 199.0145 3.1733 0.0000 10.5369 0.0000
# 3 18.7282 3.1733 48.7348 0.0000 -15.8452 0.0000
# 4 0.0000 0.0000 0.0000 27.0202 0.0000 -6.4728
# 5 -16.1930 10.5369 -15.8452 0.0000 37.4658 0.0000
# 6 0.0000 0.0000 0.0000 -6.4728 0.0000 28.8896
#
#
#
# Elastic Compliance Matrix: (Units=1/GPa)
#
#
# Indices 1 2 3 4 5 6 
#
# 1 0.008483 -0.001948 -0.002044 0.000000 0.003350 0.000000
# 2 -0.001948 0.005584 -0.000463 0.000000 -0.002608 0.000000
# 3 -0.002044 -0.000463 0.024452 0.000000 0.009588 0.000000
# 4 0.000000 0.000000 0.000000 0.039108 0.000000 0.008762
# 5 0.003350 -0.002608 0.009588 0.000000 0.032927 0.000000
# 6 0.000000 0.000000 0.000000 0.008762 0.000000 0.036578
#
#
# Mechanical properties :
#
#
# Convention : Reuss Voigt Hill
#
# Bulk Modulus (GPa) = 33.77219 57.18117 45.47668
# Shear Modulus (GPa) = 30.13626 40.14509 35.14067
#
# Velocity S-wave (km/s) = 3.48900 4.02691 3.76757
# Velocity P-wave (km/s) = 5.46558 6.68721 6.10702
#
# Compressibility (1/GPa) = 0.02961016
#
# Stress axis : x y z
#
# Youngs Moduli (GPa) = 117.87793 179.07989 40.89588
#
# Poissons Ratio (x) = 0.34877 0.08360
# Poissons Ratio (y) = 0.22957 0.01894
# Poissons Ratio (z) = 0.24096 0.08294
#
# Static dielectric constant tensor:
#      x y z
#    x 1.947850 0.000000 -0.061380 
#    y 0.000000 2.122090 0.000000 
#    z -0.061380 0.000000 2.072850 
# 
# From -- ./inp_files/29354.got.cif
#   From: 2010.05.17/outbox.cif.g08.bks.cpg/sg12_15_cif.got.tgz:29354.got - 2010.06.03 13:09:07.
