data_PCOD9183905
_publ_section_title
;
Structure prediction by ZEFSAII (Michael W. Deem and Ramdas Pophale) SiO2 
 PCOD9183905
Probable space group: C 2/M
;
_chemical_formula_sum "Si O2"
_cell_formula_units_Z 44
_cell_length_a 29.837959
_cell_length_b 8.115224
_cell_length_c 22.696010
_cell_angle_alpha 90.000000
_cell_angle_beta 18.579226
_cell_angle_gamma 90.000000
_cell_volume 1751.000399
_symmetry_space_group_name_H-M "C 2/M"
_symmetry_group_IT_number 12
_symmetry_cell_setting 'monoclinic'
loop_
_space_group_symop_operation_xyz
x,y,z
-x,y,-z
-x,-y,-z
x,-y,z
1/2+x,1/2+y,z
1/2-x,1/2+y,-z
1/2-x,1/2-y,-z
1/2+x,1/2-y,z
loop_
_atom_site_type_symbol
_atom_site_label
_atom_site_fract_x
_atom_site_fract_y
_atom_site_fract_z
Si Si1 0.603641 0.693339 0.758907
Si Si2 0.639301 0.692638 0.294134
Si Si3 0.916888 0.324346 0.757129
Si Si4 0.147898 0.686180 0.863786
Si Si5 0.912101 0.191407 0.356027
Si Si6 0.800958 0.500000 0.628216
O O1 0.569873 0.500000 0.808443
O O2 0.772872 0.710285 0.550208
O O3 0.562391 0.741753 0.743205
O O4 0.514306 0.804140 0.914257
O O5 0.500000 0.765348 0.500000
O O6 0.610687 0.500000 0.320031
O O7 0.666423 0.764108 0.195786
O O8 0.764461 0.710933 0.184246
O O9 0.859183 0.500000 0.850434
O O10 0.956971 0.217532 0.763689
O O11 0.071418 0.361446 0.537623
O O12 0.184792 0.500000 0.796843
O O13 0.188007 0.850712 0.778953
O O14 0.872354 0.000000 0.405109
#
# Coordination Sequence:
#
# PCOD9183905 Si02
#       6
#     8   8   8   8   8   4
#     4  10  21  39  64  86 115 154 201 251 297 357
#     4  10  19  33  56  83 116 155 198 239 288 356
#     4  10  21  34  56  86 116 159 191 244 291 350
#     4  11  22  37  60  91 121 159 201 244 296 353
#     4  10  21  39  62  87 115 154 201 249 299 355
#     4  10  22  37  59  90 124 160 195 249 290 356
#
# _framework density 25.128492999999999
#
# number of rings (size 3 to 8) (size 9 to 14) (size 15 to 20)
#    0.545    1.273    2.727    1.636    1.273    4.000 
#    0.000    2.727    0.000    2.182    0.000    0.000 
#    0.000    0.000    0.000    0.000    0.000    0.000 
#
# Total GULP energy -122496.512951 kJ/mol
# GULP energy per Si atom -5568.023316 kJ/mol
# Density = 2.507130 g / cm^3
# Si number density = 25.128493 Si / 1000 Ang^3
#
#
#
# Elastic Constant Matrix: (Units=GPa)
#
#
# Indices 1 2 3 4 5 6 
#
# 1 113.1857 28.7611 4.0266 0.0007 -15.3302 0.0003
# 2 28.7611 93.8458 26.5298 -0.0023 0.9544 -0.0002
# 3 4.0266 26.5298 90.2792 -0.0021 12.3873 -0.0002
# 4 0.0007 -0.0023 -0.0021 12.7041 0.0002 -3.4452
# 5 -15.3302 0.9544 12.3873 0.0002 29.9020 0.0001
# 6 0.0003 -0.0002 -0.0002 -3.4452 0.0001 22.0538
#
#
#
# Elastic Compliance Matrix: (Units=1/GPa)
#
#
# Indices 1 2 3 4 5 6 
#
# 1 0.010401 -0.003160 -0.000298 -0.000001 0.005557 0.000000
# 2 -0.003160 0.012616 -0.003487 0.000002 -0.000578 0.000000
# 3 -0.000298 -0.003487 0.012851 0.000002 -0.005365 0.000000
# 4 -0.000001 0.000002 0.000002 0.082197 -0.000002 0.012841
# 5 0.005557 -0.000578 -0.005365 -0.000002 0.038532 -0.000001
# 6 0.000000 0.000000 0.000000 0.012841 -0.000001 0.047350
#
#
# Mechanical properties :
#
#
# Convention : Reuss Voigt Hill
#
# Bulk Modulus (GPa) = 45.49935 46.21618 45.85777
# Shear Modulus (GPa) = 22.20616 28.79820 25.50218
#
# Velocity S-wave (km/s) = 2.97594 3.38899 3.18916
# Velocity P-wave (km/s) = 5.47305 5.80909 5.64357
#
# Compressibility (1/GPa) = 0.02197833
#
# Stress axis : x y z
#
# Youngs Moduli (GPa) = 96.14251 79.26505 77.81558
#
# Poissons Ratio (x) = 0.25048 0.02317
# Poissons Ratio (y) = 0.30381 0.27135
# Poissons Ratio (z) = 0.02863 0.27640
#
# Static dielectric constant tensor:
#      x y z
#    x 2.094240 0.000000 0.011880 
#    y 0.000000 1.983580 0.000010 
#    z 0.011880 0.000010 1.961780 
# 
# From -- ./inp_files/353183.got.cif
#   From: 2010.05.17/outbox.cif.g08.bks.cpg/sg12_177_cif.got.tgz:353183.got - 2010.06.03 13:09:07.
