data_PCOD9183688
_publ_section_title
;
Structure prediction by ZEFSAII (Michael W. Deem and Ramdas Pophale) SiO2 
 PCOD9183688
Probable space group: C 2/M
;
_chemical_formula_sum "Si O2"
_cell_formula_units_Z 48
_cell_length_a 28.606363
_cell_length_b 21.077678
_cell_length_c 8.736178
_cell_angle_alpha 90.000000
_cell_angle_beta 151.004835
_cell_angle_gamma 90.000000
_cell_volume 2553.359654
_symmetry_space_group_name_H-M "C 2/M"
_symmetry_group_IT_number 12
_symmetry_cell_setting 'monoclinic'
loop_
_space_group_symop_operation_xyz
x,y,z
-x,y,-z
-x,-y,-z
x,-y,z
1/2+x,1/2+y,z
1/2-x,1/2+y,-z
1/2-x,1/2-y,-z
1/2+x,1/2-y,z
loop_
_atom_site_type_symbol
_atom_site_label
_atom_site_fract_x
_atom_site_fract_y
_atom_site_fract_z
Si Si1 0.732905 0.570516 0.858127
Si Si2 0.959650 0.901386 0.550538
Si Si3 0.687178 0.807272 0.749214
Si Si4 0.849287 0.926845 0.717638
Si Si5 0.790244 0.193979 0.717663
Si Si6 0.490093 0.742194 0.636797
O O1 0.778724 0.500000 0.980885
O O2 0.641541 0.567058 0.708474
O O3 0.681549 0.584343 0.546859
O O4 0.796424 0.628747 0.103889
O O5 0.000000 0.919344 0.500000
O O6 0.937032 0.826095 0.478574
O O7 0.038969 0.916174 0.909335
O O8 0.730947 0.811840 0.704678
O O9 0.574835 0.785084 0.438405
O O10 0.750000 0.750000 0.000000
O O11 0.790396 0.875377 0.644203
O O12 0.827431 0.000000 0.689897
O O13 0.750000 0.250000 0.500000
O O14 0.901880 0.216195 0.035463
O O15 0.500000 0.775171 0.500000
#
# Coordination Sequence:
#
# PCOD9183688 Si02
#       6
#     8   8   8   8   8   8
#     4  11  22  36  57  84 118 162 205 249 302 361
#     4  10  19  33  55  84 120 158 196 242 309 375
#     4  12  21  38  63  86 119 159 203 247 299 357
#     4  10  22  37  54  83 123 158 196 251 310 371
#     4  11  24  39  61  93 123 158 203 247 309 364
#     4  10  20  36  60  88 120 157 197 249 299 352
#
# _framework density 18.798762
#
# number of rings (size 3 to 8) (size 9 to 14) (size 15 to 20)
#    0.000    1.333    3.333    4.000    0.000    5.333 
#    0.000    0.000    0.000    1.500    0.000    2.333 
#    0.000    0.000    0.000    0.000    0.000    0.000 
#
# Total GULP energy -133624.694167 kJ/mol
# GULP energy per Si atom -5567.695590 kJ/mol
# Density = 1.875598 g / cm^3
# Si number density = 18.798762 Si / 1000 Ang^3
#
#
#
# Elastic Constant Matrix: (Units=GPa)
#
#
# Indices 1 2 3 4 5 6 
#
# 1 118.1818 57.7445 35.5102 0.0000 6.0481 0.0000
# 2 57.7445 117.4269 40.1963 0.0000 -1.4331 0.0000
# 3 35.5102 40.1963 45.7955 0.0000 -2.1615 0.0000
# 4 0.0000 0.0000 0.0000 30.2487 0.0000 -2.1953
# 5 6.0481 -1.4331 -2.1615 0.0000 22.5569 0.0000
# 6 0.0000 0.0000 0.0000 -2.1953 0.0000 24.6957
#
#
#
# Elastic Compliance Matrix: (Units=1/GPa)
#
#
# Indices 1 2 3 4 5 6 
#
# 1 0.012580 -0.004046 -0.006403 0.000000 -0.004244 0.000000
# 2 -0.004046 0.013476 -0.008639 0.000000 0.001113 0.000000
# 3 -0.006403 -0.008639 0.034596 0.000000 0.004483 0.000000
# 4 0.000000 0.000000 0.000000 0.033274 0.000000 0.002958
# 5 -0.004244 0.001113 0.004483 0.000000 0.045970 0.000000
# 6 0.000000 0.000000 0.000000 0.002958 0.000000 0.040756
#
#
# Mechanical properties :
#
#
# Convention : Reuss Voigt Hill
#
# Bulk Modulus (GPa) = 44.49331 60.92291 52.70811
# Shear Modulus (GPa) = 22.09267 25.36383 23.72825
#
# Velocity S-wave (km/s) = 3.43187 3.67717 3.55663
# Velocity P-wave (km/s) = 6.27879 7.10683 6.70560
#
# Compressibility (1/GPa) = 0.02247529
#
# Stress axis : x y z
#
# Youngs Moduli (GPa) = 79.49398 74.20499 28.90535
#
# Poissons Ratio (x) = 0.30022 0.18509
# Poissons Ratio (y) = 0.32162 0.24971
# Poissons Ratio (z) = 0.50904 0.64104
#
# Static dielectric constant tensor:
#      x y z
#    x 1.719900 0.000000 0.082970 
#    y 0.000000 1.897390 0.000000 
#    z 0.082970 0.000000 1.834940 
# 
# From -- ./inp_files/113235.got.cif
#   From: 2010.05.17/outbox.cif.g08.bks.cpg/sg12_57_cif.got.tgz:113235.got - 2010.06.03 13:09:07.
