data_PCOD9183152
_publ_section_title
;
Structure prediction by ZEFSAII (Michael W. Deem and Ramdas Pophale) SiO2 
 PCOD9183152
Probable space group: C 2/M
;
_chemical_formula_sum "Si O2"
_cell_formula_units_Z 64
_cell_length_a 20.360636
_cell_length_b 14.036931
_cell_length_c 9.411523
_cell_angle_alpha 90.000000
_cell_angle_beta 88.145523
_cell_angle_gamma 90.000000
_cell_volume 2688.412392
_symmetry_space_group_name_H-M "C 2/M"
_symmetry_group_IT_number 12
_symmetry_cell_setting 'monoclinic'
loop_
_space_group_symop_operation_xyz
x,y,z
-x,y,-z
-x,-y,-z
x,-y,z
1/2+x,1/2+y,z
1/2-x,1/2+y,-z
1/2-x,1/2-y,-z
1/2+x,1/2-y,z
loop_
_atom_site_type_symbol
_atom_site_label
_atom_site_fract_x
_atom_site_fract_y
_atom_site_fract_z
Si Si1 0.794254 0.799705 0.170750
Si Si2 0.353114 0.891795 0.294518
Si Si3 0.466592 0.728943 0.860233
Si Si4 0.838474 0.885744 0.897307
Si Si5 0.356062 0.396734 0.580088
Si Si6 0.493858 0.889513 0.667520
Si Si7 0.922562 0.885801 0.309173
Si Si8 0.228589 0.351393 0.439064
O O1 0.815434 0.691531 0.211650
O O2 0.858227 0.858378 0.223667
O O3 0.733820 0.839584 0.270101
O O4 0.790981 0.830832 0.007718
O O5 0.431418 0.879712 0.277065
O O6 0.333419 0.882671 0.463787
O O7 0.334648 0.000000 0.252001
O O8 0.410100 0.658723 0.918440
O O9 0.448950 0.816341 0.758110
O O10 0.515797 0.664365 0.764799
O O11 0.500000 0.768417 0.000000
O O12 0.831520 0.859137 0.731631
O O13 0.834065 0.000000 0.915718
O O14 0.385392 0.500000 0.614281
O O15 0.407600 0.348241 0.470863
O O16 0.291554 0.408683 0.489567
O O17 0.500000 0.868541 0.500000
O O18 0.473721 0.000000 0.684084
O O19 0.929750 0.000000 0.313138
O O20 0.250000 0.250000 0.500000
#
# Coordination Sequence:
#
# PCOD9183152 Si02
#       8
#     8   8   8   8   8   8   8   8
#     4  10  19  36  56  87 117 156 194 235 292 343
#     4  10  19  36  61  88 113 147 201 247 290 346
#     4  12  23  35  55  86 117 155 199 234 287 341
#     4  11  23  36  55  84 124 161 191 234 294 356
#     4   9  20  36  53  82 116 153 189 234 294 341
#     4  10  23  41  62  86 114 151 194 247 298 340
#     4  10  19  33  54  78 115 152 195 235 273 338
#     4   9  19  34  61  86 111 145 197 240 286 348
#
# _framework density 23.805871
#
# number of rings (size 3 to 8) (size 9 to 14) (size 15 to 20)
#    0.000    1.875    2.500    1.125    1.750    2.250 
#    0.000    5.000    0.000    1.500    0.000   13.125 
#    0.000    0.000    0.000    0.000    0.000    0.000 
#
# Total GULP energy -178657.457853 kJ/mol
# GULP energy per Si atom -5583.045558 kJ/mol
# Density = 2.375169 g / cm^3
# Si number density = 23.805871 Si / 1000 Ang^3
#
#
#
# Elastic Constant Matrix: (Units=GPa)
#
#
# Indices 1 2 3 4 5 6 
#
# 1 32.7501 16.9511 18.6390 0.0000 -14.0341 0.0000
# 2 16.9511 152.3591 59.6155 0.0000 -8.8183 0.0000
# 3 18.6390 59.6155 173.4203 0.0000 -27.8798 0.0000
# 4 0.0000 0.0000 0.0000 16.7273 0.0000 -21.2341
# 5 -14.0341 -8.8183 -27.8798 0.0000 35.6962 0.0000
# 6 0.0000 0.0000 0.0000 -21.2341 0.0000 -40.0821
#
#
#
# Elastic Compliance Matrix: (Units=1/GPa)
#
#
# Indices 1 2 3 4 5 6 
#
# 1 0.038526 -0.003160 -0.000852 0.000000 0.013701 0.000000
# 2 -0.003160 0.007844 -0.002567 0.000000 -0.001310 0.000000
# 3 -0.000852 -0.002567 0.007530 0.000000 0.004912 0.000000
# 4 0.000000 0.000000 0.000000 0.035744 0.000000 -0.018936
# 5 0.013701 -0.001310 0.004912 0.000000 0.036914 0.000000
# 6 0.000000 0.000000 0.000000 -0.018936 0.000000 -0.014917
#
#
# Mechanical properties :
#
#
# Convention : Reuss Voigt Hill
#
# Bulk Modulus (GPa) = 24.54516 60.99340 42.76928
# Shear Modulus (GPa) = 36.13258 20.02320 28.07789
#
# Velocity S-wave (km/s) = 3.90012 2.90332 3.43804
# Velocity P-wave (km/s) = 5.53301 6.07584 5.81077
#
# Compressibility (1/GPa) = 0.04074123
#
# Stress axis : x y z
#
# Youngs Moduli (GPa) = 25.95673 127.48997 132.79960
#
# Poissons Ratio (x) = 0.40287 0.11312
# Poissons Ratio (y) = 0.08202 0.34094
# Poissons Ratio (z) = 0.02211 0.32731
#
# Static dielectric constant tensor:
#      x y z
#    x 1.940760 0.000000 0.009860 
#    y 0.000000 1.868280 0.000000 
#    z 0.009860 0.000000 1.965880 
# 
# From -- ./inp_files/104559.got.cif
#   From: 2010.05.17/outbox.cif.g08.bks.cpg/sg12_53_cif.got.tgz:104559.got - 2010.06.03 13:09:07.
