data_PCOD9183774
_publ_section_title
;
Structure prediction by ZEFSAII (Michael W. Deem and Ramdas Pophale) SiO2 
 PCOD9183774
Probable space group: C 2/M
;
_chemical_formula_sum "Si O2"
_cell_formula_units_Z 56
_cell_length_a 16.631413
_cell_length_b 7.507201
_cell_length_c 19.692227
_cell_angle_alpha 90.000000
_cell_angle_beta 120.162395
_cell_angle_gamma 90.000000
_cell_volume 2125.786524
_symmetry_space_group_name_H-M "C 2/M"
_symmetry_group_IT_number 12
_symmetry_cell_setting 'monoclinic'
loop_
_space_group_symop_operation_xyz
x,y,z
-x,y,-z
-x,-y,-z
x,-y,z
1/2+x,1/2+y,z
1/2-x,1/2+y,-z
1/2-x,1/2-y,-z
1/2+x,1/2-y,z
loop_
_atom_site_type_symbol
_atom_site_label
_atom_site_fract_x
_atom_site_fract_y
_atom_site_fract_z
Si Si1 0.542623 0.296962 0.950878
Si Si2 0.278093 0.715617 0.753369
Si Si3 0.931315 0.218083 0.186306
Si Si4 0.779616 0.707650 0.903372
Si Si5 0.090775 0.296067 0.618170
Si Si6 0.880319 0.798898 0.517533
Si Si7 0.611964 0.717614 0.333817
O O1 0.506019 0.500000 0.932503
O O2 0.530301 0.222564 0.870886
O O3 0.500000 0.208981 0.000000
O O4 0.652455 0.299676 0.014628
O O5 0.277047 0.500000 0.751983
O O6 0.317214 0.772956 0.842336
O O7 0.171453 0.778888 0.699957
O O8 0.332679 0.774117 0.709555
O O9 0.825294 0.279613 0.145180
O O10 0.004991 0.271584 0.274603
O O11 0.929620 0.000000 0.185334
O O12 0.776672 0.500000 0.919970
O O13 0.070522 0.500000 0.626935
O O14 0.133647 0.297133 0.559748
O O15 0.993207 0.197324 0.574085
O O16 0.849376 0.721630 0.577005
O O17 0.847210 0.000000 0.495503
O O18 0.614525 0.500000 0.337556
#
# Coordination Sequence:
#
# PCOD9183774 Si02
#       7
#     8   8   8   8   8   8   8
#     4  10  20  36  59  81 104 141 182 215 255 312
#     4  10  21  37  56  77 104 141 181 218 261 315
#     4   9  18  33  54  79 106 137 175 218 260 307
#     4  11  22  35  54  81 111 139 171 218 269 311
#     4  10  20  34  53  78 109 141 175 219 265 311
#     4  10  19  33  56  80 104 139 179 218 263 316
#     4   9  18  34  55  78 103 135 179 223 260 306
#
# _framework density 26.343191000000001
#
# number of rings (size 3 to 8) (size 9 to 14) (size 15 to 20)
#    0.000    2.143    0.000    4.286    0.000    5.429 
#    0.000    2.143    0.000    5.143    0.000    0.000 
#    0.000    0.000    0.000    0.000    0.000    0.000 
#
# Total GULP energy -156737.558586 kJ/mol
# GULP energy per Si atom -5597.769950 kJ/mol
# Density = 2.628323 g / cm^3
# Si number density = 26.343191 Si / 1000 Ang^3
#
#
#
# Elastic Constant Matrix: (Units=GPa)
#
#
# Indices 1 2 3 4 5 6 
#
# 1 75.7437 3.6597 5.0484 0.0000 -9.5460 0.0000
# 2 3.6597 93.2091 -1.2784 0.0000 1.4031 0.0000
# 3 5.0484 -1.2784 134.2502 0.0000 -10.6221 0.0000
# 4 0.0000 0.0000 0.0000 18.5882 0.0000 0.9374
# 5 -9.5460 1.4031 -10.6221 0.0000 55.8393 0.0000
# 6 0.0000 0.0000 0.0000 0.9374 0.0000 16.0337
#
#
#
# Elastic Compliance Matrix: (Units=1/GPa)
#
#
# Indices 1 2 3 4 5 6 
#
# 1 0.013538 -0.000570 -0.000335 0.000000 0.002265 0.000000
# 2 -0.000570 0.010758 0.000096 0.000000 -0.000349 0.000000
# 3 -0.000335 0.000096 0.007572 0.000000 0.001381 0.000000
# 4 0.000000 0.000000 0.000000 0.053957 0.000000 -0.003154
# 5 0.002265 -0.000349 0.001381 0.000000 0.018567 0.000000
# 6 0.000000 0.000000 0.000000 -0.003154 0.000000 0.062553
#
#
# Mechanical properties :
#
#
# Convention : Reuss Voigt Hill
#
# Bulk Modulus (GPa) = 33.05980 35.34027 34.20003
# Shear Modulus (GPa) = 27.98844 37.81045 32.89944
#
# Velocity S-wave (km/s) = 3.26307 3.79265 3.53778
# Velocity P-wave (km/s) = 5.17433 5.71169 5.44964
#
# Compressibility (1/GPa) = 0.03024822
#
# Stress axis : x y z
#
# Youngs Moduli (GPa) = 73.86747 92.95805 132.07361
#
# Poissons Ratio (x) = 0.05301 0.04429
# Poissons Ratio (y) = 0.04212 -0.01271
# Poissons Ratio (z) = 0.02477 -0.00895
#
# Static dielectric constant tensor:
#      x y z
#    x 2.168950 0.000000 -0.014180 
#    y 0.000000 1.964410 0.000000 
#    z -0.014180 0.000000 1.987320 
# 
# From -- ./inp_files/314407.got.cif
#   From: 2010.05.17/outbox.cif.g08.bks.cpg/sg12_158_cif.got.tgz:314407.got - 2010.06.03 13:09:07.
