data_PCOD9183209
_publ_section_title
;
Structure prediction by ZEFSAII (Michael W. Deem and Ramdas Pophale) SiO2 
 PCOD9183209
Probable space group: C 2/M
;
_chemical_formula_sum "Si O2"
_cell_formula_units_Z 48
_cell_length_a 28.438910
_cell_length_b 21.073244
_cell_length_c 5.244966
_cell_angle_alpha 90.000000
_cell_angle_beta 137.722978
_cell_angle_gamma 90.000000
_cell_volume 2114.553470
_symmetry_space_group_name_H-M "C 2/M"
_symmetry_group_IT_number 12
_symmetry_cell_setting 'monoclinic'
loop_
_space_group_symop_operation_xyz
x,y,z
-x,y,-z
-x,-y,-z
x,-y,z
1/2+x,1/2+y,z
1/2-x,1/2+y,-z
1/2-x,1/2-y,-z
1/2+x,1/2-y,z
loop_
_atom_site_type_symbol
_atom_site_label
_atom_site_fract_x
_atom_site_fract_y
_atom_site_fract_z
Si Si1 0.048997 0.568263 0.445580
Si Si2 0.751679 0.568546 0.445022
Si Si3 0.215427 0.702278 0.563454
Si Si4 0.642577 0.296099 0.579110
Si Si5 0.655948 0.430861 0.560169
Si Si6 0.952223 0.707051 0.556329
O O1 0.087731 0.500000 0.594980
O O2 0.000000 0.568165 0.500000
O O3 0.084301 0.637479 0.579012
O O4 0.000000 0.568156 0.000000
O O5 0.787603 0.500000 0.563105
O O6 0.796736 0.631451 0.584532
O O7 0.713338 0.572120 0.563897
O O8 0.692819 0.568866 0.985833
O O9 0.250000 0.750000 0.500000
O O10 0.148719 0.738542 0.404458
O O11 0.276327 0.693197 0.019687
O O12 0.614964 0.364211 0.379432
O O13 0.600587 0.265765 0.642160
O O14 0.620286 0.500000 0.387909
O O15 0.000000 0.709308 0.500000
O O16 0.000000 0.712917 0.000000
#
# Coordination Sequence:
#
# PCOD9183209 Si02
#       6
#     8   8   8   8   8   8
#     4   8  14  28  49  70  94 129 172 209 248 302
#     4   9  17  30  48  73 106 138 172 209 254 316
#     4  10  19  33  54  80 108 139 174 218 268 315
#     4  10  21  34  54  81 108 140 177 221 266 319
#     4   9  17  30  50  74 100 137 176 208 255 319
#     4  10  22  36  54  79 105 139 177 220 264 309
#
# _framework density 22.699828
#
# number of rings (size 3 to 8) (size 9 to 14) (size 15 to 20)
#    0.000    2.667    1.667    0.000    2.333    0.000 
#    0.000    0.833    0.000    3.000    0.000    0.000 
#    0.000    0.000    0.000    0.000    0.000    0.000 
#
# Total GULP energy -133772.007989 kJ/mol
# GULP energy per Si atom -5573.833666 kJ/mol
# Density = 2.264816 g / cm^3
# Si number density = 22.699828 Si / 1000 Ang^3
#
#
#
# Elastic Constant Matrix: (Units=GPa)
#
#
# Indices 1 2 3 4 5 6 
#
# 1 63.8737 48.2045 22.3491 0.0000 -25.7043 0.0000
# 2 48.2045 268.7997 -19.7951 0.0000 8.9101 0.0000
# 3 22.3491 -19.7951 56.7191 0.0000 -12.7231 0.0000
# 4 0.0000 0.0000 0.0000 6.0242 0.0000 -10.3803
# 5 -25.7043 8.9101 -12.7231 0.0000 29.4489 0.0000
# 6 0.0000 0.0000 0.0000 -10.3803 0.0000 29.2976
#
#
#
# Elastic Compliance Matrix: (Units=1/GPa)
#
#
# Indices 1 2 3 4 5 6 
#
# 1 0.039337 -0.008960 -0.011424 0.000000 0.032111 0.000000
# 2 -0.008960 0.005870 0.003794 0.000000 -0.007958 0.000000
# 3 -0.011424 0.003794 0.023212 0.000000 -0.001091 0.000000
# 4 0.000000 0.000000 0.000000 0.426185 0.000000 0.151000
# 5 0.032111 -0.007958 -0.001091 0.000000 0.063921 0.000000
# 6 0.000000 0.000000 0.000000 0.151000 0.000000 0.087633
#
#
# Mechanical properties :
#
#
# Convention : Reuss Voigt Hill
#
# Bulk Modulus (GPa) = 28.37764 54.54550 41.46157
# Shear Modulus (GPa) = 7.23500 35.52976 21.38238
#
# Velocity S-wave (km/s) = 1.78722 3.96055 3.07247
# Velocity P-wave (km/s) = 4.09723 6.70789 5.55802
#
# Compressibility (1/GPa) = 0.03523901
#
# Stress axis : x y z
#
# Youngs Moduli (GPa) = 25.42114 170.34950 43.08181
#
# Poissons Ratio (x) = 1.52636 0.49218
# Poissons Ratio (y) = 0.22778 -0.16346
# Poissons Ratio (z) = 0.29042 -0.64635
#
# Static dielectric constant tensor:
#      x y z
#    x 1.823860 0.000000 -0.011100 
#    y 0.000000 1.959450 0.000000 
#    z -0.011100 0.000000 1.909450 
# 
# From -- ./inp_files/24828.got.cif
#   From: 2010.05.17/outbox.cif.g08.bks.cpg/sg12_13_cif.got.tgz:24828.got - 2010.06.03 13:09:07.
