data_PCOD9183534
_publ_section_title
;
Structure prediction by ZEFSAII (Michael W. Deem and Ramdas Pophale) SiO2 
 PCOD9183534
Probable space group: C 2/M
;
_chemical_formula_sum "Si O2"
_cell_formula_units_Z 64
_cell_length_a 24.827695
_cell_length_b 9.054397
_cell_length_c 20.997336
_cell_angle_alpha 90.000000
_cell_angle_beta 127.710260
_cell_angle_gamma 90.000000
_cell_volume 3734.214060
_symmetry_space_group_name_H-M "C 2/M"
_symmetry_group_IT_number 12
_symmetry_cell_setting 'monoclinic'
loop_
_space_group_symop_operation_xyz
x,y,z
-x,y,-z
-x,-y,-z
x,-y,z
1/2+x,1/2+y,z
1/2-x,1/2+y,-z
1/2-x,1/2-y,-z
1/2+x,1/2-y,z
loop_
_atom_site_type_symbol
_atom_site_label
_atom_site_fract_x
_atom_site_fract_y
_atom_site_fract_z
Si Si1 0.549404 0.322937 0.226630
Si Si2 0.817114 0.324196 0.127422
Si Si3 0.317114 0.175804 0.627422
Si Si4 0.049404 0.177063 0.726630
Si Si5 0.462841 0.322742 0.038981
Si Si6 0.674595 0.824136 0.517515
Si Si7 0.174595 0.324136 0.017515
Si Si8 0.462841 0.322742 0.538981
O O1 0.560193 0.500000 0.235975
O O2 0.620833 0.242239 0.287890
O O3 0.500000 0.284764 0.250000
O O4 0.511089 0.284685 0.133658
O O5 0.812753 0.500000 0.131821
O O6 0.879167 0.257761 0.212110
O O7 0.744917 0.249744 0.090616
O O8 0.831400 0.292190 0.062767
O O9 0.331400 0.207810 0.562767
O O10 0.244917 0.250256 0.590616
O O11 0.312753 0.000000 0.631821
O O12 0.011089 0.215315 0.633658
O O13 0.060193 0.000000 0.735975
O O14 0.451795 0.500000 0.032770
O O15 0.500000 0.285618 0.000000
O O16 0.390981 0.242794 0.995704
O O17 0.609019 0.757207 0.504296
O O18 0.677896 0.000000 0.527781
O O19 0.177896 0.500000 0.027781
O O20 0.500000 0.285618 0.500000
O O21 0.451795 0.500000 0.532770
#
# Coordination Sequence:
#
# PCOD9183534 Si02
#       8
#     8   8   8   8   8   8   8   8
#     4  10  19  33  55  81 108 139 178 222 265 313
#     4  10  20  33  54  82 110 139 177 225 269 313
#     4  10  20  33  54  82 110 139 177 225 269 313
#     4  10  19  33  55  81 108 139 178 222 265 313
#     4  10  21  37  56  79 110 145 178 216 266 321
#     4  10  20  34  54  80 110 142 178 221 268 317
#     4  10  20  34  54  80 110 142 178 221 268 317
#     4  10  21  37  56  79 110 145 178 216 266 321
#
# _framework density 17.138814
#
# number of rings (size 3 to 8) (size 9 to 14) (size 15 to 20)
#    0.000    2.000    2.500    1.500    0.000    4.000 
#    0.000    1.250    0.000    0.000    0.000    0.000 
#    0.000    0.000    0.000    0.000    0.000    0.000 
#
# Total GULP energy -178670.579697 kJ/mol
# GULP energy per Si atom -5583.455616 kJ/mol
# Density = 1.709981 g / cm^3
# Si number density = 17.138814 Si / 1000 Ang^3
#
#
#
# Elastic Constant Matrix: (Units=GPa)
#
#
# Indices 1 2 3 4 5 6 
#
# 1 153.8780 67.6903 91.0653 0.0000 22.4125 0.0000
# 2 67.6903 41.9972 49.4307 0.0000 14.1106 0.0000
# 3 91.0653 49.4307 120.2817 0.0000 17.7835 0.0000
# 4 0.0000 0.0000 0.0000 24.9298 0.0000 13.7605
# 5 22.4125 14.1106 17.7835 0.0000 34.5866 0.0000
# 6 0.0000 0.0000 0.0000 13.7605 0.0000 28.7425
#
#
#
# Elastic Compliance Matrix: (Units=1/GPa)
#
#
# Indices 1 2 3 4 5 6 
#
# 1 0.023433 -0.032843 -0.004307 0.000000 0.000429 0.000000
# 2 -0.032843 0.095450 -0.012717 0.000000 -0.011121 0.000000
# 3 -0.004307 -0.012717 0.016906 0.000000 -0.000714 0.000000
# 4 0.000000 0.000000 0.000000 0.054520 0.000000 -0.026101
# 5 0.000429 -0.011121 -0.000714 0.000000 0.033539 0.000000
# 6 0.000000 0.000000 0.000000 -0.026101 0.000000 0.047288
#
#
# Mechanical properties :
#
#
# Convention : Reuss Voigt Hill
#
# Bulk Modulus (GPa) = 27.73474 81.39219 54.56346
# Shear Modulus (GPa) = 13.05868 24.84984 18.95426
#
# Velocity S-wave (km/s) = 2.76331 3.81191 3.32915
# Velocity P-wave (km/s) = 5.13797 8.18335 6.83250
#
# Compressibility (1/GPa) = 0.03605587
#
# Stress axis : x y z
#
# Youngs Moduli (GPa) = 42.67564 10.47666 59.14932
#
# Poissons Ratio (x) = 0.34408 0.25477
# Poissons Ratio (y) = 1.40158 0.75218
# Poissons Ratio (z) = 0.18382 0.13323
#
# Static dielectric constant tensor:
#      x y z
#    x 1.554700 0.000000 -0.009800 
#    y 0.000000 1.567020 0.000000 
#    z -0.009800 0.000000 1.562470 
# 
# From -- ./inp_files/295695.got.cif
#   From: 2010.05.17/outbox.cif.g08.bks.cpg/sg12_148_cif.got.tgz:295695.got - 2010.06.03 13:09:07.
