data_PCOD9183434
_publ_section_title
;
Structure prediction by ZEFSAII (Michael W. Deem and Ramdas Pophale) SiO2 
 PCOD9183434
Probable space group: C 2/M
;
_chemical_formula_sum "Si O2"
_cell_formula_units_Z 56
_cell_length_a 22.634501
_cell_length_b 9.333073
_cell_length_c 20.777587
_cell_angle_alpha 90.000000
_cell_angle_beta 48.268463
_cell_angle_gamma 90.000000
_cell_volume 3275.576839
_symmetry_space_group_name_H-M "C 2/M"
_symmetry_group_IT_number 12
_symmetry_cell_setting 'monoclinic'
loop_
_space_group_symop_operation_xyz
x,y,z
-x,y,-z
-x,-y,-z
x,-y,z
1/2+x,1/2+y,z
1/2-x,1/2+y,-z
1/2-x,1/2-y,-z
1/2+x,1/2-y,z
loop_
_atom_site_type_symbol
_atom_site_label
_atom_site_fract_x
_atom_site_fract_y
_atom_site_fract_z
Si Si1 0.190777 0.170764 0.131017
Si Si2 0.517792 0.167570 0.914068
Si Si3 0.641929 0.834620 0.049958
Si Si4 0.833671 0.828370 0.247199
Si Si5 0.272791 0.170547 0.549924
Si Si6 0.199663 0.828893 0.269960
Si Si7 0.905947 0.332236 0.554344
O O1 0.135291 0.243344 0.119099
O O2 0.175873 0.210960 0.215000
O O3 0.184695 0.000000 0.130675
O O4 0.280444 0.212449 0.046029
O O5 0.434935 0.173780 0.937462
O O6 0.581351 0.259520 0.828586
O O7 0.544119 0.000000 0.898172
O O8 0.500000 0.215988 0.000000
O O9 0.655033 0.000000 0.058705
O O10 0.791281 0.795407 0.346784
O O11 0.777777 0.755704 0.234307
O O12 0.835693 0.000000 0.239684
O O13 0.250000 0.250000 0.500000
O O14 0.360072 0.199653 0.519436
O O15 0.269422 0.000000 0.540518
O O16 0.133916 0.775458 0.366892
O O17 0.212391 0.000000 0.263964
O O18 0.884302 0.500000 0.583017
O O19 0.000000 0.322086 0.500000
#
# Coordination Sequence:
#
# PCOD9183434 Si02
#       7
#     8   8   8   8   8   8   8
#     4   9  18  33  51  72 101 135 170 213 261 304
#     4  10  20  35  54  77 107 141 178 221 265 310
#     4   9  18  32  50  72 100 136 175 212 254 307
#     4  10  21  36  54  79 109 140 178 220 264 319
#     4   9  19  36  57  80 106 142 180 221 274 326
#     4  10  19  33  55  79 103 135 174 216 263 314
#     4   9  19  37  57  79 109 139 175 225 272 321
#
# _framework density 17.096223999999999
#
# number of rings (size 3 to 8) (size 9 to 14) (size 15 to 20)
#    0.000    2.571    0.000    2.571    0.000    7.429 
#    2.571    2.857    0.000    0.000    0.000    0.000 
#    0.000    0.000    0.000    0.000    0.000    0.000 
#
# Total GULP energy -155918.725841 kJ/mol
# GULP energy per Si atom -5568.525923 kJ/mol
# Density = 1.705731 g / cm^3
# Si number density = 17.096224 Si / 1000 Ang^3
#
#
#
# Elastic Constant Matrix: (Units=GPa)
#
#
# Indices 1 2 3 4 5 6 
#
# 1 98.1383 38.5338 45.5186 0.0000 23.3867 0.0000
# 2 38.5338 40.9155 31.6356 0.0001 12.9253 0.0001
# 3 45.5186 31.6356 51.2334 0.0000 14.6921 0.0000
# 4 0.0000 0.0001 0.0000 13.1288 0.0000 0.7550
# 5 23.3867 12.9253 14.6921 0.0000 34.1161 0.0000
# 6 0.0000 0.0001 0.0000 0.7550 0.0000 32.0088
#
#
#
# Elastic Compliance Matrix: (Units=1/GPa)
#
#
# Indices 1 2 3 4 5 6 
#
# 1 0.019934 -0.008682 -0.010695 0.000000 -0.005770 0.000000
# 2 -0.008682 0.051663 -0.023139 0.000000 -0.003657 0.000000
# 3 -0.010695 -0.023139 0.044144 0.000000 -0.002912 0.000000
# 4 0.000000 0.000000 0.000000 0.076272 0.000000 -0.001799
# 5 -0.005770 -0.003657 -0.002912 0.000000 0.035907 0.000000
# 6 0.000000 0.000000 0.000000 -0.001799 0.000000 0.031284
#
#
# Mechanical properties :
#
#
# Convention : Reuss Voigt Hill
#
# Bulk Modulus (GPa) = 32.56335 46.85146 39.70741
# Shear Modulus (GPa) = 14.10552 20.82403 17.46477
#
# Velocity S-wave (km/s) = 2.87551 3.49384 3.19965
# Velocity P-wave (km/s) = 5.48755 6.61362 6.07673
#
# Compressibility (1/GPa) = 0.03070937
#
# Stress axis : x y z
#
# Youngs Moduli (GPa) = 50.16502 19.35623 22.65329
#
# Poissons Ratio (x) = 0.16804 0.24228
# Poissons Ratio (y) = 0.43551 0.52417
# Poissons Ratio (z) = 0.53653 0.44788
#
# Static dielectric constant tensor:
#      x y z
#    x 1.588470 0.000000 -0.018050 
#    y 0.000000 1.574680 0.000000 
#    z -0.018050 0.000000 1.586970 
# 
# From -- ./inp_files/281613.got.cif
#   From: 2010.05.17/outbox.cif.g08.bks.cpg/sg12_141_cif.got.tgz:281613.got - 2010.06.03 13:09:07.
