data_PCOD9183945
_publ_section_title
;
Structure prediction by ZEFSAII (Michael W. Deem and Ramdas Pophale) SiO2 
 PCOD9183945
Probable space group: C 2/M
;
_chemical_formula_sum "Si O2"
_cell_formula_units_Z 48
_cell_length_a 13.129283
_cell_length_b 12.648029
_cell_length_c 14.219398
_cell_angle_alpha 90.000000
_cell_angle_beta 107.969730
_cell_angle_gamma 90.000000
_cell_volume 2246.083417
_symmetry_space_group_name_H-M "C 2/M"
_symmetry_group_IT_number 12
_symmetry_cell_setting 'monoclinic'
loop_
_space_group_symop_operation_xyz
x,y,z
-x,y,-z
-x,-y,-z
x,-y,z
1/2+x,1/2+y,z
1/2-x,1/2+y,-z
1/2-x,1/2-y,-z
1/2+x,1/2-y,z
loop_
_atom_site_type_symbol
_atom_site_label
_atom_site_fract_x
_atom_site_fract_y
_atom_site_fract_z
Si Si1 0.854442 0.822384 0.296589
Si Si2 0.623638 0.874926 0.923089
Si Si3 0.683831 0.740074 0.114904
Si Si4 0.118678 0.619788 0.577992
Si Si5 0.458682 0.736044 0.758590
Si Si6 0.799677 0.618849 0.596047
O O1 0.761843 0.822533 0.192197
O O2 0.865033 0.701829 0.335317
O O3 0.966942 0.844390 0.278717
O O4 0.811236 0.878848 0.377756
O O5 0.739845 0.845417 0.912519
O O6 0.536234 0.823090 0.829100
O O7 0.609179 0.000000 0.930956
O O8 0.622629 0.808590 0.019678
O O9 0.608429 0.690960 0.173295
O O10 0.128841 0.500000 0.613864
O O11 0.201190 0.638609 0.515671
O O12 0.000000 0.633448 0.500000
O O13 0.377591 0.797102 0.666946
O O14 0.845575 0.500000 0.618623
#
# Coordination Sequence:
#
# PCOD9183945 Si02
#       6
#     8   8   8   8   8   8
#     4  10  20  34  54  79 112 146 175 219 275 318
#     4  10  20  36  58  80 107 143 181 223 270 317
#     4   9  21  35  51  82 113 137 178 226 267 320
#     4  10  19  33  56  85 109 136 181 227 266 316
#     4  10  19  34  56  82 111 142 179 224 268 315
#     4  10  20  34  54  83 113 143 181 222 264 316
#
# _framework density 21.370532000000001
#
# number of rings (size 3 to 8) (size 9 to 14) (size 15 to 20)
#    0.000    2.167    1.667    1.500    0.000    6.667 
#    0.000    0.833    0.000   14.500    0.000    0.000 
#    0.000    0.000    0.000    0.000    0.000    0.000 
#
# Total GULP energy -133961.397396 kJ/mol
# GULP energy per Si atom -5581.724891 kJ/mol
# Density = 2.132189 g / cm^3
# Si number density = 21.370532 Si / 1000 Ang^3
#
#
#
# Elastic Constant Matrix: (Units=GPa)
#
#
# Indices 1 2 3 4 5 6 
#
# 1 115.5194 -3.6272 15.5594 0.0000 -34.6911 0.0000
# 2 -3.6272 30.3508 8.2240 0.0000 13.3387 0.0000
# 3 15.5594 8.2240 69.8285 0.0000 -15.9287 0.0000
# 4 0.0000 0.0000 0.0000 3.5264 0.0000 9.6565
# 5 -34.6911 13.3387 -15.9287 0.0000 43.0320 0.0000
# 6 0.0000 0.0000 0.0000 9.6565 0.0000 4.0672
#
#
#
# Elastic Compliance Matrix: (Units=1/GPa)
#
#
# Indices 1 2 3 4 5 6 
#
# 1 0.011682 -0.003263 0.000175 0.000000 0.010494 0.000000
# 2 -0.003263 0.043453 -0.008807 0.000000 -0.019360 0.000000
# 3 0.000175 -0.008807 0.017447 0.000000 0.009329 0.000000
# 4 0.000000 0.000000 0.000000 -0.051544 0.000000 0.122380
# 5 0.010494 -0.019360 0.009329 0.000000 0.041153 0.000000
# 6 0.000000 0.000000 0.000000 0.122380 0.000000 -0.044691
#
#
# Mechanical properties :
#
#
# Convention : Reuss Voigt Hill
#
# Bulk Modulus (GPa) = 20.49518 28.44568 24.47043
# Shear Modulus (GPa) = 86.87803 23.16130 55.01966
#
# Velocity S-wave (km/s) = 6.38290 3.29568 5.07951
# Velocity P-wave (km/s) = 7.99582 5.27462 6.77328
#
# Compressibility (1/GPa) = 0.04879197
#
# Stress axis : x y z
#
# Youngs Moduli (GPa) = 85.60270 23.01357 57.31624
#
# Poissons Ratio (x) = 0.07510 -0.01004
# Poissons Ratio (y) = 0.27934 0.50476
# Poissons Ratio (z) = -0.01499 0.20267
#
# Static dielectric constant tensor:
#      x y z
#    x 1.873220 0.000000 -0.041140 
#    y 0.000000 1.722330 0.000000 
#    z -0.041140 0.000000 1.764620 
# 
# From -- ./inp_files/204305.got.cif
#   From: 2010.05.17/outbox.cif.g08.bks.cpg/sg12_103_cif.got.tgz:204305.got - 2010.06.03 13:09:07.
