data_PCOD9183516
_publ_section_title
;
Structure prediction by ZEFSAII (Michael W. Deem and Ramdas Pophale) SiO2 
 PCOD9183516
Probable space group: C 2/M
;
_chemical_formula_sum "Si O2"
_cell_formula_units_Z 64
_cell_length_a 16.216345
_cell_length_b 10.250185
_cell_length_c 21.176280
_cell_angle_alpha 90.000000
_cell_angle_beta 74.223422
_cell_angle_gamma 90.000000
_cell_volume 3387.334007
_symmetry_space_group_name_H-M "C 2/M"
_symmetry_group_IT_number 12
_symmetry_cell_setting 'monoclinic'
loop_
_space_group_symop_operation_xyz
x,y,z
-x,y,-z
-x,-y,-z
x,-y,z
1/2+x,1/2+y,z
1/2-x,1/2+y,-z
1/2-x,1/2-y,-z
1/2+x,1/2-y,z
loop_
_atom_site_type_symbol
_atom_site_label
_atom_site_fract_x
_atom_site_fract_y
_atom_site_fract_z
Si Si1 0.011992 0.343724 0.240231
Si Si2 0.623769 0.157879 0.630150
Si Si3 0.858716 0.143174 0.951763
Si Si4 0.488669 0.151006 0.105288
Si Si5 0.688925 0.768005 0.913853
Si Si6 0.299854 0.152445 0.785494
Si Si7 0.094732 0.342476 0.492455
Si Si8 0.269020 0.152408 0.643756
O O1 0.020937 0.500000 0.244040
O O2 0.962494 0.305685 0.313843
O O3 0.965187 0.319729 0.183655
O O4 0.107819 0.290259 0.214697
O O5 0.623595 0.195400 0.556517
O O6 0.696031 0.242216 0.648169
O O7 0.635216 0.000000 0.632703
O O8 0.931686 0.253571 0.926666
O O9 0.770770 0.160432 0.929608
O O10 0.894945 0.000000 0.930998
O O11 0.831203 0.156637 0.030631
O O12 0.403101 0.165562 0.080932
O O13 0.517730 0.000000 0.095549
O O14 0.725059 0.721099 0.839342
O O15 0.295990 0.159458 0.710899
O O16 0.296328 0.000000 0.804299
O O17 0.089495 0.500000 0.495257
O O18 0.156949 0.312572 0.421693
O O19 0.000000 0.290095 0.500000
O O20 0.244090 0.000000 0.636774
#
# Coordination Sequence:
#
# PCOD9183516 Si02
#       8
#     8   8   8   8   8   8   8   8
#     4   9  18  34  57  83 110 147 195 238 279 338
#     4  10  19  33  55  80 112 149 188 233 281 337
#     4  11  25  42  61  90 123 154 194 245 301 357
#     4  11  23  41  64  88 118 157 201 245 294 353
#     4  11  23  39  63  88 119 155 196 245 298 355
#     4  10  19  35  59  85 113 150 193 238 289 347
#     4   9  17  31  53  82 109 142 188 235 277 327
#     4  10  20  33  54  83 113 144 185 234 283 337
#
# _framework density 18.893913000000001
#
# number of rings (size 3 to 8) (size 9 to 14) (size 15 to 20)
#    0.000    1.875    1.250    3.000    0.000    7.500 
#    0.000    1.250    0.000    3.000    0.000    0.000 
#    0.000    0.000    0.000    0.000    0.000    0.000 
#
# Total GULP energy -178280.970983 kJ/mol
# GULP energy per Si atom -5571.280343 kJ/mol
# Density = 1.885091 g / cm^3
# Si number density = 18.893913 Si / 1000 Ang^3
#
#
#
# Elastic Constant Matrix: (Units=GPa)
#
#
# Indices 1 2 3 4 5 6 
#
# 1 98.0043 41.9004 19.9388 0.0000 -1.6897 0.0000
# 2 41.9004 66.1497 25.1337 0.0000 -2.3385 0.0000
# 3 19.9388 25.1337 96.6584 0.0000 -5.7907 0.0000
# 4 0.0000 0.0000 0.0000 15.8303 0.0000 -4.7674
# 5 -1.6897 -2.3385 -5.7907 0.0000 26.7368 0.0000
# 6 0.0000 0.0000 0.0000 -4.7674 0.0000 12.8251
#
#
#
# Elastic Compliance Matrix: (Units=1/GPa)
#
#
# Indices 1 2 3 4 5 6 
#
# 1 0.014030 -0.008641 -0.000648 0.000000 -0.000009 0.000000
# 2 -0.008641 0.022104 -0.003933 0.000000 0.000535 0.000000
# 3 -0.000648 -0.003933 0.011630 0.000000 0.002134 0.000000
# 4 0.000000 0.000000 0.000000 0.071133 0.000000 0.026442
# 5 -0.000009 0.000535 0.002134 0.000000 0.037910 0.000000
# 6 0.000000 0.000000 0.000000 0.026442 0.000000 0.087801
#
#
# Mechanical properties :
#
#
# Convention : Reuss Voigt Hill
#
# Bulk Modulus (GPa) = 46.90439 48.30647 47.60543
# Shear Modulus (GPa) = 17.97546 22.66773 20.32159
#
# Velocity S-wave (km/s) = 3.08781 3.46748 3.28314
# Velocity P-wave (km/s) = 6.13121 6.45399 6.29467
#
# Compressibility (1/GPa) = 0.02131997
#
# Stress axis : x y z
#
# Youngs Moduli (GPa) = 71.27833 45.24121 85.98553
#
# Poissons Ratio (x) = 0.39092 0.05570
# Poissons Ratio (y) = 0.61590 0.33818
# Poissons Ratio (z) = 0.04617 0.17794
#
# Static dielectric constant tensor:
#      x y z
#    x 1.683020 0.000000 0.003210 
#    y 0.000000 1.641910 0.000000 
#    z 0.003210 0.000000 1.719820 
# 
# From -- ./inp_files/309906.got.cif
#   From: 2010.05.17/outbox.cif.g08.bks.cpg/sg12_155_cif.got.tgz:309906.got - 2010.06.03 13:09:07.
