data_PCOD9183898
_publ_section_title
;
Structure prediction by ZEFSAII (Michael W. Deem and Ramdas Pophale) SiO2 
 PCOD9183898
Probable space group: C 2/M
;
_chemical_formula_sum "Si O2"
_cell_formula_units_Z 56
_cell_length_a 15.216403
_cell_length_b 15.484947
_cell_length_c 22.381783
_cell_angle_alpha 90.000000
_cell_angle_beta 30.697702
_cell_angle_gamma 90.000000
_cell_volume 2692.274418
_symmetry_space_group_name_H-M "C 2/M"
_symmetry_group_IT_number 12
_symmetry_cell_setting 'monoclinic'
loop_
_space_group_symop_operation_xyz
x,y,z
-x,y,-z
-x,-y,-z
x,-y,z
1/2+x,1/2+y,z
1/2-x,1/2+y,-z
1/2-x,1/2-y,-z
1/2+x,1/2-y,z
loop_
_atom_site_type_symbol
_atom_site_label
_atom_site_fract_x
_atom_site_fract_y
_atom_site_fract_z
Si Si1 0.340630 0.105683 0.364926
Si Si2 0.499604 0.672264 0.087956
Si Si3 0.065019 0.371679 0.028280
Si Si4 0.047766 0.894475 0.626275
Si Si5 0.467086 0.599345 0.805279
Si Si6 0.739702 0.598255 0.296254
Si Si7 0.770011 0.601094 0.844621
O O1 0.222572 0.128457 0.490106
O O2 0.256653 0.137683 0.352051
O O3 0.537768 0.133339 0.256222
O O4 0.343971 0.000000 0.359234
O O5 0.558326 0.768682 0.039587
O O6 0.477275 0.654781 0.170529
O O7 0.329740 0.650913 0.149347
O O8 0.651208 0.612321 0.972594
O O9 0.928095 0.404568 0.156616
O O10 0.259391 0.400962 0.923694
O O11 0.000000 0.395245 0.000000
O O12 0.031566 0.865539 0.703895
O O13 0.890162 0.862971 0.676597
O O14 0.035767 0.000000 0.636511
O O15 0.525499 0.500000 0.779227
O O16 0.676839 0.500000 0.342125
O O17 0.775950 0.500000 0.825384
#
# Coordination Sequence:
#
# PCOD9183898 Si02
#       7
#     8   8   8   8   8   8   8
#     4   9  18  33  55  83 108 141 189 234 275 319
#     4  11  22  38  56  80 114 149 183 230 281 331
#     4  12  22  36  56  83 118 149 179 227 283 337
#     4   9  18  32  53  82 114 143 179 232 282 326
#     4  11  22  36  58  86 116 147 183 226 280 336
#     4  10  19  33  56  83 113 148 185 228 275 332
#     4  10  19  35  59  81 105 143 195 239 267 317
#
# _framework density 20.800257999999999
#
# number of rings (size 3 to 8) (size 9 to 14) (size 15 to 20)
#    0.000    1.714    2.857    3.857    0.000    3.429 
#    0.000    0.714    0.000   12.857    0.000    0.000 
#    0.000    0.000    0.000    0.000    0.000    0.000 
#
# Total GULP energy -156480.549586 kJ/mol
# GULP energy per Si atom -5588.591057 kJ/mol
# Density = 2.075292 g / cm^3
# Si number density = 20.800258 Si / 1000 Ang^3
#
#
#
# Elastic Constant Matrix: (Units=GPa)
#
#
# Indices 1 2 3 4 5 6 
#
# 1 145.4958 8.4297 66.2962 0.0004 31.1768 0.0003
# 2 8.4297 45.4959 -10.8348 -0.0002 4.1991 0.0013
# 3 66.2962 -10.8348 85.4677 -0.0022 18.4541 0.0041
# 4 0.0004 -0.0002 -0.0022 -5.1286 0.0021 10.0278
# 5 31.1768 4.1991 18.4541 0.0021 26.5765 0.0002
# 6 0.0003 0.0013 0.0041 10.0278 0.0002 10.4680
#
#
#
# Elastic Compliance Matrix: (Units=1/GPa)
#
#
# Indices 1 2 3 4 5 6 
#
# 1 0.012804 -0.003624 -0.008554 0.000003 -0.008508 0.000001
# 2 -0.003624 0.024706 0.006903 -0.000006 -0.004445 0.000000
# 3 -0.008554 0.006903 0.020327 -0.000010 -0.005171 0.000001
# 4 0.000003 -0.000006 -0.000010 -0.067867 0.000009 0.065013
# 5 -0.008508 -0.004445 -0.005171 0.000009 0.051900 -0.000007
# 6 0.000001 0.000000 0.000001 0.065013 -0.000007 0.033250
#
#
# Mechanical properties :
#
#
# Convention : Reuss Voigt Hill
#
# Bulk Modulus (GPa) = 21.14790 44.91572 33.03181
# Shear Modulus (GPa) = 49.29329 20.55440 34.92384
#
# Velocity S-wave (km/s) = 4.87338 3.14694 4.10202
# Velocity P-wave (km/s) = 6.46960 5.90297 6.19277
#
# Compressibility (1/GPa) = 0.04728603
#
# Stress axis : x y z
#
# Youngs Moduli (GPa) = 78.10131 40.47635 49.19487
#
# Poissons Ratio (x) = 0.14670 0.42083
# Poissons Ratio (y) = 0.28306 -0.33960
# Poissons Ratio (z) = 0.66810 -0.27941
#
# Static dielectric constant tensor:
#      x y z
#    x 1.734160 0.000000 0.005280 
#    y 0.000000 1.779790 0.000000 
#    z 0.005280 0.000000 1.719070 
# 
# From -- ./inp_files/340294.got.cif
#   From: 2010.05.17/outbox.cif.g08.bks.cpg/sg12_171_cif.got.tgz:340294.got - 2010.06.03 13:09:07.
