data_PCOD9183271
_publ_section_title
;
Structure prediction by ZEFSAII (Michael W. Deem and Ramdas Pophale) SiO2 
 PCOD9183271
Probable space group: C 2/M
;
_chemical_formula_sum "Si O2"
_cell_formula_units_Z 64
_cell_length_a 20.929906
_cell_length_b 8.093893
_cell_length_c 23.762292
_cell_angle_alpha 90.000000
_cell_angle_beta 43.515570
_cell_angle_gamma 90.000000
_cell_volume 2771.721562
_symmetry_space_group_name_H-M "C 2/M"
_symmetry_group_IT_number 12
_symmetry_cell_setting 'monoclinic'
loop_
_space_group_symop_operation_xyz
x,y,z
-x,y,-z
-x,-y,-z
x,-y,z
1/2+x,1/2+y,z
1/2-x,1/2+y,-z
1/2-x,1/2-y,-z
1/2+x,1/2-y,z
loop_
_atom_site_type_symbol
_atom_site_label
_atom_site_fract_x
_atom_site_fract_y
_atom_site_fract_z
Si Si1 0.059669 0.187956 0.743670
Si Si2 0.127583 0.309155 0.082514
Si Si3 0.550106 0.694319 0.523742
Si Si4 0.012579 0.802362 0.055375
Si Si5 0.011926 0.688254 0.317391
Si Si6 0.806791 0.201358 0.191711
Si Si7 0.782260 0.303235 0.863418
Si Si8 0.234971 0.300119 0.352457
O O1 0.046753 0.193383 0.685033
O O2 0.162409 0.243840 0.692143
O O3 0.973164 0.289643 0.823003
O O4 0.047749 0.000000 0.772756
O O5 0.150617 0.500000 0.062534
O O6 0.197808 0.235486 0.085686
O O7 0.100277 0.244558 0.037879
O O8 0.500000 0.759849 0.500000
O O9 0.530602 0.500000 0.541933
O O10 0.511759 0.782084 0.603144
O O11 0.657741 0.722299 0.441131
O O12 0.911257 0.757307 0.144907
O O13 0.017613 0.000000 0.048277
O O14 0.000000 0.737481 0.000000
O O15 0.988409 0.500000 0.317438
O O16 0.119348 0.712085 0.232264
O O17 0.786691 0.262120 0.141124
O O18 0.734996 0.251658 0.286376
O O19 0.802890 0.000000 0.191232
O O20 0.763481 0.500000 0.882568
O O21 0.225741 0.500000 0.360322
#
# Coordination Sequence:
#
# PCOD9183271 Si02
#       8
#     8   8   8   8   8   8   8   8
#     4  10  19  34  56  82 109 138 178 225 274 323
#     4  10  19  33  54  81 112 145 181 220 271 328
#     4  11  24  38  51  73 107 143 179 229 286 327
#     4  10  20  35  57  83 110 143 181 224 274 325
#     4  10  20  35  55  78 105 142 186 225 273 329
#     4   9  16  32  55  80 106 135 182 228 264 318
#     4   8  16  30  53  80 104 138 182 226 263 311
#     4  10  20  34  56  79 101 139 184 227 272 322
#
# _framework density 23.090342
#
# number of rings (size 3 to 8) (size 9 to 14) (size 15 to 20)
#    0.000    2.250    1.250    3.000    0.000    3.750 
#    0.000    0.625    0.000    4.500    0.000    0.000 
#    0.000    0.000    0.000    0.000    0.000    0.000 
#
# Total GULP energy -178624.404697 kJ/mol
# GULP energy per Si atom -5582.012647 kJ/mol
# Density = 2.303779 g / cm^3
# Si number density = 23.090342 Si / 1000 Ang^3
#
#
#
# Elastic Constant Matrix: (Units=GPa)
#
#
# Indices 1 2 3 4 5 6 
#
# 1 152.1888 16.8330 19.1886 0.0002 13.0909 -0.0001
# 2 16.8330 26.4804 10.3202 0.0005 0.3909 0.0003
# 3 19.1886 10.3202 73.4761 0.0003 18.9312 -0.0001
# 4 0.0002 0.0005 0.0003 17.6762 -0.0002 2.0089
# 5 13.0909 0.3909 18.9312 -0.0002 40.2486 0.0001
# 6 -0.0001 0.0003 -0.0001 2.0089 0.0001 24.5260
#
#
#
# Elastic Compliance Matrix: (Units=1/GPa)
#
#
# Indices 1 2 3 4 5 6 
#
# 1 0.007317 -0.004311 -0.000800 0.000000 -0.001962 0.000000
# 2 -0.004311 0.042724 -0.005837 -0.000001 0.003732 -0.000001
# 3 -0.000800 -0.005837 0.016564 0.000000 -0.007474 0.000000
# 4 0.000000 -0.000001 0.000000 0.057105 0.000000 -0.004677
# 5 -0.001962 0.003732 -0.007474 0.000000 0.028963 0.000000
# 6 0.000000 -0.000001 0.000000 -0.004677 0.000000 0.041156
#
#
# Mechanical properties :
#
#
# Convention : Reuss Voigt Hill
#
# Bulk Modulus (GPa) = 22.36617 38.31432 30.34025
# Shear Modulus (GPa) = 21.68000 30.21038 25.94519
#
# Velocity S-wave (km/s) = 3.06751 3.62104 3.35571
# Velocity P-wave (km/s) = 4.71736 5.84054 5.30874
#
# Compressibility (1/GPa) = 0.04471038
#
# Stress axis : x y z
#
# Youngs Moduli (GPa) = 136.66461 23.40626 60.37056
#
# Poissons Ratio (x) = 0.10090 0.04830
# Poissons Ratio (y) = 0.58911 0.35237
# Poissons Ratio (z) = 0.10933 0.13662
#
# Static dielectric constant tensor:
#      x y z
#    x 1.913100 0.000000 0.026850 
#    y 0.000000 1.822190 0.000000 
#    z 0.026850 0.000000 1.911250 
# 
# From -- ./inp_files/346015.got.cif
#   From: 2010.05.17/outbox.cif.g08.bks.cpg/sg12_174_cif.got.tgz:346015.got - 2010.06.03 13:09:07.
