data_PCOD9183830
_publ_section_title
;
Structure prediction by ZEFSAII (Michael W. Deem and Ramdas Pophale) SiO2 
 PCOD9183830
Probable space group: C 2/M
;
_chemical_formula_sum "Si O2"
_cell_formula_units_Z 56
_cell_length_a 22.377169
_cell_length_b 22.933817
_cell_length_c 12.925694
_cell_angle_alpha 90.000000
_cell_angle_beta 26.606664
_cell_angle_gamma 90.000000
_cell_volume 2970.849285
_symmetry_space_group_name_H-M "C 2/M"
_symmetry_group_IT_number 12
_symmetry_cell_setting 'monoclinic'
loop_
_space_group_symop_operation_xyz
x,y,z
-x,y,-z
-x,-y,-z
x,-y,z
1/2+x,1/2+y,z
1/2-x,1/2+y,-z
1/2-x,1/2-y,-z
1/2+x,1/2-y,z
loop_
_atom_site_type_symbol
_atom_site_label
_atom_site_fract_x
_atom_site_fract_y
_atom_site_fract_z
Si Si1 0.446359 0.621303 0.195592
Si Si2 0.301539 0.784798 0.074135
Si Si3 0.785120 0.066555 0.135316
Si Si4 0.580888 0.188232 0.726512
Si Si5 0.287853 0.711616 0.575509
Si Si6 0.652586 0.829330 0.223387
Si Si7 0.676782 0.934536 0.534614
O O1 0.392546 0.674296 0.347093
O O2 0.318342 0.580248 0.370637
O O3 0.500000 0.640615 0.000000
O O4 0.566128 0.588438 0.067505
O O5 0.207141 0.806935 0.313100
O O6 0.241301 0.723087 0.133393
O O7 0.441499 0.782520 0.916815
O O8 0.330256 0.821706 0.926655
O O9 0.712916 0.110261 0.169501
O O10 0.706448 0.067984 0.366353
O O11 0.787809 0.000000 0.094454
O O12 0.680036 0.220013 0.490545
O O13 0.648861 0.200014 0.731486
O O14 0.579939 0.118855 0.712137
O O15 0.500000 0.823236 0.500000
O O16 0.632855 0.000000 0.629507
#
# Coordination Sequence:
#
# PCOD9183830 Si02
#       7
#     8   8   8   8   8   8   8
#     4   9  18  33  55  85 115 142 174 215 270 329
#     4  11  22  38  57  77 108 144 180 220 271 328
#     4  10  19  33  56  82 108 141 184 229 266 308
#     4  10  20  34  55  84 112 136 174 222 271 327
#     4  10  20  33  57  87 113 138 169 219 277 326
#     4  11  24  39  55  77 107 145 187 228 268 315
#     4   9  17  31  54  83 114 144 175 218 270 323
#
# _framework density 18.849827999999999
#
# number of rings (size 3 to 8) (size 9 to 14) (size 15 to 20)
#    0.000    2.000    0.000    4.286    0.000    7.714 
#    0.000    0.714    0.000   12.857    0.000    0.000 
#    0.000    0.000    0.000    0.000    0.000    0.000 
#
# Total GULP energy -156210.308047 kJ/mol
# GULP energy per Si atom -5578.939573 kJ/mol
# Density = 1.880693 g / cm^3
# Si number density = 18.849828 Si / 1000 Ang^3
#
#
#
# Elastic Constant Matrix: (Units=GPa)
#
#
# Indices 1 2 3 4 5 6 
#
# 1 93.7839 59.9482 50.1374 0.0007 15.1720 -0.0003
# 2 59.9482 127.6411 45.6575 -0.0011 2.6485 -0.0003
# 3 50.1374 45.6575 63.7176 -0.0007 5.4230 -0.0002
# 4 0.0007 -0.0011 -0.0007 14.3571 0.0003 -5.3458
# 5 15.1720 2.6485 5.4230 0.0003 32.0533 0.0002
# 6 -0.0003 -0.0003 -0.0002 -5.3458 0.0002 16.2545
#
#
#
# Elastic Compliance Matrix: (Units=1/GPa)
#
#
# Indices 1 2 3 4 5 6 
#
# 1 0.022590 -0.005821 -0.012921 -0.000002 -0.008026 0.000000
# 2 -0.005821 0.012040 -0.004258 0.000001 0.002481 0.000000
# 3 -0.012921 -0.004258 0.028776 0.000002 0.001599 0.000001
# 4 -0.000002 0.000001 0.000002 0.079371 0.000000 0.026104
# 5 -0.008026 0.002481 0.001599 0.000000 0.034521 -0.000001
# 6 0.000000 0.000000 0.000001 0.026104 -0.000001 0.070106
#
#
# Mechanical properties :
#
#
# Convention : Reuss Voigt Hill
#
# Bulk Modulus (GPa) = 57.45186 66.29207 61.87196
# Shear Modulus (GPa) = 16.71081 21.15962 18.93521
#
# Velocity S-wave (km/s) = 2.98068 3.35406 3.17287
# Velocity P-wave (km/s) = 6.51083 7.08834 6.80571
#
# Compressibility (1/GPa) = 0.01740588
#
# Stress axis : x y z
#
# Youngs Moduli (GPa) = 44.26791 83.05573 34.75073
#
# Poissons Ratio (x) = 0.48348 0.44901
# Poissons Ratio (y) = 0.25769 0.14797
# Poissons Ratio (z) = 0.57198 0.35366
#
# Static dielectric constant tensor:
#      x y z
#    x 1.653340 0.000000 0.003890 
#    y 0.000000 1.652630 0.000000 
#    z 0.003890 0.000000 1.730270 
# 
# From -- ./inp_files/170287.got.cif
#   From: 2010.05.17/outbox.cif.g08.bks.cpg/sg12_86_cif.got.tgz:170287.got - 2010.06.03 13:09:07.
