data_PCOD9183501
_publ_section_title
;
Structure prediction by ZEFSAII (Michael W. Deem and Ramdas Pophale) SiO2 
 PCOD9183501
Probable space group: C 2/M
;
_chemical_formula_sum "Si O2"
_cell_formula_units_Z 56
_cell_length_a 15.414283
_cell_length_b 9.552582
_cell_length_c 28.204741
_cell_angle_alpha 90.000000
_cell_angle_beta 134.448112
_cell_angle_gamma 90.000000
_cell_volume 2964.793307
_symmetry_space_group_name_H-M "C 2/M"
_symmetry_group_IT_number 12
_symmetry_cell_setting 'monoclinic'
loop_
_space_group_symop_operation_xyz
x,y,z
-x,y,-z
-x,-y,-z
x,-y,z
1/2+x,1/2+y,z
1/2-x,1/2+y,-z
1/2-x,1/2-y,-z
1/2+x,1/2-y,z
loop_
_atom_site_type_symbol
_atom_site_label
_atom_site_fract_x
_atom_site_fract_y
_atom_site_fract_z
Si Si1 0.066914 0.164863 0.170952
Si Si2 0.349943 0.159255 0.565600
Si Si3 0.108741 0.167067 0.076681
Si Si4 0.777415 0.161505 0.301634
Si Si5 0.644180 0.665938 0.840370
Si Si6 0.567923 0.840612 0.573061
Si Si7 0.002454 0.161449 0.690924
O O1 0.072890 0.194290 0.117493
O O2 0.164658 0.257540 0.235916
O O3 0.934949 0.188740 0.142924
O O4 0.096462 0.000000 0.189509
O O5 0.250000 0.250000 0.500000
O O6 0.465368 0.152453 0.574471
O O7 0.398261 0.238735 0.630641
O O8 0.309033 0.000000 0.559114
O O9 0.232616 0.247815 0.113405
O O10 0.127825 0.000000 0.078833
O O11 0.000000 0.208451 0.000000
O O12 0.827601 0.241894 0.366827
O O13 0.885687 0.164613 0.303772
O O14 0.749297 0.000000 0.300809
O O15 0.670231 0.500000 0.845451
O O16 0.558460 0.704059 0.762777
O O17 0.500000 0.788922 0.500000
O O18 0.611535 0.000000 0.580703
O O19 0.959860 0.000000 0.677604
#
# Coordination Sequence:
#
# PCOD9183501 Si02
#       7
#     8   8   8   8   8   8   8
#     4  10  21  37  59  85 116 153 193 234 284 347
#     4  10  20  33  51  74 103 141 183 227 279 336
#     4  10  22  40  61  87 121 156 189 236 293 343
#     4  10  19  33  55  80 108 143 187 239 289 336
#     4  10  21  38  60  87 115 151 196 236 281 343
#     4   9  19  35  53  73 102 144 189 229 279 341
#     4   9  18  34  54  75 104 141 184 234 282 333
#
# _framework density 18.888331000000001
#
# number of rings (size 3 to 8) (size 9 to 14) (size 15 to 20)
#    0.000    2.286    1.429    0.857    0.000    4.571 
#    0.000    5.714    0.000    0.000    0.000    0.000 
#    0.000    0.000    0.000    0.000    0.000    0.000 
#
# Total GULP energy -156351.977583 kJ/mol
# GULP energy per Si atom -5583.999199 kJ/mol
# Density = 1.884534 g / cm^3
# Si number density = 18.888331 Si / 1000 Ang^3
#
#
#
# Elastic Constant Matrix: (Units=GPa)
#
#
# Indices 1 2 3 4 5 6 
#
# 1 62.5824 54.3294 58.0305 0.0000 2.9389 0.0000
# 2 54.3294 108.2487 105.7838 0.0000 9.1187 0.0000
# 3 58.0305 105.7838 174.8526 0.0000 5.9819 0.0000
# 4 0.0000 0.0000 0.0000 27.3962 0.0000 10.7154
# 5 2.9389 9.1187 5.9819 0.0000 16.1280 0.0000
# 6 0.0000 0.0000 0.0000 10.7154 0.0000 17.2240
#
#
#
# Elastic Compliance Matrix: (Units=1/GPa)
#
#
# Indices 1 2 3 4 5 6 
#
# 1 0.028704 -0.012804 -0.001872 0.000000 0.002703 0.000000
# 2 -0.012804 0.029324 -0.013171 0.000000 -0.009361 0.000000
# 3 -0.001872 -0.013171 0.014223 0.000000 0.002513 0.000000
# 4 0.000000 0.000000 0.000000 0.048239 0.000000 -0.030011
# 5 0.002703 -0.009361 0.002513 0.000000 0.065872 0.000000
# 6 0.000000 0.000000 0.000000 -0.030011 0.000000 0.076729
#
#
# Mechanical properties :
#
#
# Convention : Reuss Voigt Hill
#
# Bulk Modulus (GPa) = 60.40275 86.88566 73.64420
# Shear Modulus (GPa) = 15.41759 20.65231 18.03495
#
# Velocity S-wave (km/s) = 2.86011 3.31023 3.09337
# Velocity P-wave (km/s) = 6.55403 7.79164 7.19948
#
# Compressibility (1/GPa) = 0.01655554
#
# Stress axis : x y z
#
# Youngs Moduli (GPa) = 34.83842 34.10184 70.31008
#
# Poissons Ratio (x) = 0.43665 0.13164
# Poissons Ratio (y) = 0.44609 0.92604
# Poissons Ratio (z) = 0.06523 0.44915
#
# Static dielectric constant tensor:
#      x y z
#    x 1.665680 0.000000 -0.015690 
#    y 0.000000 1.648500 0.000000 
#    z -0.015690 0.000000 1.619740 
# 
# From -- ./inp_files/377740.got.cif
#   From: 2010.05.17/outbox.cif.g08.bks.cpg/sg12_189_cif.got.tgz:377740.got - 2010.06.03 13:09:07.
