data_PCOD9183097
_publ_section_title
;
Structure prediction by ZEFSAII (Michael W. Deem and Ramdas Pophale) SiO2 
 PCOD9183097
Probable space group: C 2/M
;
_chemical_formula_sum "Si O2"
_cell_formula_units_Z 64
_cell_length_a 30.693289
_cell_length_b 7.660936
_cell_length_c 24.530470
_cell_angle_alpha 90.000000
_cell_angle_beta 29.663969
_cell_angle_gamma 90.000000
_cell_volume 2854.692933
_symmetry_space_group_name_H-M "C 2/M"
_symmetry_group_IT_number 12
_symmetry_cell_setting 'monoclinic'
loop_
_space_group_symop_operation_xyz
x,y,z
-x,y,-z
-x,-y,-z
x,-y,z
1/2+x,1/2+y,z
1/2-x,1/2+y,-z
1/2-x,1/2-y,-z
1/2+x,1/2-y,z
loop_
_atom_site_type_symbol
_atom_site_label
_atom_site_fract_x
_atom_site_fract_y
_atom_site_fract_z
Si Si1 0.776665 0.204140 0.727004
Si Si2 0.291921 0.294637 0.397630
Si Si3 0.852894 0.204450 0.531048
Si Si4 0.194601 0.790807 0.182023
Si Si5 0.029413 0.211067 0.832917
Si Si6 0.402166 0.701104 0.129906
Si Si7 0.034849 0.786135 0.281365
Si Si8 0.875488 0.789717 0.929625
O O1 0.829331 0.277918 0.616930
O O2 0.791082 0.279155 0.772003
O O3 0.673395 0.214535 0.823693
O O4 0.800457 0.000000 0.704194
O O5 0.288904 0.500000 0.390092
O O6 0.250000 0.250000 0.500000
O O7 0.233963 0.215509 0.412096
O O8 0.395020 0.252705 0.292751
O O9 0.937388 0.274399 0.405630
O O10 0.871996 0.000000 0.518720
O O11 0.103805 0.733535 0.253280
O O12 0.191095 0.000000 0.189678
O O13 0.275433 0.752827 0.053086
O O14 0.077355 0.283240 0.834026
O O15 0.936171 0.275210 0.913873
O O16 0.127231 0.000000 0.831516
O O17 0.479864 0.500000 0.148517
O O18 0.500000 0.698887 0.000000
O O19 0.078829 0.728037 0.176154
O O20 0.032070 0.000000 0.281055
O O21 0.881272 0.000000 0.922085
#
# Coordination Sequence:
#
# PCOD9183097 Si02
#       8
#     8   8   8   8   8   8   8   8
#     4  10  21  35  54  81 114 145 182 232 281 330
#     4  11  21  35  55  80 112 147 181 225 271 325
#     4  10  20  37  58  81 109 147 190 232 277 331
#     4  10  21  37  55  81 113 146 182 230 289 337
#     4   9  18  32  51  77 106 138 175 213 263 322
#     4  10  19  33  54  77 104 142 184 220 262 327
#     4   9  19  36  59  81 108 146 188 233 281 335
#     4  10  19  35  58  82 106 140 186 233 276 330
#
# _framework density 22.419225000000001
#
# number of rings (size 3 to 8) (size 9 to 14) (size 15 to 20)
#    0.000    2.125    1.250    2.250    0.000    4.250 
#    0.000    6.875    0.000    0.000    0.000    2.625 
#    0.000    0.000    0.000    0.000    0.000    0.000 
#
# Total GULP energy -178441.232444 kJ/mol
# GULP energy per Si atom -5576.288514 kJ/mol
# Density = 2.236820 g / cm^3
# Si number density = 22.419225 Si / 1000 Ang^3
#
#
#
# Elastic Constant Matrix: (Units=GPa)
#
#
# Indices 1 2 3 4 5 6 
#
# 1 96.0417 0.4007 26.4683 -0.0078 2.6091 -0.0024
# 2 0.4007 35.7988 4.7756 -0.0176 2.2938 0.0102
# 3 26.4683 4.7756 99.9054 -0.0400 -1.9500 -0.0012
# 4 -0.0078 -0.0176 -0.0400 13.1313 -0.0011 2.0101
# 5 2.6091 2.2938 -1.9500 -0.0011 39.8130 0.0036
# 6 -0.0024 0.0102 -0.0012 2.0101 0.0036 0.5389
#
#
#
# Elastic Compliance Matrix: (Units=1/GPa)
#
#
# Indices 1 2 3 4 5 6 
#
# 1 0.011267 0.000335 -0.003019 -0.000021 -0.000906 0.000121
# 2 0.000335 0.028237 -0.001472 0.000266 -0.001721 -0.001517
# 3 -0.003019 -0.001472 0.010896 0.000057 0.000816 -0.000179
# 4 -0.000021 0.000266 0.000057 0.177505 0.000054 -0.662083
# 5 -0.000906 -0.001721 0.000816 0.000054 0.025316 -0.000342
# 6 0.000121 -0.001517 -0.000179 -0.662083 -0.000342 4.325128
#
#
# Mechanical properties :
#
#
# Convention : Reuss Voigt Hill
#
# Bulk Modulus (GPa) = 23.75977 32.78169 28.27073
# Shear Modulus (GPa) = 1.08679 24.03672 12.56176
#
# Velocity S-wave (km/s) = 0.69700 3.27792 2.36966
# Velocity P-wave (km/s) = 3.35689 5.38333 4.48603
#
# Compressibility (1/GPa) = 0.04208795
#
# Stress axis : x y z
#
# Youngs Moduli (GPa) = 88.75245 35.41413 91.78057
#
# Poissons Ratio (x) = -0.01185 0.27706
# Poissons Ratio (y) = -0.02969 0.13509
# Poissons Ratio (z) = 0.26792 0.05213
#
# Static dielectric constant tensor:
#      x y z
#    x 1.858850 -0.000020 0.099110 
#    y -0.000020 1.849630 -0.000080 
#    z 0.099110 -0.000080 2.042440 
# 
# From -- ./inp_files/353413.got.cif
#   From: 2010.05.17/outbox.cif.g08.bks.cpg/sg12_177_cif.got.tgz:353413.got - 2010.06.03 13:09:07.
