data_PCOD9183618
_publ_section_title
;
Structure prediction by ZEFSAII (Michael W. Deem and Ramdas Pophale) SiO2 
 PCOD9183618
Probable space group: C 2/M
;
_chemical_formula_sum "Si O2"
_cell_formula_units_Z 64
_cell_length_a 9.710042
_cell_length_b 27.056751
_cell_length_c 20.396294
_cell_angle_alpha 90.000000
_cell_angle_beta 142.815083
_cell_angle_gamma 90.000000
_cell_volume 3238.656306
_symmetry_space_group_name_H-M "C 2/M"
_symmetry_group_IT_number 12
_symmetry_cell_setting 'monoclinic'
loop_
_space_group_symop_operation_xyz
x,y,z
-x,y,-z
-x,-y,-z
x,-y,z
1/2+x,1/2+y,z
1/2-x,1/2+y,-z
1/2-x,1/2-y,-z
1/2+x,1/2-y,z
loop_
_atom_site_type_symbol
_atom_site_label
_atom_site_fract_x
_atom_site_fract_y
_atom_site_fract_z
Si Si1 0.462917 0.753488 0.820053
Si Si2 0.249064 0.103755 0.376777
Si Si3 0.879218 0.812555 0.239154
Si Si4 0.415432 0.940320 0.761129
Si Si5 0.617509 0.676093 0.979047
Si Si6 0.931111 0.439913 0.318136
Si Si7 0.091047 0.943480 0.439911
Si Si8 0.479303 0.110776 0.061847
O O1 0.231692 0.784657 0.740718
O O2 0.525223 0.726954 0.776356
O O3 0.460813 0.711210 0.875410
O O4 0.672969 0.789536 0.917071
O O5 0.500000 0.114936 0.500000
O O6 0.268744 0.086840 0.308862
O O7 0.153825 0.060311 0.387016
O O8 0.081247 0.148962 0.326372
O O9 0.666427 0.844762 0.130182
O O10 0.581527 0.927102 0.763583
O O11 0.474377 0.919476 0.854569
O O12 0.159803 0.921570 0.647005
O O13 0.409648 0.000000 0.761905
O O14 0.500000 0.656967 0.000000
O O15 0.731169 0.634338 0.977916
O O16 0.911925 0.500000 0.318027
O O17 0.187572 0.424592 0.438040
O O18 0.071972 0.000000 0.453405
O O19 0.500000 0.083897 0.000000
#
# Coordination Sequence:
#
# PCOD9183618 Si02
#       8
#     8   8   8   8   8   8   8   8
#     4  10  20  33  56  79 108 137 178 236 292 341
#     4  10  20  35  57  86 120 149 187 231 279 338
#     4  11  21  38  56  83 111 143 186 234 293 340
#     4  10  20  35  54  82 120 156 188 225 279 338
#     4  10  19  33  55  83 105 131 181 243 295 328
#     4   9  18  33  56  85 118 151 190 235 279 321
#     4   9  16  31  57  87 115 149 190 235 276 322
#     4  11  22  36  57  84 114 147 192 236 280 341
#
# _framework density 19.761282000000001
#
# number of rings (size 3 to 8) (size 9 to 14) (size 15 to 20)
#    0.000    2.000    3.750    0.750    0.000    4.250 
#    0.000    0.625    0.000    0.375    0.000    0.000 
#    0.000    0.000    0.000    0.000    0.000    0.000 
#
# Total GULP energy -178352.050187 kJ/mol
# GULP energy per Si atom -5573.501568 kJ/mol
# Density = 1.971630 g / cm^3
# Si number density = 19.761282 Si / 1000 Ang^3
#
#
#
# Elastic Constant Matrix: (Units=GPa)
#
#
# Indices 1 2 3 4 5 6 
#
# 1 154.8124 38.0492 32.9172 -0.0001 -19.5615 -0.0005
# 2 38.0492 42.7461 16.2034 -0.0001 -1.2812 -0.0004
# 3 32.9172 16.2034 23.4541 0.0002 -4.5935 -0.0002
# 4 -0.0001 -0.0001 0.0002 18.5369 0.0002 5.0095
# 5 -19.5615 -1.2812 -4.5935 0.0002 33.6957 0.0001
# 6 -0.0005 -0.0004 -0.0002 5.0095 0.0001 14.3016
#
#
#
# Elastic Compliance Matrix: (Units=1/GPa)
#
#
# Indices 1 2 3 4 5 6 
#
# 1 0.010508 -0.005369 -0.010155 0.000000 0.004512 0.000000
# 2 -0.005369 0.034547 -0.017143 0.000000 -0.004140 0.000000
# 3 -0.010155 -0.017143 0.069300 -0.000001 0.002900 0.000000
# 4 0.000000 0.000000 -0.000001 0.059587 0.000000 -0.020872
# 5 0.004512 -0.004140 0.002900 0.000000 0.032535 0.000000
# 6 0.000000 0.000000 0.000000 -0.020872 0.000000 0.077233
#
#
# Mechanical properties :
#
#
# Convention : Reuss Voigt Hill
#
# Bulk Modulus (GPa) = 20.39916 43.92801 32.16359
# Shear Modulus (GPa) = 13.68420 22.22971 17.95695
#
# Velocity S-wave (km/s) = 2.63435 3.35761 3.01772
# Velocity P-wave (km/s) = 4.42699 6.10811 5.33419
#
# Compressibility (1/GPa) = 0.04902163
#
# Stress axis : x y z
#
# Youngs Moduli (GPa) = 95.16165 28.94602 14.42997
#
# Poissons Ratio (x) = 0.15541 0.14654
# Poissons Ratio (y) = 0.51092 0.24737
# Poissons Ratio (z) = 0.96641 0.49621
#
# Static dielectric constant tensor:
#      x y z
#    x 1.743520 0.000000 -0.006170 
#    y 0.000000 1.706190 0.000000 
#    z -0.006170 0.000000 1.713010 
# 
# From -- ./inp_files/260389.got.cif
#   From: 2010.05.17/outbox.cif.g08.bks.cpg/sg12_131_cif.got.tgz:260389.got - 2010.06.03 13:09:07.
