data_PCOD9183991
_publ_section_title
;
Structure prediction by ZEFSAII (Michael W. Deem and Ramdas Pophale) SiO2 
 PCOD9183991
Probable space group: C 2/M
;
_chemical_formula_sum "Si O2"
_cell_formula_units_Z 64
_cell_length_a 30.295203
_cell_length_b 20.645431
_cell_length_c 19.387382
_cell_angle_alpha 90.000000
_cell_angle_beta 16.241019
_cell_angle_gamma 90.000000
_cell_volume 3391.377295
_symmetry_space_group_name_H-M "C 2/M"
_symmetry_group_IT_number 12
_symmetry_cell_setting 'monoclinic'
loop_
_space_group_symop_operation_xyz
x,y,z
-x,y,-z
-x,-y,-z
x,-y,z
1/2+x,1/2+y,z
1/2-x,1/2+y,-z
1/2-x,1/2-y,-z
1/2+x,1/2-y,z
loop_
_atom_site_type_symbol
_atom_site_label
_atom_site_fract_x
_atom_site_fract_y
_atom_site_fract_z
Si Si1 0.271641 0.710924 0.538120
Si Si2 0.149628 0.808347 0.978850
Si Si3 0.325028 0.573944 0.287421
Si Si4 0.741693 0.570875 0.450334
Si Si5 0.182760 0.293933 0.038731
Si Si6 0.069842 0.929400 0.176616
Si Si7 0.188755 0.312491 0.410021
Si Si8 0.874888 0.074194 0.749310
O O1 0.250000 0.750000 0.500000
O O2 0.183243 0.641720 0.673008
O O3 0.235063 0.755260 0.658600
O O4 0.460579 0.699032 0.257016
O O5 0.222531 0.819112 0.795038
O O6 0.215721 0.745418 0.918619
O O7 0.172631 0.871162 0.992446
O O8 0.295915 0.500000 0.308780
O O9 0.317152 0.575015 0.382040
O O10 0.206334 0.623469 0.430163
O O11 0.500000 0.592440 0.000000
O O12 0.823324 0.500000 0.321060
O O13 0.594613 0.569537 0.618243
O O14 0.994057 0.297662 0.328867
O O15 0.250000 0.250000 0.000000
O O16 0.254022 0.365973 0.928854
O O17 0.044373 0.921129 0.296322
O O18 0.145204 0.000000 0.052666
O O19 0.000000 0.081560 0.500000
O O20 0.809747 0.000000 0.841921
#
# Coordination Sequence:
#
# PCOD9183991 Si02
#       8
#     8   8   8   8   8   8   8   8
#     4  10  19  34  54  82 120 150 194 244 288 350
#     4  10  22  36  57  86 116 154 197 243 310 366
#     4  10  19  33  56  87 121 158 194 231 288 369
#     4   9  17  30  52  78 111 151 185 232 289 340
#     4  11  24  41  59  84 120 158 201 257 315 367
#     4   9  17  34  57  87 121 151 196 244 291 358
#     4  11  24  36  57  89 117 158 202 247 308 366
#     4  10  22  40  66  90 114 156 207 256 304 360
#
# _framework density 18.871388
#
# number of rings (size 3 to 8) (size 9 to 14) (size 15 to 20)
#    0.000    2.000    2.500    1.500    1.750    2.000 
#    0.000    0.000    0.000    1.500    0.000    0.875 
#    0.000    0.500    0.000    0.000    0.000    0.000 
#
# Total GULP energy -178351.834328 kJ/mol
# GULP energy per Si atom -5573.494823 kJ/mol
# Density = 1.882844 g / cm^3
# Si number density = 18.871388 Si / 1000 Ang^3
#
#
#
# Elastic Constant Matrix: (Units=GPa)
#
#
# Indices 1 2 3 4 5 6 
#
# 1 117.9720 52.8557 22.1065 0.0008 14.5966 -0.0005
# 2 52.8557 146.1631 19.2823 -0.0061 0.3053 0.0022
# 3 22.1065 19.2823 17.6446 -0.0055 8.3463 -0.0008
# 4 0.0008 -0.0061 -0.0055 20.5885 0.0005 -5.9702
# 5 14.5966 0.3053 8.3463 0.0005 26.7325 0.0008
# 6 -0.0005 0.0022 -0.0008 -5.9702 0.0008 28.8290
#
#
#
# Elastic Compliance Matrix: (Units=1/GPa)
#
#
# Indices 1 2 3 4 5 6 
#
# 1 0.012198 -0.003037 -0.010359 -0.000004 -0.003392 -0.000001
# 2 -0.003037 0.008975 -0.007906 0.000000 0.004024 -0.000001
# 3 -0.010359 -0.007906 0.088670 0.000025 -0.021937 0.000009
# 4 -0.000004 0.000000 0.000025 0.051674 -0.000007 0.010701
# 5 -0.003392 0.004024 -0.021937 -0.000007 0.046063 -0.000004
# 6 -0.000001 -0.000001 0.000009 0.010701 -0.000004 0.036903
#
#
# Mechanical properties :
#
#
# Convention : Reuss Voigt Hill
#
# Bulk Modulus (GPa) = 14.87257 52.25209 33.56233
# Shear Modulus (GPa) = 16.15508 27.73235 21.94372
#
# Velocity S-wave (km/s) = 2.92903 3.83762 3.41369
# Velocity P-wave (km/s) = 4.39739 6.88368 5.77591
#
# Compressibility (1/GPa) = 0.06723785
#
# Stress axis : x y z
#
# Youngs Moduli (GPa) = 81.97850 111.42555 11.27780
#
# Poissons Ratio (x) = 0.33845 0.11683
# Poissons Ratio (y) = 0.24901 0.08916
# Poissons Ratio (z) = 0.84924 0.88089
#
# Static dielectric constant tensor:
#      x y z
#    x 1.646980 0.000000 -0.010850 
#    y 0.000000 1.735760 0.000000 
#    z -0.010850 0.000000 1.630350 
# 
# From -- ./inp_files/184712.got.cif
#   From: 2010.05.17/outbox.cif.g08.bks.cpg/sg12_93_cif.got.tgz:184712.got - 2010.06.03 13:09:07.
