data_PCOD9183103
_publ_section_title
;
Structure prediction by ZEFSAII (Michael W. Deem and Ramdas Pophale) SiO2 
 PCOD9183103
Probable space group: C 2/M
;
_chemical_formula_sum "Si O2"
_cell_formula_units_Z 48
_cell_length_a 13.763080
_cell_length_b 21.936861
_cell_length_c 13.716189
_cell_angle_alpha 90.000000
_cell_angle_beta 43.775746
_cell_angle_gamma 90.000000
_cell_volume 2865.020465
_symmetry_space_group_name_H-M "C 2/M"
_symmetry_group_IT_number 12
_symmetry_cell_setting 'monoclinic'
loop_
_space_group_symop_operation_xyz
x,y,z
-x,y,-z
-x,-y,-z
x,-y,z
1/2+x,1/2+y,z
1/2-x,1/2+y,-z
1/2-x,1/2-y,-z
1/2+x,1/2-y,z
loop_
_atom_site_type_symbol
_atom_site_label
_atom_site_fract_x
_atom_site_fract_y
_atom_site_fract_z
Si Si1 0.939095 0.299276 0.434724
Si Si2 0.049753 0.072627 0.352861
Si Si3 0.848534 0.339129 0.882413
Si Si4 0.856061 0.426873 0.051172
Si Si5 0.118947 0.825933 0.634319
Si Si6 0.563261 0.278426 0.058573
O O1 0.920303 0.229020 0.412301
O O2 0.785043 0.327891 0.531534
O O3 0.000000 0.301283 0.500000
O O4 0.043884 0.332995 0.284305
O O5 0.212447 0.090608 0.212735
O O6 0.000000 0.083459 0.500000
O O7 0.950143 0.112801 0.356479
O O8 0.037603 0.000000 0.343324
O O9 0.885068 0.284284 0.930620
O O10 0.852509 0.398895 0.945734
O O11 0.693796 0.324185 0.956383
O O12 0.858530 0.500000 0.045288
O O13 0.000000 0.406686 0.000000
O O14 0.048209 0.807113 0.787000
O O15 0.500000 0.265963 0.000000
#
# Coordination Sequence:
#
# PCOD9183103 Si02
#       6
#     8   8   8   8   8   8
#     4  10  21  35  54  81 111 144 178 219 270 321
#     4  10  21  37  58  82 108 141 180 223 271 323
#     4  10  20  34  53  80 108 138 177 220 269 319
#     4  10  21  37  57  82 110 140 178 225 274 321
#     4  10  20  36  55  80 111 142 178 222 269 319
#     4  10  19  33  54  77 107 142 177 218 265 322
#
# _framework density 16.753806999999998
#
# number of rings (size 3 to 8) (size 9 to 14) (size 15 to 20)
#    0.000    2.000    1.667    2.000    2.333    0.000 
#    6.000    0.000    0.000    6.000    0.000    0.000 
#    0.000    0.000    0.000    0.000    0.000    0.000 
#
# Total GULP energy -133881.152857 kJ/mol
# GULP energy per Si atom -5578.381369 kJ/mol
# Density = 1.671567 g / cm^3
# Si number density = 16.753807 Si / 1000 Ang^3
#
#
#
# Elastic Constant Matrix: (Units=GPa)
#
#
# Indices 1 2 3 4 5 6 
#
# 1 106.5230 21.0820 78.1756 -0.0001 1.9823 0.0000
# 2 21.0820 27.1002 31.1264 0.0001 0.3870 0.0000
# 3 78.1756 31.1264 119.1744 -0.0003 -18.0886 0.0001
# 4 -0.0001 0.0001 -0.0003 8.5013 0.0002 1.7652
# 5 1.9823 0.3870 -18.0886 0.0002 31.5160 0.0000
# 6 0.0000 0.0000 0.0001 1.7652 0.0000 24.3533
#
#
#
# Elastic Compliance Matrix: (Units=1/GPa)
#
#
# Indices 1 2 3 4 5 6 
#
# 1 0.020662 0.002055 -0.015656 0.000000 -0.010310 0.000000
# 2 0.002055 0.055568 -0.017510 -0.000001 -0.010862 0.000000
# 3 -0.015656 -0.017510 0.025651 0.000000 0.015922 0.000000
# 4 0.000000 -0.000001 0.000000 0.119426 0.000000 -0.008656
# 5 -0.010310 -0.010862 0.015922 0.000000 0.041650 0.000000
# 6 0.000000 0.000000 0.000000 -0.008656 0.000000 0.041690
#
#
# Mechanical properties :
#
#
# Convention : Reuss Voigt Hill
#
# Bulk Modulus (GPa) = 25.21448 57.06285 41.13867
# Shear Modulus (GPa) = 13.15483 21.03503 17.09493
#
# Velocity S-wave (km/s) = 2.80515 3.54720 3.19777
# Velocity P-wave (km/s) = 5.05713 7.13515 6.18405
#
# Compressibility (1/GPa) = 0.03965974
#
# Stress axis : x y z
#
# Youngs Moduli (GPa) = 48.39761 17.99594 38.98511
#
# Poissons Ratio (x) = -0.03698 0.61034
# Poissons Ratio (y) = -0.09946 0.68264
# Poissons Ratio (z) = 0.75769 0.31511
#
# Static dielectric constant tensor:
#      x y z
#    x 1.536600 0.000000 -0.026340 
#    y 0.000000 1.523420 0.000000 
#    z -0.026340 0.000000 1.574130 
# 
# From -- ./inp_files/50796.got.cif
#   From: 2010.05.17/outbox.cif.g08.bks.cpg/sg12_26_cif.got.tgz:50796.got - 2010.06.03 13:09:07.
