data_PCOD9183564
_publ_section_title
;
Structure prediction by ZEFSAII (Michael W. Deem and Ramdas Pophale) SiO2 
 PCOD9183564
Probable space group: C 2/M
;
_chemical_formula_sum "Si O2"
_cell_formula_units_Z 56
_cell_length_a 16.510146
_cell_length_b 7.835934
_cell_length_c 21.458452
_cell_angle_alpha 90.000000
_cell_angle_beta 127.120176
_cell_angle_gamma 90.000000
_cell_volume 2213.608242
_symmetry_space_group_name_H-M "C 2/M"
_symmetry_group_IT_number 12
_symmetry_cell_setting 'monoclinic'
loop_
_space_group_symop_operation_xyz
x,y,z
-x,y,-z
-x,-y,-z
x,-y,z
1/2+x,1/2+y,z
1/2-x,1/2+y,-z
1/2-x,1/2-y,-z
1/2+x,1/2-y,z
loop_
_atom_site_type_symbol
_atom_site_label
_atom_site_fract_x
_atom_site_fract_y
_atom_site_fract_z
Si Si1 0.630725 0.294455 0.953159
Si Si2 0.334625 0.795853 0.761284
Si Si3 0.868713 0.201603 0.181566
Si Si4 0.861849 0.803761 0.908534
Si Si5 0.127452 0.208218 0.617760
Si Si6 0.895847 0.794723 0.530101
Si Si7 0.572694 0.797862 0.323878
O O1 0.619370 0.500000 0.950382
O O2 0.600581 0.226778 0.007790
O O3 0.750000 0.250000 0.000000
O O4 0.589243 0.236303 0.866721
O O5 0.387517 0.759282 0.851439
O O6 0.217310 0.735383 0.704663
O O7 0.381247 0.726546 0.718890
O O8 0.331651 0.000000 0.754841
O O9 0.761086 0.288318 0.144259
O O10 0.958067 0.226691 0.272294
O O11 0.846271 0.000000 0.167356
O O12 0.891142 0.000000 0.922391
O O13 0.153274 0.258023 0.558191
O O14 0.013524 0.265444 0.578730
O O15 0.123689 0.000000 0.617520
O O16 0.864606 0.737007 0.584246
O O17 0.893612 0.000000 0.529749
O O18 0.564929 0.000000 0.314308
#
# Coordination Sequence:
#
# PCOD9183564 Si02
#       7
#     8   8   8   8   8   8   8
#     4   8  16  30  50  77 103 128 163 210 259 305
#     4  10  21  36  51  71 106 147 178 206 251 309
#     4  10  19  34  56  77 101 137 175 209 256 314
#     4  10  19  33  55  82 107 129 165 217 262 304
#     4   8  16  33  56  78  98 127 170 214 255 308
#     4   9  17  33  58  80  97 126 171 216 261 314
#     4  11  23  35  48  73 108 141 176 218 256 294
#
# _framework density 25.298061000000001
#
# number of rings (size 3 to 8) (size 9 to 14) (size 15 to 20)
#    0.000    2.571    0.000    3.000    0.000    4.000 
#    0.000    2.857    0.000    4.286    0.000    0.000 
#    0.000    0.000    0.000    0.000    0.000    0.000 
#
# Total GULP energy -156393.483436 kJ/mol
# GULP energy per Si atom -5585.481551 kJ/mol
# Density = 2.524048 g / cm^3
# Si number density = 25.298061 Si / 1000 Ang^3
#
#
#
# Elastic Constant Matrix: (Units=GPa)
#
#
# Indices 1 2 3 4 5 6 
#
# 1 84.9886 2.2039 29.0424 0.0000 -27.0172 0.0000
# 2 2.2039 38.3285 -3.0324 0.0000 0.6147 0.0000
# 3 29.0424 -3.0324 166.5347 0.0000 -23.9021 0.0000
# 4 0.0000 0.0000 0.0000 19.5379 0.0000 -14.1763
# 5 -27.0172 0.6147 -23.9021 0.0000 47.7165 0.0000
# 6 0.0000 0.0000 0.0000 -14.1763 0.0000 11.4230
#
#
#
# Elastic Compliance Matrix: (Units=1/GPa)
#
#
# Indices 1 2 3 4 5 6 
#
# 1 0.014722 -0.001087 -0.001496 0.000000 0.007600 0.000000
# 2 -0.001087 0.026209 0.000571 0.000000 -0.000667 0.000000
# 3 -0.001496 0.000571 0.006630 0.000000 0.002467 0.000000
# 4 0.000000 0.000000 0.000000 0.514176 0.000000 0.638104
# 5 0.007600 -0.000667 0.002467 0.000000 0.026504 0.000000
# 6 0.000000 0.000000 0.000000 0.638104 0.000000 0.879443
#
#
# Mechanical properties :
#
#
# Convention : Reuss Voigt Hill
#
# Bulk Modulus (GPa) = 22.96934 38.47551 30.72242
# Shear Modulus (GPa) = 3.36424 33.17802 18.27113
#
# Velocity S-wave (km/s) = 1.15444 3.62537 2.69036
# Velocity P-wave (km/s) = 3.29790 5.72419 4.67132
#
# Compressibility (1/GPa) = 0.04353630
#
# Stress axis : x y z
#
# Youngs Moduli (GPa) = 67.92660 38.15539 150.82682
#
# Poissons Ratio (x) = 0.04147 0.22569
# Poissons Ratio (y) = 0.07382 -0.08613
# Poissons Ratio (z) = 0.10164 -0.02179
#
# Static dielectric constant tensor:
#      x y z
#    x 2.102680 0.000000 -0.068840 
#    y 0.000000 1.918030 0.000000 
#    z -0.068840 0.000000 2.020420 
# 
# From -- ./inp_files/314408.got.cif
#   From: 2010.05.17/outbox.cif.g08.bks.cpg/sg12_158_cif.got.tgz:314408.got - 2010.06.03 13:09:07.
