data_PCOD9183583
_publ_section_title
;
Structure prediction by ZEFSAII (Michael W. Deem and Ramdas Pophale) SiO2 
 PCOD9183583
Probable space group: C 2/M
;
_chemical_formula_sum "Si O2"
_cell_formula_units_Z 56
_cell_length_a 27.569389
_cell_length_b 7.562628
_cell_length_c 15.018810
_cell_angle_alpha 90.000000
_cell_angle_beta 53.531606
_cell_angle_gamma 90.000000
_cell_volume 2518.206236
_symmetry_space_group_name_H-M "C 2/M"
_symmetry_group_IT_number 12
_symmetry_cell_setting 'monoclinic'
loop_
_space_group_symop_operation_xyz
x,y,z
-x,y,-z
-x,-y,-z
x,-y,z
1/2+x,1/2+y,z
1/2-x,1/2+y,-z
1/2-x,1/2-y,-z
1/2+x,1/2-y,z
loop_
_atom_site_type_symbol
_atom_site_label
_atom_site_fract_x
_atom_site_fract_y
_atom_site_fract_z
Si Si1 0.775389 0.289139 0.375318
Si Si2 0.245057 0.287814 0.901645
Si Si3 0.823866 0.783629 0.657802
Si Si4 0.988382 0.796176 0.781874
Si Si5 0.458089 0.716274 0.462968
Si Si6 0.589265 0.785043 0.814990
Si Si7 0.383604 0.794675 0.021263
O O1 0.778287 0.500000 0.360260
O O2 0.750000 0.250000 0.500000
O O3 0.727973 0.223825 0.353941
O O4 0.843804 0.227667 0.288259
O O5 0.243437 0.500000 0.894885
O O6 0.301281 0.227799 0.780116
O O7 0.181730 0.217449 0.931114
O O8 0.250000 0.250000 0.000000
O O9 0.889752 0.724016 0.555601
O O10 0.825603 0.000000 0.654155
O O11 0.014645 0.722233 0.660914
O O12 0.039627 0.784852 0.801538
O O13 0.973075 0.000000 0.781769
O O14 0.928544 0.714324 0.889385
O O15 0.500000 0.766772 0.500000
O O16 0.456758 0.500000 0.461154
O O17 0.585083 0.725850 0.922670
O O18 0.583660 0.000000 0.816585
O O19 0.372318 0.000000 0.054633
#
# Coordination Sequence:
#
# PCOD9183583 Si02
#       7
#     8   8   8   8   8   8   8
#     4  10  19  33  55  82 110 146 188 231 277 329
#     4  10  21  37  60  86 111 145 189 234 280 329
#     4   9  17  34  57  78 107 145 186 227 269 330
#     4  11  23  36  56  88 116 144 186 239 290 327
#     4   9  19  34  53  80 111 144 183 226 277 334
#     4  10  20  37  58  80 110 152 194 226 276 347
#     4  10  21  39  59  82 113 153 193 226 273 343
#
# _framework density 22.238050999999999
#
# number of rings (size 3 to 8) (size 9 to 14) (size 15 to 20)
#    0.000    2.143    1.429    1.714    2.000    4.571 
#    0.000    0.714    0.000    3.429    0.000    0.000 
#    0.000    0.000    0.000    0.000    0.000    0.000 
#
# Total GULP energy -156445.597384 kJ/mol
# GULP energy per Si atom -5587.342764 kJ/mol
# Density = 2.218744 g / cm^3
# Si number density = 22.238051 Si / 1000 Ang^3
#
#
#
# Elastic Constant Matrix: (Units=GPa)
#
#
# Indices 1 2 3 4 5 6 
#
# 1 58.9991 -7.4535 33.4114 -0.0004 5.6526 0.0002
# 2 -7.4535 46.6723 -6.7151 -0.0002 -0.1807 -0.0006
# 3 33.4114 -6.7151 170.6117 -0.0002 11.3762 0.0003
# 4 -0.0004 -0.0002 -0.0002 16.1966 0.0000 14.6353
# 5 5.6526 -0.1807 11.3762 0.0000 41.5551 0.0000
# 6 0.0002 -0.0006 0.0003 14.6353 0.0000 -5.8427
#
#
#
# Elastic Compliance Matrix: (Units=1/GPa)
#
#
# Indices 1 2 3 4 5 6 
#
# 1 0.019474 0.002585 -0.003602 0.000000 -0.001652 0.000000
# 2 0.002585 0.021892 0.000379 0.000001 -0.000360 0.000000
# 3 -0.003602 0.000379 0.006671 0.000000 -0.001335 0.000000
# 4 0.000000 0.000001 0.000000 0.018919 0.000000 0.047390
# 5 -0.001652 -0.000360 -0.001335 0.000000 0.024653 0.000000
# 6 0.000000 0.000000 0.000000 0.047390 0.000000 -0.052446
#
#
# Mechanical properties :
#
#
# Convention : Reuss Voigt Hill
#
# Bulk Modulus (GPa) = 21.38464 34.97428 28.17946
# Shear Modulus (GPa) = 89.24705 27.51782 58.38244
#
# Velocity S-wave (km/s) = 6.34190 3.52152 5.12937
# Velocity P-wave (km/s) = 7.95383 5.68297 6.91229
#
# Compressibility (1/GPa) = 0.04676254
#
# Stress axis : x y z
#
# Youngs Moduli (GPa) = 51.35064 45.67862 149.91332
#
# Poissons Ratio (x) = -0.11810 0.53995
# Poissons Ratio (y) = -0.13276 -0.05687
# Poissons Ratio (z) = 0.18495 -0.01733
#
# Static dielectric constant tensor:
#      x y z
#    x 1.778790 0.000000 -0.001400 
#    y 0.000000 1.861530 0.000000 
#    z -0.001400 0.000000 1.765290 
# 
# From -- ./inp_files/238244.got.cif
#   From: 2010.05.17/outbox.cif.g08.bks.cpg/sg12_120_cif.got.tgz:238244.got - 2010.06.03 13:09:07.
