data_PCOD9183773
_publ_section_title
;
Structure prediction by ZEFSAII (Michael W. Deem and Ramdas Pophale) SiO2 
 PCOD9183773
Probable space group: C 2/M
;
_chemical_formula_sum "Si O2"
_cell_formula_units_Z 64
_cell_length_a 28.848163
_cell_length_b 8.685689
_cell_length_c 35.527328
_cell_angle_alpha 90.000000
_cell_angle_beta 156.613760
_cell_angle_gamma 90.000000
_cell_volume 3533.427167
_symmetry_space_group_name_H-M "C 2/M"
_symmetry_group_IT_number 12
_symmetry_cell_setting 'monoclinic'
loop_
_space_group_symop_operation_xyz
x,y,z
-x,y,-z
-x,-y,-z
x,-y,z
1/2+x,1/2+y,z
1/2-x,1/2+y,-z
1/2-x,1/2-y,-z
1/2+x,1/2-y,z
loop_
_atom_site_type_symbol
_atom_site_label
_atom_site_fract_x
_atom_site_fract_y
_atom_site_fract_z
Si Si1 0.372903 0.184364 0.106478
Si Si2 0.590191 0.315862 0.718805
Si Si3 0.405164 0.686405 0.362680
Si Si4 0.830419 0.683548 0.526883
Si Si5 0.470570 0.316173 0.107392
Si Si6 0.286202 0.813771 0.720061
Si Si7 0.325756 0.686304 0.441654
Si Si8 0.278826 0.185355 0.113966
O O1 0.464765 0.253179 0.145883
O O2 0.370692 0.224717 0.148922
O O3 0.373987 0.000000 0.104328
O O4 0.250000 0.250000 0.000000
O O5 0.576326 0.500000 0.709288
O O6 0.628581 0.271421 0.705119
O O7 0.463558 0.241128 0.631435
O O8 0.680482 0.262268 0.817499
O O9 0.405045 0.500000 0.365051
O O10 0.314679 0.740790 0.326600
O O11 0.540295 0.732660 0.468031
O O12 0.826964 0.500000 0.525122
O O13 0.750000 0.750000 0.500000
O O14 0.793218 0.743251 0.457683
O O15 0.471303 0.500000 0.109038
O O16 0.587368 0.252039 0.175938
O O17 0.350752 0.268629 0.996837
O O18 0.252084 0.769461 0.652010
O O19 0.290327 0.000000 0.724403
O O20 0.323431 0.500000 0.443600
O O21 0.279071 0.000000 0.118027
#
# Coordination Sequence:
#
# PCOD9183773 Si02
#       8
#     8   8   8   8   8   8   8   8
#     4   9  17  31  51  73  99 132 169 209 253 304
#     4  10  20  35  57  81 104 135 177 220 260 308
#     4   8  16  33  55  79 104 132 171 216 262 312
#     4  11  22  37  56  79 111 144 174 212 256 305
#     4  10  21  35  50  74 109 141 174 219 263 309
#     4  10  19  33  56  80 104 137 174 217 266 311
#     4   9  18  34  56  81 107 136 173 214 259 313
#     4   9  19  35  53  74 103 140 178 214 258 312
#
# _framework density 18.112727
#
# number of rings (size 3 to 8) (size 9 to 14) (size 15 to 20)
#    0.000    2.500    0.000    4.125    0.000    6.000 
#    0.000    5.000    0.000    7.500    0.000    0.000 
#    0.000    0.000    0.000    0.000    0.000    0.000 
#
# Total GULP energy -178447.785555 kJ/mol
# GULP energy per Si atom -5576.493299 kJ/mol
# Density = 1.807150 g / cm^3
# Si number density = 18.112727 Si / 1000 Ang^3
#
#
#
# Elastic Constant Matrix: (Units=GPa)
#
#
# Indices 1 2 3 4 5 6 
#
# 1 127.3164 38.3969 63.5631 0.0029 5.9869 0.0000
# 2 38.3969 45.6578 30.5031 0.0002 -5.5641 0.0034
# 3 63.5631 30.5031 81.1435 0.0040 -11.9920 0.0001
# 4 0.0029 0.0002 0.0040 26.8214 -0.0020 -0.4069
# 5 5.9869 -5.5641 -11.9920 -0.0020 25.2897 -0.0003
# 6 0.0000 0.0034 0.0001 -0.4069 -0.0003 25.2292
#
#
#
# Elastic Compliance Matrix: (Units=1/GPa)
#
#
# Indices 1 2 3 4 5 6 
#
# 1 0.016473 -0.007330 -0.011789 -0.000001 -0.011103 0.000001
# 2 -0.007330 0.032550 -0.005569 0.000002 0.006256 -0.000004
# 3 -0.011789 -0.005569 0.025684 -0.000001 0.013744 0.000001
# 4 -0.000001 0.000002 -0.000001 0.037293 0.000003 0.000601
# 5 -0.011103 0.006256 0.013744 0.000003 0.050064 0.000000
# 6 0.000001 -0.000004 0.000001 0.000601 0.000000 0.039646
#
#
# Mechanical properties :
#
#
# Convention : Reuss Voigt Hill
#
# Bulk Modulus (GPa) = 39.48083 57.67155 48.57619
# Shear Modulus (GPa) = 19.26555 23.57837 21.42196
#
# Velocity S-wave (km/s) = 3.26490 3.61190 3.44277
# Velocity P-wave (km/s) = 6.00478 7.02167 6.53304
#
# Compressibility (1/GPa) = 0.02532875
#
# Stress axis : x y z
#
# Youngs Moduli (GPa) = 60.70489 30.72222 38.93500
#
# Poissons Ratio (x) = 0.22520 0.45902
# Poissons Ratio (y) = 0.44498 0.21684
# Poissons Ratio (z) = 0.71567 0.17110
#
# Static dielectric constant tensor:
#      x y z
#    x 1.630610 0.000000 -0.000060 
#    y 0.000000 1.611470 0.000000 
#    z -0.000060 0.000000 1.610960 
# 
# From -- ./inp_files/382433.got.cif
#   From: 2010.05.17/outbox.cif.g08.bks.cpg/sg12_192_cif.got.tgz:382433.got - 2010.06.03 13:09:07.
