data_PCOD9183572
_publ_section_title
;
Structure prediction by ZEFSAII (Michael W. Deem and Ramdas Pophale) SiO2 
 PCOD9183572
Probable space group: C 2/M
;
_chemical_formula_sum "Si O2"
_cell_formula_units_Z 40
_cell_length_a 28.255004
_cell_length_b 8.819664
_cell_length_c 9.302652
_cell_angle_alpha 90.000000
_cell_angle_beta 70.870654
_cell_angle_gamma 90.000000
_cell_volume 2190.208336
_symmetry_space_group_name_H-M "C 2/M"
_symmetry_group_IT_number 12
_symmetry_cell_setting 'monoclinic'
loop_
_space_group_symop_operation_xyz
x,y,z
-x,y,-z
-x,-y,-z
x,-y,z
1/2+x,1/2+y,z
1/2-x,1/2+y,-z
1/2-x,1/2-y,-z
1/2+x,1/2-y,z
loop_
_atom_site_type_symbol
_atom_site_label
_atom_site_fract_x
_atom_site_fract_y
_atom_site_fract_z
Si Si1 0.894070 0.180873 0.952636
Si Si2 0.892153 0.682840 0.273530
Si Si3 0.297981 0.682551 0.533245
Si Si4 0.203141 0.182436 0.131304
Si Si5 0.503071 0.825235 0.171588
O O1 0.848699 0.226974 0.894100
O O2 0.948288 0.229243 0.838008
O O3 0.892890 0.000000 0.973571
O O4 0.887293 0.259315 0.114478
O O5 0.889827 0.500000 0.275835
O O6 0.848035 0.753154 0.410676
O O7 0.947859 0.727037 0.273465
O O8 0.297459 0.500000 0.523431
O O9 0.250000 0.750000 0.500000
O O10 0.296036 0.726807 0.702698
O O11 0.206337 0.000000 0.122046
O O12 0.250000 0.250000 0.000000
O O13 0.510529 0.000000 0.207917
O O14 0.500000 0.823354 0.000000
#
# Coordination Sequence:
#
# PCOD9183572 Si02
#       5
#     8   8   8   8   8
#     4  10  19  33  55  82 109 140 179 219 263 314
#     4  10  20  35  55  81 111 142 178 219 262 310
#     4  11  23  39  57  79 107 139 177 220 267 317
#     4  10  23  39  55  78 107 138 174 218 266 317
#     4   8  16  31  51  77 109 142 177 217 259 306
#
# _framework density 18.263100999999999
#
# number of rings (size 3 to 8) (size 9 to 14) (size 15 to 20)
#    0.000    2.200    0.000    4.200    0.000   10.800 
#    0.000    1.000    0.000    6.000    0.000    0.000 
#    0.000    0.000    0.000    0.000    0.000    0.000 
#
# Total GULP energy -111629.348676 kJ/mol
# GULP energy per Si atom -5581.467434 kJ/mol
# Density = 1.822153 g / cm^3
# Si number density = 18.263101 Si / 1000 Ang^3
#
#
#
# Elastic Constant Matrix: (Units=GPa)
#
#
# Indices 1 2 3 4 5 6 
#
# 1 199.9850 60.9364 100.1033 0.0000 -14.7773 0.0000
# 2 60.9364 52.1065 43.6568 0.0000 -2.9148 0.0000
# 3 100.1033 43.6568 118.7476 0.0000 -13.4987 0.0000
# 4 0.0000 0.0000 0.0000 24.2337 0.0000 -6.5261
# 5 -14.7773 -2.9148 -13.4987 0.0000 34.6825 0.0000
# 6 0.0000 0.0000 0.0000 -6.5261 0.0000 36.4091
#
#
#
# Elastic Compliance Matrix: (Units=1/GPa)
#
#
# Indices 1 2 3 4 5 6 
#
# 1 0.010126 -0.006861 -0.005848 0.000000 0.001462 0.000000
# 2 -0.006861 0.032480 -0.006466 0.000000 -0.002710 0.000000
# 3 -0.005848 -0.006466 0.016095 0.000000 0.003229 0.000000
# 4 0.000000 0.000000 0.000000 0.043358 0.000000 0.007772
# 5 0.001462 -0.002710 0.003229 0.000000 0.030485 0.000000
# 6 0.000000 0.000000 0.000000 0.007772 0.000000 0.028859
#
#
# Mechanical properties :
#
#
# Convention : Reuss Voigt Hill
#
# Bulk Modulus (GPa) = 49.13252 86.69247 67.91250
# Shear Modulus (GPa) = 24.20895 30.14124 27.17509
#
# Velocity S-wave (km/s) = 3.64478 4.06691 3.86162
# Velocity P-wave (km/s) = 6.68383 8.34414 7.55970
#
# Compressibility (1/GPa) = 0.02035312
#
# Stress axis : x y z
#
# Youngs Moduli (GPa) = 98.75633 30.78774 62.13154
#
# Poissons Ratio (x) = 0.21123 0.36332
# Poissons Ratio (y) = 0.67754 0.40173
# Poissons Ratio (z) = 0.57749 0.19907
#
# Static dielectric constant tensor:
#      x y z
#    x 1.632540 0.000000 -0.005870 
#    y 0.000000 1.616480 0.000000 
#    z -0.005870 0.000000 1.606160 
# 
# From -- ./inp_files/100993.got.cif
#   From: 2010.05.17/outbox.cif.g08.bks.cpg/sg12_51_cif.got.tgz:100993.got - 2010.06.03 13:09:07.
