data_PCOD9183174
_publ_section_title
;
Structure prediction by ZEFSAII (Michael W. Deem and Ramdas Pophale) SiO2 
 PCOD9183174
Probable space group: C 2/M
;
_chemical_formula_sum "Si O2"
_cell_formula_units_Z 64
_cell_length_a 20.068016
_cell_length_b 8.800843
_cell_length_c 23.419354
_cell_angle_alpha 90.000000
_cell_angle_beta 51.795380
_cell_angle_gamma 90.000000
_cell_volume 3250.270686
_symmetry_space_group_name_H-M "C 2/M"
_symmetry_group_IT_number 12
_symmetry_cell_setting 'monoclinic'
loop_
_space_group_symop_operation_xyz
x,y,z
-x,y,-z
-x,-y,-z
x,-y,z
1/2+x,1/2+y,z
1/2-x,1/2+y,-z
1/2-x,1/2-y,-z
1/2+x,1/2-y,z
loop_
_atom_site_type_symbol
_atom_site_label
_atom_site_fract_x
_atom_site_fract_y
_atom_site_fract_z
Si Si1 0.044771 0.683888 0.417597
Si Si2 0.989031 0.319662 0.102365
Si Si3 0.737244 0.183277 0.301153
Si Si4 0.842017 0.824969 0.954767
Si Si5 0.330656 0.319284 0.133910
Si Si6 0.678570 0.323771 0.163340
Si Si7 0.485233 0.683455 0.684475
Si Si8 0.409270 0.316395 0.260490
O O1 0.044512 0.500000 0.415582
O O2 0.142707 0.739170 0.363011
O O3 0.998865 0.746389 0.385574
O O4 0.000000 0.730549 0.500000
O O5 0.989940 0.500000 0.099684
O O6 0.084488 0.256750 0.048982
O O7 0.922447 0.255993 0.091337
O O8 0.953030 0.261746 0.182733
O O9 0.778034 0.229407 0.218887
O O10 0.809407 0.221223 0.309123
O O11 0.731852 0.000000 0.301892
O O12 0.866185 0.820632 0.874517
O O13 0.836110 0.000000 0.975507
O O14 0.750000 0.750000 0.000000
O O15 0.341013 0.500000 0.128613
O O16 0.266062 0.267900 0.119096
O O17 0.698993 0.500000 0.164650
O O18 0.608489 0.266085 0.244897
O O19 0.484242 0.500000 0.681658
O O20 0.549304 0.726183 0.701292
O O21 0.418683 0.500000 0.248092
#
# Coordination Sequence:
#
# PCOD9183174 Si02
#       8
#     8   8   8   8   8   8   8   8
#     4  10  20  34  51  75 109 146 185 231 279 330
#     4  11  21  34  55  84 115 147 184 227 278 329
#     4   8  15  29  50  74 100 138 180 219 268 325
#     4  11  23  41  60  83 117 152 187 226 277 334
#     4  10  19  33  56  82 110 143 184 231 277 329
#     4  10  20  35  56  83 113 141 178 232 280 325
#     4  10  19  33  54  79 107 139 179 230 280 324
#     4   9  17  33  54  77 105 140 183 230 279 328
#
# _framework density 19.690667999999999
#
# number of rings (size 3 to 8) (size 9 to 14) (size 15 to 20)
#    0.000    2.125    2.500    2.625    0.000    1.750 
#    0.000    1.250    0.000    3.750    0.000    0.000 
#    0.000    0.000    0.000    0.000    0.000    0.000 
#
# Total GULP energy -178623.264985 kJ/mol
# GULP energy per Si atom -5581.977031 kJ/mol
# Density = 1.964585 g / cm^3
# Si number density = 19.690668 Si / 1000 Ang^3
#
#
#
# Elastic Constant Matrix: (Units=GPa)
#
#
# Indices 1 2 3 4 5 6 
#
# 1 146.6286 37.1911 21.0431 0.0000 -7.5202 0.0001
# 2 37.1911 60.3858 6.5719 0.0002 -4.8581 -0.0002
# 3 21.0431 6.5719 60.2132 0.0000 0.5820 0.0000
# 4 0.0000 0.0002 0.0000 18.7629 0.0000 -0.4492
# 5 -7.5202 -4.8581 0.5820 0.0000 28.6030 0.0000
# 6 0.0001 -0.0002 0.0000 -0.4492 0.0000 28.3995
#
#
#
# Elastic Compliance Matrix: (Units=1/GPa)
#
#
# Indices 1 2 3 4 5 6 
#
# 1 0.008472 -0.004834 -0.002447 0.000000 0.001456 0.000000
# 2 -0.004834 0.019759 -0.000487 0.000000 0.002095 0.000000
# 3 -0.002447 -0.000487 0.017527 0.000000 -0.001083 0.000000
# 4 0.000000 0.000000 0.000000 0.053317 0.000000 0.000843
# 5 0.001456 0.002095 -0.001083 0.000000 0.035722 0.000000
# 6 0.000000 0.000000 0.000000 0.000843 0.000000 0.035225
#
#
# Mechanical properties :
#
#
# Convention : Reuss Voigt Hill
#
# Bulk Modulus (GPa) = 33.09074 44.09331 38.59202
# Shear Modulus (GPa) = 25.55805 28.64785 27.10295
#
# Velocity S-wave (km/s) = 3.60665 3.81845 3.71406
# Velocity P-wave (km/s) = 5.84686 6.47166 6.16717
#
# Compressibility (1/GPa) = 0.03021993
#
# Stress axis : x y z
#
# Youngs Moduli (GPa) = 118.03536 50.60935 57.05628
#
# Poissons Ratio (x) = 0.24466 0.13963
# Poissons Ratio (y) = 0.57063 0.02781
# Poissons Ratio (z) = 0.28886 0.02466
#
# Static dielectric constant tensor:
#      x y z
#    x 1.713850 0.000000 0.006510 
#    y 0.000000 1.658790 0.000000 
#    z 0.006510 0.000000 1.716580 
# 
# From -- ./inp_files/346020.got.cif
#   From: 2010.05.17/outbox.cif.g08.bks.cpg/sg12_174_cif.got.tgz:346020.got - 2010.06.03 13:09:07.
