data_PCOD9183393
_publ_section_title
;
Structure prediction by ZEFSAII (Michael W. Deem and Ramdas Pophale) SiO2 
 PCOD9183393
Probable space group: C 2/M
;
_chemical_formula_sum "Si O2"
_cell_formula_units_Z 56
_cell_length_a 18.439756
_cell_length_b 7.466055
_cell_length_c 29.444337
_cell_angle_alpha 90.000000
_cell_angle_beta 140.692302
_cell_angle_gamma 90.000000
_cell_volume 2567.936963
_symmetry_space_group_name_H-M "C 2/M"
_symmetry_group_IT_number 12
_symmetry_cell_setting 'monoclinic'
loop_
_space_group_symop_operation_xyz
x,y,z
-x,y,-z
-x,-y,-z
x,-y,z
1/2+x,1/2+y,z
1/2-x,1/2+y,-z
1/2-x,1/2-y,-z
1/2+x,1/2-y,z
loop_
_atom_site_type_symbol
_atom_site_label
_atom_site_fract_x
_atom_site_fract_y
_atom_site_fract_z
Si Si1 0.197240 0.785560 0.425250
Si Si2 0.128264 0.711523 0.565641
Si Si3 0.228664 0.783530 0.713095
Si Si4 0.937575 0.219481 0.286192
Si Si5 0.082859 0.280749 0.998993
Si Si6 0.840520 0.214088 0.142496
Si Si7 0.985985 0.714384 0.855400
O O1 0.250000 0.750000 0.500000
O O2 0.282391 0.714016 0.427786
O O3 0.067394 0.719248 0.357438
O O4 0.190044 0.000000 0.416045
O O5 0.118863 0.500000 0.550878
O O6 0.177809 0.731343 0.639951
O O7 0.000000 0.787137 0.500000
O O8 0.146483 0.723690 0.714110
O O9 0.358536 0.718274 0.782741
O O10 0.230803 0.000000 0.715322
O O11 0.890987 0.279662 0.214731
O O12 0.937703 0.000000 0.286299
O O13 0.083910 0.500000 0.998909
O O14 0.212773 0.219402 0.070125
O O15 0.034739 0.219758 0.927103
O O16 0.000000 0.227395 0.000000
O O17 0.926724 0.249329 0.143068
O O18 0.830873 0.000000 0.142371
O O19 0.976695 0.500000 0.855180
#
# Coordination Sequence:
#
# PCOD9183393 Si02
#       7
#     8   8   8   8   8   8   8
#     4  10  20  34  52  73  99 130 164 205 248 294
#     4  10  21  36  53  76 106 135 164 205 257 307
#     4  10  20  34  53  75 100 133 171 211 252 295
#     4   9  18  33  52  74  98 127 169 212 244 287
#     4   9  17  31  53  78 102 133 174 214 250 294
#     4  10  19  33  55  77 100 136 174 206 250 307
#     4  10  20  33  50  76 107 132 163 213 260 296
#
# _framework density 21.807390000000002
#
# number of rings (size 3 to 8) (size 9 to 14) (size 15 to 20)
#    0.000    2.286    0.000    3.000    0.000    6.000 
#    0.000    1.429    0.000    3.429    0.000    0.000 
#    0.000    0.000    0.000    0.000    0.000    0.000 
#
# Total GULP energy -156541.328877 kJ/mol
# GULP energy per Si atom -5590.761746 kJ/mol
# Density = 2.175776 g / cm^3
# Si number density = 21.807390 Si / 1000 Ang^3
#
#
#
# Elastic Constant Matrix: (Units=GPa)
#
#
# Indices 1 2 3 4 5 6 
#
# 1 251.4643 -7.4237 148.6279 -0.0004 11.0597 0.0009
# 2 -7.4237 59.3984 -9.8684 -0.0011 8.9551 0.0022
# 3 148.6279 -9.8684 239.6324 0.0001 15.5210 -0.0001
# 4 -0.0004 -0.0011 0.0001 -75.7015 -0.0001 115.8186
# 5 11.0597 8.9551 15.5210 -0.0001 50.1091 0.0000
# 6 0.0009 0.0022 -0.0001 115.8186 0.0000 -187.2384
#
#
#
# Elastic Compliance Matrix: (Units=1/GPa)
#
#
# Indices 1 2 3 4 5 6 
#
# 1 0.006282 0.000174 -0.003875 0.000000 -0.000217 0.000000
# 2 0.000174 0.017513 0.000835 0.000001 -0.003427 0.000001
# 3 -0.003875 0.000835 0.006699 0.000000 -0.001369 0.000000
# 4 0.000000 0.000001 0.000000 -0.246278 0.000000 -0.152338
# 5 -0.000217 -0.003427 -0.001369 0.000000 0.021041 0.000000
# 6 0.000000 0.000001 0.000000 -0.152338 0.000000 -0.099572
#
#
# Mechanical properties :
#
#
# Convention : Reuss Voigt Hill
#
# Bulk Modulus (GPa) = 40.38358 90.35186 65.36772
# Shear Modulus (GPa) = -17.83614 -14.62221 -16.22917
#
# Velocity S-wave (km/s) = -2.86299 -2.59224 -2.73097
# Velocity P-wave (km/s) = 2.76217 5.70632 4.48284
#
# Compressibility (1/GPa) = 0.02476254
#
# Stress axis : x y z
#
# Youngs Moduli (GPa) = 159.19460 57.10170 149.26652
#
# Poissons Ratio (x) = -0.00994 0.57838
# Poissons Ratio (y) = -0.02771 -0.12466
# Poissons Ratio (z) = 0.61685 -0.04769
#
# Static dielectric constant tensor:
#      x y z
#    x 1.748980 0.000000 0.019400 
#    y 0.000000 1.834390 0.000000 
#    z 0.019400 0.000000 1.744970 
# 
# From -- ./inp_files/213406.got.cif
#   From: 2010.05.17/outbox.cif.g08.bks.cpg/sg12_107_cif.got.tgz:213406.got - 2010.06.03 13:09:07.
