data_PCOD9183533
_publ_section_title
;
Structure prediction by ZEFSAII (Michael W. Deem and Ramdas Pophale) SiO2 
 PCOD9183533
Probable space group: C 2/M
;
_chemical_formula_sum "Si O2"
_cell_formula_units_Z 64
_cell_length_a 20.067946
_cell_length_b 7.438736
_cell_length_c 22.374355
_cell_angle_alpha 90.000000
_cell_angle_beta 49.778670
_cell_angle_gamma 90.000000
_cell_volume 2550.311971
_symmetry_space_group_name_H-M "C 2/M"
_symmetry_group_IT_number 12
_symmetry_cell_setting 'monoclinic'
loop_
_space_group_symop_operation_xyz
x,y,z
-x,y,-z
-x,-y,-z
x,-y,z
1/2+x,1/2+y,z
1/2-x,1/2+y,-z
1/2-x,1/2-y,-z
1/2+x,1/2-y,z
loop_
_atom_site_type_symbol
_atom_site_label
_atom_site_fract_x
_atom_site_fract_y
_atom_site_fract_z
Si Si1 0.463376 0.706270 0.425027
Si Si2 0.279660 0.280969 0.577736
Si Si3 0.781990 0.779471 0.830497
Si Si4 0.091713 0.705424 0.927373
Si Si5 0.155199 0.214434 0.082085
Si Si6 0.469362 0.712105 0.160636
Si Si7 0.151825 0.219335 0.336490
Si Si8 0.087716 0.714301 0.670837
O O1 0.459341 0.500000 0.448304
O O2 0.369029 0.784893 0.495744
O O3 0.551824 0.782462 0.401336
O O4 0.470303 0.708726 0.349067
O O5 0.277252 0.500000 0.575436
O O6 0.288943 0.230070 0.641932
O O7 0.187567 0.218377 0.605375
O O8 0.682432 0.716154 0.897296
O O9 0.840852 0.720540 0.851740
O O10 0.813762 0.720548 0.747425
O O11 0.780950 0.000000 0.830852
O O12 0.090362 0.500000 0.949870
O O13 0.090447 0.703849 0.855913
O O14 0.000000 0.790425 0.000000
O O15 0.069286 0.282261 0.098201
O O16 0.144456 0.000000 0.090158
O O17 0.250000 0.250000 0.000000
O O18 0.466967 0.500000 0.150476
O O19 0.440786 0.742563 0.245346
O O20 0.149695 0.000000 0.336707
O O21 0.085692 0.500000 0.665461
#
# Coordination Sequence:
#
# PCOD9183533 Si02
#       8
#     8   8   8   8   8   8   8   8
#     4  10  19  33  55  81 108 137 175 226 278 324
#     4   9  18  32  53  81 107 137 180 224 268 323
#     4   9  17  31  52  77 105 138 179 221 261 313
#     4  10  20  35  57  82 109 144 182 220 265 320
#     4  10  21  37  57  81 108 141 180 222 267 314
#     4  11  23  38  57  82 112 144 180 224 271 317
#     4   9  16  29  52  79 105 135 175 223 268 313
#     4  11  22  36  55  78 108 145 182 220 265 323
#
# _framework density 25.094968999999999
#
# number of rings (size 3 to 8) (size 9 to 14) (size 15 to 20)
#    0.000    2.125    0.000    3.750    0.000    7.750 
#    0.000    1.250    0.000    6.750    0.000    0.000 
#    0.000    0.000    0.000    0.000    0.000    0.000 
#
# Total GULP energy -179040.125103 kJ/mol
# GULP energy per Si atom -5595.003909 kJ/mol
# Density = 2.503785 g / cm^3
# Si number density = 25.094969 Si / 1000 Ang^3
#
#
#
# Elastic Constant Matrix: (Units=GPa)
#
#
# Indices 1 2 3 4 5 6 
#
# 1 100.0867 0.5979 -18.9868 0.0002 -2.6876 0.0009
# 2 0.5979 93.2230 -5.7271 0.0013 -4.1779 0.0013
# 3 -18.9868 -5.7271 62.9028 -0.0003 1.0647 0.0003
# 4 0.0002 0.0013 -0.0003 6.8111 -0.0001 6.9101
# 5 -2.6876 -4.1779 1.0647 -0.0001 47.1074 0.0002
# 6 0.0009 0.0013 0.0003 6.9101 0.0002 5.3424
#
#
#
# Elastic Compliance Matrix: (Units=1/GPa)
#
#
# Indices 1 2 3 4 5 6 
#
# 1 0.010614 0.000154 0.003208 -0.000006 0.000547 0.000006
# 2 0.000154 0.010831 0.001016 -0.000003 0.000946 0.000001
# 3 0.003208 0.001016 0.016960 -0.000008 -0.000110 0.000008
# 4 -0.000006 -0.000003 -0.000008 -0.470201 -0.000004 0.608178
# 5 0.000547 0.000946 -0.000110 -0.000004 0.021346 0.000005
# 6 0.000006 0.000001 0.000008 0.608178 0.000005 -0.599462
#
#
# Mechanical properties :
#
#
# Convention : Reuss Voigt Hill
#
# Bulk Modulus (GPa) = 21.20362 23.10894 22.15628
# Shear Modulus (GPa) = -4.98530 30.54075 12.77773
#
# Velocity S-wave (km/s) = -1.41099 3.49235 2.25894
# Velocity P-wave (km/s) = 2.41105 5.04882 3.95625
#
# Compressibility (1/GPa) = 0.04716176
#
# Stress axis : x y z
#
# Youngs Moduli (GPa) = 94.21742 92.32897 58.96089
#
# Poissons Ratio (x) = -0.01418 -0.18917
# Poissons Ratio (y) = -0.01447 -0.05993
# Poissons Ratio (z) = -0.30229 -0.09385
#
# Static dielectric constant tensor:
#      x y z
#    x 1.953170 0.000000 -0.021800 
#    y 0.000000 1.947170 0.000000 
#    z -0.021800 0.000000 2.013130 
# 
# From -- ./inp_files/346080.got.cif
#   From: 2010.05.17/outbox.cif.g08.bks.cpg/sg12_174_cif.got.tgz:346080.got - 2010.06.03 13:09:07.
