data_PCOD9183841
_publ_section_title
;
Structure prediction by ZEFSAII (Michael W. Deem and Ramdas Pophale) SiO2 
 PCOD9183841
Probable space group: C 2/M
;
_chemical_formula_sum "Si O2"
_cell_formula_units_Z 56
_cell_length_a 22.080094
_cell_length_b 8.062050
_cell_length_c 15.895135
_cell_angle_alpha 90.000000
_cell_angle_beta 93.064625
_cell_angle_gamma 90.000000
_cell_volume 2825.459480
_symmetry_space_group_name_H-M "C 2/M"
_symmetry_group_IT_number 12
_symmetry_cell_setting 'monoclinic'
loop_
_space_group_symop_operation_xyz
x,y,z
-x,y,-z
-x,-y,-z
x,-y,z
1/2+x,1/2+y,z
1/2-x,1/2+y,-z
1/2-x,1/2-y,-z
1/2+x,1/2-y,z
loop_
_atom_site_type_symbol
_atom_site_label
_atom_site_fract_x
_atom_site_fract_y
_atom_site_fract_z
Si Si1 0.586397 0.702170 0.443511
Si Si2 0.245641 0.697629 0.772700
Si Si3 0.564664 0.699133 0.970486
Si Si4 0.955439 0.797577 0.377565
Si Si5 0.609597 0.298656 0.795346
Si Si6 0.718934 0.700340 0.409765
Si Si7 0.192998 0.305399 0.054857
O O1 0.586574 0.500000 0.442739
O O2 0.579540 0.753352 0.540371
O O3 0.525206 0.755200 0.392236
O O4 0.649227 0.758042 0.409325
O O5 0.253454 0.500000 0.771937
O O6 0.178575 0.741347 0.798559
O O7 0.253385 0.759837 0.676956
O O8 0.290732 0.766185 0.847050
O O9 0.559186 0.500000 0.966435
O O10 0.576584 0.760350 0.876789
O O11 0.500000 0.763230 0.000000
O O12 0.627282 0.733147 0.024966
O O13 0.923634 0.739386 0.291145
O O14 0.955258 0.000000 0.376937
O O15 0.609437 0.500000 0.795195
O O16 0.720169 0.500000 0.408004
O O17 0.750000 0.750000 0.500000
O O18 0.188473 0.500000 0.042630
O O19 0.250000 0.250000 0.000000
#
# Coordination Sequence:
#
# PCOD9183841 Si02
#       7
#     8   8   8   8   8   8   8
#     4   8  14  27  46  72 106 139 178 229 278 331
#     4  11  23  37  57  86 117 155 200 246 297 359
#     4  10  22  39  60  89 123 157 197 249 306 364
#     4   8  14  25  47  76 102 136 183 230 278 336
#     4  10  19  33  56  82 109 147 193 240 294 353
#     4  10  21  35  54  81 115 151 189 237 292 347
#     4  12  24  41  65  89 118 157 203 255 308 368
#
# _framework density 19.819785
#
# number of rings (size 3 to 8) (size 9 to 14) (size 15 to 20)
#    0.000    2.143    1.429    3.429    0.000    3.714 
#    0.000    4.286    0.000    0.857    0.000    4.000 
#    0.000    0.000    0.000    0.000    0.000    0.000 
#
# Total GULP energy -156236.191778 kJ/mol
# GULP energy per Si atom -5579.863992 kJ/mol
# Density = 1.977467 g / cm^3
# Si number density = 19.819785 Si / 1000 Ang^3
#
#
#
# Elastic Constant Matrix: (Units=GPa)
#
#
# Indices 1 2 3 4 5 6 
#
# 1 118.6704 -0.7172 48.2655 0.0000 -11.6762 0.0000
# 2 -0.7172 10.0817 -3.4936 0.0000 -7.0586 0.0000
# 3 48.2655 -3.4936 90.7154 0.0000 9.0529 0.0000
# 4 0.0000 0.0000 0.0000 17.7299 0.0000 5.2033
# 5 -11.6762 -7.0586 9.0529 0.0000 36.0201 0.0000
# 6 0.0000 0.0000 0.0000 5.2033 0.0000 21.0961
#
#
#
# Elastic Compliance Matrix: (Units=1/GPa)
#
#
# Indices 1 2 3 4 5 6 
#
# 1 0.011795 0.002736 -0.006775 0.000000 0.006063 0.000000
# 2 0.002736 0.116041 0.000672 0.000000 0.023458 0.000000
# 3 -0.006775 0.000672 0.015243 0.000000 -0.005896 0.000000
# 4 0.000000 0.000000 0.000000 0.060803 0.000000 -0.014997
# 5 0.006063 0.023458 -0.005896 0.000000 0.035806 0.000000
# 6 0.000000 0.000000 0.000000 -0.014997 0.000000 0.051101
#
#
# Mechanical properties :
#
#
# Convention : Reuss Voigt Hill
#
# Bulk Modulus (GPa) = 7.33436 34.17521 20.75479
# Shear Modulus (GPa) = 14.57844 26.66339 20.62092
#
# Velocity S-wave (km/s) = 2.71504 3.67180 3.22905
# Velocity P-wave (km/s) = 3.67929 5.93772 4.93932
#
# Compressibility (1/GPa) = 0.13634449
#
# Stress axis : x y z
#
# Youngs Moduli (GPa) = 84.77831 8.61765 65.60540
#
# Poissons Ratio (x) = -0.02358 0.44451
# Poissons Ratio (y) = -0.23194 -0.04411
# Poissons Ratio (z) = 0.57441 -0.00579
#
# Static dielectric constant tensor:
#      x y z
#    x 1.700980 0.000000 -0.005550 
#    y 0.000000 1.715900 0.000000 
#    z -0.005550 0.000000 1.703080 
# 
# From -- ./inp_files/231038.got.cif
#   From: 2010.05.17/outbox.cif.g08.bks.cpg/sg12_116_cif.got.tgz:231038.got - 2010.06.03 13:09:07.
