data_PCOD9183287
_publ_section_title
;
Structure prediction by ZEFSAII (Michael W. Deem and Ramdas Pophale) SiO2 
 PCOD9183287
Probable space group: C 2/M
;
_chemical_formula_sum "Si O2"
_cell_formula_units_Z 44
_cell_length_a 15.407127
_cell_length_b 26.153616
_cell_length_c 5.472525
_cell_angle_alpha 90.000000
_cell_angle_beta 66.334332
_cell_angle_gamma 90.000000
_cell_volume 2019.718173
_symmetry_space_group_name_H-M "C 2/M"
_symmetry_group_IT_number 12
_symmetry_cell_setting 'monoclinic'
loop_
_space_group_symop_operation_xyz
x,y,z
-x,y,-z
-x,-y,-z
x,-y,z
1/2+x,1/2+y,z
1/2-x,1/2+y,-z
1/2-x,1/2-y,-z
1/2+x,1/2-y,z
loop_
_atom_site_type_symbol
_atom_site_label
_atom_site_fract_x
_atom_site_fract_y
_atom_site_fract_z
Si Si1 0.521172 0.914131 0.226428
Si Si2 0.218435 0.363218 0.014381
Si Si3 0.062994 0.000000 0.681241
Si Si4 0.141772 0.322997 0.599553
Si Si5 0.440237 0.710918 0.315773
Si Si6 0.891724 0.894704 0.532000
O O1 0.500000 0.941306 0.500000
O O2 0.451177 0.862202 0.303189
O O3 0.500000 0.941063 0.000000
O O4 0.631884 0.902548 0.106498
O O5 0.191710 0.329669 0.805400
O O6 0.319203 0.387904 0.837890
O O7 0.204338 0.336319 0.290662
O O8 0.122795 0.947549 0.596295
O O9 0.000000 0.000000 0.500000
O O10 0.000000 0.000000 0.000000
O O11 0.114631 0.264033 0.612458
O O12 0.500000 0.711026 0.500000
O O13 0.385757 0.657060 0.382221
O O14 0.500000 0.711905 0.000000
O O15 0.000000 0.896331 0.500000
#
# Coordination Sequence:
#
# PCOD9183287 Si02
#       6
#     8   8   4   8   8   8
#     4   8  14  27  46  71 103 139 176 211 254 316
#     4  10  20  33  54  83 112 150 189 224 276 336
#     4  10  22  44  66  80 104 148 198 250 302 334
#     4  10  19  33  54  81 116 152 184 220 269 338
#     4  11  21  35  56  82 117 156 192 232 277 331
#     4  10  24  41  60  84 113 149 195 247 292 335
#
# _framework density 21.785216999999999
#
# number of rings (size 3 to 8) (size 9 to 14) (size 15 to 20)
#    0.000    2.182    0.000    4.909    0.000    7.273 
#    0.000    0.000    0.000    0.000    0.000   11.455 
#    0.000    0.000    0.000    0.000    0.000    0.000 
#
# Total GULP energy -122621.303979 kJ/mol
# GULP energy per Si atom -5573.695635 kJ/mol
# Density = 2.173563 g / cm^3
# Si number density = 21.785217 Si / 1000 Ang^3
#
#
#
# Elastic Constant Matrix: (Units=GPa)
#
#
# Indices 1 2 3 4 5 6 
#
# 1 81.0361 17.9792 54.4487 0.0000 -0.4486 0.0000
# 2 17.9792 123.5407 62.7822 0.0000 -20.0388 0.0000
# 3 54.4487 62.7822 239.5195 0.0000 2.2328 0.0000
# 4 0.0000 0.0000 0.0000 38.3844 0.0000 -2.4128
# 5 -0.4486 -20.0388 2.2328 0.0000 52.2547 0.0000
# 6 0.0000 0.0000 0.0000 -2.4128 0.0000 -6.1710
#
#
#
# Elastic Compliance Matrix: (Units=1/GPa)
#
#
# Indices 1 2 3 4 5 6 
#
# 1 0.014592 -0.000491 -0.003189 0.000000 0.000073 0.000000
# 2 -0.000491 0.010124 -0.002579 0.000000 0.003988 0.000000
# 3 -0.003189 -0.002579 0.005588 0.000000 -0.001255 0.000000
# 4 0.000000 0.000000 0.000000 0.025427 0.000000 -0.009942
# 5 0.000073 0.003988 -0.001255 0.000000 0.020721 0.000000
# 6 0.000000 0.000000 0.000000 -0.009942 0.000000 -0.158161
#
#
# Mechanical properties :
#
#
# Convention : Reuss Voigt Hill
#
# Bulk Modulus (GPa) = 56.22735 79.39071 67.80903
# Shear Modulus (GPa) = -79.03572 37.48604 -20.77484
#
# Velocity S-wave (km/s) = -6.02978 4.15264 -3.09143
# Velocity P-wave (km/s) = 4.75519 7.71454 4.29548
#
# Compressibility (1/GPa) = 0.01778494
#
# Stress axis : x y z
#
# Youngs Moduli (GPa) = 68.52903 98.77962 178.96362
#
# Poissons Ratio (x) = 0.04851 0.57074
# Poissons Ratio (y) = 0.03365 0.46156
# Poissons Ratio (z) = 0.21855 0.25476
#
# Static dielectric constant tensor:
#      x y z
#    x 1.800740 0.000000 -0.002350 
#    y 0.000000 1.821450 0.000000 
#    z -0.002350 0.000000 1.833080 
# 
# From -- ./inp_files/17550.got.cif
#   From: 2010.05.17/outbox.cif.g08.bks.cpg/sg12_9_cif.got.tgz:17550.got - 2010.06.03 13:09:07.
