data_PCOD9183494
_publ_section_title
;
Structure prediction by ZEFSAII (Michael W. Deem and Ramdas Pophale) SiO2 
 PCOD9183494
Probable space group: C 2/M
;
_chemical_formula_sum "Si O2"
_cell_formula_units_Z 48
_cell_length_a 18.443132
_cell_length_b 8.705099
_cell_length_c 21.306711
_cell_angle_alpha 90.000000
_cell_angle_beta 130.067397
_cell_angle_gamma 90.000000
_cell_volume 2617.879160
_symmetry_space_group_name_H-M "C 2/M"
_symmetry_group_IT_number 12
_symmetry_cell_setting 'monoclinic'
loop_
_space_group_symop_operation_xyz
x,y,z
-x,y,-z
-x,-y,-z
x,-y,z
1/2+x,1/2+y,z
1/2-x,1/2+y,-z
1/2-x,1/2-y,-z
1/2+x,1/2-y,z
loop_
_atom_site_type_symbol
_atom_site_label
_atom_site_fract_x
_atom_site_fract_y
_atom_site_fract_z
Si Si1 0.851404 0.315760 0.576289
Si Si2 0.481978 0.317725 0.092186
Si Si3 0.983472 0.184258 0.418330
Si Si4 0.217145 0.685137 0.736135
Si Si5 0.652077 0.317588 0.085043
Si Si6 0.880061 0.316898 0.737434
O O1 0.849947 0.500000 0.570596
O O2 0.750000 0.250000 0.500000
O O3 0.931582 0.248502 0.576071
O O4 0.873670 0.275261 0.660960
O O5 0.471806 0.500000 0.098929
O O6 0.566931 0.302191 0.088339
O O7 0.521618 0.234154 0.175369
O O8 0.388824 0.256902 0.003730
O O9 0.000000 0.229310 0.500000
O O10 0.884174 0.248888 0.338129
O O11 0.982077 0.000000 0.414459
O O12 0.214398 0.500000 0.735487
O O13 0.256585 0.740473 0.826279
O O14 0.294410 0.737719 0.727738
O O15 0.665132 0.500000 0.082548
O O16 0.869514 0.500000 0.737694
#
# Coordination Sequence:
#
# PCOD9183494 Si02
#       6
#     8   8   8   8   8   8
#     4  11  24  40  58  79 105 138 174 214 259 310
#     4   8  13  25  46  71 101 138 176 211 253 304
#     4  11  24  40  57  79 107 135 168 216 266 311
#     4  10  19  33  55  80 107 141 178 214 257 310
#     4   7  12  24  44  72 103 134 172 215 253 295
#     4  10  20  33  50  78 112 139 171 218 263 301
#
# _framework density 18.335453000000001
#
# number of rings (size 3 to 8) (size 9 to 14) (size 15 to 20)
#    0.000    2.500    0.000    5.000    0.000    8.000 
#    0.000    7.500    0.000    1.000    0.000    0.000 
#    0.000    0.000    0.000    0.000    0.000    0.000 
#
# Total GULP energy -133793.359973 kJ/mol
# GULP energy per Si atom -5574.723332 kJ/mol
# Density = 1.829372 g / cm^3
# Si number density = 18.335453 Si / 1000 Ang^3
#
#
#
# Elastic Constant Matrix: (Units=GPa)
#
#
# Indices 1 2 3 4 5 6 
#
# 1 81.0152 29.3874 83.9824 0.0000 2.8133 0.0000
# 2 29.3874 40.3384 58.4164 0.0000 -3.6589 0.0000
# 3 83.9824 58.4164 236.1384 0.0000 3.9322 0.0000
# 4 0.0000 0.0000 0.0000 23.0252 0.0000 -7.4742
# 5 2.8133 -3.6589 3.9322 0.0000 23.4664 0.0000
# 6 0.0000 0.0000 0.0000 -7.4742 0.0000 15.9946
#
#
#
# Elastic Compliance Matrix: (Units=1/GPa)
#
#
# Indices 1 2 3 4 5 6 
#
# 1 0.020879 -0.007435 -0.005541 0.000000 -0.002734 0.000000
# 2 -0.007435 0.042695 -0.008066 0.000000 0.008900 0.000000
# 3 -0.005541 -0.008066 0.008234 0.000000 -0.001973 0.000000
# 4 0.000000 0.000000 0.000000 0.051197 0.000000 0.023924
# 5 -0.002734 0.008900 -0.001973 0.000000 0.044660 0.000000
# 6 0.000000 0.000000 0.000000 0.023924 0.000000 0.073701
#
#
# Mechanical properties :
#
#
# Convention : Reuss Voigt Hill
#
# Bulk Modulus (GPa) = 33.64262 77.89604 55.76933
# Shear Modulus (GPa) = 17.04416 24.87762 20.96089
#
# Velocity S-wave (km/s) = 3.05220 3.68748 3.38478
# Velocity P-wave (km/s) = 5.55063 7.79141 6.76445
#
# Compressibility (1/GPa) = 0.02972420
#
# Stress axis : x y z
#
# Youngs Moduli (GPa) = 47.89515 23.42211 121.45342
#
# Poissons Ratio (x) = 0.17414 0.67295
# Poissons Ratio (y) = 0.35609 0.97963
# Poissons Ratio (z) = 0.26538 0.18892
#
# Static dielectric constant tensor:
#      x y z
#    x 1.598730 0.000000 -0.002670 
#    y 0.000000 1.618360 0.000000 
#    z -0.002670 0.000000 1.681230 
# 
# From -- ./inp_files/320317.got.cif
#   From: 2010.05.17/outbox.cif.g08.bks.cpg/sg12_161_cif.got.tgz:320317.got - 2010.06.03 13:09:07.
