data_PCOD9183082
_publ_section_title
;
Structure prediction by ZEFSAII (Michael W. Deem and Ramdas Pophale) SiO2 
 PCOD9183082
Probable space group: C 2/M
;
_chemical_formula_sum "Si O2"
_cell_formula_units_Z 64
_cell_length_a 13.620391
_cell_length_b 11.410045
_cell_length_c 22.053804
_cell_angle_alpha 90.000000
_cell_angle_beta 115.507705
_cell_angle_gamma 90.000000
_cell_volume 3093.291369
_symmetry_space_group_name_H-M "C 2/M"
_symmetry_group_IT_number 12
_symmetry_cell_setting 'monoclinic'
loop_
_space_group_symop_operation_xyz
x,y,z
-x,y,-z
-x,-y,-z
x,-y,z
1/2+x,1/2+y,z
1/2-x,1/2+y,-z
1/2-x,1/2-y,-z
1/2+x,1/2-y,z
loop_
_atom_site_type_symbol
_atom_site_label
_atom_site_fract_x
_atom_site_fract_y
_atom_site_fract_z
Si Si1 0.777679 0.700634 0.786229
Si Si2 0.417208 0.366790 0.034224
Si Si3 0.461769 0.375376 0.259919
Si Si4 0.361262 0.635452 0.588302
Si Si5 0.014107 0.695578 0.839818
Si Si6 0.461644 0.864314 0.559471
Si Si7 0.247712 0.871340 0.107518
Si Si8 0.207270 0.364942 0.659353
O O1 0.666376 0.628891 0.760274
O O2 0.778993 0.781587 0.846470
O O3 0.762091 0.781164 0.722704
O O4 0.895274 0.640332 0.815513
O O5 0.408720 0.500000 0.055148
O O6 0.459150 0.282559 0.097477
O O7 0.500000 0.363112 0.000000
O O8 0.304560 0.336299 0.970474
O O9 0.488019 0.500000 0.236958
O O10 0.534706 0.368214 0.339150
O O11 0.489159 0.271054 0.222447
O O12 0.352699 0.500000 0.559926
O O13 0.384112 0.753182 0.554678
O O14 0.258104 0.653286 0.605761
O O15 0.122855 0.621400 0.863472
O O16 0.500000 0.859320 0.500000
O O17 0.576802 0.850830 0.625422
O O18 0.421015 0.000000 0.559607
O O19 0.202688 0.000000 0.110785
O O20 0.231213 0.500000 0.681146
#
# Coordination Sequence:
#
# PCOD9183082 Si02
#       8
#     8   8   8   8   8   8   8   8
#     4  11  20  34  55  80 108 143 184 228 280 332
#     4  10  19  33  54  77 102 136 182 231 274 324
#     4  10  21  35  53  80 111 143 182 229 280 334
#     4  10  20  37  60  86 116 150 193 238 280 335
#     4  11  21  34  56  78 106 141 183 226 282 335
#     4  10  22  41  62  86 120 157 191 231 282 340
#     4  10  22  36  52  77 107 141 182 228 276 330
#     4  10  20  35  58  84 115 151 189 232 282 337
#
# _framework density 20.689935999999999
#
# number of rings (size 3 to 8) (size 9 to 14) (size 15 to 20)
#    0.000    1.750    3.750    1.125    0.000    2.250 
#    0.000    1.250    0.000    0.375    0.000    0.000 
#    0.000    0.000    0.000    0.000    0.000    0.000 
#
# Total GULP energy -178435.392637 kJ/mol
# GULP energy per Si atom -5576.106020 kJ/mol
# Density = 2.064284 g / cm^3
# Si number density = 20.689936 Si / 1000 Ang^3
#
#
#
# Elastic Constant Matrix: (Units=GPa)
#
#
# Indices 1 2 3 4 5 6 
#
# 1 93.6700 26.2681 0.0376 0.0000 15.9957 0.0000
# 2 26.2681 111.9795 21.3689 0.0000 -16.2072 0.0000
# 3 0.0376 21.3689 50.1661 0.0000 7.7943 0.0000
# 4 0.0000 0.0000 0.0000 28.3428 0.0000 -13.2514
# 5 15.9957 -16.2072 7.7943 0.0000 33.2851 0.0000
# 6 0.0000 0.0000 0.0000 -13.2514 0.0000 16.4263
#
#
#
# Elastic Compliance Matrix: (Units=1/GPa)
#
#
# Indices 1 2 3 4 5 6 
#
# 1 0.013993 -0.005534 0.003954 0.000000 -0.010345 0.000000
# 2 -0.005534 0.013179 -0.007285 0.000000 0.010783 0.000000
# 3 0.003954 -0.007285 0.024782 0.000000 -0.011251 0.000000
# 4 0.000000 0.000000 0.000000 0.056648 0.000000 0.045699
# 5 -0.010345 0.010783 -0.011251 0.000000 0.042900 0.000000
# 6 0.000000 0.000000 0.000000 0.045699 0.000000 0.097744
#
#
# Mechanical properties :
#
#
# Convention : Reuss Voigt Hill
#
# Bulk Modulus (GPa) = 29.21937 39.01832 34.11885
# Shear Modulus (GPa) = 17.96074 29.48691 23.72383
#
# Velocity S-wave (km/s) = 2.94953 3.77925 3.38987
# Velocity P-wave (km/s) = 5.07473 6.15981 5.64341
#
# Compressibility (1/GPa) = 0.03422387
#
# Stress axis : x y z
#
# Youngs Moduli (GPa) = 71.46526 75.87667 40.35184
#
# Poissons Ratio (x) = 0.41993 -0.15956
# Poissons Ratio (y) = 0.39551 0.29397
# Poissons Ratio (z) = -0.28259 0.55277
#
# Static dielectric constant tensor:
#      x y z
#    x 1.774270 0.000000 0.042160 
#    y 0.000000 0.849960 0.000000 
#    z 0.042160 0.000000 1.730110 
# 
# From -- ./inp_files/335655.got.cif
#   From: 2010.05.17/outbox.cif.g08.bks.cpg/sg12_168_cif.got.tgz:335655.got - 2010.06.03 13:09:07.
