data_PCOD9183323
_publ_section_title
;
Structure prediction by ZEFSAII (Michael W. Deem and Ramdas Pophale) SiO2 
 PCOD9183323
Probable space group: C 2/M
;
_chemical_formula_sum "Si O2"
_cell_formula_units_Z 64
_cell_length_a 26.762274
_cell_length_b 16.457833
_cell_length_c 12.626628
_cell_angle_alpha 90.000000
_cell_angle_beta 38.859720
_cell_angle_gamma 90.000000
_cell_volume 3489.301436
_symmetry_space_group_name_H-M "C 2/M"
_symmetry_group_IT_number 12
_symmetry_cell_setting 'monoclinic'
loop_
_space_group_symop_operation_xyz
x,y,z
-x,y,-z
-x,-y,-z
x,-y,z
1/2+x,1/2+y,z
1/2-x,1/2+y,-z
1/2-x,1/2-y,-z
1/2+x,1/2-y,z
loop_
_atom_site_type_symbol
_atom_site_label
_atom_site_fract_x
_atom_site_fract_y
_atom_site_fract_z
Si Si1 0.930989 0.192102 0.040218
Si Si2 0.706484 0.596936 0.848419
Si Si3 0.425351 0.091906 0.698352
Si Si4 0.199294 0.404682 0.854752
Si Si5 0.146690 0.595350 0.539514
Si Si6 0.029509 0.331060 0.176214
Si Si7 0.803880 0.688354 0.344836
Si Si8 0.759191 0.653437 0.976056
O O1 0.867130 0.130769 0.097911
O O2 0.882536 0.259835 0.187204
O O3 0.967744 0.244703 0.883927
O O4 0.000000 0.156609 0.000000
O O5 0.707948 0.500000 0.844486
O O6 0.786763 0.626489 0.653864
O O7 0.699152 0.625481 0.982763
O O8 0.500000 0.085967 0.500000
O O9 0.445240 0.165168 0.744009
O O10 0.341085 0.117188 0.790998
O O11 0.416252 0.000000 0.760870
O O12 0.213027 0.500000 0.814479
O O13 0.230783 0.347411 0.707746
O O14 0.103412 0.385625 0.009062
O O15 0.234609 0.380358 0.912698
O O16 0.137972 0.500000 0.535015
O O17 0.177647 0.614848 0.606187
O O18 0.058641 0.632872 0.680605
O O19 0.750000 0.750000 0.500000
O O20 0.750000 0.750000 0.000000
#
# Coordination Sequence:
#
# PCOD9183323 Si02
#       8
#     8   8   8   8   8   8   8   8
#     4  11  22  39  57  81 110 153 193 240 290 334
#     4  11  23  38  59  85 116 151 195 240 286 337
#     4  10  19  33  54  82 119 151 180 221 279 341
#     4  10  21  36  57  82 117 157 192 231 286 349
#     4  11  21  33  56  87 119 150 186 234 288 339
#     4  10  19  33  54  84 117 148 185 226 278 346
#     4  11  21  37  56  81 117 150 190 241 285 347
#     4  11  21  36  57  85 118 152 192 233 284 344
#
# _framework density 18.34178
#
# number of rings (size 3 to 8) (size 9 to 14) (size 15 to 20)
#    0.000    1.375    2.500    6.375    0.000    2.250 
#    0.000    1.875    0.000    0.000    0.000    0.000 
#    0.000    8.250    0.000    0.000    0.000    0.000 
#
# Total GULP energy -178171.133708 kJ/mol
# GULP energy per Si atom -5567.847928 kJ/mol
# Density = 1.830003 g / cm^3
# Si number density = 18.341780 Si / 1000 Ang^3
#
#
#
# Elastic Constant Matrix: (Units=GPa)
#
#
# Indices 1 2 3 4 5 6 
#
# 1 105.9112 22.0372 36.2122 0.0000 14.3810 0.0000
# 2 22.0372 70.7981 30.4697 0.0000 2.7859 0.0000
# 3 36.2122 30.4697 64.7944 0.0000 7.0811 0.0000
# 4 0.0000 0.0000 0.0000 21.2764 0.0000 6.9650
# 5 14.3810 2.7859 7.0811 0.0000 21.7732 0.0000
# 6 0.0000 0.0000 0.0000 6.9650 0.0000 23.4379
#
#
#
# Elastic Compliance Matrix: (Units=1/GPa)
#
#
# Indices 1 2 3 4 5 6 
#
# 1 0.012499 -0.001169 -0.005755 0.000000 -0.006235 0.000000
# 2 -0.001169 0.017822 -0.007842 0.000000 0.001042 0.000000
# 3 -0.005755 -0.007842 0.022616 0.000000 -0.002551 0.000000
# 4 0.000000 0.000000 0.000000 0.052065 0.000000 -0.015472
# 5 -0.006235 0.001042 -0.002551 0.000000 0.050742 0.000000
# 6 0.000000 0.000000 0.000000 -0.015472 0.000000 0.047264
#
#
# Mechanical properties :
#
#
# Convention : Reuss Voigt Hill
#
# Bulk Modulus (GPa) = 42.72136 46.54909 44.63522
# Shear Modulus (GPa) = 20.80377 23.48315 22.14346
#
# Velocity S-wave (km/s) = 3.37148 3.58202 3.47835
# Velocity P-wave (km/s) = 6.20470 6.52240 6.36553
#
# Compressibility (1/GPa) = 0.02340750
#
# Stress axis : x y z
#
# Youngs Moduli (GPa) = 80.00545 56.10944 44.21660
#
# Poissons Ratio (x) = 0.06557 0.25445
# Poissons Ratio (y) = 0.09350 0.34673
# Poissons Ratio (z) = 0.46040 0.43999
#
# Static dielectric constant tensor:
#      x y z
#    x 1.614710 0.000000 0.140960 
#    y 0.000000 1.624020 0.000000 
#    z 0.140960 0.000000 1.522860 
# 
# From -- ./inp_files/183766.got.cif
#   From: 2010.05.17/outbox.cif.g08.bks.cpg/sg12_92_cif.got.tgz:183766.got - 2010.06.03 13:09:07.
