data_PCOD9183083
_publ_section_title
;
Structure prediction by ZEFSAII (Michael W. Deem and Ramdas Pophale) SiO2 
 PCOD9183083
Probable space group: C 2/M
;
_chemical_formula_sum "Si O2"
_cell_formula_units_Z 64
_cell_length_a 16.554588
_cell_length_b 8.695314
_cell_length_c 22.829393
_cell_angle_alpha 90.000000
_cell_angle_beta 89.906572
_cell_angle_gamma 90.000000
_cell_volume 3286.226045
_symmetry_space_group_name_H-M "C 2/M"
_symmetry_group_IT_number 12
_symmetry_cell_setting 'monoclinic'
loop_
_space_group_symop_operation_xyz
x,y,z
-x,y,-z
-x,-y,-z
x,-y,z
1/2+x,1/2+y,z
1/2-x,1/2+y,-z
1/2-x,1/2-y,-z
1/2+x,1/2-y,z
loop_
_atom_site_type_symbol
_atom_site_label
_atom_site_fract_x
_atom_site_fract_y
_atom_site_fract_z
Si Si1 0.500958 0.812730 0.067714
Si Si2 0.846185 0.819897 0.624741
Si Si3 0.165224 0.313869 0.134053
Si Si4 0.591419 0.187518 0.744295
Si Si5 0.096450 0.821951 0.499641
Si Si6 0.592823 0.184640 0.254578
Si Si7 0.336956 0.186037 0.134854
Si Si8 0.154035 0.679082 0.620553
O O1 0.584914 0.765024 0.098475
O O2 0.417745 0.764910 0.099706
O O3 0.500959 0.000000 0.070155
O O4 0.500000 0.765854 0.000000
O O5 0.873479 0.753036 0.561982
O O6 0.882915 0.741934 0.681660
O O7 0.749894 0.810239 0.627783
O O8 0.870188 0.000000 0.626061
O O9 0.168203 0.500000 0.132297
O O10 0.149512 0.262661 0.201355
O O11 0.251356 0.250095 0.113247
O O12 0.499434 0.230220 0.758372
O O13 0.648504 0.235695 0.797570
O O14 0.614594 0.245582 0.679740
O O15 0.595543 0.000000 0.742615
O O16 0.128796 0.750678 0.559202
O O17 0.000000 0.814860 0.500000
O O18 0.122691 0.000000 0.499600
O O19 0.595041 0.000000 0.254765
O O20 0.333947 0.000000 0.132914
O O21 0.130972 0.500000 0.617699
#
# Coordination Sequence:
#
# PCOD9183083 Si02
#       8
#     8   8   8   8   8   8   8   8
#     4   9  18  35  59  84 113 153 194 226 267 331
#     4  10  21  35  50  74 104 133 169 218 270 319
#     4  10  20  35  55  83 116 145 183 236 281 321
#     4   9  17  32  53  76 102 135 178 224 266 319
#     4  10  21  36  51  69  99 135 168 209 267 326
#     4  10  19  33  54  77 102 137 178 220 268 322
#     4  10  19  35  59  83 111 151 192 227 274 334
#     4  10  20  33  51  73  97 128 171 219 262 312
#
# _framework density 19.475228000000001
#
# number of rings (size 3 to 8) (size 9 to 14) (size 15 to 20)
#    0.000    2.250    1.250    1.875    0.000    3.250 
#    0.000    1.875    0.000    0.750    0.000    0.000 
#    0.000    0.000    0.000    0.000    0.000    0.000 
#
# Total GULP energy -178509.913436 kJ/mol
# GULP energy per Si atom -5578.434795 kJ/mol
# Density = 1.943090 g / cm^3
# Si number density = 19.475228 Si / 1000 Ang^3
#
#
#
# Elastic Constant Matrix: (Units=GPa)
#
#
# Indices 1 2 3 4 5 6 
#
# 1 107.4226 24.9333 73.6390 0.0000 5.4862 0.0000
# 2 24.9333 6.5921 16.5102 0.0000 1.6565 0.0000
# 3 73.6390 16.5102 130.1981 0.0000 1.8625 0.0000
# 4 0.0000 0.0000 0.0000 17.7599 0.0000 -4.4012
# 5 5.4862 1.6565 1.8625 0.0000 19.2496 0.0000
# 6 0.0000 0.0000 0.0000 -4.4012 0.0000 15.6936
#
#
#
# Elastic Compliance Matrix: (Units=1/GPa)
#
#
# Indices 1 2 3 4 5 6 
#
# 1 0.085509 -0.297148 -0.010714 0.000000 0.002237 0.000000
# 2 -0.297148 1.260212 0.008611 0.000000 -0.024589 0.000000
# 3 -0.010714 0.008611 0.012633 0.000000 0.001090 0.000000
# 4 0.000000 0.000000 0.000000 0.060512 0.000000 0.016970
# 5 0.002237 -0.024589 0.001090 0.000000 0.053322 0.000000
# 6 0.000000 0.000000 0.000000 0.016970 0.000000 0.068480
#
#
# Mechanical properties :
#
#
# Convention : Reuss Voigt Hill
#
# Bulk Modulus (GPa) = 1.31605 52.70865 27.01235
# Shear Modulus (GPa) = 2.08990 19.14931 10.61961
#
# Velocity S-wave (km/s) = 1.03703 3.13911 2.33767
# Velocity P-wave (km/s) = 1.45298 6.34522 4.60288
#
# Compressibility (1/GPa) = 0.75985033
#
# Stress axis : x y z
#
# Youngs Moduli (GPa) = 11.69466 0.79352 79.15767
#
# Poissons Ratio (x) = 0.23579 0.84812
# Poissons Ratio (y) = 3.47505 -0.68162
# Poissons Ratio (z) = 0.12530 -0.00683
#
# Static dielectric constant tensor:
#      x y z
#    x 1.671610 0.000000 -0.020730 
#    y 0.000000 1.684970 0.000000 
#    z -0.020730 0.000000 1.696730 
# 
# From -- ./inp_files/314076.got.cif
#   From: 2010.05.17/outbox.cif.g08.bks.cpg/sg12_158_cif.got.tgz:314076.got - 2010.06.03 13:09:07.
