data_PCOD9183279
_publ_section_title
;
Structure prediction by ZEFSAII (Michael W. Deem and Ramdas Pophale) SiO2 
 PCOD9183279
Probable space group: C 2/M
;
_chemical_formula_sum "Si O2"
_cell_formula_units_Z 56
_cell_length_a 15.452476
_cell_length_b 16.111874
_cell_length_c 14.204055
_cell_angle_alpha 90.000000
_cell_angle_beta 128.122188
_cell_angle_gamma 90.000000
_cell_volume 2782.040381
_symmetry_space_group_name_H-M "C 2/M"
_symmetry_group_IT_number 12
_symmetry_cell_setting 'monoclinic'
loop_
_space_group_symop_operation_xyz
x,y,z
-x,y,-z
-x,-y,-z
x,-y,z
1/2+x,1/2+y,z
1/2-x,1/2+y,-z
1/2-x,1/2-y,-z
1/2+x,1/2-y,z
loop_
_atom_site_type_symbol
_atom_site_label
_atom_site_fract_x
_atom_site_fract_y
_atom_site_fract_z
Si Si1 0.915934 0.588164 0.084614
Si Si2 0.539169 0.763293 0.380766
Si Si3 0.148643 0.656537 0.273355
Si Si4 0.846388 0.093307 0.526577
Si Si5 0.627881 0.755169 0.071166
Si Si6 0.328559 0.093234 0.426878
Si Si7 0.178866 0.354060 0.789789
O O1 0.884800 0.500000 0.020388
O O2 0.875698 0.591912 0.165000
O O3 0.047781 0.598339 0.174638
O O4 0.871235 0.667983 0.999908
O O5 0.598393 0.785478 0.321727
O O6 0.570457 0.669819 0.427576
O O7 0.591434 0.833052 0.484905
O O8 0.410350 0.780429 0.284634
O O9 0.250802 0.608327 0.385321
O O10 0.175597 0.712880 0.202495
O O11 0.780981 0.100374 0.582565
O O12 0.891425 0.000000 0.549289
O O13 0.705961 0.680548 0.095070
O O14 0.500000 0.732314 0.000000
O O15 0.307530 0.102958 0.302063
O O16 0.373906 0.000000 0.476527
#
# Coordination Sequence:
#
# PCOD9183279 Si02
#       7
#     8   8   8   8   8   8   8
#     4  10  21  35  53  79 104 131 175 228 272 308
#     4  10  20  33  52  82 117 144 173 214 264 322
#     4   9  18  33  55  78 104 139 179 223 262 302
#     4  10  19  33  54  81 114 148 178 208 252 321
#     4  10  21  37  57  75  97 136 182 224 264 314
#     4  10  20  34  57  86 111 140 179 219 262 314
#     4  11  21  35  55  78 108 139 172 218 275 320
#
# _framework density 20.129111000000002
#
# number of rings (size 3 to 8) (size 9 to 14) (size 15 to 20)
#    0.000    2.000    0.000    5.143    0.000    7.714 
#    0.000    0.714    0.000    7.714    0.000    0.000 
#    0.000    0.000    0.000    0.000    0.000    0.000 
#
# Total GULP energy -156352.967890 kJ/mol
# GULP energy per Si atom -5584.034567 kJ/mol
# Density = 2.008330 g / cm^3
# Si number density = 20.129111 Si / 1000 Ang^3
#
#
#
# Elastic Constant Matrix: (Units=GPa)
#
#
# Indices 1 2 3 4 5 6 
#
# 1 43.9017 27.3162 10.1417 0.0000 5.3621 0.0000
# 2 27.3162 114.4738 13.7804 0.0000 23.6325 0.0000
# 3 10.1417 13.7804 45.0094 0.0000 -3.9324 0.0000
# 4 0.0000 0.0000 0.0000 15.7338 0.0000 -4.6807
# 5 5.3621 23.6325 -3.9324 0.0000 26.4014 0.0000
# 6 0.0000 0.0000 0.0000 -4.6807 0.0000 -33.3208
#
#
#
# Elastic Compliance Matrix: (Units=1/GPa)
#
#
# Indices 1 2 3 4 5 6 
#
# 1 0.027572 -0.005813 -0.004526 0.000000 -0.001070 0.000000
# 2 -0.005813 0.012775 -0.003544 0.000000 -0.010783 0.000000
# 3 -0.004526 -0.003544 0.025005 0.000000 0.007816 0.000000
# 4 0.000000 0.000000 0.000000 0.061008 0.000000 -0.008570
# 5 -0.001070 -0.010783 0.007816 0.000000 0.048910 0.000000
# 6 0.000000 0.000000 0.000000 -0.008570 0.000000 -0.028807
#
#
# Mechanical properties :
#
#
# Convention : Reuss Voigt Hill
#
# Bulk Modulus (GPa) = 26.60573 33.98461 30.29517
# Shear Modulus (GPa) = 26.77260 11.90598 19.33929
#
# Velocity S-wave (km/s) = 3.65093 2.43468 3.10298
# Velocity P-wave (km/s) = 5.56944 4.98232 5.28404
#
# Compressibility (1/GPa) = 0.03758589
#
# Stress axis : x y z
#
# Youngs Moduli (GPa) = 36.26907 78.27498 39.99167
#
# Poissons Ratio (x) = 0.45505 0.18101
# Poissons Ratio (y) = 0.21085 0.14171
# Poissons Ratio (z) = 0.16416 0.27737
#
# Static dielectric constant tensor:
#      x y z
#    x 1.709120 0.000000 -0.024190 
#    y 0.000000 1.780620 0.000000 
#    z -0.024190 0.000000 1.710580 
# 
# From -- ./inp_files/225357.got.cif
#   From: 2010.05.17/outbox.cif.g08.bks.cpg/sg12_113_cif.got.tgz:225357.got - 2010.06.03 13:09:07.
