data_PCOD9183040
_publ_section_title
;
Structure prediction by ZEFSAII (Michael W. Deem and Ramdas Pophale) SiO2 
 PCOD9183040
Probable space group: C 2/M
;
_chemical_formula_sum "Si O2"
_cell_formula_units_Z 56
_cell_length_a 19.398948
_cell_length_b 7.728333
_cell_length_c 18.329541
_cell_angle_alpha 90.000000
_cell_angle_beta 54.164635
_cell_angle_gamma 90.000000
_cell_volume 2227.804954
_symmetry_space_group_name_H-M "C 2/M"
_symmetry_group_IT_number 12
_symmetry_cell_setting 'monoclinic'
loop_
_space_group_symop_operation_xyz
x,y,z
-x,y,-z
-x,-y,-z
x,-y,z
1/2+x,1/2+y,z
1/2-x,1/2+y,-z
1/2-x,1/2-y,-z
1/2+x,1/2-y,z
loop_
_atom_site_type_symbol
_atom_site_label
_atom_site_fract_x
_atom_site_fract_y
_atom_site_fract_z
Si Si1 0.827338 0.793615 0.004565
Si Si2 0.383664 0.290763 0.276059
Si Si3 0.853460 0.806582 0.721653
Si Si4 0.526572 0.190940 0.568623
Si Si5 0.910431 0.788691 0.093100
Si Si6 0.933077 0.788038 0.807731
Si Si7 0.197014 0.797278 0.403518
O O1 0.908040 0.738863 0.905363
O O2 0.830145 0.000000 0.008710
O O3 0.750000 0.750000 0.000000
O O4 0.838422 0.729384 0.080106
O O5 0.382755 0.500000 0.277344
O O6 0.392229 0.230320 0.186518
O O7 0.469345 0.234563 0.263949
O O8 0.294345 0.230311 0.363404
O O9 0.816054 0.722412 0.671381
O O10 0.956107 0.816399 0.644883
O O11 0.860739 0.721096 0.796627
O O12 0.818113 0.000000 0.749435
O O13 0.500000 0.190790 0.500000
O O14 0.626552 0.228134 0.502976
O O15 0.510098 0.000000 0.608077
O O16 0.911446 0.000000 0.096776
O O17 0.000000 0.739860 0.000000
O O18 0.928950 0.000000 0.807586
O O19 0.177791 0.000000 0.408737
#
# Coordination Sequence:
#
# PCOD9183040 Si02
#       7
#     8   8   8   8   8   8   8
#     4  10  20  34  53  77 105 136 173 216 259 303
#     4  10  19  33  54  76 101 135 178 219 251 294
#     4   9  18  33  53  76 103 136 170 206 256 311
#     4   9  17  32  54  79 104 131 168 212 254 298
#     4   9  16  31  54  76  98 134 180 217 250 295
#     4   9  18  34  54  74 101 139 176 210 253 306
#     4  10  20  33  52  78 107 136 167 207 256 311
#
# _framework density 25.136849999999999
#
# number of rings (size 3 to 8) (size 9 to 14) (size 15 to 20)
#    0.000    2.571    1.429    0.857    2.000    2.286 
#    0.000    2.857    0.000    0.857    0.000    0.000 
#    0.000    0.000    0.000    0.000    0.000    0.000 
#
# Total GULP energy -156276.042682 kJ/mol
# GULP energy per Si atom -5581.287239 kJ/mol
# Density = 2.507964 g / cm^3
# Si number density = 25.136850 Si / 1000 Ang^3
#
#
#
# Elastic Constant Matrix: (Units=GPa)
#
#
# Indices 1 2 3 4 5 6 
#
# 1 106.7898 -6.9959 3.3954 -0.0003 -12.3962 0.0006
# 2 -6.9959 55.4485 7.0274 -0.0004 4.1463 0.0006
# 3 3.3954 7.0274 35.0454 -0.0001 -16.9839 0.0002
# 4 -0.0003 -0.0004 -0.0001 11.2897 0.0001 -3.0949
# 5 -12.3962 4.1463 -16.9839 0.0001 49.6210 -0.0001
# 6 0.0006 0.0006 0.0002 -3.0949 -0.0001 17.8480
#
#
#
# Elastic Compliance Matrix: (Units=1/GPa)
#
#
# Indices 1 2 3 4 5 6 
#
# 1 0.009704 0.001053 -0.000023 0.000000 0.002328 0.000000
# 2 0.001053 0.019104 -0.005489 0.000000 -0.003212 -0.000001
# 3 -0.000023 -0.005489 0.035794 0.000000 0.012704 0.000000
# 4 0.000000 0.000000 0.000000 0.092997 0.000000 0.016126
# 5 0.002328 -0.003212 0.012704 0.000000 0.025351 0.000000
# 6 0.000000 -0.000001 0.000000 0.016126 0.000000 0.058825
#
#
# Mechanical properties :
#
#
# Convention : Reuss Voigt Hill
#
# Bulk Modulus (GPa) = 17.95860 22.68194 20.32027
# Shear Modulus (GPa) = 18.56978 28.67553 23.62265
#
# Velocity S-wave (km/s) = 2.72094 3.38120 3.06888
# Velocity P-wave (km/s) = 4.12689 4.92812 4.54519
#
# Compressibility (1/GPa) = 0.05568363
#
# Stress axis : x y z
#
# Youngs Moduli (GPa) = 103.04817 52.34635 27.93750
#
# Poissons Ratio (x) = -0.05513 0.00064
# Poissons Ratio (y) = -0.10853 0.15336
# Poissons Ratio (z) = 0.00237 0.28735
#
# Static dielectric constant tensor:
#      x y z
#    x 2.057740 0.000000 0.053600 
#    y 0.000000 1.929810 0.000000 
#    z 0.053600 0.000000 2.094690 
# 
# From -- ./inp_files/319705.got.cif
#   From: 2010.05.17/outbox.cif.g08.bks.cpg/sg12_160_cif.got.tgz:319705.got - 2010.06.03 13:09:07.
