data_PCOD9183313
_publ_section_title
;
Structure prediction by ZEFSAII (Michael W. Deem and Ramdas Pophale) SiO2 
 PCOD9183313
Probable space group: C 2/M
;
_chemical_formula_sum "Si O2"
_cell_formula_units_Z 48
_cell_length_a 15.747335
_cell_length_b 14.304525
_cell_length_c 9.465744
_cell_angle_alpha 90.000000
_cell_angle_beta 91.883713
_cell_angle_gamma 90.000000
_cell_volume 2131.083696
_symmetry_space_group_name_H-M "C 2/M"
_symmetry_group_IT_number 12
_symmetry_cell_setting 'monoclinic'
loop_
_space_group_symop_operation_xyz
x,y,z
-x,y,-z
-x,-y,-z
x,-y,z
1/2+x,1/2+y,z
1/2-x,1/2+y,-z
1/2-x,1/2-y,-z
1/2+x,1/2-y,z
loop_
_atom_site_type_symbol
_atom_site_label
_atom_site_fract_x
_atom_site_fract_y
_atom_site_fract_z
Si Si1 0.178206 0.000000 0.847517
Si Si2 0.191820 0.500000 0.881731
Si Si3 0.360273 0.211612 0.553133
Si Si4 0.038426 0.294738 0.705578
Si Si5 0.628758 0.692141 0.932019
Si Si6 0.012576 0.500000 0.777865
Si Si7 0.771995 0.808626 0.790604
Si Si8 0.669159 0.000000 0.349074
O O1 0.119970 0.910326 0.867766
O O2 0.236927 0.000000 0.712930
O O3 0.250756 0.000000 0.974614
O O4 0.089175 0.500000 0.899430
O O5 0.222072 0.406546 0.801729
O O6 0.386843 0.236226 0.395558
O O7 0.447825 0.233554 0.642076
O O8 0.294652 0.276111 0.634871
O O9 0.341245 0.100298 0.572382
O O10 0.058009 0.259922 0.863930
O O11 0.035042 0.406262 0.697468
O O12 0.715155 0.730347 0.864205
O O13 0.646323 0.686555 0.099521
O O14 0.909161 0.500000 0.771465
#
# Coordination Sequence:
#
# PCOD9183313 Si02
#       8
#     4   4   8   8   8   4   8   4
#     4  10  20  36  54  81 115 143 178 226 273 320
#     4  10  20  36  54  81 115 143 178 226 273 320
#     4  10  21  37  56  81 113 145 181 226 273 323
#     4  10  21  37  56  81 113 145 181 226 273 323
#     4  10  20  36  57  80 110 145 182 225 270 322
#     4  10  19  33  54  82 114 146 177 218 275 330
#     4  10  20  36  57  80 110 145 182 225 270 322
#     4  10  19  33  54  82 114 146 177 218 275 330
#
# _framework density 22.523752000000002
#
# number of rings (size 3 to 8) (size 9 to 14) (size 15 to 20)
#    0.000    2.000    3.333    0.500    0.000    3.667 
#    0.000    5.000    0.000    5.000    0.000    0.000 
#    0.000    0.000    0.000    0.000    0.000    0.000 
#
# Total GULP energy -133842.985093 kJ/mol
# GULP energy per Si atom -5576.791046 kJ/mol
# Density = 2.247249 g / cm^3
# Si number density = 22.523752 Si / 1000 Ang^3
#
#
#
# Elastic Constant Matrix: (Units=GPa)
#
#
# Indices 1 2 3 4 5 6 
#
# 1 47.0480 -0.5848 -4.8380 0.0000 4.3102 0.0000
# 2 -0.5848 116.0696 13.4987 0.0000 -14.4100 0.0000
# 3 -4.8380 13.4987 75.9342 0.0000 -6.9761 0.0000
# 4 0.0000 0.0000 0.0000 6.6730 0.0000 3.0392
# 5 4.3102 -14.4100 -6.9761 0.0000 34.3430 0.0000
# 6 0.0000 0.0000 0.0000 3.0392 0.0000 13.1333
#
#
#
# Elastic Compliance Matrix: (Units=1/GPa)
#
#
# Indices 1 2 3 4 5 6 
#
# 1 0.021614 -0.000356 0.001200 0.000000 -0.002618 0.000000
# 2 -0.000356 0.009220 -0.001327 0.000000 0.003644 0.000000
# 3 0.001200 -0.001327 0.013672 0.000000 0.002070 0.000000
# 4 0.000000 0.000000 0.000000 0.167512 0.000000 -0.038765
# 5 -0.002618 0.003644 0.002070 0.000000 0.031396 0.000000
# 6 0.000000 0.000000 0.000000 -0.038765 0.000000 0.085113
#
#
# Mechanical properties :
#
#
# Convention : Reuss Voigt Hill
#
# Bulk Modulus (GPa) = 22.96731 28.35595 25.66163
# Shear Modulus (GPa) = 14.53462 26.22826 20.38144
#
# Velocity S-wave (km/s) = 2.54304 3.41614 3.01140
# Velocity P-wave (km/s) = 4.34071 5.30817 4.84863
#
# Compressibility (1/GPa) = 0.04354014
#
# Stress axis : x y z
#
# Youngs Moduli (GPa) = 46.26697 108.45458 73.14329
#
# Poissons Ratio (x) = 0.03858 -0.08776
# Poissons Ratio (y) = 0.01646 0.09706
# Poissons Ratio (z) = -0.05551 0.14392
#
# Static dielectric constant tensor:
#      x y z
#    x 1.901470 0.000000 0.041710 
#    y 0.000000 1.806440 0.000000 
#    z 0.041710 0.000000 1.854050 
# 
# From -- ./inp_files/73715.got.cif
#   From: 2010.05.17/outbox.cif.g08.bks.cpg/sg12_37_cif.got.tgz:73715.got - 2010.06.03 13:09:07.
