data_PCOD9183104
_publ_section_title
;
Structure prediction by ZEFSAII (Michael W. Deem and Ramdas Pophale) SiO2 
 PCOD9183104
Probable space group: C 2/M
;
_chemical_formula_sum "Si O2"
_cell_formula_units_Z 56
_cell_length_a 30.565860
_cell_length_b 8.678273
_cell_length_c 17.295287
_cell_angle_alpha 90.000000
_cell_angle_beta 46.361081
_cell_angle_gamma 90.000000
_cell_volume 3320.154012
_symmetry_space_group_name_H-M "C 2/M"
_symmetry_group_IT_number 12
_symmetry_cell_setting 'monoclinic'
loop_
_space_group_symop_operation_xyz
x,y,z
-x,y,-z
-x,-y,-z
x,-y,z
1/2+x,1/2+y,z
1/2-x,1/2+y,-z
1/2-x,1/2-y,-z
1/2+x,1/2-y,z
loop_
_atom_site_type_symbol
_atom_site_label
_atom_site_fract_x
_atom_site_fract_y
_atom_site_fract_z
Si Si1 0.489188 0.315109 0.787834
Si Si2 0.665750 0.814550 0.761600
Si Si3 0.466789 0.816267 0.653405
Si Si4 0.445363 0.314224 0.010483
Si Si5 0.196284 0.814024 0.408254
Si Si6 0.411886 0.315144 0.572144
Si Si7 0.876221 0.315295 0.360075
O O1 0.487821 0.500000 0.783684
O O2 0.457932 0.242755 0.750943
O O3 0.558706 0.260190 0.704229
O O4 0.459560 0.267222 0.905348
O O5 0.617429 0.746192 0.879581
O O6 0.734895 0.765798 0.690688
O O7 0.646290 0.771501 0.698060
O O8 0.663315 0.000000 0.769589
O O9 0.531959 0.753080 0.545002
O O10 0.419405 0.750648 0.649005
O O11 0.467553 0.000000 0.649486
O O12 0.444933 0.500000 0.013152
O O13 0.500000 0.261239 0.000000
O O14 0.150037 0.774744 0.395716
O O15 0.170234 0.741071 0.518276
O O16 0.195400 0.000000 0.418259
O O17 0.418061 0.500000 0.566301
O O18 0.882066 0.500000 0.356707
#
# Coordination Sequence:
#
# PCOD9183104 Si02
#       7
#     8   8   8   8   8   8   8
#     4  11  21  35  55  77 108 142 178 220 268 321
#     4  10  22  37  53  78 110 145 182 220 266 313
#     4  11  21  33  52  80 110 135 174 223 271 317
#     4  10  21  37  56  78 103 140 185 225 265 312
#     4  10  21  36  54  77 110 148 180 214 261 323
#     4  10  19  33  54  77 107 144 178 211 265 323
#     4  11  21  32  51  80 111 143 179 218 263 313
#
# _framework density 16.866688
#
# number of rings (size 3 to 8) (size 9 to 14) (size 15 to 20)
#    0.000    1.571    2.857    3.857    0.000    3.143 
#    0.000    0.000    0.000    0.857    0.000    0.000 
#    0.000    0.000    0.000    0.000    0.000    0.000 
#
# Total GULP energy -156391.220778 kJ/mol
# GULP energy per Si atom -5585.400742 kJ/mol
# Density = 1.682830 g / cm^3
# Si number density = 16.866688 Si / 1000 Ang^3
#
#
#
# Elastic Constant Matrix: (Units=GPa)
#
#
# Indices 1 2 3 4 5 6 
#
# 1 71.4850 28.0239 61.6115 0.0000 16.2208 0.0000
# 2 28.0239 45.4490 31.8917 0.0003 8.6888 -0.0002
# 3 61.6115 31.8917 137.7644 0.0001 8.5255 0.0000
# 4 0.0000 0.0003 0.0001 27.3651 0.0000 -0.5069
# 5 16.2208 8.6888 8.5255 0.0000 32.0661 0.0000
# 6 0.0000 -0.0002 0.0000 -0.5069 0.0000 19.6379
#
#
#
# Elastic Compliance Matrix: (Units=1/GPa)
#
#
# Indices 1 2 3 4 5 6 
#
# 1 0.028031 -0.008508 -0.009996 0.000000 -0.009217 0.000000
# 2 -0.008508 0.029877 -0.002925 0.000000 -0.003014 0.000000
# 3 -0.009996 -0.002925 0.012246 0.000000 0.002593 0.000000
# 4 0.000000 0.000000 0.000000 0.036560 0.000000 0.000944
# 5 -0.009217 -0.003014 0.002593 0.000000 0.035975 0.000000
# 6 0.000000 0.000000 0.000000 0.000944 0.000000 0.050946
#
#
# Mechanical properties :
#
#
# Convention : Reuss Voigt Hill
#
# Bulk Modulus (GPa) = 36.63481 55.30584 45.97032
# Shear Modulus (GPa) = 20.35886 24.69190 22.52538
#
# Velocity S-wave (km/s) = 3.47803 3.83030 3.65841
# Velocity P-wave (km/s) = 6.15599 7.24036 6.72008
#
# Compressibility (1/GPa) = 0.02729644
#
# Stress axis : x y z
#
# Youngs Moduli (GPa) = 35.67458 33.47019 81.65906
#
# Poissons Ratio (x) = 0.28475 0.81629
# Poissons Ratio (y) = 0.30350 0.23886
# Poissons Ratio (z) = 0.35662 0.09790
#
# Static dielectric constant tensor:
#      x y z
#    x 1.572410 0.000000 0.016380 
#    y 0.000000 1.567640 0.000000 
#    z 0.016380 0.000000 1.543330 
# 
# From -- ./inp_files/248894.got.cif
#   From: 2010.05.17/outbox.cif.g08.bks.cpg/sg12_125_cif.got.tgz:248894.got - 2010.06.03 13:09:07.
