data_PCOD9183665
_publ_section_title
;
Structure prediction by ZEFSAII (Michael W. Deem and Ramdas Pophale) SiO2 
 PCOD9183665
Probable space group: C 2/M
;
_chemical_formula_sum "Si O2"
_cell_formula_units_Z 56
_cell_length_a 9.589222
_cell_length_b 25.150446
_cell_length_c 13.726459
_cell_angle_alpha 90.000000
_cell_angle_beta 133.714562
_cell_angle_gamma 90.000000
_cell_volume 2392.768247
_symmetry_space_group_name_H-M "C 2/M"
_symmetry_group_IT_number 12
_symmetry_cell_setting 'monoclinic'
loop_
_space_group_symop_operation_xyz
x,y,z
-x,y,-z
-x,-y,-z
x,-y,z
1/2+x,1/2+y,z
1/2-x,1/2+y,-z
1/2-x,1/2-y,-z
1/2+x,1/2-y,z
loop_
_atom_site_type_symbol
_atom_site_label
_atom_site_fract_x
_atom_site_fract_y
_atom_site_fract_z
Si Si1 0.821985 0.671257 0.985828
Si Si2 0.134836 0.938127 0.650008
Si Si3 0.067780 0.440055 0.897012
Si Si4 0.295929 0.588061 0.607806
Si Si5 0.392692 0.295692 0.715813
Si Si6 0.105090 0.297860 0.753922
Si Si7 0.932907 0.419648 0.314684
O O1 0.840285 0.694671 0.104873
O O2 0.827505 0.607046 0.997042
O O3 0.613392 0.687846 0.846554
O O4 0.000000 0.686935 0.000000
O O5 0.348407 0.918308 0.774653
O O6 0.000000 0.913128 0.500000
O O7 0.004611 0.932357 0.681829
O O8 0.164016 0.000000 0.639545
O O9 0.073204 0.500000 0.939396
O O10 0.138507 0.442724 0.820369
O O11 0.301073 0.652513 0.619633
O O12 0.214585 0.568794 0.670841
O O13 0.145909 0.566040 0.454932
O O14 0.273322 0.282824 0.757360
O O15 0.428897 0.243531 0.668531
O O16 0.052762 0.356623 0.694290
#
# Coordination Sequence:
#
# PCOD9183665 Si02
#       7
#     8   8   8   8   8   8   8
#     4  11  22  38  60  82 110 150 192 232 282 335
#     4  10  19  33  55  84 114 144 184 230 277 329
#     4  10  21  38  59  85 115 147 187 235 283 334
#     4  10  20  36  57  84 118 151 189 231 278 337
#     4  11  22  38  59  84 114 150 190 236 283 333
#     4  10  22  39  59  84 114 148 192 237 281 335
#     4   9  20  37  58  84 116 153 188 231 281 334
#
# _framework density 23.403855
#
# number of rings (size 3 to 8) (size 9 to 14) (size 15 to 20)
#    0.000    1.857    1.429    2.571    0.000    2.571 
#    0.000    2.143    0.000   11.143    0.000    0.000 
#    0.000    0.000    0.000    0.000    0.000    0.000 
#
# Total GULP energy -156409.471624 kJ/mol
# GULP energy per Si atom -5586.052558 kJ/mol
# Density = 2.335059 g / cm^3
# Si number density = 23.403855 Si / 1000 Ang^3
#
#
#
# Elastic Constant Matrix: (Units=GPa)
#
#
# Indices 1 2 3 4 5 6 
#
# 1 143.5003 24.6485 10.5697 0.0000 -8.5759 0.0000
# 2 24.6485 99.9297 11.2077 0.0000 -1.1978 0.0000
# 3 10.5697 11.2077 49.2345 0.0000 -11.6454 0.0000
# 4 0.0000 0.0000 0.0000 -57.3008 0.0000 -35.1702
# 5 -8.5759 -1.1978 -11.6454 0.0000 20.4864 0.0000
# 6 0.0000 0.0000 0.0000 -35.1702 0.0000 0.9945
#
#
#
# Elastic Compliance Matrix: (Units=1/GPa)
#
#
# Indices 1 2 3 4 5 6 
#
# 1 0.007472 -0.001747 -0.000567 0.000000 0.002703 0.000000
# 2 -0.001747 0.010690 -0.002407 0.000000 -0.001475 0.000000
# 3 -0.000567 -0.002407 0.024136 0.000000 0.013342 0.000000
# 4 0.000000 0.000000 0.000000 -0.000769 0.000000 -0.027181
# 5 0.002703 -0.001475 0.013342 0.000000 0.057443 0.000000
# 6 0.000000 0.000000 0.000000 -0.027181 0.000000 0.044284
#
#
# Mechanical properties :
#
#
# Convention : Reuss Voigt Hill
#
# Bulk Modulus (GPa) = 30.43562 42.83514 36.63538
# Shear Modulus (GPa) = 30.55268 9.25192 19.90230
#
# Velocity S-wave (km/s) = 3.61703 1.99041 2.91930
# Velocity P-wave (km/s) = 5.52056 4.86052 5.20102
#
# Compressibility (1/GPa) = 0.03285623
#
# Stress axis : x y z
#
# Youngs Moduli (GPa) = 133.83228 93.54292 41.43103
#
# Poissons Ratio (x) = 0.16342 0.02349
# Poissons Ratio (y) = 0.23381 0.09974
# Poissons Ratio (z) = 0.07588 0.22518
#
# Static dielectric constant tensor:
#      x y z
#    x 1.883980 0.000000 -0.028710 
#    y 0.000000 1.918460 0.000000 
#    z -0.028710 0.000000 1.895720 
# 
# From -- ./inp_files/198960.got.cif
#   From: 2010.05.17/outbox.cif.g08.bks.cpg/sg12_100_cif.got.tgz:198960.got - 2010.06.03 13:09:07.
