data_PCOD9183303
_publ_section_title
;
Structure prediction by ZEFSAII (Michael W. Deem and Ramdas Pophale) SiO2 
 PCOD9183303
Probable space group: C 2/M
;
_chemical_formula_sum "Si O2"
_cell_formula_units_Z 64
_cell_length_a 18.393426
_cell_length_b 13.975876
_cell_length_c 14.343184
_cell_angle_alpha 90.000000
_cell_angle_beta 49.809493
_cell_angle_gamma 90.000000
_cell_volume 2816.601660
_symmetry_space_group_name_H-M "C 2/M"
_symmetry_group_IT_number 12
_symmetry_cell_setting 'monoclinic'
loop_
_space_group_symop_operation_xyz
x,y,z
-x,y,-z
-x,-y,-z
x,-y,z
1/2+x,1/2+y,z
1/2-x,1/2+y,-z
1/2-x,1/2-y,-z
1/2+x,1/2-y,z
loop_
_atom_site_type_symbol
_atom_site_label
_atom_site_fract_x
_atom_site_fract_y
_atom_site_fract_z
Si Si1 0.080049 0.104208 0.093588
Si Si2 0.627250 0.761833 0.393847
Si Si3 0.858905 0.610573 0.114272
Si Si4 0.133889 0.896720 0.263807
Si Si5 0.442293 0.189412 0.860165
Si Si6 0.588975 0.110891 0.591067
Si Si7 0.710915 0.114949 0.156948
Si Si8 0.271634 0.884090 0.369532
O O1 0.113053 0.097688 0.173104
O O2 0.022971 0.202449 0.147749
O O3 0.037836 0.000000 0.102617
O O4 0.175704 0.120913 0.954358
O O5 0.580319 0.688334 0.359478
O O6 0.574805 0.827148 0.511468
O O7 0.683781 0.834401 0.277184
O O8 0.687880 0.686405 0.407461
O O9 0.883319 0.500000 0.095733
O O10 0.747195 0.620080 0.178692
O O11 0.854346 0.641802 0.225380
O O12 0.921018 0.652941 0.981221
O O13 0.111259 0.000000 0.324990
O O14 0.512489 0.134293 0.733444
O O15 0.343892 0.172383 0.880959
O O16 0.689828 0.130408 0.558567
O O17 0.583885 0.000000 0.571320
O O18 0.686772 0.000000 0.173930
O O19 0.253224 0.000000 0.374645
#
# Coordination Sequence:
#
# PCOD9183303 Si02
#       8
#     8   8   8   8   8   8   8   8
#     4  10  19  33  54  82 111 140 183 233 269 317
#     4  11  20  36  57  80 109 147 186 224 272 324
#     4   9  16  29  55  84 108 133 176 227 280 321
#     4   9  16  30  54  82 104 132 179 233 271 308
#     4  12  21  35  54  82 119 156 174 215 279 342
#     4  11  25  40  54  77 114 151 189 225 267 330
#     4  11  21  33  56  87 117 147 184 222 270 330
#     4   9  20  39  62  86 104 134 188 247 280 310
#
# _framework density 22.722418000000001
#
# number of rings (size 3 to 8) (size 9 to 14) (size 15 to 20)
#    0.000    1.750    2.500    4.875    0.000    1.000 
#    0.000    4.375    0.000    3.000    0.000    2.625 
#    0.000    0.000    0.000    0.000    0.000    0.000 
#
# Total GULP energy -178472.907463 kJ/mol
# GULP energy per Si atom -5577.278358 kJ/mol
# Density = 2.267070 g / cm^3
# Si number density = 22.722418 Si / 1000 Ang^3
#
#
#
# Elastic Constant Matrix: (Units=GPa)
#
#
# Indices 1 2 3 4 5 6 
#
# 1 35.5114 11.7334 18.2251 0.0000 12.0828 0.0000
# 2 11.7334 132.2233 41.3404 0.0000 6.4026 0.0000
# 3 18.2251 41.3404 80.5606 0.0000 25.8836 0.0000
# 4 0.0000 0.0000 0.0000 33.8911 0.0000 10.7142
# 5 12.0828 6.4026 25.8836 0.0000 23.4490 0.0000
# 6 0.0000 0.0000 0.0000 10.7142 0.0000 21.4929
#
#
#
# Elastic Compliance Matrix: (Units=1/GPa)
#
#
# Indices 1 2 3 4 5 6 
#
# 1 0.034997 -0.001691 -0.002176 0.000000 -0.015170 0.000000
# 2 -0.001691 0.009351 -0.006006 0.000000 0.004947 0.000000
# 3 -0.002176 -0.006006 0.023398 0.000000 -0.023067 0.000000
# 4 0.000000 0.000000 0.000000 0.035026 0.000000 -0.017460
# 5 -0.015170 0.004947 -0.023067 0.000000 0.074574 0.000000
# 6 0.000000 0.000000 0.000000 -0.017460 0.000000 0.055231
#
#
# Mechanical properties :
#
#
# Convention : Reuss Voigt Hill
#
# Bulk Modulus (GPa) = 20.83233 43.43256 32.13245
# Shear Modulus (GPa) = 18.63436 27.56637 23.10037
#
# Velocity S-wave (km/s) = 2.86682 3.48685 3.19193
# Velocity P-wave (km/s) = 4.48847 5.94699 5.26845
#
# Compressibility (1/GPa) = 0.04800231
#
# Stress axis : x y z
#
# Youngs Moduli (GPa) = 28.57401 106.93885 42.73831
#
# Poissons Ratio (x) = 0.18082 0.09298
# Poissons Ratio (y) = 0.04831 0.25667
# Poissons Ratio (z) = 0.06216 0.64223
#
# Static dielectric constant tensor:
#      x y z
#    x 1.952060 0.000000 -0.050630 
#    y 0.000000 1.911130 0.000000 
#    z -0.050630 0.000000 1.852350 
# 
# From -- ./inp_files/240657.got.cif
#   From: 2010.05.17/outbox.cif.g08.bks.cpg/sg12_121_cif.got.tgz:240657.got - 2010.06.03 13:09:07.
