data_PCOD9183993
_publ_section_title
;
Structure prediction by ZEFSAII (Michael W. Deem and Ramdas Pophale) SiO2 
 PCOD9183993
Probable space group: C 2/M
;
_chemical_formula_sum "Si O2"
_cell_formula_units_Z 58
_cell_length_a 27.951385
_cell_length_b 18.087357
_cell_length_c 13.095943
_cell_angle_alpha 90.000000
_cell_angle_beta 26.078949
_cell_angle_gamma 90.000000
_cell_volume 2910.596402
_symmetry_space_group_name_H-M "C 2/M"
_symmetry_group_IT_number 12
_symmetry_cell_setting 'monoclinic'
loop_
_space_group_symop_operation_xyz
x,y,z
-x,y,-z
-x,-y,-z
x,-y,z
1/2+x,1/2+y,z
1/2-x,1/2+y,-z
1/2-x,1/2-y,-z
1/2+x,1/2-y,z
loop_
_atom_site_type_symbol
_atom_site_label
_atom_site_fract_x
_atom_site_fract_y
_atom_site_fract_z
Si Si1 0.000000 0.500000 0.500000
Si Si2 0.887789 0.358309 0.459531
Si Si3 0.843984 0.641787 0.784096
Si Si4 0.552222 0.917804 0.003031
Si Si5 0.985949 0.802242 0.243468
Si Si6 0.766994 0.836441 0.592777
Si Si7 0.817826 0.168102 0.265720
Si Si8 0.601231 0.305212 0.237452
O O1 0.906343 0.567162 0.698856
O O2 0.876366 0.352530 0.602155
O O3 0.768962 0.372366 0.640156
O O4 0.945759 0.282533 0.309490
O O5 0.967514 0.417779 0.257715
O O6 0.879494 0.718202 0.771864
O O7 0.712064 0.648514 0.041972
O O8 0.661692 0.879662 0.828366
O O9 0.582668 0.000000 0.912913
O O10 0.500000 0.881910 0.000000
O O11 0.060894 0.808855 0.198572
O O12 0.870283 0.843306 0.468104
O O13 0.059721 0.830061 0.009057
O O14 0.803504 0.858054 0.408635
O O15 0.725070 0.752396 0.662424
O O16 0.500000 0.330949 0.500000
#
# Coordination Sequence:
#
# PCOD9183993 Si02
#       8
#     2   8   8   8   8   8   8   8
#     4  12  24  48  62 104 126 164 212 284 322 400
#     4  11  20  36  59  92 122 164 203 257 309 381
#     4  11  24  40  68  92 134 166 217 271 334 384
#     4  11  23  39  58  83 126 167 204 245 298 376
#     4  11  20  34  61  89 122 154 205 258 314 364
#     4  10  21  33  56  88 122 159 197 254 307 360
#     4  10  19  33  56  87 126 151 195 260 309 355
#     4  11  22  43  65  96 124 171 215 271 323 402
#
# _framework density 19.927187
#
# number of rings (size 3 to 8) (size 9 to 14) (size 15 to 20)
#    0.000    1.241    6.207    0.414    0.966    0.000 
#    2.483    0.345    1.517    2.483    0.000    0.000 
#    0.000    0.000    0.000    0.000    0.000    0.000 
#
# Total GULP energy -161436.399406 kJ/mol
# GULP energy per Si atom -5566.772393 kJ/mol
# Density = 1.988183 g / cm^3
# Si number density = 19.927187 Si / 1000 Ang^3
#
#
#
# Elastic Constant Matrix: (Units=GPa)
#
#
# Indices 1 2 3 4 5 6 
#
# 1 76.7819 20.6044 27.5879 0.0000 -22.7108 0.0000
# 2 20.6044 54.6835 34.7577 0.0000 -12.0860 0.0000
# 3 27.5879 34.7577 132.0895 0.0000 -27.2009 0.0000
# 4 0.0000 0.0000 0.0000 -11.5331 0.0000 8.2223
# 5 -22.7108 -12.0860 -27.2009 0.0000 39.9744 0.0000
# 6 0.0000 0.0000 0.0000 8.2223 0.0000 0.4994
#
#
#
# Elastic Compliance Matrix: (Units=1/GPa)
#
#
# Indices 1 2 3 4 5 6 
#
# 1 0.016686 -0.004058 -0.000835 0.000000 0.007685 0.000000
# 2 -0.004058 0.023293 -0.005008 0.000000 0.001329 0.000000
# 3 -0.000835 -0.005008 0.010063 0.000000 0.004859 0.000000
# 4 0.000000 0.000000 0.000000 -0.006807 0.000000 0.112073
# 5 0.007685 0.001329 0.004859 0.000000 0.033091 0.000000
# 6 0.000000 0.000000 0.000000 0.112073 0.000000 0.157199
#
#
# Mechanical properties :
#
#
# Convention : Reuss Voigt Hill
#
# Bulk Modulus (GPa) = 33.06779 47.71722 40.39250
# Shear Modulus (GPa) = 18.98203 17.82848 18.40525
#
# Velocity S-wave (km/s) = 3.08972 2.99437 3.04242
# Velocity P-wave (km/s) = 5.41838 5.99606 5.71452
#
# Compressibility (1/GPa) = 0.03024091
#
# Stress axis : x y z
#
# Youngs Moduli (GPa) = 59.93103 42.93125 99.36985
#
# Poissons Ratio (x) = 0.17422 0.08293
# Poissons Ratio (y) = 0.24321 0.49764
# Poissons Ratio (z) = 0.05002 0.21500
#
# Static dielectric constant tensor:
#      x y z
#    x 1.768030 0.000000 0.009970 
#    y 0.000000 1.720650 0.000000 
#    z 0.009970 0.000000 1.736080 
# 
# From -- ./inp_files/184441.got.cif
#   From: 2010.05.17/outbox.cif.g08.bks.cpg/sg12_93_cif.got.tgz:184441.got - 2010.06.03 13:09:07.
