data_PCOD9183396
_publ_section_title
;
Structure prediction by ZEFSAII (Michael W. Deem and Ramdas Pophale) SiO2 
 PCOD9183396
Probable space group: C 2/M
;
_chemical_formula_sum "Si O2"
_cell_formula_units_Z 56
_cell_length_a 21.964823
_cell_length_b 28.402863
_cell_length_c 13.448305
_cell_angle_alpha 90.000000
_cell_angle_beta 157.861151
_cell_angle_gamma 90.000000
_cell_volume 3161.758288
_symmetry_space_group_name_H-M "C 2/M"
_symmetry_group_IT_number 12
_symmetry_cell_setting 'monoclinic'
loop_
_space_group_symop_operation_xyz
x,y,z
-x,y,-z
-x,-y,-z
x,-y,z
1/2+x,1/2+y,z
1/2-x,1/2+y,-z
1/2-x,1/2-y,-z
1/2+x,1/2-y,z
loop_
_atom_site_type_symbol
_atom_site_label
_atom_site_fract_x
_atom_site_fract_y
_atom_site_fract_z
Si Si1 0.377448 0.393071 0.059662
Si Si2 0.404967 0.687531 0.263064
Si Si3 0.046516 0.278320 0.772553
Si Si4 0.114539 0.882982 0.264626
Si Si5 0.071799 0.229397 0.215429
Si Si6 0.613345 0.052739 0.769736
Si Si7 0.125700 0.376237 0.496298
O O1 0.401730 0.347507 0.165189
O O2 0.544901 0.406841 0.258617
O O3 0.287195 0.430600 0.992952
O O4 0.252843 0.382390 0.779854
O O5 0.500000 0.666583 0.500000
O O6 0.488389 0.736808 0.358455
O O7 0.222441 0.700679 0.016203
O O8 0.037202 0.252527 0.864334
O O9 0.923899 0.321658 0.581704
O O10 0.084739 0.827231 0.238413
O O11 0.290414 0.888840 0.482037
O O12 0.000000 0.897979 0.000000
O O13 0.250000 0.250000 0.500000
O O14 0.000000 0.241923 0.000000
O O15 0.500000 0.051739 0.500000
O O16 0.527619 0.090965 0.710786
O O17 0.616620 0.000000 0.816523
#
# Coordination Sequence:
#
# PCOD9183396 Si02
#       7
#     8   8   8   8   8   8   8
#     4  10  19  35  53  75 105 139 171 215 264 313
#     4  11  25  32  48  74 108 142 180 218 253 305
#     4  11  23  34  50  75 106 143 181 216 255 301
#     4   9  18  30  48  75 104 138 170 206 255 312
#     4  11  22  33  50  72 106 146 184 215 253 305
#     4   9  18  33  55  79 100 128 170 219 266 318
#     4  10  19  33  55  77 103 135 177 211 264 315
#
# _framework density 17.711663000000001
#
# number of rings (size 3 to 8) (size 9 to 14) (size 15 to 20)
#    0.000    1.857    4.286    0.000    6.000    0.000 
#    0.000    0.714    0.000    4.714    0.000    0.000 
#    0.000    1.714    0.000    0.000    0.000    0.000 
#
# Total GULP energy -156055.186253 kJ/mol
# GULP energy per Si atom -5573.399509 kJ/mol
# Density = 1.767135 g / cm^3
# Si number density = 17.711663 Si / 1000 Ang^3
#
#
#
# Elastic Constant Matrix: (Units=GPa)
#
#
# Indices 1 2 3 4 5 6 
#
# 1 129.0149 30.3273 24.4989 0.0000 23.1785 0.0000
# 2 30.3273 60.9332 5.9690 0.0000 8.6030 0.0000
# 3 24.4989 5.9690 31.7633 0.0000 3.6275 0.0000
# 4 0.0000 0.0000 0.0000 9.6778 0.0000 0.0590
# 5 23.1785 8.6030 3.6275 0.0000 28.6463 0.0000
# 6 0.0000 0.0000 0.0000 0.0590 0.0000 12.5827
#
#
#
# Elastic Compliance Matrix: (Units=1/GPa)
#
#
# Indices 1 2 3 4 5 6 
#
# 1 0.011305 -0.003927 -0.007175 0.000000 -0.007059 0.000000
# 2 -0.003927 0.018729 -0.000214 0.000000 -0.002420 0.000000
# 3 -0.007175 -0.000214 0.036921 0.000000 0.001195 0.000000
# 4 0.000000 0.000000 0.000000 0.103332 0.000000 -0.000484
# 5 -0.007059 -0.002420 0.001195 0.000000 0.041196 0.000000
# 6 0.000000 0.000000 0.000000 -0.000484 0.000000 0.079476
#
#
# Mechanical properties :
#
#
# Convention : Reuss Voigt Hill
#
# Bulk Modulus (GPa) = 22.56246 38.14463 30.35354
# Shear Modulus (GPa) = 15.22692 20.90912 18.06802
#
# Velocity S-wave (km/s) = 2.93526 3.43961 3.19740
# Velocity P-wave (km/s) = 4.92485 6.11210 5.55031
#
# Compressibility (1/GPa) = 0.04432141
#
# Stress axis : x y z
#
# Youngs Moduli (GPa) = 88.45697 53.39419 27.08489
#
# Poissons Ratio (x) = 0.20968 0.19434
# Poissons Ratio (y) = 0.34738 0.00580
# Poissons Ratio (z) = 0.63470 0.01144
#
# Static dielectric constant tensor:
#      x y z
#    x 1.646050 0.000000 0.036930 
#    y 0.000000 1.593620 0.000000 
#    z 0.036930 0.000000 1.607980 
# 
# From -- ./inp_files/134890.got.cif
#   From: 2010.05.17/outbox.cif.g08.bks.cpg/sg12_68_cif.got.tgz:134890.got - 2010.06.03 13:09:07.
