data_PCOD9183648
_publ_section_title
;
Structure prediction by ZEFSAII (Michael W. Deem and Ramdas Pophale) SiO2 
 PCOD9183648
Probable space group: C 2/M
;
_chemical_formula_sum "Si O2"
_cell_formula_units_Z 58
_cell_length_a 19.492331
_cell_length_b 7.669044
_cell_length_c 19.229825
_cell_angle_alpha 90.000000
_cell_angle_beta 109.345225
_cell_angle_gamma 90.000000
_cell_volume 2712.317657
_symmetry_space_group_name_H-M "C 2/M"
_symmetry_group_IT_number 12
_symmetry_cell_setting 'monoclinic'
loop_
_space_group_symop_operation_xyz
x,y,z
-x,y,-z
-x,-y,-z
x,-y,z
1/2+x,1/2+y,z
1/2-x,1/2+y,-z
1/2-x,1/2-y,-z
1/2+x,1/2-y,z
loop_
_atom_site_type_symbol
_atom_site_label
_atom_site_fract_x
_atom_site_fract_y
_atom_site_fract_z
Si Si1 0.706992 0.791907 0.415662
Si Si2 0.079088 0.292991 0.002486
Si Si3 0.476869 0.709116 0.159044
Si Si4 0.000000 0.000000 0.500000
Si Si5 0.572897 0.713681 0.705151
Si Si6 0.635451 0.296718 0.162170
Si Si7 0.772391 0.203096 0.296349
Si Si8 0.438821 0.201850 0.564676
O O1 0.750000 0.750000 0.500000
O O2 0.745246 0.717130 0.360064
O O3 0.623801 0.741543 0.402045
O O4 0.705026 0.000000 0.406153
O O5 0.079569 0.500000 0.011103
O O6 0.080072 0.253253 0.921321
O O7 0.134310 0.221388 0.078135
O O8 0.000000 0.222368 0.000000
O O9 0.481851 0.500000 0.162844
O O10 0.450623 0.769153 0.225471
O O11 0.557699 0.775083 0.164636
O O12 0.057121 0.155283 0.494353
O O13 0.569001 0.500000 0.700811
O O14 0.653512 0.773867 0.711659
O O15 0.514694 0.782007 0.630654
O O16 0.638100 0.500000 0.180899
O O17 0.704854 0.212382 0.221015
O O18 0.788915 0.000000 0.315051
O O19 0.426684 0.000000 0.538786
#
# Coordination Sequence:
#
# PCOD9183648 Si02
#       8
#     8   8   8   2   8   8   8   8
#     4  10  24  41  63  93 124 158 205 253 304 365
#     4   9  17  30  52  82 112 148 192 242 299 355
#     4   9  18  33  56  85 117 153 196 243 297 362
#     4  12  26  44  72  90 132 164 202 260 318 366
#     4  10  21  39  62  88 122 164 202 245 308 365
#     4  10  19  33  55  83 115 150 194 247 300 357
#     4  10  22  39  59  84 119 159 199 247 302 360
#     4  11  25  43  67  98 125 164 211 253 306 375
#
# _framework density 21.383925999999999
#
# number of rings (size 3 to 8) (size 9 to 14) (size 15 to 20)
#    0.000    2.069    0.690    1.862    2.897    3.862 
#    0.000    0.690    0.000    0.000    0.000    0.000 
#    0.000    0.000    0.000    0.000    0.000    0.000 
#
# Total GULP energy -161640.360301 kJ/mol
# GULP energy per Si atom -5573.805528 kJ/mol
# Density = 2.133525 g / cm^3
# Si number density = 21.383926 Si / 1000 Ang^3
#
#
#
# Elastic Constant Matrix: (Units=GPa)
#
#
# Indices 1 2 3 4 5 6 
#
# 1 129.7400 14.0897 47.8110 0.0000 2.0090 0.0000
# 2 14.0897 67.7919 -1.6000 0.0000 -16.9654 0.0000
# 3 47.8110 -1.6000 90.5842 0.0000 7.1324 0.0000
# 4 0.0000 0.0000 0.0000 25.0514 0.0000 2.7210
# 5 2.0090 -16.9654 7.1324 0.0000 22.1989 0.0000
# 6 0.0000 0.0000 0.0000 2.7210 0.0000 9.1085
#
#
#
# Elastic Compliance Matrix: (Units=1/GPa)
#
#
# Indices 1 2 3 4 5 6 
#
# 1 0.009902 -0.002458 -0.005182 0.000000 -0.001110 0.000000
# 2 -0.002458 0.018906 0.000488 0.000000 0.014514 0.000000
# 3 -0.005182 0.000488 0.014073 0.000000 -0.003679 0.000000
# 4 0.000000 0.000000 0.000000 0.041257 0.000000 -0.012325
# 5 -0.001110 0.014514 -0.003679 0.000000 0.057422 0.000000
# 6 0.000000 0.000000 0.000000 -0.012325 0.000000 0.113469
#
#
# Mechanical properties :
#
#
# Convention : Reuss Voigt Hill
#
# Bulk Modulus (GPa) = 34.99331 45.41305 40.20318
# Shear Modulus (GPa) = 17.93036 26.45946 22.19491
#
# Velocity S-wave (km/s) = 2.89882 3.52142 3.22518
# Velocity P-wave (km/s) = 5.25396 6.14955 5.71931
#
# Compressibility (1/GPa) = 0.02857689
#
# Stress axis : x y z
#
# Youngs Moduli (GPa) = 100.99453 52.89427 71.05821
#
# Poissons Ratio (x) = 0.13001 0.36823
# Poissons Ratio (y) = 0.24823 -0.03471
# Poissons Ratio (z) = 0.52337 -0.02583
#
# Static dielectric constant tensor:
#      x y z
#    x 1.791580 0.000000 -0.030350 
#    y 0.000000 1.786630 0.000000 
#    z -0.030350 0.000000 1.786230 
# 
# From -- ./inp_files/281586.got.cif
#   From: 2010.05.17/outbox.cif.g08.bks.cpg/sg12_141_cif.got.tgz:281586.got - 2010.06.03 13:09:07.
