data_PCOD9183401
_publ_section_title
;
Structure prediction by ZEFSAII (Michael W. Deem and Ramdas Pophale) SiO2 
 PCOD9183401
Probable space group: C 2/M
;
_chemical_formula_sum "Si O2"
_cell_formula_units_Z 48
_cell_length_a 9.440397
_cell_length_b 17.933777
_cell_length_c 31.115177
_cell_angle_alpha 90.000000
_cell_angle_beta 147.826097
_cell_angle_gamma 90.000000
_cell_volume 2805.087457
_symmetry_space_group_name_H-M "C 2/M"
_symmetry_group_IT_number 12
_symmetry_cell_setting 'monoclinic'
loop_
_space_group_symop_operation_xyz
x,y,z
-x,y,-z
-x,-y,-z
x,-y,z
1/2+x,1/2+y,z
1/2-x,1/2+y,-z
1/2-x,1/2-y,-z
1/2+x,1/2-y,z
loop_
_atom_site_type_symbol
_atom_site_label
_atom_site_fract_x
_atom_site_fract_y
_atom_site_fract_z
Si Si1 0.248684 0.090067 0.592714
Si Si2 0.586444 0.842365 0.279706
Si Si3 0.337802 0.413707 0.719117
Si Si4 0.712632 0.739751 0.940595
Si Si5 0.465706 0.584888 0.852792
Si Si6 0.792382 0.803547 0.237863
O O1 0.234122 0.118822 0.637902
O O2 0.531969 0.113860 0.644588
O O3 0.000000 0.113756 0.500000
O O4 0.255988 0.000000 0.596047
O O5 0.331245 0.896046 0.206164
O O6 0.720831 0.819076 0.269268
O O7 0.463188 0.770500 0.272090
O O8 0.331107 0.500000 0.704197
O O9 0.443872 0.410224 0.795375
O O10 0.531833 0.368442 0.738124
O O11 0.651343 0.652748 0.915020
O O12 0.480386 0.787217 0.858282
O O13 0.750000 0.750000 0.000000
O O14 0.000000 0.764345 0.000000
O O15 0.541874 0.500000 0.883830
#
# Coordination Sequence:
#
# PCOD9183401 Si02
#       6
#     8   8   8   8   8   8
#     4   9  18  35  58  83 110 138 172 217 267 316
#     4  10  19  33  55  77 105 142 179 215 260 315
#     4   9  18  34  56  79 105 139 177 216 260 314
#     4  11  21  34  52  75 103 137 177 224 274 312
#     4   9  18  34  54  75 101 137 179 217 261 321
#     4  11  21  36  54  77 107 141 183 221 258 318
#
# _framework density 17.111767
#
# number of rings (size 3 to 8) (size 9 to 14) (size 15 to 20)
#    0.000    2.167    0.000    7.500    0.000    1.667 
#    0.000    5.000    0.000    5.000    0.000    0.000 
#    0.000    0.000    0.000    0.000    0.000    0.000 
#
# Total GULP energy -133710.939410 kJ/mol
# GULP energy per Si atom -5571.289142 kJ/mol
# Density = 1.707282 g / cm^3
# Si number density = 17.111767 Si / 1000 Ang^3
#
#
#
# Elastic Constant Matrix: (Units=GPa)
#
#
# Indices 1 2 3 4 5 6 
#
# 1 145.5536 28.3027 47.3379 0.0002 0.6502 -0.0001
# 2 28.3027 40.1243 25.4183 0.0001 8.4065 -0.0001
# 3 47.3379 25.4183 101.7718 0.0004 -3.7621 -0.0001
# 4 0.0002 0.0001 0.0004 22.6034 0.0001 -0.3497
# 5 0.6502 8.4065 -3.7621 0.0001 15.6336 -0.0001
# 6 -0.0001 -0.0001 -0.0001 -0.3497 -0.0001 28.8879
#
#
#
# Elastic Compliance Matrix: (Units=1/GPa)
#
#
# Indices 1 2 3 4 5 6 
#
# 1 0.008686 -0.004640 -0.002827 0.000000 0.001453 0.000000
# 2 -0.004640 0.038017 -0.008158 0.000000 -0.022213 0.000000
# 3 -0.002827 -0.008158 0.013465 0.000000 0.007745 0.000000
# 4 0.000000 0.000000 0.000000 0.044250 0.000000 0.000536
# 5 0.001453 -0.022213 0.007745 0.000000 0.077712 0.000000
# 6 0.000000 0.000000 0.000000 0.000536 0.000000 0.034623
#
#
# Mechanical properties :
#
#
# Convention : Reuss Voigt Hill
#
# Bulk Modulus (GPa) = 34.58178 54.39639 44.48909
# Shear Modulus (GPa) = 19.40674 25.85103 22.62888
#
# Velocity S-wave (km/s) = 3.37132 3.89101 3.64045
# Velocity P-wave (km/s) = 5.95043 7.21419 6.61257
#
# Compressibility (1/GPa) = 0.02891696
#
# Stress axis : x y z
#
# Youngs Moduli (GPa) = 115.13296 26.30382 74.26744
#
# Poissons Ratio (x) = 0.12205 0.20998
# Poissons Ratio (y) = 0.53421 0.60588
# Poissons Ratio (z) = 0.32553 0.21459
#
# Static dielectric constant tensor:
#      x y z
#    x 1.336500 0.000000 -0.197900 
#    y 0.000000 1.608140 0.000000 
#    z -0.197900 0.000000 1.356610 
# 
# From -- ./inp_files/195924.got.cif
#   From: 2010.05.17/outbox.cif.g08.bks.cpg/sg12_98_cif.got.tgz:195924.got - 2010.06.03 13:09:07.
