data_PCOD9183741
_publ_section_title
;
Structure prediction by ZEFSAII (Michael W. Deem and Ramdas Pophale) SiO2 
 PCOD9183741
Probable space group: C 2/M
;
_chemical_formula_sum "Si O2"
_cell_formula_units_Z 64
_cell_length_a 17.911773
_cell_length_b 13.993864
_cell_length_c 14.856418
_cell_angle_alpha 90.000000
_cell_angle_beta 52.816848
_cell_angle_gamma 90.000000
_cell_volume 2966.807258
_symmetry_space_group_name_H-M "C 2/M"
_symmetry_group_IT_number 12
_symmetry_cell_setting 'monoclinic'
loop_
_space_group_symop_operation_xyz
x,y,z
-x,y,-z
-x,-y,-z
x,-y,z
1/2+x,1/2+y,z
1/2-x,1/2+y,-z
1/2-x,1/2-y,-z
1/2+x,1/2-y,z
loop_
_atom_site_type_symbol
_atom_site_label
_atom_site_fract_x
_atom_site_fract_y
_atom_site_fract_z
Si Si1 0.910368 0.896303 0.777445
Si Si2 0.892174 0.108282 0.583995
Si Si3 0.330507 0.889061 0.634268
Si Si4 0.609566 0.886767 0.901629
Si Si5 0.415362 0.188850 0.754436
Si Si6 0.786026 0.276743 0.333661
Si Si7 0.216167 0.390365 0.009270
Si Si8 0.895464 0.394623 0.388519
O O1 0.867064 0.897864 0.708141
O O2 0.959256 0.793813 0.739747
O O3 0.958762 0.000000 0.752980
O O4 0.826666 0.889605 0.909979
O O5 0.816221 0.173674 0.593115
O O6 0.000000 0.141305 0.500000
O O7 0.890228 0.000000 0.548708
O O8 0.380133 0.832681 0.679407
O O9 0.236100 0.832899 0.673970
O O10 0.392344 0.888594 0.498662
O O11 0.315662 0.000000 0.670986
O O12 0.651871 0.824734 0.790332
O O13 0.621372 0.000000 0.872138
O O14 0.500000 0.869150 0.000000
O O15 0.665290 0.866260 0.952812
O O16 0.325008 0.174976 0.882865
O O17 0.497387 0.116100 0.719481
O O18 0.835631 0.310314 0.388410
O O19 0.191231 0.500000 0.050204
O O20 0.858828 0.500000 0.389006
#
# Coordination Sequence:
#
# PCOD9183741 Si02
#       8
#     8   8   8   8   8   8   8   8
#     4  10  21  37  57  88 126 159 204 261 310 361
#     4  10  20  35  60  93 124 159 202 249 308 372
#     4  11  25  43  61  87 123 168 214 255 305 369
#     4  10  19  33  59  94 129 160 196 250 316 376
#     4  12  22  39  65  90 124 168 212 253 312 375
#     4  12  22  41  66  92 124 166 206 256 320 370
#     4  10  19  33  55  88 123 159 206 258 310 367
#     4  11  25  42  64  94 125 160 208 263 314 369
#
# _framework density 21.572011
#
# number of rings (size 3 to 8) (size 9 to 14) (size 15 to 20)
#    0.000    1.250    2.500    4.125    1.750    2.000 
#    0.000    0.625    0.000    0.375    0.000    0.000 
#    0.000    0.000    0.000    0.000    0.000    0.000 
#
# Total GULP energy -178762.324419 kJ/mol
# GULP energy per Si atom -5586.322638 kJ/mol
# Density = 2.152291 g / cm^3
# Si number density = 21.572011 Si / 1000 Ang^3
#
#
#
# Elastic Constant Matrix: (Units=GPa)
#
#
# Indices 1 2 3 4 5 6 
#
# 1 42.8642 12.8542 21.6812 0.0000 -5.8505 0.0000
# 2 12.8542 119.9164 40.2102 0.0000 0.6454 0.0000
# 3 21.6812 40.2102 75.3197 0.0000 -8.0876 0.0000
# 4 0.0000 0.0000 0.0000 20.4330 0.0000 -1.8679
# 5 -5.8505 0.6454 -8.0876 0.0000 20.0952 0.0000
# 6 0.0000 0.0000 0.0000 -1.8679 0.0000 22.8651
#
#
#
# Elastic Compliance Matrix: (Units=1/GPa)
#
#
# Indices 1 2 3 4 5 6 
#
# 1 0.027833 -0.000627 -0.007112 0.000000 0.005261 0.000000
# 2 -0.000627 0.010306 -0.005619 0.000000 -0.002775 0.000000
# 3 -0.007112 -0.005619 0.018939 0.000000 0.005732 0.000000
# 4 0.000000 0.000000 0.000000 0.049309 0.000000 0.004028
# 5 0.005261 -0.002775 0.005732 0.000000 0.053691 0.000000
# 6 0.000000 0.000000 0.000000 0.004028 0.000000 0.044064
#
#
# Mechanical properties :
#
#
# Convention : Reuss Voigt Hill
#
# Bulk Modulus (GPa) = 32.93687 43.06572 38.00130
# Shear Modulus (GPa) = 20.74872 23.56898 22.15885
#
# Velocity S-wave (km/s) = 3.10471 3.30899 3.20848
# Velocity P-wave (km/s) = 5.30602 5.88271 5.60179
#
# Compressibility (1/GPa) = 0.03036111
#
# Stress axis : x y z
#
# Youngs Moduli (GPa) = 35.92850 97.03553 52.79989
#
# Poissons Ratio (x) = 0.06083 0.37553
# Poissons Ratio (y) = 0.02252 0.29669
# Poissons Ratio (z) = 0.25553 0.54526
#
# Static dielectric constant tensor:
#      x y z
#    x 1.738020 0.000000 0.003830 
#    y 0.000000 1.851430 0.000000 
#    z 0.003830 0.000000 1.793410 
# 
# From -- ./inp_files/225664.got.cif
#   From: 2010.05.17/outbox.cif.g08.bks.cpg/sg12_113_cif.got.tgz:225664.got - 2010.06.03 13:09:07.
