data_PCOD9183309
_publ_section_title
;
Structure prediction by ZEFSAII (Michael W. Deem and Ramdas Pophale) SiO2 
 PCOD9183309
Probable space group: C 2/M
;
_chemical_formula_sum "Si O2"
_cell_formula_units_Z 64
_cell_length_a 14.854826
_cell_length_b 8.158106
_cell_length_c 22.568228
_cell_angle_alpha 90.000000
_cell_angle_beta 93.273213
_cell_angle_gamma 90.000000
_cell_volume 2730.519584
_symmetry_space_group_name_H-M "C 2/M"
_symmetry_group_IT_number 12
_symmetry_cell_setting 'monoclinic'
loop_
_space_group_symop_operation_xyz
x,y,z
-x,y,-z
-x,-y,-z
x,-y,z
1/2+x,1/2+y,z
1/2-x,1/2+y,-z
1/2-x,1/2-y,-z
1/2+x,1/2-y,z
loop_
_atom_site_type_symbol
_atom_site_label
_atom_site_fract_x
_atom_site_fract_y
_atom_site_fract_z
Si Si1 0.002705 0.806236 0.393447
Si Si2 0.053567 0.188875 0.268224
Si Si3 0.324548 0.185968 0.548351
Si Si4 0.231008 0.197873 0.893219
Si Si5 0.410421 0.303688 0.853664
Si Si6 0.340239 0.310589 0.237869
Si Si7 0.305076 0.186387 0.365008
Si Si8 0.440552 0.700459 0.052645
O O1 0.046668 0.738996 0.333546
O O2 0.080505 0.780228 0.444515
O O3 0.904685 0.724972 0.394909
O O4 0.985368 0.000000 0.385251
O O5 0.104196 0.264315 0.213433
O O6 0.949050 0.187199 0.243678
O O7 0.085272 0.000000 0.277164
O O8 0.250000 0.250000 0.500000
O O9 0.269978 0.202121 0.607814
O O10 0.346675 0.000000 0.535526
O O11 0.331902 0.262006 0.896568
O O12 0.193446 0.249380 0.826951
O O13 0.161864 0.255422 0.941082
O O14 0.232166 0.000000 0.894229
O O15 0.414126 0.500000 0.847448
O O16 0.503620 0.251597 0.886760
O O17 0.311663 0.500000 0.243927
O O18 0.309276 0.213368 0.294682
O O19 0.280629 0.000000 0.377836
O O20 0.439341 0.500000 0.049759
O O21 0.500000 0.759186 0.000000
#
# Coordination Sequence:
#
# PCOD9183309 Si02
#       8
#     8   8   8   8   8   8   8   8
#     4  10  21  40  64  92 124 161 201 250 305 360
#     4   8  15  31  56  81 111 149 189 232 286 351
#     4  12  26  45  66  92 124 162 207 252 298 358
#     4  10  20  34  54  82 113 147 192 243 296 350
#     4  10  19  33  54  82 112 148 191 238 292 353
#     4   9  17  34  57  81 113 154 194 241 296 356
#     4  11  23  40  62  92 125 162 203 249 301 360
#     4   9  18  35  58  79 107 153 202 240 283 351
#
# _framework density 23.438763000000002
#
# number of rings (size 3 to 8) (size 9 to 14) (size 15 to 20)
#    0.000    2.125    1.250    3.375    1.750    1.500 
#    0.000    5.625    0.000    0.750    0.000    0.000 
#    0.000    0.000    0.000    0.000    0.000    0.000 
#
# Total GULP energy -178747.640244 kJ/mol
# GULP energy per Si atom -5585.863758 kJ/mol
# Density = 2.338541 g / cm^3
# Si number density = 23.438763 Si / 1000 Ang^3
#
#
#
# Elastic Constant Matrix: (Units=GPa)
#
#
# Indices 1 2 3 4 5 6 
#
# 1 82.1196 -6.3485 0.8426 0.0000 -8.6701 0.0000
# 2 -6.3485 27.9316 0.6018 0.0000 0.3968 0.0000
# 3 0.8426 0.6018 26.6412 0.0000 -3.0980 0.0000
# 4 0.0000 0.0000 0.0000 11.5211 0.0000 -5.5206
# 5 -8.6701 0.3968 -3.0980 0.0000 27.6025 0.0000
# 6 0.0000 0.0000 0.0000 -5.5206 0.0000 22.7704
#
#
#
# Elastic Compliance Matrix: (Units=1/GPa)
#
#
# Indices 1 2 3 4 5 6 
#
# 1 0.012819 0.002857 -0.000007 0.000000 0.003985 0.000000
# 2 0.002857 0.036466 -0.000882 0.000000 0.000274 0.000000
# 3 -0.000007 -0.000882 0.038054 0.000000 0.004282 0.000000
# 4 0.000000 0.000000 0.000000 0.098206 0.000000 0.023809
# 5 0.003985 0.000274 0.004282 0.000000 0.037957 0.000000
# 6 0.000000 0.000000 0.000000 0.023809 0.000000 0.049689
#
#
# Mechanical properties :
#
#
# Convention : Reuss Voigt Hill
#
# Bulk Modulus (GPa) = 10.95583 14.09826 12.52704
# Shear Modulus (GPa) = 16.68449 21.81856 19.25153
#
# Velocity S-wave (km/s) = 2.67091 3.05433 2.86904
# Velocity P-wave (km/s) = 3.76777 4.29728 4.04121
#
# Compressibility (1/GPa) = 0.09127561
#
# Stress axis : x y z
#
# Youngs Moduli (GPa) = 78.00920 27.42263 26.27853
#
# Poissons Ratio (x) = -0.07835 0.00017
# Poissons Ratio (y) = -0.22288 0.02318
# Poissons Ratio (z) = 0.00052 0.02419
#
# Static dielectric constant tensor:
#      x y z
#    x 1.900190 0.000000 -0.007560 
#    y 0.000000 1.825540 0.000000 
#    z -0.007560 0.000000 1.965980 
# 
# From -- ./inp_files/338897.got.cif
#   From: 2010.05.17/outbox.cif.g08.bks.cpg/sg12_170_cif.got.tgz:338897.got - 2010.06.03 13:09:07.
