data_PCOD9183234
_publ_section_title
;
Structure prediction by ZEFSAII (Michael W. Deem and Ramdas Pophale) SiO2 
 PCOD9183234
Probable space group: C 2/M
;
_chemical_formula_sum "Si O2"
_cell_formula_units_Z 56
_cell_length_a 24.119474
_cell_length_b 12.930495
_cell_length_c 25.063122
_cell_angle_alpha 90.000000
_cell_angle_beta 157.676417
_cell_angle_gamma 90.000000
_cell_volume 2969.035259
_symmetry_space_group_name_H-M "C 2/M"
_symmetry_group_IT_number 12
_symmetry_cell_setting 'monoclinic'
loop_
_space_group_symop_operation_xyz
x,y,z
-x,y,-z
-x,-y,-z
x,-y,z
1/2+x,1/2+y,z
1/2-x,1/2+y,-z
1/2-x,1/2-y,-z
1/2+x,1/2-y,z
loop_
_atom_site_type_symbol
_atom_site_label
_atom_site_fract_x
_atom_site_fract_y
_atom_site_fract_z
Si Si1 0.137427 0.750900 0.334164
Si Si2 0.220894 0.683428 0.889045
Si Si3 0.067782 0.384697 0.174132
Si Si4 0.873384 0.742202 0.926059
Si Si5 0.389177 0.879707 0.585941
Si Si6 0.133632 0.882248 0.872340
Si Si7 0.162345 0.880703 0.663415
O O1 0.067154 0.698893 0.220200
O O2 0.290435 0.807301 0.460467
O O3 0.152903 0.661462 0.392335
O O4 0.026747 0.835989 0.259211
O O5 0.320794 0.681515 0.925804
O O6 0.204790 0.803114 0.893768
O O7 0.060659 0.641317 0.733133
O O8 0.281999 0.627070 0.996039
O O9 0.039097 0.500000 0.169095
O O10 0.226310 0.381611 0.287417
O O11 0.953680 0.353297 0.027092
O O12 0.736385 0.696975 0.771442
O O13 0.000000 0.785550 0.000000
O O14 0.357121 0.000000 0.550758
O O15 0.131373 0.000000 0.852294
O O16 0.000000 0.852527 0.500000
O O17 0.157630 0.000000 0.679628
#
# Coordination Sequence:
#
# PCOD9183234 Si02
#       7
#     8   8   8   8   8   8   8
#     4  10  20  35  55  83 111 146 193 219 278 341
#     4  10  21  36  55  88 110 146 193 224 282 336
#     4  10  19  33  54  80 112 147 182 227 278 336
#     4  10  20  36  56  81 113 148 184 231 280 333
#     4  10  21  36  55  79 115 150 183 233 279 329
#     4  10  20  36  56  81 116 147 183 232 275 328
#     4   9  19  33  51  79 108 142 182 225 285 339
#
# _framework density 18.861346000000001
#
# number of rings (size 3 to 8) (size 9 to 14) (size 15 to 20)
#    0.000    2.143    1.429    1.714    2.000    2.857 
#    0.000    0.714    0.000    1.714    0.000    4.000 
#    0.000    0.000    0.000    0.000    0.000    0.000 
#
# Total GULP energy -156250.644406 kJ/mol
# GULP energy per Si atom -5580.380157 kJ/mol
# Density = 1.881842 g / cm^3
# Si number density = 18.861346 Si / 1000 Ang^3
#
#
#
# Elastic Constant Matrix: (Units=GPa)
#
#
# Indices 1 2 3 4 5 6 
#
# 1 57.2715 12.1005 11.8738 0.0008 2.2797 0.0002
# 2 12.1005 73.9630 2.7339 0.0004 -2.5774 -0.0003
# 3 11.8738 2.7339 96.2130 0.0021 9.4378 0.0007
# 4 0.0008 0.0004 0.0021 14.0653 0.0008 1.5281
# 5 2.2797 -2.5774 9.4378 0.0008 22.8461 0.0001
# 6 0.0002 -0.0003 0.0007 1.5281 0.0001 12.0177
#
#
#
# Elastic Compliance Matrix: (Units=1/GPa)
#
#
# Indices 1 2 3 4 5 6 
#
# 1 0.018580 -0.003010 -0.002076 0.000000 -0.001336 0.000000
# 2 -0.003010 0.014090 -0.000223 0.000000 0.001982 0.000000
# 3 -0.002076 -0.000223 0.011088 -0.000001 -0.004398 0.000000
# 4 0.000000 0.000000 -0.000001 0.072093 -0.000002 -0.009167
# 5 -0.001336 0.001982 -0.004398 -0.000002 0.045945 0.000000
# 6 0.000000 0.000000 0.000000 -0.009167 0.000000 0.084376
#
#
# Mechanical properties :
#
#
# Convention : Reuss Voigt Hill
#
# Bulk Modulus (GPa) = 30.17588 31.20709 30.69149
# Shear Modulus (GPa) = 18.66808 23.16845 20.91826
#
# Velocity S-wave (km/s) = 3.14945 3.50859 3.33386
# Velocity P-wave (km/s) = 5.40915 5.74413 5.57916
#
# Compressibility (1/GPa) = 0.03313905
#
# Stress axis : x y z
#
# Youngs Moduli (GPa) = 53.82060 70.97246 90.19039
#
# Poissons Ratio (x) = 0.21360 0.18728
# Poissons Ratio (y) = 0.16198 0.02015
# Poissons Ratio (z) = 0.11176 0.01585
#
# Static dielectric constant tensor:
#      x y z
#    x 1.663710 0.000000 0.011350 
#    y 0.000000 1.635490 0.000000 
#    z 0.011350 0.000000 1.684960 
# 
# From -- ./inp_files/369405.got.cif
#   From: 2010.05.17/outbox.cif.g08.bks.cpg/sg12_185_cif.got.tgz:369405.got - 2010.06.03 13:09:07.
