data_PCOD9183764
_publ_section_title
;
Structure prediction by ZEFSAII (Michael W. Deem and Ramdas Pophale) SiO2 
 PCOD9183764
Probable space group: C 2/M
;
_chemical_formula_sum "Si O2"
_cell_formula_units_Z 64
_cell_length_a 26.834443
_cell_length_b 17.523308
_cell_length_c 9.371784
_cell_angle_alpha 90.000000
_cell_angle_beta 45.053911
_cell_angle_gamma 90.000000
_cell_volume 3119.063426
_symmetry_space_group_name_H-M "C 2/M"
_symmetry_group_IT_number 12
_symmetry_cell_setting 'monoclinic'
loop_
_space_group_symop_operation_xyz
x,y,z
-x,y,-z
-x,-y,-z
x,-y,z
1/2+x,1/2+y,z
1/2-x,1/2+y,-z
1/2-x,1/2-y,-z
1/2+x,1/2-y,z
loop_
_atom_site_type_symbol
_atom_site_label
_atom_site_fract_x
_atom_site_fract_y
_atom_site_fract_z
Si Si1 0.577305 0.174633 0.660233
Si Si2 0.782236 0.908401 0.866118
Si Si3 0.995159 0.112385 0.852035
Si Si4 0.565881 0.782100 0.013280
Si Si5 0.641615 0.339267 0.526355
Si Si6 0.801413 0.200249 0.295396
Si Si7 0.206276 0.410301 0.295874
Si Si8 0.428801 0.413111 0.701726
O O1 0.494817 0.170080 0.783357
O O2 0.617122 0.253587 0.536209
O O3 0.627204 0.108252 0.503830
O O4 0.576664 0.180848 0.834945
O O5 0.791027 0.866054 0.698335
O O6 0.853704 0.883051 0.805514
O O7 0.782376 0.000000 0.843005
O O8 0.719916 0.891114 0.101918
O O9 0.975557 0.201437 0.909256
O O10 0.939428 0.084007 0.850196
O O11 0.074209 0.107802 0.629665
O O12 0.000000 0.079975 0.000000
O O13 0.644011 0.755194 0.899547
O O14 0.653791 0.342607 0.671674
O O15 0.750000 0.250000 0.500000
O O16 0.757472 0.142875 0.287402
O O17 0.223513 0.500000 0.279614
O O18 0.500000 0.373086 0.500000
O O19 0.429652 0.500000 0.646581
#
# Coordination Sequence:
#
# PCOD9183764 Si02
#       8
#     8   8   8   8   8   8   8   8
#     4   9  17  35  56  83 111 148 193 241 288 344
#     4  10  22  37  51  76 119 160 194 241 296 354
#     4  11  17  30  53  78 104 142 194 240 284 338
#     4   9  16  32  57  80 110 145 182 240 295 334
#     4  10  19  33  56  79 107 151 195 238 287 345
#     4  11  19  36  60  88 117 151 190 247 303 354
#     4  11  23  38  58  87 121 155 193 242 305 360
#     4  10  20  33  47  70 113 159 192 232 286 344
#
# _framework density 20.518979999999999
#
# number of rings (size 3 to 8) (size 9 to 14) (size 15 to 20)
#    0.000    1.875    7.500    0.750    0.000    1.250 
#    0.000    1.250    0.000    0.000    0.000    0.000 
#    0.000    2.000    0.000    0.000    0.000    0.000 
#
# Total GULP energy -178151.176899 kJ/mol
# GULP energy per Si atom -5567.224278 kJ/mol
# Density = 2.047228 g / cm^3
# Si number density = 20.518980 Si / 1000 Ang^3
#
#
#
# Elastic Constant Matrix: (Units=GPa)
#
#
# Indices 1 2 3 4 5 6 
#
# 1 41.9529 -2.6985 12.9130 0.0000 -8.3686 0.0000
# 2 -2.6985 26.7670 25.5207 0.0000 -2.9179 0.0000
# 3 12.9130 25.5207 119.4866 0.0000 -13.6789 0.0000
# 4 0.0000 0.0000 0.0000 26.3737 0.0000 0.7014
# 5 -8.3686 -2.9179 -13.6789 0.0000 35.0438 0.0000
# 6 0.0000 0.0000 0.0000 0.7014 0.0000 14.3474
#
#
#
# Elastic Compliance Matrix: (Units=1/GPa)
#
#
# Indices 1 2 3 4 5 6 
#
# 1 0.026495 0.006781 -0.003688 0.000000 0.005452 0.000000
# 2 0.006781 0.048649 -0.010964 0.000000 0.001390 0.000000
# 3 -0.003688 -0.010964 0.011414 0.000000 0.002662 0.000000
# 4 0.000000 0.000000 0.000000 0.037966 0.000000 -0.001856
# 5 0.005452 0.001390 0.002662 0.000000 0.030993 0.000000
# 6 0.000000 0.000000 0.000000 -0.001856 0.000000 0.069790
#
#
# Mechanical properties :
#
#
# Convention : Reuss Voigt Hill
#
# Bulk Modulus (GPa) = 14.12098 28.85299 21.48698
# Shear Modulus (GPa) = 18.89266 25.31773 22.10519
#
# Velocity S-wave (km/s) = 3.03766 3.51646 3.28579
# Velocity P-wave (km/s) = 4.38179 5.52987 4.98896
#
# Compressibility (1/GPa) = 0.07081664
#
# Stress axis : x y z
#
# Youngs Moduli (GPa) = 37.74291 20.55558 87.60993
#
# Poissons Ratio (x) = -0.13939 0.32306
# Poissons Ratio (y) = -0.25595 0.96059
# Poissons Ratio (z) = 0.13918 0.22538
#
# Static dielectric constant tensor:
#      x y z
#    x 1.814280 0.000000 -0.040760 
#    y 0.000000 1.758710 0.000000 
#    z -0.040760 0.000000 1.822450 
# 
# From -- ./inp_files/112806.got.cif
#   From: 2010.05.17/outbox.cif.g08.bks.cpg/sg12_57_cif.got.tgz:112806.got - 2010.06.03 13:09:07.
