data_PCOD9183796
_publ_section_title
;
Structure prediction by ZEFSAII (Michael W. Deem and Ramdas Pophale) SiO2 
 PCOD9183796
Probable space group: C 2/M
;
_chemical_formula_sum "Si O2"
_cell_formula_units_Z 64
_cell_length_a 14.767885
_cell_length_b 8.992559
_cell_length_c 30.691815
_cell_angle_alpha 90.000000
_cell_angle_beta 58.709892
_cell_angle_gamma 90.000000
_cell_volume 3483.059483
_symmetry_space_group_name_H-M "C 2/M"
_symmetry_group_IT_number 12
_symmetry_cell_setting 'monoclinic'
loop_
_space_group_symop_operation_xyz
x,y,z
-x,y,-z
-x,-y,-z
x,-y,z
1/2+x,1/2+y,z
1/2-x,1/2+y,-z
1/2-x,1/2-y,-z
1/2+x,1/2-y,z
loop_
_atom_site_type_symbol
_atom_site_label
_atom_site_fract_x
_atom_site_fract_y
_atom_site_fract_z
Si Si1 0.711087 0.822178 0.623522
Si Si2 0.882364 0.826740 0.509564
Si Si3 0.573517 0.678470 0.941705
Si Si4 0.546396 0.176570 0.593737
Si Si5 0.761927 0.321943 0.217820
Si Si6 0.313897 0.821739 0.675783
Si Si7 0.485264 0.321010 0.142118
Si Si8 0.704325 0.321237 0.133850
O O1 0.799917 0.771315 0.566239
O O2 0.601499 0.795555 0.626183
O O3 0.725220 0.736862 0.664837
O O4 0.724379 0.000000 0.627200
O O5 0.000000 0.814714 0.500000
O O6 0.887585 0.746833 0.462013
O O7 0.857238 0.000000 0.508555
O O8 0.585580 0.500000 0.941386
O O9 0.518931 0.711423 0.908654
O O10 0.689865 0.750386 0.912908
O O11 0.500000 0.728088 0.000000
O O12 0.425629 0.228952 0.626815
O O13 0.546223 0.000000 0.586534
O O14 0.763046 0.500000 0.221897
O O15 0.701890 0.248013 0.273035
O O16 0.709638 0.283863 0.184052
O O17 0.881874 0.259399 0.187136
O O18 0.313578 0.000000 0.678594
O O19 0.473590 0.500000 0.150383
O O20 0.595133 0.275746 0.137650
O O21 0.711989 0.500000 0.128332
#
# Coordination Sequence:
#
# PCOD9183796 Si02
#       8
#     8   8   8   8   8   8   8   8
#     4  10  21  38  56  78 108 139 173 213 259 313
#     4  10  19  33  56  81 106 139 174 211 258 311
#     4   9  18  32  51  79 115 151 184 221 266 312
#     4  10  22  37  55  79 107 138 173 214 259 312
#     4  10  21  37  56  77 102 134 174 221 269 317
#     4  11  23  38  55  78 105 135 172 215 266 317
#     4   9  18  35  56  78 108 143 181 223 264 314
#     4   9  19  35  55  79 106 141 183 223 267 314
#
# _framework density 18.374651
#
# number of rings (size 3 to 8) (size 9 to 14) (size 15 to 20)
#    0.000    2.250    1.250    1.125    0.000    4.500 
#    0.000    2.500    0.000    0.000    0.000    0.000 
#    0.000    0.000    0.000    0.000    0.000    0.000 
#
# Total GULP energy -178560.390424 kJ/mol
# GULP energy per Si atom -5580.012201 kJ/mol
# Density = 1.833283 g / cm^3
# Si number density = 18.374651 Si / 1000 Ang^3
#
#
#
# Elastic Constant Matrix: (Units=GPa)
#
#
# Indices 1 2 3 4 5 6 
#
# 1 96.8385 26.3293 26.8881 0.0000 3.1241 0.0000
# 2 26.3293 21.7896 20.9946 0.0000 5.4654 0.0000
# 3 26.8881 20.9946 72.2575 0.0000 8.4934 0.0000
# 4 0.0000 0.0000 0.0000 29.9685 0.0000 -1.6214
# 5 3.1241 5.4654 8.4934 0.0000 11.0339 0.0000
# 6 0.0000 0.0000 0.0000 -1.6214 0.0000 22.8596
#
#
#
# Elastic Compliance Matrix: (Units=1/GPa)
#
#
# Indices 1 2 3 4 5 6 
#
# 1 0.015716 -0.019682 -0.000827 0.000000 0.005936 0.000000
# 2 -0.019682 0.092244 -0.016230 0.000000 -0.027625 0.000000
# 3 -0.000827 -0.016230 0.019670 0.000000 -0.006868 0.000000
# 4 0.000000 0.000000 0.000000 0.033497 0.000000 0.002376
# 5 0.005936 -0.027625 -0.006868 0.000000 0.107919 0.000000
# 6 0.000000 0.000000 0.000000 0.002376 0.000000 0.043914
#
#
# Mechanical properties :
#
#
# Convention : Reuss Voigt Hill
#
# Bulk Modulus (GPa) = 18.46713 37.70106 28.08409
# Shear Modulus (GPa) = 12.36125 20.55064 16.45594
#
# Velocity S-wave (km/s) = 2.59652 3.34791 2.99587
# Velocity P-wave (km/s) = 4.36594 5.95879 5.22344
#
# Compressibility (1/GPa) = 0.05415026
#
# Stress axis : x y z
#
# Youngs Moduli (GPa) = 63.62922 10.84083 50.83817
#
# Poissons Ratio (x) = 0.21337 0.04205
# Poissons Ratio (y) = 1.25237 0.82512
# Poissons Ratio (z) = 0.05263 0.17595
#
# Static dielectric constant tensor:
#      x y z
#    x 1.636770 0.000000 0.004900 
#    y 0.000000 1.617410 0.000000 
#    z 0.004900 0.000000 1.618450 
# 
# From -- ./inp_files/375049.got.cif
#   From: 2010.05.17/outbox.cif.g08.bks.cpg/sg12_188_cif.got.tgz:375049.got - 2010.06.03 13:09:07.
