data_PCOD9183117
_publ_section_title
;
Structure prediction by ZEFSAII (Michael W. Deem and Ramdas Pophale) SiO2 
 PCOD9183117
Probable space group: C 2/M
;
_chemical_formula_sum "Si O2"
_cell_formula_units_Z 56
_cell_length_a 19.435755
_cell_length_b 8.869548
_cell_length_c 19.614403
_cell_angle_alpha 90.000000
_cell_angle_beta 110.908988
_cell_angle_gamma 90.000000
_cell_volume 3158.594827
_symmetry_space_group_name_H-M "C 2/M"
_symmetry_group_IT_number 12
_symmetry_cell_setting 'monoclinic'
loop_
_space_group_symop_operation_xyz
x,y,z
-x,y,-z
-x,-y,-z
x,-y,z
1/2+x,1/2+y,z
1/2-x,1/2+y,-z
1/2-x,1/2-y,-z
1/2+x,1/2-y,z
loop_
_atom_site_type_symbol
_atom_site_label
_atom_site_fract_x
_atom_site_fract_y
_atom_site_fract_z
Si Si1 0.452642 0.177886 0.416680
Si Si2 0.463558 0.178323 0.141742
Si Si3 0.069047 0.827616 0.077006
Si Si4 0.829503 0.817973 0.008753
Si Si5 0.169706 0.176558 0.399186
Si Si6 0.679012 0.324771 0.563142
Si Si7 0.493434 0.322100 0.703291
O O1 0.500000 0.223597 0.500000
O O2 0.369698 0.218300 0.407300
O O3 0.475473 0.267725 0.357944
O O4 0.463464 0.000000 0.409565
O O5 0.537551 0.228450 0.127185
O O6 0.392893 0.258174 0.082159
O O7 0.472275 0.231610 0.222183
O O8 0.454307 0.000000 0.133039
O O9 0.081140 0.000000 0.104721
O O10 0.138922 0.777981 0.056019
O O11 0.000000 0.830662 0.000000
O O12 0.826882 0.000000 0.010793
O O13 0.750000 0.750000 0.000000
O O14 0.235719 0.282854 0.399866
O O15 0.158569 0.202241 0.476353
O O16 0.094353 0.202874 0.332958
O O17 0.190828 0.000000 0.399691
O O18 0.664899 0.500000 0.573206
O O19 0.506338 0.500000 0.717126
#
# Coordination Sequence:
#
# PCOD9183117 Si02
#       7
#     8   8   8   8   8   8   8
#     4  11  22  35  54  80 110 144 186 236 286 340
#     4  11  22  36  56  84 116 149 188 231 279 335
#     4   8  16  33  56  81 110 145 183 221 265 319
#     4  10  20  36  60  89 119 151 189 231 275 327
#     4   9  19  34  53  77 103 136 177 226 279 330
#     4  10  19  33  54  78 104 135 178 228 277 333
#     4  11  22  38  58  79 110 148 188 233 284 338
#
# _framework density 17.729402
#
# number of rings (size 3 to 8) (size 9 to 14) (size 15 to 20)
#    0.000    2.000    1.429    3.857    0.000    5.429 
#    0.000    1.429    0.000    5.143    0.000    0.000 
#    0.000    0.000    0.000    0.000    0.000    0.000 
#
# Total GULP energy -156215.444853 kJ/mol
# GULP energy per Si atom -5579.123030 kJ/mol
# Density = 1.768905 g / cm^3
# Si number density = 17.729402 Si / 1000 Ang^3
#
#
#
# Elastic Constant Matrix: (Units=GPa)
#
#
# Indices 1 2 3 4 5 6 
#
# 1 101.1628 34.3458 29.6813 0.0000 -7.8373 0.0000
# 2 34.3458 52.1262 30.1866 0.0000 -2.7880 0.0000
# 3 29.6813 30.1866 64.4415 0.0000 -7.1685 0.0000
# 4 0.0000 0.0000 0.0000 26.1062 0.0000 -1.4335
# 5 -7.8373 -2.7880 -7.1685 0.0000 16.3914 0.0000
# 6 0.0000 0.0000 0.0000 -1.4335 0.0000 29.1215
#
#
#
# Elastic Compliance Matrix: (Units=1/GPa)
#
#
# Indices 1 2 3 4 5 6 
#
# 1 0.013336 -0.007239 -0.002291 0.000000 0.004143 0.000000
# 2 -0.007239 0.030269 -0.011202 0.000000 -0.003212 0.000000
# 3 -0.002291 -0.011202 0.022586 0.000000 0.006877 0.000000
# 4 0.000000 0.000000 0.000000 0.038409 0.000000 0.001891
# 5 0.004143 -0.003212 0.006877 0.000000 0.065450 0.000000
# 6 0.000000 0.000000 0.000000 0.001891 0.000000 0.034432
#
#
# Mechanical properties :
#
#
# Convention : Reuss Voigt Hill
#
# Bulk Modulus (GPa) = 40.44124 45.12866 42.78495
# Shear Modulus (GPa) = 19.67055 22.55828 21.11441
#
# Velocity S-wave (km/s) = 3.33451 3.57089 3.45472
# Velocity P-wave (km/s) = 6.13882 6.52005 6.33230
#
# Compressibility (1/GPa) = 0.02472724
#
# Stress axis : x y z
#
# Youngs Moduli (GPa) = 74.98645 33.03664 44.27617
#
# Poissons Ratio (x) = 0.23915 0.10142
# Poissons Ratio (y) = 0.54281 0.49600
# Poissons Ratio (z) = 0.17176 0.37009
#
# Static dielectric constant tensor:
#      x y z
#    x 1.610860 0.000000 -0.010260 
#    y 0.000000 1.590260 0.000000 
#    z -0.010260 0.000000 1.590360 
# 
# From -- ./inp_files/275619.got.cif
#   From: 2010.05.17/outbox.cif.g08.bks.cpg/sg12_138_cif.got.tgz:275619.got - 2010.06.03 13:09:07.
