data_PCOD9183133
_publ_section_title
;
Structure prediction by ZEFSAII (Michael W. Deem and Ramdas Pophale) SiO2 
 PCOD9183133
Probable space group: C 2/M
;
_chemical_formula_sum "Si O2"
_cell_formula_units_Z 56
_cell_length_a 20.450784
_cell_length_b 7.858644
_cell_length_c 25.107872
_cell_angle_alpha 90.000000
_cell_angle_beta 135.654780
_cell_angle_gamma 90.000000
_cell_volume 2820.539478
_symmetry_space_group_name_H-M "C 2/M"
_symmetry_group_IT_number 12
_symmetry_cell_setting 'monoclinic'
loop_
_space_group_symop_operation_xyz
x,y,z
-x,y,-z
-x,-y,-z
x,-y,z
1/2+x,1/2+y,z
1/2-x,1/2+y,-z
1/2-x,1/2-y,-z
1/2+x,1/2-y,z
loop_
_atom_site_type_symbol
_atom_site_label
_atom_site_fract_x
_atom_site_fract_y
_atom_site_fract_z
Si Si1 0.582206 0.205599 0.797200
Si Si2 0.429293 0.798461 0.792914
Si Si3 0.479660 0.294194 0.047656
Si Si4 0.428117 0.296938 0.624087
Si Si5 0.222501 0.198822 0.377634
Si Si6 0.226742 0.795092 0.046761
Si Si7 0.568297 0.300544 0.493688
O O1 0.521433 0.258580 0.813546
O O2 0.522802 0.266182 0.712283
O O3 0.688161 0.266490 0.866445
O O4 0.583228 0.000000 0.796490
O O5 0.447040 0.759886 0.864676
O O6 0.341559 0.716206 0.712103
O O7 0.419967 0.000000 0.780241
O O8 0.478814 0.500000 0.047684
O O9 0.500000 0.236901 0.000000
O O10 0.376278 0.229318 0.001368
O O11 0.413198 0.500000 0.611729
O O12 0.341461 0.231885 0.610350
O O13 0.437084 0.226841 0.569554
O O14 0.322244 0.286061 0.428347
O O15 0.240481 0.000000 0.398121
O O16 0.224311 0.000000 0.050399
O O17 0.250000 0.750000 0.000000
O O18 0.500000 0.228567 0.500000
O O19 0.542798 0.500000 0.474053
#
# Coordination Sequence:
#
# PCOD9183133 Si02
#       7
#     8   8   8   8   8   8   8
#     4   9  18  32  52  80 107 135 176 226 270 310
#     4  10  19  34  56  80 108 139 179 224 269 318
#     4  10  21  36  53  76 111 148 180 220 271 321
#     4   9  19  35  56  81 107 139 178 220 264 315
#     4  10  20  35  58  84 107 136 180 223 266 317
#     4  10  19  33  54  78 106 140 181 224 268 314
#     4  10  21  38  57  79 113 146 175 214 265 320
#
# _framework density 19.854358000000001
#
# number of rings (size 3 to 8) (size 9 to 14) (size 15 to 20)
#    0.000    2.286    1.429    1.286    0.000    2.857 
#    2.571    0.000    0.000    0.000    0.000    0.000 
#    0.000    0.000    0.000    0.000    0.000    0.000 
#
# Total GULP energy -156206.570146 kJ/mol
# GULP energy per Si atom -5578.806077 kJ/mol
# Density = 1.980917 g / cm^3
# Si number density = 19.854358 Si / 1000 Ang^3
#
#
#
# Elastic Constant Matrix: (Units=GPa)
#
#
# Indices 1 2 3 4 5 6 
#
# 1 128.5554 1.4237 74.8069 0.0000 -11.2480 0.0000
# 2 1.4237 20.0262 -7.5796 0.0000 -2.7966 0.0000
# 3 74.8069 -7.5796 118.1963 0.0000 -10.1758 0.0000
# 4 0.0000 0.0000 0.0000 25.0845 0.0000 2.8253
# 5 -11.2480 -2.7966 -10.1758 0.0000 28.2558 0.0000
# 6 0.0000 0.0000 0.0000 2.8253 0.0000 10.9091
#
#
#
# Elastic Compliance Matrix: (Units=1/GPa)
#
#
# Indices 1 2 3 4 5 6 
#
# 1 0.012704 -0.003734 -0.008128 0.000000 0.001760 0.000000
# 2 -0.003734 0.053438 0.006313 0.000000 0.006076 0.000000
# 3 -0.008128 0.006313 0.014226 0.000000 0.002512 0.000000
# 4 0.000000 0.000000 0.000000 0.041063 0.000000 -0.010635
# 5 0.001760 0.006076 0.002512 0.000000 0.037598 0.000000
# 6 0.000000 0.000000 0.000000 -0.010635 0.000000 0.094421
#
#
# Mechanical properties :
#
#
# Convention : Reuss Voigt Hill
#
# Bulk Modulus (GPa) = 14.43626 44.89776 29.66701
# Shear Modulus (GPa) = 17.38299 26.05834 21.72067
#
# Velocity S-wave (km/s) = 2.96214 3.62674 3.31116
# Velocity P-wave (km/s) = 4.35728 6.34037 5.43995
#
# Compressibility (1/GPa) = 0.06927003
#
# Stress axis : x y z
#
# Youngs Moduli (GPa) = 78.71529 18.71330 70.29346
#
# Poissons Ratio (x) = 0.06987 0.57137
# Poissons Ratio (y) = 0.29390 -0.44377
# Poissons Ratio (z) = 0.63982 -0.11814
#
# Static dielectric constant tensor:
#      x y z
#    x 1.703000 0.000000 -0.005960 
#    y 0.000000 1.727510 0.000000 
#    z -0.005960 0.000000 1.685690 
# 
# From -- ./inp_files/342480.got.cif
#   From: 2010.05.17/outbox.cif.g08.bks.cpg/sg12_172_cif.got.tgz:342480.got - 2010.06.03 13:09:07.
