data_PCOD9183317
_publ_section_title
;
Structure prediction by ZEFSAII (Michael W. Deem and Ramdas Pophale) SiO2 
 PCOD9183317
Probable space group: C 2/M
;
_chemical_formula_sum "Si O2"
_cell_formula_units_Z 56
_cell_length_a 15.541924
_cell_length_b 18.613616
_cell_length_c 10.630420
_cell_angle_alpha 90.000000
_cell_angle_beta 69.704722
_cell_angle_gamma 90.000000
_cell_volume 2884.367576
_symmetry_space_group_name_H-M "C 2/M"
_symmetry_group_IT_number 12
_symmetry_cell_setting 'monoclinic'
loop_
_space_group_symop_operation_xyz
x,y,z
-x,y,-z
-x,-y,-z
x,-y,z
1/2+x,1/2+y,z
1/2-x,1/2+y,-z
1/2-x,1/2-y,-z
1/2+x,1/2-y,z
loop_
_atom_site_type_symbol
_atom_site_label
_atom_site_fract_x
_atom_site_fract_y
_atom_site_fract_z
Si Si1 0.640493 0.272342 0.356193
Si Si2 0.100752 0.919472 0.006048
Si Si3 0.361171 0.877976 0.034770
Si Si4 0.665630 0.275848 0.847110
Si Si5 0.053040 0.730989 0.659967
Si Si6 0.332805 0.420564 0.766301
Si Si7 0.018026 0.581466 0.783111
O O1 0.731370 0.234690 0.256563
O O2 0.616398 0.250929 0.509962
O O3 0.550076 0.256076 0.319349
O O4 0.659559 0.357290 0.336460
O O5 0.153601 0.851777 0.920958
O O6 0.139398 0.000000 0.961587
O O7 0.093175 0.912667 0.160670
O O8 0.000000 0.916902 0.000000
O O9 0.355191 0.791482 0.049342
O O10 0.261034 0.909457 0.107712
O O11 0.419395 0.906794 0.124466
O O12 0.415003 0.902704 0.884413
O O13 0.595210 0.264115 0.766270
O O14 0.048530 0.644799 0.676160
O O15 0.335626 0.500000 0.709987
O O16 0.026951 0.500000 0.733902
#
# Coordination Sequence:
#
# PCOD9183317 Si02
#       7
#     8   8   8   8   8   8   8
#     4  10  22  39  57  81 109 150 199 229 268 336
#     4  10  22  36  53  83 118 147 181 229 286 336
#     4   9  19  31  55  87 112 138 180 225 282 343
#     4  10  21  36  60  82 112 147 187 229 287 333
#     4  10  22  39  56  79 113 150 191 238 267 325
#     4  10  20  35  57  82 111 141 180 239 284 324
#     4  10  19  33  54  82 115 145 175 221 283 336
#
# _framework density 19.415001
#
# number of rings (size 3 to 8) (size 9 to 14) (size 15 to 20)
#    0.000    2.143    0.000    3.000    8.000    1.143 
#    0.000    4.286    0.000    0.000    0.000    0.000 
#    0.000    0.000    0.000    0.000    0.000    0.000 
#
# Total GULP energy -156336.842502 kJ/mol
# GULP energy per Si atom -5583.458661 kJ/mol
# Density = 1.937081 g / cm^3
# Si number density = 19.415001 Si / 1000 Ang^3
#
#
#
# Elastic Constant Matrix: (Units=GPa)
#
#
# Indices 1 2 3 4 5 6 
#
# 1 34.6746 1.8281 -0.5409 0.0000 -5.9295 0.0000
# 2 1.8281 195.0203 60.4609 0.0000 -6.8339 0.0000
# 3 -0.5409 60.4609 54.9807 0.0000 -2.7928 0.0000
# 4 0.0000 0.0000 0.0000 16.3725 0.0000 1.5783
# 5 -5.9295 -6.8339 -2.7928 0.0000 11.8651 0.0000
# 6 0.0000 0.0000 0.0000 1.5783 0.0000 10.8331
#
#
#
# Elastic Compliance Matrix: (Units=1/GPa)
#
#
# Indices 1 2 3 4 5 6 
#
# 1 0.031605 -0.000127 0.001264 0.000000 0.016019 0.000000
# 2 -0.000127 0.007854 -0.008514 0.000000 0.002457 0.000000
# 3 0.001264 -0.008514 0.027677 0.000000 0.002243 0.000000
# 4 0.000000 0.000000 0.000000 0.061948 0.000000 -0.009025
# 5 0.016019 0.002457 0.002243 0.000000 0.094228 0.000000
# 6 0.000000 0.000000 0.000000 -0.009025 0.000000 0.093625
#
#
# Mechanical properties :
#
#
# Convention : Reuss Voigt Hill
#
# Bulk Modulus (GPa) = 19.08998 45.35244 32.22121
# Shear Modulus (GPa) = 14.32041 22.67598 18.49820
#
# Velocity S-wave (km/s) = 2.71882 3.42125 3.09006
# Velocity P-wave (km/s) = 4.43958 6.24635 5.41880
#
# Compressibility (1/GPa) = 0.05238350
#
# Stress axis : x y z
#
# Youngs Moduli (GPa) = 31.64034 127.31704 36.13120
#
# Poissons Ratio (x) = 0.01615 -0.04567
# Poissons Ratio (y) = 0.00401 0.30761
# Poissons Ratio (z) = -0.04000 1.08395
#
# Static dielectric constant tensor:
#      x y z
#    x 1.737390 0.000000 0.010740 
#    y 0.000000 1.686940 0.000000 
#    z 0.010740 0.000000 1.652150 
# 
# From -- ./inp_files/145461.got.cif
#   From: 2010.05.17/outbox.cif.g08.bks.cpg/sg12_73_cif.got.tgz:145461.got - 2010.06.03 13:09:07.
