data_PCOD9183312
_publ_section_title
;
Structure prediction by ZEFSAII (Michael W. Deem and Ramdas Pophale) SiO2 
 PCOD9183312
Probable space group: C 2/M
;
_chemical_formula_sum "Si O2"
_cell_formula_units_Z 48
_cell_length_a 22.856621
_cell_length_b 7.493826
_cell_length_c 12.205932
_cell_angle_alpha 90.000000
_cell_angle_beta 80.877959
_cell_angle_gamma 90.000000
_cell_volume 2064.234255
_symmetry_space_group_name_H-M "C 2/M"
_symmetry_group_IT_number 12
_symmetry_cell_setting 'monoclinic'
loop_
_space_group_symop_operation_xyz
x,y,z
-x,y,-z
-x,-y,-z
x,-y,z
1/2+x,1/2+y,z
1/2-x,1/2+y,-z
1/2-x,1/2-y,-z
1/2+x,1/2-y,z
loop_
_atom_site_type_symbol
_atom_site_label
_atom_site_fract_x
_atom_site_fract_y
_atom_site_fract_z
Si Si1 0.060701 0.781585 0.420779
Si Si2 0.738168 0.287158 0.131253
Si Si3 0.819680 0.197714 0.497077
Si Si4 0.562465 0.208100 0.957061
Si Si5 0.153002 0.281530 0.753904
Si Si6 0.107506 0.784360 0.181065
O O1 0.124573 0.719265 0.451873
O O2 0.063144 0.731030 0.291314
O O3 0.000000 0.723442 0.500000
O O4 0.060954 0.000000 0.427571
O O5 0.738332 0.500000 0.141342
O O6 0.789595 0.221985 0.194798
O O7 0.674052 0.223366 0.187688
O O8 0.750000 0.250000 0.000000
O O9 0.750000 0.250000 0.500000
O O10 0.845009 0.204664 0.366910
O O11 0.814301 0.000000 0.546914
O O12 0.598361 0.279972 0.844186
O O13 0.553186 0.000000 0.932599
O O14 0.500000 0.295348 0.000000
O O15 0.596041 0.217690 0.062160
O O16 0.153288 0.500000 0.746227
O O17 0.106577 0.000000 0.176375
#
# Coordination Sequence:
#
# PCOD9183312 Si02
#       6
#     8   8   8   8   8   8
#     4   9  20  39  61  86 116 153 196 245 298 346
#     4  10  19  33  54  82 113 148 186 230 286 341
#     4  11  23  40  64  90 120 157 200 246 297 354
#     4  10  22  38  56  82 118 158 189 228 292 352
#     4  10  21  38  59  84 120 156 190 237 290 346
#     4  10  20  35  59  85 111 144 190 243 286 339
#
# _framework density 23.253174999999999
#
# number of rings (size 3 to 8) (size 9 to 14) (size 15 to 20)
#    0.000    2.000    1.667    1.500    2.333    4.333 
#    0.000    3.333    0.000    2.500    0.000    0.000 
#    0.000    0.000    0.000    0.000    0.000    0.000 
#
# Total GULP energy -133917.422863 kJ/mol
# GULP energy per Si atom -5579.892619 kJ/mol
# Density = 2.320025 g / cm^3
# Si number density = 23.253175 Si / 1000 Ang^3
#
#
#
# Elastic Constant Matrix: (Units=GPa)
#
#
# Indices 1 2 3 4 5 6 
#
# 1 97.3233 3.2163 13.6228 0.0000 -29.9100 0.0000
# 2 3.2163 60.6472 -17.6687 0.0000 -6.2308 0.0000
# 3 13.6228 -17.6687 117.6537 0.0000 -29.2956 0.0000
# 4 0.0000 0.0000 0.0000 382.3519 0.0000 -261.2739
# 5 -29.9100 -6.2308 -29.2956 0.0000 46.3545 0.0000
# 6 0.0000 0.0000 0.0000 -261.2739 0.0000 187.8465
#
#
#
# Elastic Compliance Matrix: (Units=1/GPa)
#
#
# Indices 1 2 3 4 5 6 
#
# 1 0.012874 0.000457 0.000785 0.000000 0.008865 0.000000
# 2 0.000457 0.018165 0.003983 0.000000 0.005254 0.000000
# 3 0.000785 0.003983 0.010997 0.000000 0.007992 0.000000
# 4 0.000000 0.000000 0.000000 0.052774 0.000000 0.073403
# 5 0.008865 0.005254 0.007992 0.000000 0.033050 0.000000
# 6 0.000000 0.000000 0.000000 0.073403 0.000000 0.107420
#
#
# Mechanical properties :
#
#
# Convention : Reuss Voigt Hill
#
# Bulk Modulus (GPa) = 19.05260 30.44052 24.74656
# Shear Modulus (GPa) = 20.63344 141.74084 81.18714
#
# Velocity S-wave (km/s) = 2.98205 7.81587 5.91525
# Velocity P-wave (km/s) = 4.47975 9.72470 7.57093
#
# Compressibility (1/GPa) = 0.05248628
#
# Stress axis : x y z
#
# Youngs Moduli (GPa) = 77.67346 55.05155 90.93588
#
# Poissons Ratio (x) = -0.02514 -0.07141
# Poissons Ratio (y) = -0.03548 -0.36221
# Poissons Ratio (z) = -0.06099 -0.21928
#
# Static dielectric constant tensor:
#      x y z
#    x 2.005540 0.000000 0.027970 
#    y 0.000000 1.885530 0.000000 
#    z 0.027970 0.000000 1.864220 
# 
# From -- ./inp_files/172162.got.cif
#   From: 2010.05.17/outbox.cif.g08.bks.cpg/sg12_87_cif.got.tgz:172162.got - 2010.06.03 13:09:07.
