data_PCOD9183506
_publ_section_title
;
Structure prediction by ZEFSAII (Michael W. Deem and Ramdas Pophale) SiO2 
 PCOD9183506
Probable space group: C 2/M
;
_chemical_formula_sum "Si O2"
_cell_formula_units_Z 56
_cell_length_a 15.769140
_cell_length_b 7.792524
_cell_length_c 24.629618
_cell_angle_alpha 90.000000
_cell_angle_beta 116.715117
_cell_angle_gamma 90.000000
_cell_volume 2703.449265
_symmetry_space_group_name_H-M "C 2/M"
_symmetry_group_IT_number 12
_symmetry_cell_setting 'monoclinic'
loop_
_space_group_symop_operation_xyz
x,y,z
-x,y,-z
-x,-y,-z
x,-y,z
1/2+x,1/2+y,z
1/2-x,1/2+y,-z
1/2-x,1/2-y,-z
1/2+x,1/2-y,z
loop_
_atom_site_type_symbol
_atom_site_label
_atom_site_fract_x
_atom_site_fract_y
_atom_site_fract_z
Si Si1 0.239106 0.705924 0.124594
Si Si2 0.408825 0.293293 0.007607
Si Si3 0.521463 0.294934 0.566827
Si Si4 0.351374 0.205965 0.790345
Si Si5 0.732999 0.289178 0.652770
Si Si6 0.327459 0.204186 0.567997
Si Si7 0.566714 0.707030 0.862181
O O1 0.241664 0.500000 0.130275
O O2 0.183285 0.773986 0.161025
O O3 0.346928 0.768764 0.150347
O O4 0.183450 0.745094 0.053175
O O5 0.413163 0.500000 0.010685
O O6 0.414843 0.229989 0.070938
O O7 0.500000 0.230573 0.000000
O O8 0.500000 0.226379 0.500000
O O9 0.531363 0.500000 0.564428
O O10 0.623434 0.232124 0.617221
O O11 0.431284 0.263525 0.579146
O O12 0.286150 0.268985 0.722353
O O13 0.461737 0.244962 0.813907
O O14 0.342087 0.000000 0.788936
O O15 0.733420 0.500000 0.653103
O O16 0.789582 0.231946 0.615204
O O17 0.250000 0.250000 0.500000
O O18 0.331073 0.000000 0.572517
O O19 0.570979 0.500000 0.864754
#
# Coordination Sequence:
#
# PCOD9183506 Si02
#       7
#     8   8   8   8   8   8   8
#     4  10  21  35  55  81 108 139 184 231 270 319
#     4  10  19  33  55  80 109 144 178 221 283 331
#     4  10  19  36  60  85 112 147 181 221 280 333
#     4  10  21  38  57  78 106 148 188 222 269 329
#     4   9  20  38  57  78 113 149 180 221 278 336
#     4  11  21  36  58  85 113 144 183 228 275 329
#     4  10  21  37  55  80 112 143 179 230 279 322
#
# _framework density 20.714279000000001
#
# number of rings (size 3 to 8) (size 9 to 14) (size 15 to 20)
#    0.000    2.000    2.857    0.857    0.000    2.857 
#    0.000    3.571    0.000    0.000    0.000    0.000 
#    0.000    0.000    0.000    0.000    0.000    0.000 
#
# Total GULP energy -156389.095391 kJ/mol
# GULP energy per Si atom -5585.324835 kJ/mol
# Density = 2.066713 g / cm^3
# Si number density = 20.714279 Si / 1000 Ang^3
#
#
#
# Elastic Constant Matrix: (Units=GPa)
#
#
# Indices 1 2 3 4 5 6 
#
# 1 128.6221 -1.7554 47.0934 0.0000 42.1896 0.0000
# 2 -1.7554 20.9469 0.7802 0.0000 -0.3009 0.0000
# 3 47.0934 0.7802 124.0814 0.0000 36.3203 0.0000
# 4 0.0000 0.0000 0.0000 10.2814 0.0000 6.2635
# 5 42.1896 -0.3009 36.3203 0.0000 27.5414 0.0000
# 6 0.0000 0.0000 0.0000 6.2635 0.0000 23.6783
#
#
#
# Elastic Compliance Matrix: (Units=1/GPa)
#
#
# Indices 1 2 3 4 5 6 
#
# 1 0.015880 0.000882 0.001767 0.000000 -0.026648 0.000000
# 2 0.000882 0.047838 -0.000640 0.000000 0.000015 0.000000
# 3 0.001767 -0.000640 0.013334 0.000000 -0.020299 0.000000
# 4 0.000000 0.000000 0.000000 0.115949 0.000000 -0.030671
# 5 -0.026648 0.000015 -0.020299 0.000000 0.103900 0.000000
# 6 0.000000 0.000000 0.000000 -0.030671 0.000000 0.050346
#
#
# Mechanical properties :
#
#
# Convention : Reuss Voigt Hill
#
# Bulk Modulus (GPa) = 12.33478 40.65411 26.49445
# Shear Modulus (GPa) = 13.50433 27.46900 20.48667
#
# Velocity S-wave (km/s) = 2.55607 3.64550 3.14827
# Velocity P-wave (km/s) = 3.83131 6.11460 5.10232
#
# Compressibility (1/GPa) = 0.08107155
#
# Stress axis : x y z
#
# Youngs Moduli (GPa) = 62.97045 20.90397 74.99492
#
# Poissons Ratio (x) = -0.01844 -0.13255
# Poissons Ratio (y) = -0.05555 0.04800
# Poissons Ratio (z) = -0.11130 0.01338
#
# Static dielectric constant tensor:
#      x y z
#    x 1.736040 0.000000 -0.016680 
#    y 0.000000 1.761020 0.000000 
#    z -0.016680 0.000000 1.713610 
# 
# From -- ./inp_files/337849.got.cif
#   From: 2010.05.17/outbox.cif.g08.bks.cpg/sg12_169_cif.got.tgz:337849.got - 2010.06.03 13:09:07.
