data_PCOD9183333
_publ_section_title
;
Structure prediction by ZEFSAII (Michael W. Deem and Ramdas Pophale) SiO2 
 PCOD9183333
Probable space group: C 2/M
;
_chemical_formula_sum "Si O2"
_cell_formula_units_Z 56
_cell_length_a 25.459361
_cell_length_b 8.874905
_cell_length_c 17.068460
_cell_angle_alpha 90.000000
_cell_angle_beta 59.943378
_cell_angle_gamma 90.000000
_cell_volume 3338.013649
_symmetry_space_group_name_H-M "C 2/M"
_symmetry_group_IT_number 12
_symmetry_cell_setting 'monoclinic'
loop_
_space_group_symop_operation_xyz
x,y,z
-x,y,-z
-x,-y,-z
x,-y,z
1/2+x,1/2+y,z
1/2-x,1/2+y,-z
1/2-x,1/2-y,-z
1/2+x,1/2-y,z
loop_
_atom_site_type_symbol
_atom_site_label
_atom_site_fract_x
_atom_site_fract_y
_atom_site_fract_z
Si Si1 0.281662 0.679303 0.096185
Si Si2 0.753888 0.320855 0.278234
Si Si3 0.157977 0.680456 0.094766
Si Si4 0.549329 0.180872 0.289468
Si Si5 0.379397 0.819692 0.602943
Si Si6 0.194448 0.320122 0.590423
Si Si7 0.079937 0.820409 0.590865
O O1 0.285601 0.500000 0.102788
O O2 0.285622 0.760093 0.176435
O O3 0.215153 0.714645 0.108952
O O4 0.329303 0.737186 0.996270
O O5 0.743935 0.500000 0.279858
O O6 0.688875 0.239837 0.335174
O O7 0.792102 0.291548 0.328286
O O8 0.158423 0.500000 0.082006
O O9 0.096531 0.721558 0.185597
O O10 0.581973 0.213741 0.348008
O O11 0.485860 0.265228 0.332582
O O12 0.539462 0.000000 0.293903
O O13 0.408121 0.743446 0.505244
O O14 0.378326 0.000000 0.593248
O O15 0.192966 0.500000 0.578774
O O16 0.250000 0.250000 0.500000
O O17 0.132677 0.247298 0.605915
O O18 0.083943 0.000000 0.586774
#
# Coordination Sequence:
#
# PCOD9183333 Si02
#       7
#     8   8   8   8   8   8   8
#     4  10  19  33  54  83 113 146 182 222 277 331
#     4  11  22  35  56  84 113 144 183 230 279 329
#     4   9  18  34  54  80 112 146 184 224 271 330
#     4  10  21  38  57  80 112 152 189 225 277 333
#     4  11  21  36  57  81 112 150 187 226 276 331
#     4  11  23  39  59  81 108 146 189 234 279 325
#     4  12  25  38  54  81 113 150 191 230 277 330
#
# _framework density 16.776444999999999
#
# number of rings (size 3 to 8) (size 9 to 14) (size 15 to 20)
#    0.000    1.429    2.857    3.429    0.000    5.714 
#    0.000    0.000    0.000    0.857    0.000    6.000 
#    0.000    0.000    0.000    0.000    0.000    0.000 
#
# Total GULP energy -156462.991305 kJ/mol
# GULP energy per Si atom -5587.963975 kJ/mol
# Density = 1.673826 g / cm^3
# Si number density = 16.776445 Si / 1000 Ang^3
#
#
#
# Elastic Constant Matrix: (Units=GPa)
#
#
# Indices 1 2 3 4 5 6 
#
# 1 111.3558 68.7981 80.3474 0.0000 -13.8729 0.0001
# 2 68.7981 83.4627 74.0178 0.0001 0.3403 0.0003
# 3 80.3474 74.0178 147.3718 0.0000 1.8974 0.0000
# 4 0.0000 0.0001 0.0000 32.6669 0.0000 -3.6076
# 5 -13.8729 0.3403 1.8974 0.0000 18.3904 0.0000
# 6 0.0001 0.0003 0.0000 -3.6076 0.0000 24.8027
#
#
#
# Elastic Compliance Matrix: (Units=1/GPa)
#
#
# Indices 1 2 3 4 5 6 
#
# 1 0.025927 -0.015660 -0.006534 0.000000 0.020522 0.000000
# 2 -0.015660 0.031073 -0.006918 0.000000 -0.011675 0.000000
# 3 -0.006534 -0.006918 0.013903 0.000000 -0.006235 0.000000
# 4 0.000000 0.000000 0.000000 0.031112 0.000000 0.004525
# 5 0.020522 -0.011675 -0.006235 0.000000 0.070716 0.000000
# 6 0.000000 0.000000 0.000000 0.004525 0.000000 0.040976
#
#
# Mechanical properties :
#
#
# Convention : Reuss Voigt Hill
#
# Bulk Modulus (GPa) = 78.87976 87.61300 83.24638
# Shear Modulus (GPa) = 18.10557 23.10715 20.60636
#
# Velocity S-wave (km/s) = 3.28872 3.71530 3.50850
# Velocity P-wave (km/s) = 7.84482 8.41082 8.13274
#
# Compressibility (1/GPa) = 0.01267752
#
# Stress axis : x y z
#
# Youngs Moduli (GPa) = 38.57013 32.18225 71.92755
#
# Poissons Ratio (x) = 0.50399 0.46998
# Poissons Ratio (y) = 0.60402 0.49760
# Poissons Ratio (z) = 0.25202 0.22264
#
# Static dielectric constant tensor:
#      x y z
#    x 1.540640 0.000000 0.004270 
#    y 0.000000 1.559430 0.000000 
#    z 0.004270 0.000000 1.554760 
# 
# From -- ./inp_files/238395.got.cif
#   From: 2010.05.17/outbox.cif.g08.bks.cpg/sg12_120_cif.got.tgz:238395.got - 2010.06.03 13:09:07.
