data_PCOD9183962
_publ_section_title
;
Structure prediction by ZEFSAII (Michael W. Deem and Ramdas Pophale) SiO2 
 PCOD9183962
Probable space group: C 2/M
;
_chemical_formula_sum "Si O2"
_cell_formula_units_Z 40
_cell_length_a 25.903384
_cell_length_b 8.400775
_cell_length_c 26.648947
_cell_angle_alpha 90.000000
_cell_angle_beta 17.769607
_cell_angle_gamma 90.000000
_cell_volume 1769.809370
_symmetry_space_group_name_H-M "C 2/M"
_symmetry_group_IT_number 12
_symmetry_cell_setting 'monoclinic'
loop_
_space_group_symop_operation_xyz
x,y,z
-x,y,-z
-x,-y,-z
x,-y,z
1/2+x,1/2+y,z
1/2-x,1/2+y,-z
1/2-x,1/2-y,-z
1/2+x,1/2-y,z
loop_
_atom_site_type_symbol
_atom_site_label
_atom_site_fract_x
_atom_site_fract_y
_atom_site_fract_z
Si Si1 0.126909 0.306806 0.537927
Si Si2 0.295488 0.190999 0.902582
Si Si3 0.461641 0.182257 0.589575
Si Si4 0.057978 0.690835 0.808661
Si Si5 0.674227 0.179903 0.811341
O O1 0.135991 0.500000 0.531775
O O2 0.034998 0.248537 0.571819
O O3 0.318266 0.245646 0.351751
O O4 0.985976 0.256613 0.709551
O O5 0.134470 0.248243 0.018611
O O6 0.297390 0.000000 0.899016
O O7 0.250000 0.250000 0.000000
O O8 0.500000 0.257816 0.500000
O O9 0.263818 0.199624 0.767082
O O10 0.518721 0.000000 0.535665
O O11 0.053136 0.500000 0.813359
O O12 0.143218 0.741044 0.783091
O O13 0.748625 0.000000 0.739979
O O14 0.500000 0.158339 0.000000
#
# Coordination Sequence:
#
# PCOD9183962 Si02
#       5
#     8   8   8   8   8
#     4  10  22  41  64  92 125 164 207 252 304 362
#     4  11  25  45  68  91 120 157 203 261 317 369
#     4  10  19  33  56  85 119 156 196 239 284 345
#     4  11  23  39  63  93 125 163 206 252 305 366
#     4  10  21  35  53  83 123 163 201 242 291 352
#
# _framework density 22.601303000000001
#
# number of rings (size 3 to 8) (size 9 to 14) (size 15 to 20)
#    0.000    1.600    2.000    2.400    0.000    4.800 
#    0.000    0.000    0.000    0.000    0.000    0.000 
#    0.000    0.000    0.000    0.000    0.000    0.000 
#
# Total GULP energy -111345.609574 kJ/mol
# GULP energy per Si atom -5567.280479 kJ/mol
# Density = 2.254986 g / cm^3
# Si number density = 22.601303 Si / 1000 Ang^3
#
#
#
# Elastic Constant Matrix: (Units=GPa)
#
#
# Indices 1 2 3 4 5 6 
#
# 1 55.3743 -1.0815 -4.9364 0.0035 10.8682 -0.0006
# 2 -1.0815 39.3156 20.9358 -0.0095 1.5680 0.0000
# 3 -4.9364 20.9358 106.1695 0.0226 23.5340 -0.0061
# 4 0.0035 -0.0095 0.0226 35.8306 -0.0045 -5.7204
# 5 10.8682 1.5680 23.5340 -0.0045 32.3120 0.0012
# 6 -0.0006 0.0000 -0.0061 -5.7204 0.0012 28.2118
#
#
#
# Elastic Compliance Matrix: (Units=1/GPa)
#
#
# Indices 1 2 3 4 5 6 
#
# 1 0.020073 -0.000719 0.003058 -0.000005 -0.008944 0.000000
# 2 -0.000719 0.028729 -0.006491 0.000012 0.003576 0.000001
# 3 0.003058 -0.006491 0.013117 -0.000011 -0.010267 0.000001
# 4 -0.000005 0.000012 -0.000011 0.028843 0.000013 0.005848
# 5 -0.008944 0.003576 -0.010267 0.000013 0.041261 -0.000001
# 6 0.000000 0.000001 0.000001 0.005848 -0.000001 0.036632
#
#
# Mechanical properties :
#
#
# Convention : Reuss Voigt Hill
#
# Bulk Modulus (GPa) = 18.65211 25.63278 22.14245
# Shear Modulus (GPa) = 25.66318 31.66698 28.66508
#
# Velocity S-wave (km/s) = 3.37333 3.74721 3.56517
# Velocity P-wave (km/s) = 4.84181 5.48525 5.17354
#
# Compressibility (1/GPa) = 0.05361323
#
# Stress axis : x y z
#
# Youngs Moduli (GPa) = 49.81873 34.80755 76.23745
#
# Poissons Ratio (x) = 0.02504 -0.23311
# Poissons Ratio (y) = 0.03584 0.49488
# Poissons Ratio (z) = -0.15233 0.22594
#
# Static dielectric constant tensor:
#      x y z
#    x 1.873120 0.000000 0.001350 
#    y 0.000000 1.833610 0.000000 
#    z 0.001350 0.000000 1.948230 
# 
# From -- ./inp_files/368795.got.cif
#   From: 2010.05.17/outbox.cif.g08.bks.cpg/sg12_185_cif.got.tgz:368795.got - 2010.06.03 13:09:07.
