data_PCOD9183887
_publ_section_title
;
Structure prediction by ZEFSAII (Michael W. Deem and Ramdas Pophale) SiO2 
 PCOD9183887
Probable space group: C 2/M
;
_chemical_formula_sum "Si O2"
_cell_formula_units_Z 40
_cell_length_a 22.548357
_cell_length_b 9.143517
_cell_length_c 9.151707
_cell_angle_alpha 90.000000
_cell_angle_beta 88.443611
_cell_angle_gamma 90.000000
_cell_volume 1886.123108
_symmetry_space_group_name_H-M "C 2/M"
_symmetry_group_IT_number 12
_symmetry_cell_setting 'monoclinic'
loop_
_space_group_symop_operation_xyz
x,y,z
-x,y,-z
-x,-y,-z
x,-y,z
1/2+x,1/2+y,z
1/2-x,1/2+y,-z
1/2-x,1/2-y,-z
1/2+x,1/2-y,z
loop_
_atom_site_type_symbol
_atom_site_label
_atom_site_fract_x
_atom_site_fract_y
_atom_site_fract_z
Si Si1 0.057615 0.676842 0.091837
Si Si2 0.439496 0.669788 0.594111
Si Si3 0.264516 0.338675 0.696301
Si Si4 0.810801 0.326612 0.940486
Si Si5 0.834856 0.163606 0.397173
O O1 0.057090 0.500000 0.103683
O O2 0.054874 0.745552 0.254166
O O3 0.122194 0.717890 0.018296
O O4 0.000000 0.720630 0.000000
O O5 0.500000 0.669735 0.500000
O O6 0.422334 0.500000 0.628012
O O7 0.391484 0.723520 0.478705
O O8 0.269057 0.500000 0.763266
O O9 0.306816 0.222816 0.771402
O O10 0.197693 0.276727 0.706484
O O11 0.287216 0.355274 0.530451
O O12 0.805704 0.500000 0.955193
O O13 0.750000 0.250000 0.000000
O O14 0.846153 0.000000 0.334457
#
# Coordination Sequence:
#
# PCOD9183887 Si02
#       5
#     8   8   8   8   8
#     4  10  23  43  64  88 122 163 208 254 305 367
#     4  10  21  38  61  90 122 157 202 251 301 361
#     4  10  19  33  56  83 112 147 188 235 290 348
#     4  11  23  39  61  87 119 157 201 251 303 362
#     4   9  18  33  54  82 115 147 185 233 287 348
#
# _framework density 21.207522000000001
#
# number of rings (size 3 to 8) (size 9 to 14) (size 15 to 20)
#    0.000    2.000    2.000    1.200    0.000    4.800 
#    0.000    4.000    0.000    0.000    0.000    0.000 
#    0.000    0.000    0.000    0.000    0.000    0.000 
#
# Total GULP energy -111399.103756 kJ/mol
# GULP energy per Si atom -5569.955188 kJ/mol
# Density = 2.115925 g / cm^3
# Si number density = 21.207522 Si / 1000 Ang^3
#
#
#
# Elastic Constant Matrix: (Units=GPa)
#
#
# Indices 1 2 3 4 5 6 
#
# 1 161.5757 45.5598 46.4119 0.0000 35.9430 0.0000
# 2 45.5598 28.9284 2.4570 0.0000 2.3595 0.0000
# 3 46.4119 2.4570 27.4712 0.0000 8.6274 0.0000
# 4 0.0000 0.0000 0.0000 15.3001 0.0000 -0.5897
# 5 35.9430 2.3595 8.6274 0.0000 41.3282 0.0000
# 6 0.0000 0.0000 0.0000 -0.5897 0.0000 18.3854
#
#
#
# Elastic Compliance Matrix: (Units=1/GPa)
#
#
# Indices 1 2 3 4 5 6 
#
# 1 0.071470 -0.101130 -0.100589 0.000000 -0.035385 0.000000
# 2 -0.101130 0.178010 0.139661 0.000000 0.048634 0.000000
# 3 -0.100589 0.139661 0.180731 0.000000 0.041780 0.000000
# 4 0.000000 0.000000 0.000000 0.065440 0.000000 0.002099
# 5 -0.035385 0.048634 0.041780 0.000000 0.043473 0.000000
# 6 0.000000 0.000000 0.000000 0.002099 0.000000 0.054458
#
#
# Mechanical properties :
#
#
# Convention : Reuss Voigt Hill
#
# Bulk Modulus (GPa) = 3.26695 45.20364 24.23530
# Shear Modulus (GPa) = 6.09958 23.23918 14.66938
#
# Velocity S-wave (km/s) = 1.69776 3.31388 2.63288
# Velocity P-wave (km/s) = 2.32099 6.00030 4.54921
#
# Compressibility (1/GPa) = 0.30609616
#
# Stress axis : x y z
#
# Youngs Moduli (GPa) = 13.99190 5.61766 5.53308
#
# Poissons Ratio (x) = 0.56811 0.55656
# Poissons Ratio (y) = 1.41499 -0.77275
# Poissons Ratio (z) = 1.40743 -0.78457
#
# Static dielectric constant tensor:
#      x y z
#    x 1.819910 0.000000 -0.010030 
#    y 0.000000 1.797580 0.000000 
#    z -0.010030 0.000000 1.845230 
# 
# From -- ./inp_files/162662.got.cif
#   From: 2010.05.17/outbox.cif.g08.bks.cpg/sg12_82_cif.got.tgz:162662.got - 2010.06.03 13:09:07.
