data_PCOD9183915
_publ_section_title
;
Structure prediction by ZEFSAII (Michael W. Deem and Ramdas Pophale) SiO2 
 PCOD9183915
Probable space group: C 2/M
;
_chemical_formula_sum "Si O2"
_cell_formula_units_Z 48
_cell_length_a 26.097919
_cell_length_b 10.335008
_cell_length_c 7.912691
_cell_angle_alpha 90.000000
_cell_angle_beta 82.407998
_cell_angle_gamma 90.000000
_cell_volume 2115.519775
_symmetry_space_group_name_H-M "C 2/M"
_symmetry_group_IT_number 12
_symmetry_cell_setting 'monoclinic'
loop_
_space_group_symop_operation_xyz
x,y,z
-x,y,-z
-x,-y,-z
x,-y,z
1/2+x,1/2+y,z
1/2-x,1/2+y,-z
1/2-x,1/2-y,-z
1/2+x,1/2-y,z
loop_
_atom_site_type_symbol
_atom_site_label
_atom_site_fract_x
_atom_site_fract_y
_atom_site_fract_z
Si Si1 0.326156 0.846176 0.504298
Si Si2 0.577660 0.242327 0.343462
Si Si3 0.516429 0.000000 0.254204
Si Si4 0.726260 0.652783 0.743103
Si Si5 0.638278 0.740688 0.962675
Si Si6 0.086905 0.500000 0.883472
Si Si7 0.024807 0.000000 0.276720
Si Si8 0.424238 0.500000 0.121605
O O1 0.382541 0.794953 0.527990
O O2 0.300363 0.749832 0.380395
O O3 0.287397 0.836861 0.683676
O O4 0.327288 0.000000 0.459658
O O5 0.536995 0.127617 0.335247
O O6 0.546556 0.375159 0.361586
O O7 0.613286 0.253786 0.158736
O O8 0.455371 0.000000 0.246602
O O9 0.549091 0.000000 0.064136
O O10 0.714660 0.500000 0.720743
O O11 0.698207 0.700335 0.926021
O O12 0.609529 0.628630 0.869636
O O13 0.622807 0.875224 0.882886
O O14 0.964539 0.000000 0.256674
O O15 0.048293 0.000000 0.075202
#
# Coordination Sequence:
#
# PCOD9183915 Si02
#       8
#     8   8   4   8   8   4   4   4
#     4  10  22  40  59  78 105 144 185 224 272 329
#     4  10  19  33  56  84 111 140 178 225 271 314
#     4   9  16  32  50  79 114 146 177 217 262 317
#     4  10  22  40  59  78 105 144 185 224 272 329
#     4  10  19  33  56  84 111 140 178 225 271 314
#     4   9  18  28  52  83 112 142 179 215 264 323
#     4   9  18  28  52  83 112 142 179 215 264 323
#     4   9  16  32  50  79 114 146 177 217 262 317
#
# _framework density 22.689458999999999
#
# number of rings (size 3 to 8) (size 9 to 14) (size 15 to 20)
#    0.000    2.333    1.667    1.000    2.333    4.667 
#    0.000    0.000    0.000    6.000    0.000    0.000 
#    0.000    0.000    0.000    0.000    0.000    0.000 
#
# Total GULP energy -134071.429651 kJ/mol
# GULP energy per Si atom -5586.309569 kJ/mol
# Density = 2.263782 g / cm^3
# Si number density = 22.689459 Si / 1000 Ang^3
#
#
#
# Elastic Constant Matrix: (Units=GPa)
#
#
# Indices 1 2 3 4 5 6 
#
# 1 84.2846 49.6831 23.9144 0.0000 8.9346 0.0000
# 2 49.6831 194.1417 23.1410 0.0000 19.3340 0.0000
# 3 23.9144 23.1410 63.6907 0.0000 -15.8345 0.0000
# 4 0.0000 0.0000 0.0000 41.7262 0.0000 -22.1895
# 5 8.9346 19.3340 -15.8345 0.0000 42.3095 0.0000
# 6 0.0000 0.0000 0.0000 -22.1895 0.0000 48.0575
#
#
#
# Elastic Compliance Matrix: (Units=1/GPa)
#
#
# Indices 1 2 3 4 5 6 
#
# 1 0.015683 -0.002896 -0.005878 0.000000 -0.004188 0.000000
# 2 -0.002896 0.006440 -0.002020 0.000000 -0.003088 0.000000
# 3 -0.005878 -0.002020 0.021148 0.000000 0.010079 0.000000
# 4 0.000000 0.000000 0.000000 0.031766 0.000000 0.014667
# 5 -0.004188 -0.003088 0.010079 0.000000 0.029703 0.000000
# 6 0.000000 0.000000 0.000000 0.014667 0.000000 0.027581
#
#
# Mechanical properties :
#
#
# Convention : Reuss Voigt Hill
#
# Bulk Modulus (GPa) = 46.11826 59.51045 52.81436
# Shear Modulus (GPa) = 31.02968 42.77718 36.90343
#
# Velocity S-wave (km/s) = 3.70209 4.34675 4.03731
# Velocity P-wave (km/s) = 6.21643 7.17478 6.71273
#
# Compressibility (1/GPa) = 0.02168338
#
# Stress axis : x y z
#
# Youngs Moduli (GPa) = 63.76207 155.27376 47.28633
#
# Poissons Ratio (x) = 0.44964 0.27794
# Poissons Ratio (y) = 0.18464 0.09553
# Poissons Ratio (z) = 0.37479 0.31370
#
# Static dielectric constant tensor:
#      x y z
#    x 1.822140 0.000000 -0.071170 
#    y 0.000000 1.785510 0.000000 
#    z -0.071170 0.000000 1.911810 
# 
# From -- ./inp_files/108857.got.cif
#   From: 2010.05.17/outbox.cif.g08.bks.cpg/sg12_55_cif.got.tgz:108857.got - 2010.06.03 13:09:07.
