data_PCOD9183854
_publ_section_title
;
Structure prediction by ZEFSAII (Michael W. Deem and Ramdas Pophale) SiO2 
 PCOD9183854
Probable space group: C 2/M
;
_chemical_formula_sum "Si O2"
_cell_formula_units_Z 56
_cell_length_a 30.356014
_cell_length_b 8.599540
_cell_length_c 12.740329
_cell_angle_alpha 90.000000
_cell_angle_beta 58.455637
_cell_angle_gamma 90.000000
_cell_volume 2834.393557
_symmetry_space_group_name_H-M "C 2/M"
_symmetry_group_IT_number 12
_symmetry_cell_setting 'monoclinic'
loop_
_space_group_symop_operation_xyz
x,y,z
-x,y,-z
-x,-y,-z
x,-y,z
1/2+x,1/2+y,z
1/2-x,1/2+y,-z
1/2-x,1/2-y,-z
1/2+x,1/2-y,z
loop_
_atom_site_type_symbol
_atom_site_label
_atom_site_fract_x
_atom_site_fract_y
_atom_site_fract_z
Si Si1 0.959443 0.821063 0.455064
Si Si2 0.551525 0.678722 0.982825
Si Si3 0.845027 0.679704 0.880296
Si Si4 0.834863 0.812596 0.125127
Si Si5 0.037999 0.675376 0.210130
Si Si6 0.343426 0.313173 0.659627
Si Si7 0.754456 0.186741 0.612676
O O1 0.902674 0.769431 0.560970
O O2 0.000000 0.825005 0.500000
O O3 0.986871 0.708123 0.339049
O O4 0.955325 0.000000 0.420375
O O5 0.553501 0.500000 0.943236
O O6 0.541999 0.692190 0.118215
O O7 0.500000 0.754683 0.000000
O O8 0.609211 0.744502 0.900306
O O9 0.829870 0.500000 0.906694
O O10 0.907872 0.688070 0.795400
O O11 0.825480 0.749170 0.795051
O O12 0.830037 0.759799 0.009375
O O13 0.791183 0.747244 0.255349
O O14 0.834859 0.000000 0.126781
O O15 0.037431 0.500000 0.166076
O O16 0.342168 0.500000 0.669201
O O17 0.306709 0.265492 0.609272
O O18 0.750000 0.250000 0.500000
O O19 0.753175 0.000000 0.609876
#
# Coordination Sequence:
#
# PCOD9183854 Si02
#       7
#     8   8   8   8   8   8   8
#     4  10  19  33  56  82 113 152 192 231 278 339
#     4   9  19  36  58  83 111 148 194 238 281 337
#     4  10  20  35  58  89 122 152 188 236 293 354
#     4  10  21  39  64  88 116 154 195 242 294 347
#     4  10  20  32  50  81 120 154 183 228 288 344
#     4  10  22  39  60  87 116 155 202 245 290 346
#     4  11  25  45  65  85 116 154 199 248 292 345
#
# _framework density 19.757311000000001
#
# number of rings (size 3 to 8) (size 9 to 14) (size 15 to 20)
#    0.000    2.000    1.429    1.714    0.000    5.714 
#    0.000    5.714    0.000    0.000    0.000    0.000 
#    0.000    0.000    0.000    0.000    0.000    0.000 
#
# Total GULP energy -156083.987435 kJ/mol
# GULP energy per Si atom -5574.428123 kJ/mol
# Density = 1.971234 g / cm^3
# Si number density = 19.757311 Si / 1000 Ang^3
#
#
#
# Elastic Constant Matrix: (Units=GPa)
#
#
# Indices 1 2 3 4 5 6 
#
# 1 124.2110 31.3186 70.3683 0.0000 5.0535 0.0000
# 2 31.3186 40.6422 32.7177 0.0000 -1.2483 0.0000
# 3 70.3683 32.7177 120.1291 0.0000 -9.3502 0.0000
# 4 0.0000 0.0000 0.0000 28.5903 0.0000 3.0310
# 5 5.0535 -1.2483 -9.3502 0.0000 27.1326 0.0000
# 6 0.0000 0.0000 0.0000 3.0310 0.0000 16.7638
#
#
#
# Elastic Compliance Matrix: (Units=1/GPa)
#
#
# Indices 1 2 3 4 5 6 
#
# 1 0.013420 -0.004931 -0.006916 0.000000 -0.005110 0.000000
# 2 -0.004931 0.033390 -0.006180 0.000000 0.000325 0.000000
# 3 -0.006916 -0.006180 0.014526 0.000000 0.006010 0.000000
# 4 0.000000 0.000000 0.000000 0.035660 0.000000 -0.006448
# 5 -0.005110 0.000325 0.006010 0.000000 0.039894 0.000000
# 6 0.000000 0.000000 0.000000 -0.006448 0.000000 0.060818
#
#
# Mechanical properties :
#
#
# Convention : Reuss Voigt Hill
#
# Bulk Modulus (GPa) = 39.55321 61.53238 50.54280
# Shear Modulus (GPa) = 20.64498 24.53586 22.59042
#
# Velocity S-wave (km/s) = 3.23604 3.52783 3.38508
# Velocity P-wave (km/s) = 5.83315 6.91418 6.39654
#
# Compressibility (1/GPa) = 0.02528240
#
# Stress axis : x y z
#
# Youngs Moduli (GPa) = 74.51608 29.94926 68.84020
#
# Poissons Ratio (x) = 0.14768 0.47608
# Poissons Ratio (y) = 0.36743 0.42544
# Poissons Ratio (z) = 0.51534 0.18509
#
# Static dielectric constant tensor:
#      x y z
#    x 1.747980 0.000000 -0.002920 
#    y 0.000000 1.699690 0.000000 
#    z -0.002920 0.000000 1.678050 
# 
# From -- ./inp_files/180794.got.cif
#   From: 2010.05.17/outbox.cif.g08.bks.cpg/sg12_91_cif.got.tgz:180794.got - 2010.06.03 13:09:07.
