data_PCOD9183552
_publ_section_title
;
Structure prediction by ZEFSAII (Michael W. Deem and Ramdas Pophale) SiO2 
 PCOD9183552
Probable space group: C 2/M
;
_chemical_formula_sum "Si O2"
_cell_formula_units_Z 48
_cell_length_a 16.545786
_cell_length_b 8.542406
_cell_length_c 14.970693
_cell_angle_alpha 90.000000
_cell_angle_beta 79.007558
_cell_angle_gamma 90.000000
_cell_volume 2077.146960
_symmetry_space_group_name_H-M "C 2/M"
_symmetry_group_IT_number 12
_symmetry_cell_setting 'monoclinic'
loop_
_space_group_symop_operation_xyz
x,y,z
-x,y,-z
-x,-y,-z
x,-y,z
1/2+x,1/2+y,z
1/2-x,1/2+y,-z
1/2-x,1/2-y,-z
1/2+x,1/2-y,z
loop_
_atom_site_type_symbol
_atom_site_label
_atom_site_fract_x
_atom_site_fract_y
_atom_site_fract_z
Si Si1 0.401746 0.313100 0.616200
Si Si2 0.340981 0.812466 0.454414
Si Si3 0.662778 0.684739 0.051995
Si Si4 0.543980 0.813685 0.217735
Si Si5 0.779574 0.689589 0.283347
Si Si6 0.100106 0.310493 0.889156
O O1 0.403676 0.500000 0.614044
O O2 0.404074 0.254815 0.513634
O O3 0.461319 0.253035 0.681174
O O4 0.311258 0.256652 0.670655
O O5 0.250000 0.750000 0.500000
O O6 0.343049 0.768345 0.349628
O O7 0.342892 0.000000 0.460257
O O8 0.668990 0.500000 0.062852
O O9 0.600901 0.730245 0.984549
O O10 0.750000 0.750000 0.000000
O O11 0.626657 0.757766 0.149987
O O12 0.471888 0.767322 0.164338
O O13 0.542554 0.000000 0.224964
O O14 0.776015 0.500000 0.283135
O O15 0.816613 0.736066 0.181129
O O16 0.098178 0.500000 0.902219
#
# Coordination Sequence:
#
# PCOD9183552 Si02
#       6
#     8   8   8   8   8   8
#     4  10  19  33  55  81 111 148 191 237 283 334
#     4   9  16  29  51  79 110 143 185 235 285 335
#     4  12  25  41  62  86 113 145 185 231 278 333
#     4  11  23  38  58  84 114 149 187 230 282 338
#     4   8  16  32  55  80 105 141 186 231 278 328
#     4  10  21  39  60  83 114 149 187 231 281 337
#
# _framework density 23.108619999999998
#
# number of rings (size 3 to 8) (size 9 to 14) (size 15 to 20)
#    0.000    2.000    0.000    5.500    0.000    4.667 
#    0.000    5.000    0.000    5.000    0.000    0.000 
#    0.000    0.000    0.000    0.000    0.000    0.000 
#
# Total GULP energy -134162.402545 kJ/mol
# GULP energy per Si atom -5590.100106 kJ/mol
# Density = 2.305602 g / cm^3
# Si number density = 23.108620 Si / 1000 Ang^3
#
#
#
# Elastic Constant Matrix: (Units=GPa)
#
#
# Indices 1 2 3 4 5 6 
#
# 1 75.7586 6.8075 6.7166 0.0000 20.5371 0.0000
# 2 6.8075 41.0714 17.3056 0.0000 20.6683 0.0000
# 3 6.7166 17.3056 136.4033 0.0000 27.6125 0.0000
# 4 0.0000 0.0000 0.0000 34.7924 0.0000 12.6519
# 5 20.5371 20.6683 27.6125 0.0000 41.1428 0.0000
# 6 0.0000 0.0000 0.0000 12.6519 0.0000 15.5168
#
#
#
# Elastic Compliance Matrix: (Units=1/GPa)
#
#
# Indices 1 2 3 4 5 6 
#
# 1 0.015450 0.001669 0.000878 0.000000 -0.009139 0.000000
# 2 0.001669 0.032872 -0.000858 0.000000 -0.016771 0.000000
# 3 0.000878 -0.000858 0.008561 0.000000 -0.005753 0.000000
# 4 0.000000 0.000000 0.000000 0.040856 0.000000 -0.033312
# 5 -0.009139 -0.016771 -0.005753 0.000000 0.041154 0.000000
# 6 0.000000 0.000000 0.000000 -0.033312 0.000000 0.091608
#
#
# Mechanical properties :
#
#
# Convention : Reuss Voigt Hill
#
# Bulk Modulus (GPa) = 16.59474 34.98806 25.79140
# Shear Modulus (GPa) = 20.22568 33.11731 26.67150
#
# Velocity S-wave (km/s) = 2.96166 3.78976 3.40101
# Velocity P-wave (km/s) = 4.34650 5.85860 5.15826
#
# Compressibility (1/GPa) = 0.06026005
#
# Stress axis : x y z
#
# Youngs Moduli (GPa) = 64.72674 30.42081 116.80308
#
# Poissons Ratio (x) = -0.05076 -0.10251
# Poissons Ratio (y) = -0.10800 0.10019
# Poissons Ratio (z) = -0.05681 0.02609
#
# Static dielectric constant tensor:
#      x y z
#    x 1.961370 0.000000 0.021580 
#    y 0.000000 1.773670 0.000000 
#    z 0.021580 0.000000 1.861620 
# 
# From -- ./inp_files/221624.got.cif
#   From: 2010.05.17/outbox.cif.g08.bks.cpg/sg12_111_cif.got.tgz:221624.got - 2010.06.03 13:09:07.
