data_PCOD9183295
_publ_section_title
;
Structure prediction by ZEFSAII (Michael W. Deem and Ramdas Pophale) SiO2 
 PCOD9183295
Probable space group: C 2/M
;
_chemical_formula_sum "Si O2"
_cell_formula_units_Z 36
_cell_length_a 26.386037
_cell_length_b 7.687792
_cell_length_c 15.390190
_cell_angle_alpha 90.000000
_cell_angle_beta 45.911407
_cell_angle_gamma 90.000000
_cell_volume 2242.355036
_symmetry_space_group_name_H-M "C 2/M"
_symmetry_group_IT_number 12
_symmetry_cell_setting 'monoclinic'
loop_
_space_group_symop_operation_xyz
x,y,z
-x,y,-z
-x,-y,-z
x,-y,z
1/2+x,1/2+y,z
1/2-x,1/2+y,-z
1/2-x,1/2-y,-z
1/2+x,1/2-y,z
loop_
_atom_site_type_symbol
_atom_site_label
_atom_site_fract_x
_atom_site_fract_y
_atom_site_fract_z
Si Si1 0.428281 0.000000 0.526401
Si Si2 0.374863 0.699954 0.844964
Si Si3 0.553867 0.000000 0.014769
Si Si4 0.176029 0.797063 0.285593
Si Si5 0.166360 0.202755 0.911170
Si Si6 0.514784 0.000000 0.258689
O O1 0.500000 0.000000 0.500000
O O2 0.381164 0.831757 0.605200
O O3 0.448037 0.000000 0.401136
O O4 0.399167 0.500000 0.815065
O O5 0.330957 0.729242 0.810188
O O6 0.439451 0.831946 0.769693
O O7 0.333444 0.727429 0.984190
O O8 0.512396 0.000000 0.156843
O O9 0.500000 0.000000 0.000000
O O10 0.605622 0.167520 0.951192
O O11 0.256095 0.750700 0.215392
O O12 0.161981 0.000000 0.320803
O O13 0.151194 0.000000 0.911764
#
# Coordination Sequence:
#
# PCOD9183295 Si02
#       6
#     4   8   4   8   8   4
#     4  12  22  34  50  76 119 155 181 205 251 328
#     4   9  18  29  48  77 112 144 177 213 257 315
#     4  10  22  40  62  82 103 132 177 240 284 313
#     4  11  20  31  50  79 112 153 179 213 253 311
#     4  10  19  33  54  82 109 136 178 224 275 324
#     4  10  20  36  52  76 112 147 175 214 270 315
#
# _framework density 16.054551
#
# number of rings (size 3 to 8) (size 9 to 14) (size 15 to 20)
#    0.000    1.778    4.444    0.667    0.000    1.778 
#    0.000    0.000    0.000    1.333    0.000    0.000 
#    0.000    0.000    0.000    0.000    0.000    0.000 
#
# Total GULP energy -100366.056470 kJ/mol
# GULP energy per Si atom -5575.892026 kJ/mol
# Density = 1.601801 g / cm^3
# Si number density = 16.054551 Si / 1000 Ang^3
#
#
#
# Elastic Constant Matrix: (Units=GPa)
#
#
# Indices 1 2 3 4 5 6 
#
# 1 95.9405 58.5028 50.7260 0.0002 -5.9732 0.0000
# 2 58.5028 96.8544 75.7722 -0.0020 -11.4238 0.0004
# 3 50.7260 75.7722 108.8199 -0.0015 -16.0628 0.0005
# 4 0.0002 -0.0020 -0.0015 20.7226 0.0000 -5.8259
# 5 -5.9732 -11.4238 -16.0628 0.0000 9.8425 0.0000
# 6 0.0000 0.0004 0.0005 -5.8259 0.0000 8.7806
#
#
#
# Elastic Compliance Matrix: (Units=1/GPa)
#
#
# Indices 1 2 3 4 5 6 
#
# 1 0.016737 -0.008819 -0.002203 -0.000001 -0.003675 0.000000
# 2 -0.008819 0.027330 -0.014526 0.000002 0.002663 0.000001
# 3 -0.002203 -0.014526 0.023245 0.000000 0.019738 -0.000001
# 4 -0.000001 0.000002 0.000000 0.059322 0.000002 0.039360
# 5 -0.003675 0.002663 0.019738 0.000002 0.134673 -0.000001
# 6 0.000000 0.000001 -0.000001 0.039360 -0.000001 0.140003
#
#
# Mechanical properties :
#
#
# Convention : Reuss Voigt Hill
#
# Bulk Modulus (GPa) = 61.67374 74.62408 68.14891
# Shear Modulus (GPa) = 10.92150 15.64338 13.28244
#
# Velocity S-wave (km/s) = 2.61104 3.12491 2.87946
# Velocity P-wave (km/s) = 6.89844 7.72027 7.32090
#
# Compressibility (1/GPa) = 0.01621436
#
# Stress axis : x y z
#
# Youngs Moduli (GPa) = 59.74699 36.58953 43.02047
#
# Poissons Ratio (x) = 0.32270 0.09479
# Poissons Ratio (y) = 0.52693 0.62492
# Poissons Ratio (z) = 0.13165 0.53150
#
# Static dielectric constant tensor:
#      x y z
#    x 1.506630 0.000000 0.011760 
#    y 0.000000 1.546430 0.000000 
#    z 0.011760 0.000000 1.546070 
# 
# From -- ./inp_files/171842.got.cif
#   From: 2010.05.17/outbox.cif.g08.bks.cpg/sg12_86_cif.got.tgz:171842.got - 2010.06.03 13:09:07.
