data_PCOD9183528
_publ_section_title
;
Structure prediction by ZEFSAII (Michael W. Deem and Ramdas Pophale) SiO2 
 PCOD9183528
Probable space group: C 2/M
;
_chemical_formula_sum "Si O2"
_cell_formula_units_Z 40
_cell_length_a 18.670513
_cell_length_b 14.637579
_cell_length_c 12.708487
_cell_angle_alpha 90.000000
_cell_angle_beta 138.928978
_cell_angle_gamma 90.000000
_cell_volume 2281.816839
_symmetry_space_group_name_H-M "C 2/M"
_symmetry_group_IT_number 12
_symmetry_cell_setting 'monoclinic'
loop_
_space_group_symop_operation_xyz
x,y,z
-x,y,-z
-x,-y,-z
x,-y,z
1/2+x,1/2+y,z
1/2-x,1/2+y,-z
1/2-x,1/2-y,-z
1/2+x,1/2-y,z
loop_
_atom_site_type_symbol
_atom_site_label
_atom_site_fract_x
_atom_site_fract_y
_atom_site_fract_z
Si Si1 0.739125 0.107304 0.413022
Si Si2 0.894933 0.726336 0.576433
Si Si3 0.631176 0.900073 0.641885
Si Si4 0.895003 0.393669 0.941661
Si Si5 0.644636 0.187632 0.874126
O O1 0.840906 0.175719 0.539476
O O2 0.643838 0.153101 0.378334
O O3 0.701541 0.112137 0.249977
O O4 0.755148 0.000000 0.456878
O O5 0.025920 0.731852 0.717137
O O6 0.847130 0.681657 0.415840
O O7 0.500000 0.905326 0.500000
O O8 0.666204 0.879323 0.799534
O O9 0.672011 0.000000 0.651533
O O10 0.920741 0.500000 0.988096
O O11 0.869617 0.354805 0.026797
O O12 0.000000 0.350707 0.000000
O O13 0.750000 0.250000 0.000000
#
# Coordination Sequence:
#
# PCOD9183528 Si02
#       5
#     8   8   8   8   8
#     4  10  20  35  57  80 107 141 185 231 273 325
#     4  10  20  35  55  80 108 145 182 225 276 326
#     4   9  18  32  53  77 105 139 180 224 267 317
#     4  10  19  33  55  81 107 139 184 231 271 316
#     4  11  21  34  53  81 115 145 178 225 276 330
#
# _framework density 17.529892
#
# number of rings (size 3 to 8) (size 9 to 14) (size 15 to 20)
#    0.000    2.000    2.000    2.400    0.000    1.600 
#    0.000    2.000    0.000    7.800    0.000    7.000 
#    0.000    0.000    0.000    0.000    0.000    0.000 
#
# Total GULP energy -111373.881657 kJ/mol
# GULP energy per Si atom -5568.694083 kJ/mol
# Density = 1.748999 g / cm^3
# Si number density = 17.529892 Si / 1000 Ang^3
#
#
#
# Elastic Constant Matrix: (Units=GPa)
#
#
# Indices 1 2 3 4 5 6 
#
# 1 76.1690 41.2133 42.1950 0.0000 -10.1247 0.0000
# 2 41.2133 115.4397 42.5028 0.0000 5.5973 0.0000
# 3 42.1950 42.5028 66.5483 0.0000 -15.1073 0.0000
# 4 0.0000 0.0000 0.0000 14.2314 0.0000 -6.9562
# 5 -10.1247 5.5973 -15.1073 0.0000 39.8634 0.0000
# 6 0.0000 0.0000 0.0000 -6.9562 0.0000 24.6002
#
#
#
# Elastic Compliance Matrix: (Units=1/GPa)
#
#
# Indices 1 2 3 4 5 6 
#
# 1 0.021348 -0.003777 -0.010692 0.000000 0.001900 0.000000
# 2 -0.003777 0.012876 -0.007065 0.000000 -0.005445 0.000000
# 3 -0.010692 -0.007065 0.028367 0.000000 0.009027 0.000000
# 4 0.000000 0.000000 0.000000 0.081537 0.000000 0.023056
# 5 0.001900 -0.005445 0.009027 0.000000 0.029754 0.000000
# 6 0.000000 0.000000 0.000000 0.023056 0.000000 0.047170
#
#
# Mechanical properties :
#
#
# Convention : Reuss Voigt Hill
#
# Bulk Modulus (GPa) = 51.21987 56.66435 53.94211
# Shear Modulus (GPa) = 18.47558 24.55541 21.51549
#
# Velocity S-wave (km/s) = 3.24998 3.74675 3.50717
# Velocity P-wave (km/s) = 6.58522 7.14927 6.87304
#
# Compressibility (1/GPa) = 0.01952367
#
# Stress axis : x y z
#
# Youngs Moduli (GPa) = 46.84297 77.66318 35.25189
#
# Poissons Ratio (x) = 0.29333 0.37691
# Poissons Ratio (y) = 0.17693 0.24905
# Poissons Ratio (z) = 0.50084 0.54868
#
# Static dielectric constant tensor:
#      x y z
#    x 1.655600 0.000000 -0.017540 
#    y 0.000000 1.605940 0.000000 
#    z -0.017540 0.000000 1.615980 
# 
# From -- ./inp_files/166931.got.cif
#   From: 2010.05.17/outbox.cif.g08.bks.cpg/sg12_84_cif.got.tgz:166931.got - 2010.06.03 13:09:07.
