data_PCOD9183969
_publ_section_title
;
Structure prediction by ZEFSAII (Michael W. Deem and Ramdas Pophale) SiO2 
 PCOD9183969
Probable space group: C 2/M
;
_chemical_formula_sum "Si O2"
_cell_formula_units_Z 64
_cell_length_a 33.213282
_cell_length_b 8.741913
_cell_length_c 12.517659
_cell_angle_alpha 90.000000
_cell_angle_beta 90.763329
_cell_angle_gamma 90.000000
_cell_volume 3634.149980
_symmetry_space_group_name_H-M "C 2/M"
_symmetry_group_IT_number 12
_symmetry_cell_setting 'monoclinic'
loop_
_space_group_symop_operation_xyz
x,y,z
-x,y,-z
-x,-y,-z
x,-y,z
1/2+x,1/2+y,z
1/2-x,1/2+y,-z
1/2-x,1/2-y,-z
1/2+x,1/2-y,z
loop_
_atom_site_type_symbol
_atom_site_label
_atom_site_fract_x
_atom_site_fract_y
_atom_site_fract_z
Si Si1 0.015540 0.682843 0.881409
Si Si2 0.115237 0.316117 0.410492
Si Si3 0.853961 0.316317 0.357340
Si Si4 0.688464 0.816703 0.255040
Si Si5 0.265321 0.684350 0.387805
Si Si6 0.060086 0.182988 0.235224
Si Si7 0.396072 0.683790 0.150097
Si Si8 0.366558 0.683650 0.919029
O O1 0.020104 0.500000 0.875871
O O2 0.058034 0.761971 0.861050
O O3 0.981556 0.739050 0.798150
O O4 0.000000 0.723091 0.000000
O O5 0.110490 0.500000 0.403329
O O6 0.122116 0.273393 0.533461
O O7 0.155751 0.275082 0.345550
O O8 0.078484 0.236520 0.348399
O O9 0.851230 0.500000 0.355160
O O10 0.809313 0.247496 0.364102
O O11 0.876197 0.255398 0.253765
O O12 0.732346 0.769690 0.297416
O O13 0.671836 0.747814 0.144865
O O14 0.688022 0.000000 0.246166
O O15 0.266006 0.500000 0.393604
O O16 0.250000 0.750000 0.500000
O O17 0.093861 0.229665 0.148139
O O18 0.056000 0.000000 0.231926
O O19 0.394766 0.500000 0.156388
O O20 0.372653 0.732304 0.041158
O O21 0.364854 0.500000 0.916159
#
# Coordination Sequence:
#
# PCOD9183969 Si02
#       8
#     8   8   8   8   8   8   8   8
#     4  11  22  36  58  87 115 149 192 234 280 336
#     4   9  18  35  55  80 115 149 184 231 283 335
#     4  11  23  40  59  84 117 154 193 234 285 343
#     4   9  18  33  55  83 113 144 185 234 282 331
#     4  11  21  36  58  87 117 150 192 239 286 335
#     4  10  19  33  56  86 115 145 185 235 284 333
#     4  11  23  40  59  83 117 153 189 234 286 340
#     4   9  19  34  54  82 114 147 185 230 284 336
#
# _framework density 17.610720000000001
#
# number of rings (size 3 to 8) (size 9 to 14) (size 15 to 20)
#    0.000    1.875    2.500    1.875    0.000    4.000 
#    0.000    1.250    0.000    3.750    0.000    0.000 
#    0.000    0.000    0.000    0.000    0.000    0.000 
#
# Total GULP energy -178667.919100 kJ/mol
# GULP energy per Si atom -5583.372472 kJ/mol
# Density = 1.757064 g / cm^3
# Si number density = 17.610720 Si / 1000 Ang^3
#
#
#
# Elastic Constant Matrix: (Units=GPa)
#
#
# Indices 1 2 3 4 5 6 
#
# 1 106.0608 35.9686 79.5190 0.0000 17.2420 0.0000
# 2 35.9686 41.5805 44.3159 0.0000 5.3157 0.0000
# 3 79.5190 44.3159 152.9306 0.0000 19.7689 0.0000
# 4 0.0000 0.0000 0.0000 28.8192 0.0000 2.1849
# 5 17.2420 5.3157 19.7689 0.0000 33.8392 0.0000
# 6 0.0000 0.0000 0.0000 2.1849 0.0000 32.2312
#
#
#
# Elastic Compliance Matrix: (Units=1/GPa)
#
#
# Indices 1 2 3 4 5 6 
#
# 1 0.017462 -0.007911 -0.006271 0.000000 -0.003991 0.000000
# 2 -0.007911 0.038387 -0.007303 0.000000 0.002267 0.000000
# 3 -0.006271 -0.007303 0.012282 0.000000 -0.002833 0.000000
# 4 0.000000 0.000000 0.000000 0.034878 0.000000 -0.002364
# 5 -0.003991 0.002267 -0.002833 0.000000 0.032884 0.000000
# 6 0.000000 0.000000 0.000000 -0.002364 0.000000 0.031186
#
#
# Mechanical properties :
#
#
# Convention : Reuss Voigt Hill
#
# Bulk Modulus (GPa) = 39.74587 68.90877 54.32732
# Shear Modulus (GPa) = 22.88975 28.36248 25.62611
#
# Velocity S-wave (km/s) = 3.60913 4.01749 3.81877
# Velocity P-wave (km/s) = 6.32344 7.79321 7.09648
#
# Compressibility (1/GPa) = 0.02515985
#
# Stress axis : x y z
#
# Youngs Moduli (GPa) = 57.26608 26.05043 81.41776
#
# Poissons Ratio (x) = 0.20609 0.51061
# Poissons Ratio (y) = 0.45305 0.59461
# Poissons Ratio (z) = 0.35914 0.19025
#
# Static dielectric constant tensor:
#      x y z
#    x 1.577120 0.000000 0.014380 
#    y 0.000000 1.590010 0.000000 
#    z 0.014380 0.000000 1.593310 
# 
# From -- ./inp_files/187540.got.cif
#   From: 2010.05.17/outbox.cif.g08.bks.cpg/sg12_94_cif.got.tgz:187540.got - 2010.06.03 13:09:07.
