data_PCOD9183625
_publ_section_title
;
Structure prediction by ZEFSAII (Michael W. Deem and Ramdas Pophale) SiO2 
 PCOD9183625
Probable space group: C 2/M
;
_chemical_formula_sum "Si O2"
_cell_formula_units_Z 56
_cell_length_a 19.274570
_cell_length_b 13.913832
_cell_length_c 14.404245
_cell_angle_alpha 90.000000
_cell_angle_beta 126.608465
_cell_angle_gamma 90.000000
_cell_volume 3100.923918
_symmetry_space_group_name_H-M "C 2/M"
_symmetry_group_IT_number 12
_symmetry_cell_setting 'monoclinic'
loop_
_space_group_symop_operation_xyz
x,y,z
-x,y,-z
-x,-y,-z
x,-y,z
1/2+x,1/2+y,z
1/2-x,1/2+y,-z
1/2-x,1/2-y,-z
1/2+x,1/2-y,z
loop_
_atom_site_type_symbol
_atom_site_label
_atom_site_fract_x
_atom_site_fract_y
_atom_site_fract_z
Si Si1 0.426497 0.240535 0.222358
Si Si2 0.346036 0.607657 0.046513
Si Si3 0.796682 0.197903 0.678976
Si Si4 0.763356 0.109235 0.453334
Si Si5 0.992065 0.787513 0.888600
Si Si6 0.964871 0.107676 0.576023
Si Si7 0.198666 0.387737 0.773039
O O1 0.347993 0.310851 0.127019
O O2 0.474041 0.213890 0.163782
O O3 0.492391 0.309696 0.328809
O O4 0.388526 0.157272 0.254792
O O5 0.341636 0.500000 0.080705
O O6 0.438201 0.626661 0.069416
O O7 0.270611 0.619583 0.911678
O O8 0.769800 0.136835 0.567121
O O9 0.789378 0.308971 0.642121
O O10 0.895384 0.179773 0.788123
O O11 0.733775 0.170942 0.713072
O O12 0.861830 0.116055 0.495548
O O13 0.732738 0.000000 0.416889
O O14 0.000000 0.752096 0.000000
O O15 0.000000 0.114982 0.500000
O O16 0.986383 0.000000 0.629063
O O17 0.189453 0.500000 0.741804
#
# Coordination Sequence:
#
# PCOD9183625 Si02
#       7
#     8   8   8   8   8   8   8
#     4  10  20  35  54  79 117 153 182 238 291 348
#     4   9  19  32  55  84 111 145 187 238 294 344
#     4  11  20  37  60  86 116 155 195 245 294 341
#     4  10  21  36  58  85 115 151 195 247 296 343
#     4  10  20  35  59  88 118 152 189 240 295 349
#     4  10  19  33  55  83 110 142 186 240 296 341
#     4  11  22  36  56  84 117 155 194 235 288 351
#
# _framework density 18.059135000000001
#
# number of rings (size 3 to 8) (size 9 to 14) (size 15 to 20)
#    0.857    1.000    2.857    2.143    0.000    1.429 
#    0.000    1.429    0.000    5.571    0.000    0.000 
#    0.000    0.000    0.000    0.000    0.000    0.000 
#
# Total GULP energy -156014.658243 kJ/mol
# GULP energy per Si atom -5571.952080 kJ/mol
# Density = 1.801803 g / cm^3
# Si number density = 18.059135 Si / 1000 Ang^3
#
#
#
# Elastic Constant Matrix: (Units=GPa)
#
#
# Indices 1 2 3 4 5 6 
#
# 1 52.1733 7.8090 -0.8818 0.0000 -12.1084 0.0000
# 2 7.8090 73.9727 10.6217 0.0000 3.1804 0.0000
# 3 -0.8818 10.6217 30.5423 0.0000 2.7049 0.0000
# 4 0.0000 0.0000 0.0000 12.1408 0.0000 7.0416
# 5 -12.1084 3.1804 2.7049 0.0000 22.6453 0.0000
# 6 0.0000 0.0000 0.0000 7.0416 0.0000 67.0665
#
#
#
# Elastic Compliance Matrix: (Units=1/GPa)
#
#
# Indices 1 2 3 4 5 6 
#
# 1 0.022498 -0.002992 0.000594 0.000000 0.012379 0.000000
# 2 -0.002992 0.014673 -0.004917 0.000000 -0.003073 0.000000
# 3 0.000594 -0.004917 0.034747 0.000000 -0.003142 0.000000
# 4 0.000000 0.000000 0.000000 0.087708 0.000000 -0.009209
# 5 0.012379 -0.003073 -0.003142 0.000000 0.051585 0.000000
# 6 0.000000 0.000000 0.000000 -0.009209 0.000000 0.015877
#
#
# Mechanical properties :
#
#
# Convention : Reuss Voigt Hill
#
# Bulk Modulus (GPa) = 17.45619 21.30956 19.38287
# Shear Modulus (GPa) = 19.17076 29.64648 24.40862
#
# Velocity S-wave (km/s) = 3.26169 4.05610 3.68039
# Velocity P-wave (km/s) = 4.88589 5.81046 5.36812
#
# Compressibility (1/GPa) = 0.05728628
#
# Stress axis : x y z
#
# Youngs Moduli (GPa) = 44.44894 68.15441 28.77962
#
# Poissons Ratio (x) = 0.20395 -0.01709
# Poissons Ratio (y) = 0.13301 0.14151
# Poissons Ratio (z) = -0.02640 0.33511
#
# Static dielectric constant tensor:
#      x y z
#    x 1.616170 0.000000 -0.009470 
#    y 0.000000 1.617390 0.000000 
#    z -0.009470 0.000000 1.625620 
# 
# From -- ./inp_files/156702.got.cif
#   From: 2010.05.17/outbox.cif.g08.bks.cpg/sg12_79_cif.got.tgz:156702.got - 2010.06.03 13:09:07.
