data_PCOD9183840
_publ_section_title
;
Structure prediction by ZEFSAII (Michael W. Deem and Ramdas Pophale) SiO2 
 PCOD9183840
Probable space group: C 2/M
;
_chemical_formula_sum "Si O2"
_cell_formula_units_Z 48
_cell_length_a 19.844155
_cell_length_b 14.175006
_cell_length_c 11.195856
_cell_angle_alpha 90.000000
_cell_angle_beta 128.866524
_cell_angle_gamma 90.000000
_cell_volume 2452.071304
_symmetry_space_group_name_H-M "C 2/M"
_symmetry_group_IT_number 12
_symmetry_cell_setting 'monoclinic'
loop_
_space_group_symop_operation_xyz
x,y,z
-x,y,-z
-x,-y,-z
x,-y,z
1/2+x,1/2+y,z
1/2-x,1/2+y,-z
1/2-x,1/2-y,-z
1/2+x,1/2-y,z
loop_
_atom_site_type_symbol
_atom_site_label
_atom_site_fract_x
_atom_site_fract_y
_atom_site_fract_z
Si Si1 0.533466 0.388158 0.403118
Si Si2 0.370047 0.302510 0.102701
Si Si3 0.135781 0.399856 0.206166
Si Si4 0.700057 0.894683 0.004473
Si Si5 0.903053 0.186429 0.868542
Si Si6 0.204042 0.848708 0.471544
O O1 0.500000 0.375712 0.500000
O O2 0.535391 0.500000 0.379022
O O3 0.465217 0.335861 0.242812
O O4 0.629053 0.348670 0.487401
O O5 0.299506 0.364696 0.094141
O O6 0.353846 0.192028 0.111319
O O7 0.356836 0.314728 0.945828
O O8 0.086300 0.500000 0.164301
O O9 0.175623 0.397406 0.117042
O O10 0.090439 0.297188 0.167452
O O11 0.215043 0.404469 0.386786
O O12 0.684686 0.000000 0.939141
O O13 0.848147 0.130222 0.708604
O O14 0.000000 0.151047 0.000000
O O15 0.250000 0.750000 0.500000
#
# Coordination Sequence:
#
# PCOD9183840 Si02
#       6
#     8   8   8   8   8   8
#     4  11  22  36  59  87 113 145 195 249 291 334
#     4  10  19  33  56  82 109 147 184 230 288 340
#     4   9  18  33  55  79 104 138 183 233 275 322
#     4   9  18  34  56  82 111 142 185 233 283 341
#     4  10  19  34  52  76 110 144 182 221 277 341
#     4  10  20  35  55  77 116 153 183 227 282 348
#
# _framework density 19.575288
#
# number of rings (size 3 to 8) (size 9 to 14) (size 15 to 20)
#    0.000    2.167    1.667    2.000    0.000    4.333 
#    0.000    4.167    0.000    0.500    0.000    0.000 
#    0.000    0.000    0.000    0.000    0.000    0.000 
#
# Total GULP energy -133713.188483 kJ/mol
# GULP energy per Si atom -5571.382853 kJ/mol
# Density = 1.953073 g / cm^3
# Si number density = 19.575288 Si / 1000 Ang^3
#
#
#
# Elastic Constant Matrix: (Units=GPa)
#
#
# Indices 1 2 3 4 5 6 
#
# 1 31.9806 29.0600 8.2503 0.0000 5.9213 0.0000
# 2 29.0600 82.1883 12.8871 0.0000 -1.7977 0.0000
# 3 8.2503 12.8871 90.5027 0.0000 14.5845 0.0000
# 4 0.0000 0.0000 0.0000 9.5649 0.0000 -4.9203
# 5 5.9213 -1.7977 14.5845 0.0000 26.1258 0.0000
# 6 0.0000 0.0000 0.0000 -4.9203 0.0000 9.0458
#
#
#
# Elastic Compliance Matrix: (Units=1/GPa)
#
#
# Indices 1 2 3 4 5 6 
#
# 1 0.049857 -0.017907 0.000027 0.000000 -0.012547 0.000000
# 2 -0.017907 0.018975 -0.002125 0.000000 0.006551 0.000000
# 3 0.000027 -0.002125 0.012498 0.000000 -0.007129 0.000000
# 4 0.000000 0.000000 0.000000 0.145166 0.000000 0.078960
# 5 -0.012547 0.006551 -0.007129 0.000000 0.045551 0.000000
# 6 0.000000 0.000000 0.000000 0.078960 0.000000 0.153497
#
#
# Mechanical properties :
#
#
# Convention : Reuss Voigt Hill
#
# Bulk Modulus (GPa) = 24.20144 33.89625 29.04884
# Shear Modulus (GPa) = 10.43127 19.24558 14.83842
#
# Velocity S-wave (km/s) = 2.31092 3.13893 2.75620
# Velocity P-wave (km/s) = 4.41708 5.52183 5.00006
#
# Compressibility (1/GPa) = 0.04131986
#
# Stress axis : x y z
#
# Youngs Moduli (GPa) = 20.05749 52.70053 80.00974
#
# Poissons Ratio (x) = 0.94370 -0.00214
# Poissons Ratio (y) = 0.35917 0.17003
# Poissons Ratio (z) = -0.00054 0.11200
#
# Static dielectric constant tensor:
#      x y z
#    x 1.688490 0.000000 -0.009670 
#    y 0.000000 1.729840 0.000000 
#    z -0.009670 0.000000 1.687650 
# 
# From -- ./inp_files/166858.got.cif
#   From: 2010.05.17/outbox.cif.g08.bks.cpg/sg12_84_cif.got.tgz:166858.got - 2010.06.03 13:09:07.
