data_PCOD9183416
_publ_section_title
;
Structure prediction by ZEFSAII (Michael W. Deem and Ramdas Pophale) SiO2 
 PCOD9183416
Probable space group: C 2/M
;
_chemical_formula_sum "Si O2"
_cell_formula_units_Z 64
_cell_length_a 25.783893
_cell_length_b 18.287581
_cell_length_c 20.422681
_cell_angle_alpha 90.000000
_cell_angle_beta 161.486167
_cell_angle_gamma 90.000000
_cell_volume 3057.786768
_symmetry_space_group_name_H-M "C 2/M"
_symmetry_group_IT_number 12
_symmetry_cell_setting 'monoclinic'
loop_
_space_group_symop_operation_xyz
x,y,z
-x,y,-z
-x,-y,-z
x,-y,z
1/2+x,1/2+y,z
1/2-x,1/2+y,-z
1/2-x,1/2-y,-z
1/2+x,1/2-y,z
loop_
_atom_site_type_symbol
_atom_site_label
_atom_site_fract_x
_atom_site_fract_y
_atom_site_fract_z
Si Si1 0.464333 0.688945 0.762498
Si Si2 0.852118 0.419008 0.769531
Si Si3 0.853352 0.691894 0.533040
Si Si4 0.876540 0.583269 0.086578
Si Si5 0.103436 0.320932 0.005859
Si Si6 0.490322 0.197087 0.410471
Si Si7 0.906933 0.147859 0.451478
Si Si8 0.777496 0.083825 0.965397
O O1 0.316850 0.679128 0.635756
O O2 0.413099 0.730078 0.634138
O O3 0.581866 0.746935 0.939900
O O4 0.549361 0.612885 0.850098
O O5 0.845472 0.500000 0.729955
O O6 0.677824 0.402427 0.595146
O O7 0.000000 0.423775 0.000000
O O8 0.924846 0.352063 0.813760
O O9 0.862333 0.684659 0.465485
O O10 0.978572 0.633104 0.712499
O O11 0.928610 0.500000 0.144229
O O12 0.735651 0.588184 0.971879
O O13 0.831737 0.614866 0.963211
O O14 0.239455 0.312846 0.224159
O O15 0.500000 0.183515 0.500000
O O16 0.475148 0.285407 0.385660
O O17 0.351580 0.142653 0.217454
O O18 0.000000 0.113155 0.500000
O O19 0.741246 0.000000 0.903083
#
# Coordination Sequence:
#
# PCOD9183416 Si02
#       8
#     8   8   8   8   8   8   8   8
#     4  10  19  35  57  83 111 138 179 234 280 326
#     4   9  18  32  49  72 106 144 179 217 262 316
#     4   9  20  34  56  83 108 140 180 224 276 328
#     4   9  19  36  56  78 105 140 180 223 273 329
#     4  10  19  33  55  78 104 144 186 221 268 326
#     4  10  20  36  56  80 112 149 188 227 270 329
#     4  10  20  32  51  78 108 146 188 224 264 315
#     4  10  22  38  57  82 110 142 182 231 286 333
#
# _framework density 20.93017
#
# number of rings (size 3 to 8) (size 9 to 14) (size 15 to 20)
#    0.000    2.375    0.000    2.625    0.000    8.000 
#    0.000    1.875    0.000    6.000    0.000    0.000 
#    0.000    0.000    0.000    0.000    0.000    0.000 
#
# Total GULP energy -178312.259388 kJ/mol
# GULP energy per Si atom -5572.258106 kJ/mol
# Density = 2.088253 g / cm^3
# Si number density = 20.930170 Si / 1000 Ang^3
#
#
#
# Elastic Constant Matrix: (Units=GPa)
#
#
# Indices 1 2 3 4 5 6 
#
# 1 108.3802 33.9592 27.7226 0.0015 22.4040 0.0000
# 2 33.9592 94.9047 30.7138 0.0040 18.6657 0.0013
# 3 27.7226 30.7138 57.4728 0.0020 20.1719 0.0005
# 4 0.0015 0.0040 0.0020 16.7241 -0.0002 4.4267
# 5 22.4040 18.6657 20.1719 -0.0002 28.4908 -0.0002
# 6 0.0000 0.0013 0.0005 4.4267 -0.0002 24.4578
#
#
#
# Elastic Compliance Matrix: (Units=1/GPa)
#
#
# Indices 1 2 3 4 5 6 
#
# 1 0.011802 -0.002260 -0.002325 0.000000 -0.006153 0.000000
# 2 -0.002260 0.013663 -0.004915 -0.000002 -0.003694 0.000000
# 3 -0.002325 -0.004915 0.025783 -0.000002 -0.013206 0.000000
# 4 0.000000 -0.000002 -0.000002 0.062803 0.000004 -0.011367
# 5 -0.006153 -0.003694 -0.013206 0.000004 0.051708 0.000000
# 6 0.000000 0.000000 0.000000 -0.011367 0.000000 0.042944
#
#
# Mechanical properties :
#
#
# Convention : Reuss Voigt Hill
#
# Bulk Modulus (GPa) = 31.01041 49.50544 40.25792
# Shear Modulus (GPa) = 20.96867 25.15870 23.06369
#
# Velocity S-wave (km/s) = 3.16862 3.47079 3.32314
# Velocity P-wave (km/s) = 5.31368 6.30602 5.83100
#
# Compressibility (1/GPa) = 0.03224724
#
# Stress axis : x y z
#
# Youngs Moduli (GPa) = 84.73340 73.19191 38.78577
#
# Poissons Ratio (x) = 0.16543 0.09018
# Poissons Ratio (y) = 0.19152 0.19062
# Poissons Ratio (z) = 0.19701 0.35971
#
# Static dielectric constant tensor:
#      x y z
#    x 1.809720 0.000000 0.018110 
#    y 0.000000 1.735590 0.000000 
#    z 0.018110 0.000000 1.810660 
# 
# From -- ./inp_files/326116.got.cif
#   From: 2010.05.17/outbox.cif.g08.bks.cpg/sg12_164_cif.got.tgz:326116.got - 2010.06.03 13:09:07.
