data_PCOD9183319
_publ_section_title
;
Structure prediction by ZEFSAII (Michael W. Deem and Ramdas Pophale) SiO2 
 PCOD9183319
Probable space group: C 2/M
;
_chemical_formula_sum "Si O2"
_cell_formula_units_Z 64
_cell_length_a 30.542063
_cell_length_b 7.897760
_cell_length_c 18.652505
_cell_angle_alpha 90.000000
_cell_angle_beta 140.004696
_cell_angle_gamma 90.000000
_cell_volume 2891.775264
_symmetry_space_group_name_H-M "C 2/M"
_symmetry_group_IT_number 12
_symmetry_cell_setting 'monoclinic'
loop_
_space_group_symop_operation_xyz
x,y,z
-x,y,-z
-x,-y,-z
x,-y,z
1/2+x,1/2+y,z
1/2-x,1/2+y,-z
1/2-x,1/2-y,-z
1/2+x,1/2-y,z
loop_
_atom_site_type_symbol
_atom_site_label
_atom_site_fract_x
_atom_site_fract_y
_atom_site_fract_z
Si Si1 0.343273 0.199840 0.469957
Si Si2 0.431137 0.795258 0.873995
Si Si3 0.293258 0.800359 0.777751
Si Si4 0.071055 0.798303 0.295116
Si Si5 0.935057 0.700271 0.460271
Si Si6 0.928177 0.801002 0.174381
Si Si7 0.789061 0.199603 0.934911
Si Si8 0.855606 0.300149 0.218621
O O1 0.271497 0.274332 0.354993
O O2 0.366285 0.227828 0.580071
O O3 0.404201 0.270109 0.495110
O O4 0.338634 0.000000 0.449823
O O5 0.362956 0.736798 0.828985
O O6 0.428348 0.742239 0.787885
O O7 0.431507 0.000000 0.876418
O O8 0.500000 0.735737 0.000000
O O9 0.283099 0.716071 0.842104
O O10 0.300608 0.000000 0.800522
O O11 0.000050 0.728490 0.239289
O O12 0.073028 0.000000 0.306753
O O13 0.951153 0.500000 0.493334
O O14 0.876013 0.713764 0.327017
O O15 0.000000 0.774390 0.500000
O O16 0.911329 0.781070 0.236877
O O17 0.930870 0.000000 0.159660
O O18 0.860949 0.727247 0.051325
O O19 0.720387 0.272677 0.884188
O O20 0.789195 0.000000 0.952978
O O21 0.855962 0.500000 0.202189
#
# Coordination Sequence:
#
# PCOD9183319 Si02
#       8
#     8   8   8   8   8   8   8   8
#     4  11  22  40  64  87 120 163 202 246 299 358
#     4  10  23  44  68  94 122 156 201 246 296 363
#     4  11  23  39  63  93 123 154 196 254 307 356
#     4  11  24  41  61  90 124 156 198 250 304 359
#     4   9  17  31  53  81 112 151 201 248 287 338
#     4  10  22  37  55  84 122 159 197 250 308 356
#     4  10  20  37  58  83 119 161 204 244 294 364
#     4  10  19  33  54  82 115 156 206 248 289 355
#
# _framework density 22.131734000000002
#
# number of rings (size 3 to 8) (size 9 to 14) (size 15 to 20)
#    0.000    1.750    1.250    3.000    0.000    4.750 
#    0.000    0.000    0.000    2.625    0.000    0.000 
#    0.000    0.000    0.000    0.000    0.000    0.000 
#
# Total GULP energy -178801.087799 kJ/mol
# GULP energy per Si atom -5587.533994 kJ/mol
# Density = 2.208136 g / cm^3
# Si number density = 22.131734 Si / 1000 Ang^3
#
#
#
# Elastic Constant Matrix: (Units=GPa)
#
#
# Indices 1 2 3 4 5 6 
#
# 1 92.8434 -12.8900 21.6869 0.0000 4.1274 0.0000
# 2 -12.8900 22.1023 -4.3750 0.0000 7.2715 0.0000
# 3 21.6869 -4.3750 74.6506 0.0000 -3.4556 0.0000
# 4 0.0000 0.0000 0.0000 18.3550 0.0000 -2.8995
# 5 4.1274 7.2715 -3.4556 0.0000 34.3001 0.0000
# 6 0.0000 0.0000 0.0000 -2.8995 0.0000 12.2339
#
#
#
# Elastic Compliance Matrix: (Units=1/GPa)
#
#
# Indices 1 2 3 4 5 6 
#
# 1 0.012840 0.007989 -0.003428 0.000000 -0.003584 0.000000
# 2 0.007989 0.054033 0.000272 0.000000 -0.012389 0.000000
# 3 -0.003428 0.000272 0.014492 0.000000 0.001815 0.000000
# 4 0.000000 0.000000 0.000000 0.056600 0.000000 0.013414
# 5 -0.003584 -0.012389 0.001815 0.000000 0.032395 0.000000
# 6 0.000000 0.000000 0.000000 0.013414 0.000000 0.084919
#
#
# Mechanical properties :
#
#
# Convention : Reuss Voigt Hill
#
# Bulk Modulus (GPa) = 10.98527 22.04889 16.51708
# Shear Modulus (GPa) = 18.11886 25.32278 21.72082
#
# Velocity S-wave (km/s) = 2.86437 3.38625 3.13618
# Velocity P-wave (km/s) = 3.98921 5.02724 4.53800
#
# Compressibility (1/GPa) = 0.09103102
#
# Stress axis : x y z
#
# Youngs Moduli (GPa) = 77.88163 18.50727 69.00570
#
# Poissons Ratio (x) = -0.14785 0.23654
# Poissons Ratio (y) = -0.62218 -0.01879
# Poissons Ratio (z) = 0.26697 -0.00504
#
# Static dielectric constant tensor:
#      x y z
#    x 1.817610 0.000000 0.031580 
#    y 0.000000 1.810460 0.000000 
#    z 0.031580 0.000000 1.826240 
# 
# From -- ./inp_files/295717.got.cif
#   From: 2010.05.17/outbox.cif.g08.bks.cpg/sg12_148_cif.got.tgz:295717.got - 2010.06.03 13:09:07.
