data_PCOD9183959
_publ_section_title
;
Structure prediction by ZEFSAII (Michael W. Deem and Ramdas Pophale) SiO2 
 PCOD9183959
Probable space group: C 2/M
;
_chemical_formula_sum "Si O2"
_cell_formula_units_Z 56
_cell_length_a 30.993236
_cell_length_b 8.250480
_cell_length_c 11.906514
_cell_angle_alpha 90.000000
_cell_angle_beta 115.428954
_cell_angle_gamma 90.000000
_cell_volume 2749.637648
_symmetry_space_group_name_H-M "C 2/M"
_symmetry_group_IT_number 12
_symmetry_cell_setting 'monoclinic'
loop_
_space_group_symop_operation_xyz
x,y,z
-x,y,-z
-x,-y,-z
x,-y,z
1/2+x,1/2+y,z
1/2-x,1/2+y,-z
1/2-x,1/2-y,-z
1/2+x,1/2-y,z
loop_
_atom_site_type_symbol
_atom_site_label
_atom_site_fract_x
_atom_site_fract_y
_atom_site_fract_z
Si Si1 0.761816 0.193348 0.137626
Si Si2 0.304757 0.804391 0.556172
Si Si3 0.831290 0.303911 0.830452
Si Si4 0.149643 0.695324 0.626025
Si Si5 0.456299 0.198304 0.528650
Si Si6 0.932899 0.812018 0.990868
Si Si7 0.526633 0.810189 0.196465
O O1 0.718538 0.250006 0.169896
O O2 0.812732 0.253955 0.238091
O O3 0.762149 0.000000 0.142236
O O4 0.750000 0.250000 0.000000
O O5 0.250000 0.750000 0.500000
O O6 0.330537 0.752089 0.699393
O O7 0.329882 0.745563 0.471062
O O8 0.305673 0.000000 0.555697
O O9 0.833254 0.500000 0.836430
O O10 0.878021 0.237042 0.943434
O O11 0.148969 0.500000 0.621989
O O12 0.095059 0.750072 0.576457
O O13 0.500000 0.253483 0.500000
O O14 0.461466 0.247337 0.664910
O O15 0.457398 0.000000 0.530593
O O16 0.947003 0.778704 0.876503
O O17 0.940160 0.000000 0.024063
O O18 0.970409 0.711246 0.107056
O O19 0.539728 0.000000 0.203029
#
# Coordination Sequence:
#
# PCOD9183959 Si02
#       7
#     8   8   8   8   8   8   8
#     4  11  24  41  60  82 114 154 195 236 282 346
#     4  10  19  33  56  85 116 147 186 236 289 347
#     4  10  21  38  58  83 115 153 194 232 282 352
#     4  10  20  36  60  88 118 149 187 241 294 341
#     4   9  19  36  60  87 113 148 195 240 282 337
#     4  11  22  35  56  86 119 150 189 243 295 340
#     4  10  19  36  60  84 116 155 194 235 287 351
#
# _framework density 20.366320000000002
#
# number of rings (size 3 to 8) (size 9 to 14) (size 15 to 20)
#    0.000    1.857    1.429    3.857    0.000    5.143 
#    0.000    5.714    0.000    3.000    0.000    0.000 
#    0.000    0.000    0.000    0.000    0.000    0.000 
#
# Total GULP energy -156447.465597 kJ/mol
# GULP energy per Si atom -5587.409486 kJ/mol
# Density = 2.031997 g / cm^3
# Si number density = 20.366320 Si / 1000 Ang^3
#
#
#
# Elastic Constant Matrix: (Units=GPa)
#
#
# Indices 1 2 3 4 5 6 
#
# 1 117.4126 6.4710 61.0768 0.0000 28.1116 0.0000
# 2 6.4710 14.6402 1.3402 0.0000 -2.4073 0.0000
# 3 61.0768 1.3402 127.4259 0.0000 13.6730 0.0000
# 4 0.0000 0.0000 0.0000 8.6089 0.0000 6.7314
# 5 28.1116 -2.4073 13.6730 0.0000 33.7486 0.0000
# 6 0.0000 0.0000 0.0000 6.7314 0.0000 23.8081
#
#
#
# Elastic Compliance Matrix: (Units=1/GPa)
#
#
# Indices 1 2 3 4 5 6 
#
# 1 0.014325 -0.007480 -0.005698 0.000000 -0.010158 0.000000
# 2 -0.007480 0.073233 0.001658 0.000000 0.010783 0.000000
# 3 -0.005698 0.001658 0.010495 0.000000 0.000612 0.000000
# 4 0.000000 0.000000 0.000000 0.149128 0.000000 -0.042164
# 5 -0.010158 0.010783 0.000612 0.000000 0.038613 0.000000
# 6 0.000000 0.000000 0.000000 -0.042164 0.000000 0.053924
#
#
# Mechanical properties :
#
#
# Convention : Reuss Voigt Hill
#
# Bulk Modulus (GPa) = 13.33089 44.13942 28.73515
# Shear Modulus (GPa) = 12.89452 25.93916 19.41684
#
# Velocity S-wave (km/s) = 2.51894 3.57267 3.09103
# Velocity P-wave (km/s) = 3.87554 6.22402 5.18451
#
# Compressibility (1/GPa) = 0.07501374
#
# Stress axis : x y z
#
# Youngs Moduli (GPa) = 69.80785 13.65511 95.27895
#
# Poissons Ratio (x) = 0.10214 0.54286
# Poissons Ratio (y) = 0.52219 -0.15799
# Poissons Ratio (z) = 0.39773 -0.02264
#
# Static dielectric constant tensor:
#      x y z
#    x 1.725710 0.000000 0.003080 
#    y 0.000000 1.716040 0.000000 
#    z 0.003080 0.000000 1.701310 
# 
# From -- ./inp_files/187689.got.cif
#   From: 2010.05.17/outbox.cif.g08.bks.cpg/sg12_94_cif.got.tgz:187689.got - 2010.06.03 13:09:07.
