data_PCOD9183441
_publ_section_title
;
Structure prediction by ZEFSAII (Michael W. Deem and Ramdas Pophale) SiO2 
 PCOD9183441
Probable space group: C 2/M
;
_chemical_formula_sum "Si O2"
_cell_formula_units_Z 56
_cell_length_a 18.436089
_cell_length_b 8.937726
_cell_length_c 19.137234
_cell_angle_alpha 90.000000
_cell_angle_beta 76.670476
_cell_angle_gamma 90.000000
_cell_volume 3068.419328
_symmetry_space_group_name_H-M "C 2/M"
_symmetry_group_IT_number 12
_symmetry_cell_setting 'monoclinic'
loop_
_space_group_symop_operation_xyz
x,y,z
-x,y,-z
-x,-y,-z
x,-y,z
1/2+x,1/2+y,z
1/2-x,1/2+y,-z
1/2-x,1/2-y,-z
1/2+x,1/2-y,z
loop_
_atom_site_type_symbol
_atom_site_label
_atom_site_fract_x
_atom_site_fract_y
_atom_site_fract_z
Si Si1 0.742213 0.818069 0.712168
Si Si2 0.374795 0.820563 0.144801
Si Si3 0.412812 0.672223 0.996012
Si Si4 0.022842 0.680047 0.573949
Si Si5 0.410681 0.320358 0.710312
Si Si6 0.544917 0.178049 0.152801
Si Si7 0.306403 0.819291 0.431842
O O1 0.686974 0.768924 0.786172
O O2 0.827061 0.773264 0.707470
O O3 0.714517 0.770029 0.641967
O O4 0.739718 0.000000 0.712859
O O5 0.369320 0.744501 0.070417
O O6 0.457286 0.789992 0.157487
O O7 0.369263 0.000000 0.137286
O O8 0.391718 0.500000 0.990039
O O9 0.500000 0.676399 0.000000
O O10 0.410138 0.762056 0.924360
O O11 0.016258 0.500000 0.583149
O O12 0.108571 0.721197 0.569253
O O13 0.000000 0.719168 0.500000
O O14 0.968867 0.757237 0.641331
O O15 0.413670 0.500000 0.710544
O O16 0.430052 0.257430 0.782169
O O17 0.553081 0.000000 0.157247
O O18 0.250000 0.750000 0.500000
O O19 0.300751 0.000000 0.436021
#
# Coordination Sequence:
#
# PCOD9183441 Si02
#       7
#     8   8   8   8   8   8   8
#     4   9  19  35  53  74 103 139 176 215 260 310
#     4   9  17  33  56  77 100 136 179 217 259 315
#     4   9  17  30  50  79 111 136 167 217 268 312
#     4  10  21  37  57  81 109 140 174 214 261 314
#     4  11  22  35  53  77 106 139 176 219 264 309
#     4  10  19  33  55  79 104 138 178 217 262 317
#     4  10  20  36  57  80 107 139 175 215 259 308
#
# _framework density 18.250437999999999
#
# number of rings (size 3 to 8) (size 9 to 14) (size 15 to 20)
#    0.000    2.286    0.000    3.000    0.000    5.429 
#    0.000    3.571    0.000    0.000    0.000    0.000 
#    0.000    0.000    0.000    0.000    0.000    0.000 
#
# Total GULP energy -156318.428592 kJ/mol
# GULP energy per Si atom -5582.801021 kJ/mol
# Density = 1.820890 g / cm^3
# Si number density = 18.250438 Si / 1000 Ang^3
#
#
#
# Elastic Constant Matrix: (Units=GPa)
#
#
# Indices 1 2 3 4 5 6 
#
# 1 126.8571 51.7617 107.9597 0.0000 -3.5168 0.0000
# 2 51.7617 37.1809 59.2468 0.0000 2.5198 0.0000
# 3 107.9597 59.2468 215.8107 0.0000 -6.2782 0.0000
# 4 0.0000 0.0000 0.0000 36.7191 0.0000 0.4289
# 5 -3.5168 2.5198 -6.2782 0.0000 31.1211 0.0000
# 6 0.0000 0.0000 0.0000 0.4289 0.0000 13.8871
#
#
#
# Elastic Compliance Matrix: (Units=1/GPa)
#
#
# Indices 1 2 3 4 5 6 
#
# 1 0.020550 -0.022410 -0.004031 0.000000 0.003324 0.000000
# 2 -0.022410 0.073618 -0.009301 0.000000 -0.010370 0.000000
# 3 -0.004031 -0.009301 0.009267 0.000000 0.002167 0.000000
# 4 0.000000 0.000000 0.000000 0.027244 0.000000 -0.000841
# 5 0.003324 -0.010370 0.002167 0.000000 0.033785 0.000000
# 6 0.000000 0.000000 0.000000 -0.000841 0.000000 0.072035
#
#
# Mechanical properties :
#
#
# Convention : Reuss Voigt Hill
#
# Bulk Modulus (GPa) = 31.29944 90.86502 61.08223
# Shear Modulus (GPa) = 15.69200 27.07085 21.38143
#
# Velocity S-wave (km/s) = 2.93544 3.85554 3.42651
# Velocity P-wave (km/s) = 5.35502 8.34962 7.01400
#
# Compressibility (1/GPa) = 0.03194945
#
# Stress axis : x y z
#
# Youngs Moduli (GPa) = 48.66275 13.58356 107.91230
#
# Poissons Ratio (x) = 0.30441 0.43499
# Poissons Ratio (y) = 1.09054 1.00374
# Poissons Ratio (z) = 0.19616 0.12635
#
# Static dielectric constant tensor:
#      x y z
#    x 1.613910 0.000000 0.001530 
#    y 0.000000 1.613080 0.000000 
#    z 0.001530 0.000000 1.596850 
# 
# From -- ./inp_files/275340.got.cif
#   From: 2010.05.17/outbox.cif.g08.bks.cpg/sg12_138_cif.got.tgz:275340.got - 2010.06.03 13:09:07.
