data_PCOD9183062
_publ_section_title
;
Structure prediction by ZEFSAII (Michael W. Deem and Ramdas Pophale) SiO2 
 PCOD9183062
Probable space group: C 2/M
;
_chemical_formula_sum "Si O2"
_cell_formula_units_Z 64
_cell_length_a 14.727485
_cell_length_b 7.788755
_cell_length_c 25.795957
_cell_angle_alpha 90.000000
_cell_angle_beta 64.828109
_cell_angle_gamma 90.000000
_cell_volume 2678.021435
_symmetry_space_group_name_H-M "C 2/M"
_symmetry_group_IT_number 12
_symmetry_cell_setting 'monoclinic'
loop_
_space_group_symop_operation_xyz
x,y,z
-x,y,-z
-x,-y,-z
x,-y,z
1/2+x,1/2+y,z
1/2-x,1/2+y,-z
1/2-x,1/2-y,-z
1/2+x,1/2-y,z
loop_
_atom_site_type_symbol
_atom_site_label
_atom_site_fract_x
_atom_site_fract_y
_atom_site_fract_z
Si Si1 0.536105 0.198250 0.361371
Si Si2 0.928058 0.792743 0.090740
Si Si3 0.325053 0.801017 0.299615
Si Si4 0.606265 0.210180 0.452314
Si Si5 0.246601 0.705184 0.790431
Si Si6 0.542849 0.305124 0.244147
Si Si7 0.818372 0.803250 0.418495
Si Si8 0.640148 0.293982 0.006667
O O1 0.603188 0.260788 0.392593
O O2 0.543558 0.304025 0.307059
O O3 0.419519 0.205167 0.408513
O O4 0.557846 0.000000 0.344188
O O5 0.854155 0.736923 0.153747
O O6 0.881814 0.734485 0.046759
O O7 0.928382 0.000000 0.090899
O O8 0.044157 0.734423 0.063867
O O9 0.264607 0.728060 0.265505
O O10 0.442469 0.793967 0.254314
O O11 0.317944 0.701553 0.355270
O O12 0.300247 0.000000 0.315636
O O13 0.500000 0.269135 0.500000
O O14 0.706963 0.267666 0.456973
O O15 0.607487 0.000000 0.453191
O O16 0.259767 0.500000 0.782625
O O17 0.347145 0.768662 0.794848
O O18 0.533147 0.500000 0.226963
O O19 0.827731 0.000000 0.432649
O O20 0.634489 0.500000 0.006891
O O21 0.750000 0.250000 0.000000
#
# Coordination Sequence:
#
# PCOD9183062 Si02
#       8
#     8   8   8   8   8   8   8   8
#     4  10  19  33  54  76  99 131 170 209 250 301
#     4   9  20  37  55  77 108 140 173 211 254 306
#     4  10  20  35  53  75 104 136 170 209 252 302
#     4   9  19  34  51  73 101 132 166 205 253 308
#     4  10  22  36  52  77 109 139 169 211 258 299
#     4  10  20  35  53  75 104 136 170 209 252 302
#     4  10  19  33  54  76  99 131 170 209 250 301
#     4   9  19  37  58  80 104 137 177 215 256 300
#
# _framework density 23.898240999999999
#
# number of rings (size 3 to 8) (size 9 to 14) (size 15 to 20)
#    0.000    2.375    0.000    4.500    0.000    4.500 
#    0.000    8.125    0.000    5.250    0.000    0.000 
#    0.000    0.000    0.000    0.000    0.000    0.000 
#
# Total GULP energy -178830.011067 kJ/mol
# GULP energy per Si atom -5588.437846 kJ/mol
# Density = 2.384385 g / cm^3
# Si number density = 23.898241 Si / 1000 Ang^3
#
#
#
# Elastic Constant Matrix: (Units=GPa)
#
#
# Indices 1 2 3 4 5 6 
#
# 1 137.0370 5.7433 13.9489 0.0000 -29.7313 0.0000
# 2 5.7433 63.8583 2.4856 0.0000 -2.3548 0.0000
# 3 13.9489 2.4856 71.2426 0.0000 -24.0728 0.0000
# 4 0.0000 0.0000 0.0000 23.1265 0.0000 -4.7435
# 5 -29.7313 -2.3548 -24.0728 0.0000 30.1890 0.0000
# 6 0.0000 0.0000 0.0000 -4.7435 0.0000 26.6315
#
#
#
# Elastic Compliance Matrix: (Units=1/GPa)
#
#
# Indices 1 2 3 4 5 6 
#
# 1 0.009458 -0.000526 0.001780 0.000000 0.010693 0.000000
# 2 -0.000526 0.015736 -0.000282 0.000000 0.000485 0.000000
# 3 0.001780 -0.000282 0.019550 0.000000 0.017320 0.000000
# 4 0.000000 0.000000 0.000000 0.044880 0.000000 0.007994
# 5 0.010693 0.000485 0.017320 0.000000 0.057504 0.000000
# 6 0.000000 0.000000 0.000000 0.007994 0.000000 0.038973
#
#
# Mechanical properties :
#
#
# Convention : Reuss Voigt Hill
#
# Bulk Modulus (GPa) = 21.41897 35.16593 28.29245
# Shear Modulus (GPa) = 25.03488 32.65340 28.84414
#
# Velocity S-wave (km/s) = 3.24012 3.70043 3.47790
# Velocity P-wave (km/s) = 4.79373 5.74494 5.29076
#
# Compressibility (1/GPa) = 0.04668758
#
# Stress axis : x y z
#
# Youngs Moduli (GPa) = 105.72999 63.54935 51.14968
#
# Poissons Ratio (x) = 0.03340 -0.09102
# Poissons Ratio (y) = 0.05557 0.01444
# Poissons Ratio (z) = -0.18815 0.01794
#
# Static dielectric constant tensor:
#      x y z
#    x 1.958100 0.000000 -0.057500 
#    y 0.000000 1.837250 0.000000 
#    z -0.057500 0.000000 1.967710 
# 
# From -- ./inp_files/375029.got.cif
#   From: 2010.05.17/outbox.cif.g08.bks.cpg/sg12_188_cif.got.tgz:375029.got - 2010.06.03 13:09:07.
