data_PCOD9183095
_publ_section_title
;
Structure prediction by ZEFSAII (Michael W. Deem and Ramdas Pophale) SiO2 
 PCOD9183095
Probable space group: C 2/M
;
_chemical_formula_sum "Si O2"
_cell_formula_units_Z 56
_cell_length_a 13.111920
_cell_length_b 13.536524
_cell_length_c 18.489642
_cell_angle_alpha 90.000000
_cell_angle_beta 51.566441
_cell_angle_gamma 90.000000
_cell_volume 2570.670638
_symmetry_space_group_name_H-M "C 2/M"
_symmetry_group_IT_number 12
_symmetry_cell_setting 'monoclinic'
loop_
_space_group_symop_operation_xyz
x,y,z
-x,y,-z
-x,-y,-z
x,-y,z
1/2+x,1/2+y,z
1/2-x,1/2+y,-z
1/2-x,1/2-y,-z
1/2+x,1/2-y,z
loop_
_atom_site_type_symbol
_atom_site_label
_atom_site_fract_x
_atom_site_fract_y
_atom_site_fract_z
Si Si1 0.799753 0.816605 0.852670
Si Si2 0.802637 0.381978 0.407724
Si Si3 0.042950 0.762189 0.559908
Si Si4 0.324071 0.104437 0.870123
Si Si5 0.545795 0.175898 0.052641
Si Si6 0.787777 0.114951 0.705729
Si Si7 0.054074 0.107999 0.081497
O O1 0.837057 0.703954 0.818954
O O2 0.693243 0.804130 0.961879
O O3 0.740783 0.867174 0.807988
O O4 0.907727 0.876885 0.850421
O O5 0.811271 0.500000 0.413454
O O6 0.907067 0.321974 0.408260
O O7 0.661942 0.339265 0.495045
O O8 0.804414 0.358192 0.320890
O O9 0.000000 0.722551 0.500000
O O10 0.919667 0.822375 0.643059
O O11 0.341268 0.000000 0.824007
O O12 0.434563 0.115652 0.883541
O O13 0.183381 0.101020 0.973399
O O14 0.500000 0.123916 0.000000
O O15 0.487658 0.286844 0.089889
O O16 0.818583 0.000000 0.682717
O O17 0.988184 0.000000 0.101942
#
# Coordination Sequence:
#
# PCOD9183095 Si02
#       7
#     8   8   8   8   8   8   8
#     4   9  17  30  47  65  93 126 164 207 249 299
#     4   9  18  34  56  84 110 134 172 210 245 300
#     4   9  18  34  57  81 107 140 171 206 248 298
#     4   8  15  29  46  61  83 122 165 203 242 292
#     4   9  17  28  43  67  91 121 162 211 255 294
#     4  10  19  33  54  77 104 139 172 208 257 306
#     4   8  14  27  46  63  82 116 164 204 240 289
#
# _framework density 21.784199000000001
#
# number of rings (size 3 to 8) (size 9 to 14) (size 15 to 20)
#    0.000    3.143    0.000    2.571    0.000    3.143 
#    5.143    0.714    0.000    4.286    0.000    0.000 
#    0.000    0.000    0.000    0.000    0.000    0.000 
#
# Total GULP energy -155945.308021 kJ/mol
# GULP energy per Si atom -5569.475286 kJ/mol
# Density = 2.173462 g / cm^3
# Si number density = 21.784199 Si / 1000 Ang^3
#
#
#
# Elastic Constant Matrix: (Units=GPa)
#
#
# Indices 1 2 3 4 5 6 
#
# 1 87.3533 44.2201 24.3486 0.0000 27.2486 0.0000
# 2 44.2201 121.7141 25.1137 0.0000 16.6991 0.0000
# 3 24.3486 25.1137 69.7984 0.0000 12.4161 0.0000
# 4 0.0000 0.0000 0.0000 16.2818 0.0000 4.5168
# 5 27.2486 16.6991 12.4161 0.0000 30.3566 0.0000
# 6 0.0000 0.0000 0.0000 4.5168 0.0000 15.3187
#
#
#
# Elastic Compliance Matrix: (Units=1/GPa)
#
#
# Indices 1 2 3 4 5 6 
#
# 1 0.018469 -0.004387 -0.002529 0.000000 -0.013131 0.000000
# 2 -0.004387 0.010356 -0.002031 0.000000 -0.000929 0.000000
# 3 -0.002529 -0.002031 0.016541 0.000000 -0.003378 0.000000
# 4 0.000000 0.000000 0.000000 0.066889 0.000000 -0.019723
# 5 -0.013131 -0.000929 -0.003378 0.000000 0.046621 0.000000
# 6 0.000000 0.000000 0.000000 -0.019723 0.000000 0.071095
#
#
# Mechanical properties :
#
#
# Convention : Reuss Voigt Hill
#
# Bulk Modulus (GPa) = 36.39827 51.80341 44.10084
# Shear Modulus (GPa) = 19.45359 24.73700 22.09529
#
# Velocity S-wave (km/s) = 2.99158 3.37344 3.18823
# Velocity P-wave (km/s) = 5.35514 6.24543 5.81734
#
# Compressibility (1/GPa) = 0.02747384
#
# Stress axis : x y z
#
# Youngs Moduli (GPa) = 54.14396 96.56097 60.45688
#
# Poissons Ratio (x) = 0.42359 0.15288
# Poissons Ratio (y) = 0.23752 0.12277
# Poissons Ratio (z) = 0.13691 0.19609
#
# Static dielectric constant tensor:
#      x y z
#    x 1.868480 0.000000 -0.041130 
#    y 0.000000 1.811120 0.000000 
#    z -0.041130 0.000000 1.829690 
# 
# From -- ./inp_files/269793.got.cif
#   From: 2010.05.17/outbox.cif.g08.bks.cpg/sg12_135_cif.got.tgz:269793.got - 2010.06.03 13:09:07.
