data_PCOD9183597
_publ_section_title
;
Structure prediction by ZEFSAII (Michael W. Deem and Ramdas Pophale) SiO2 
 PCOD9183597
Probable space group: C 2/M
;
_chemical_formula_sum "Si O2"
_cell_formula_units_Z 56
_cell_length_a 30.115235
_cell_length_b 7.905286
_cell_length_c 22.426566
_cell_angle_alpha 90.000000
_cell_angle_beta 30.056439
_cell_angle_gamma 90.000000
_cell_volume 2674.094532
_symmetry_space_group_name_H-M "C 2/M"
_symmetry_group_IT_number 12
_symmetry_cell_setting 'monoclinic'
loop_
_space_group_symop_operation_xyz
x,y,z
-x,y,-z
-x,-y,-z
x,-y,z
1/2+x,1/2+y,z
1/2-x,1/2+y,-z
1/2-x,1/2-y,-z
1/2+x,1/2-y,z
loop_
_atom_site_type_symbol
_atom_site_label
_atom_site_fract_x
_atom_site_fract_y
_atom_site_fract_z
Si Si1 0.534845 0.301123 0.897780
Si Si2 0.945250 0.703538 0.652344
Si Si3 0.012096 0.791649 0.177423
Si Si4 0.669312 0.703177 0.550511
Si Si5 0.764697 0.700340 0.323537
Si Si6 0.631889 0.795530 0.382597
Si Si7 0.647705 0.700345 0.116380
O O1 0.511323 0.500000 0.925555
O O2 0.495237 0.231891 0.882198
O O3 0.640865 0.284679 0.774984
O O4 0.500000 0.224059 0.000000
O O5 0.947701 0.500000 0.647648
O O6 0.885217 0.759012 0.665671
O O7 0.905260 0.753444 0.761986
O O8 0.045355 0.762228 0.521097
O O9 0.095878 0.732934 0.118449
O O10 0.923332 0.735382 0.315360
O O11 0.011338 0.000000 0.177036
O O12 0.662826 0.500000 0.555804
O O13 0.750000 0.750000 0.500000
O O14 0.695779 0.763591 0.453975
O O15 0.777191 0.500000 0.316799
O O16 0.720681 0.734096 0.310969
O O17 0.633095 0.000000 0.381796
O O18 0.644811 0.500000 0.115075
O O19 0.750000 0.750000 0.000000
#
# Coordination Sequence:
#
# PCOD9183597 Si02
#       7
#     8   8   8   8   8   8   8
#     4  10  21  38  59  79 104 149 199 232 273 338
#     4   9  19  38  60  85 113 145 192 243 287 338
#     4   9  19  37  58  80 111 146 186 236 284 335
#     4  10  19  33  55  82 112 145 181 227 281 334
#     4  11  22  34  53  86 119 147 184 231 285 341
#     4   9  19  36  60  85 114 151 187 230 287 349
#     4  11  23  39  59  83 115 156 197 242 292 344
#
# _framework density 20.941669000000001
#
# number of rings (size 3 to 8) (size 9 to 14) (size 15 to 20)
#    0.000    2.143    1.429    2.571    0.000    4.286 
#    0.000    7.143    0.000    0.000    0.000    0.000 
#    0.000    0.000    0.000    0.000    0.000    0.000 
#
# Total GULP energy -156348.058481 kJ/mol
# GULP energy per Si atom -5583.859231 kJ/mol
# Density = 2.089400 g / cm^3
# Si number density = 20.941669 Si / 1000 Ang^3
#
#
#
# Elastic Constant Matrix: (Units=GPa)
#
#
# Indices 1 2 3 4 5 6 
#
# 1 186.6883 -4.4935 74.6336 -0.0148 2.6200 0.0069
# 2 -4.4935 14.1648 4.4367 -0.0436 5.4491 0.0234
# 3 74.6336 4.4367 95.8413 -0.0393 15.1400 0.0251
# 4 -0.0148 -0.0436 -0.0393 18.1312 0.0176 0.1670
# 5 2.6200 5.4491 15.1400 0.0176 31.1904 -0.0070
# 6 0.0069 0.0234 0.0251 0.1670 -0.0070 15.5677
#
#
#
# Elastic Compliance Matrix: (Units=1/GPa)
#
#
# Indices 1 2 3 4 5 6 
#
# 1 0.008163 0.003987 -0.006848 0.000000 0.001942 0.000002
# 2 0.003987 0.077841 -0.004881 0.000192 -0.011565 -0.000118
# 3 -0.006848 -0.004881 0.017076 0.000027 -0.006861 -0.000021
# 4 0.000000 0.000192 0.000027 0.055160 -0.000078 -0.000592
# 5 0.001942 -0.011565 -0.006861 -0.000078 0.037249 0.000045
# 6 0.000002 -0.000118 -0.000021 -0.000592 0.000045 0.064242
#
#
# Mechanical properties :
#
#
# Convention : Reuss Voigt Hill
#
# Bulk Modulus (GPa) = 11.41599 49.53865 30.47732
# Shear Modulus (GPa) = 16.42500 27.78571 22.10536
#
# Velocity S-wave (km/s) = 2.80361 3.64650 3.25248
# Velocity P-wave (km/s) = 3.99293 6.43709 5.35629
#
# Compressibility (1/GPa) = 0.08759646
#
# Stress axis : x y z
#
# Youngs Moduli (GPa) = 122.50574 12.84667 58.56060
#
# Poissons Ratio (x) = -0.05123 0.40102
# Poissons Ratio (y) = -0.48848 0.28586
# Poissons Ratio (z) = 0.83891 0.06271
#
# Static dielectric constant tensor:
#      x y z
#    x 2.371530 0.000710 -0.143940 
#    y 0.000710 1.786740 -0.000220 
#    z -0.143940 -0.000220 1.750160 
# 
# From -- ./inp_files/329460.got.cif
#   From: 2010.05.17/outbox.cif.g08.bks.cpg/sg12_165_cif.got.tgz:329460.got - 2010.06.03 13:09:07.
