data_PCOD9183345
_publ_section_title
;
Structure prediction by ZEFSAII (Michael W. Deem and Ramdas Pophale) SiO2 
 PCOD9183345
Probable space group: C 2/M
;
_chemical_formula_sum "Si O2"
_cell_formula_units_Z 52
_cell_length_a 21.039875
_cell_length_b 28.496169
_cell_length_c 15.524916
_cell_angle_alpha 90.000000
_cell_angle_beta 162.506197
_cell_angle_gamma 90.000000
_cell_volume 2798.025644
_symmetry_space_group_name_H-M "C 2/M"
_symmetry_group_IT_number 12
_symmetry_cell_setting 'monoclinic'
loop_
_space_group_symop_operation_xyz
x,y,z
-x,y,-z
-x,-y,-z
x,-y,z
1/2+x,1/2+y,z
1/2-x,1/2+y,-z
1/2-x,1/2-y,-z
1/2+x,1/2-y,z
loop_
_atom_site_type_symbol
_atom_site_label
_atom_site_fract_x
_atom_site_fract_y
_atom_site_fract_z
Si Si1 0.189835 0.811730 0.419991
Si Si2 0.592768 0.892723 0.717373
Si Si3 0.182281 0.900758 0.307206
Si Si4 0.895506 0.500000 0.270823
Si Si5 0.049047 0.267143 0.970469
Si Si6 0.350780 0.303139 0.125315
Si Si7 0.807002 0.000000 0.683123
Si Si8 0.500000 0.711674 0.500000
O O1 0.159277 0.863886 0.352032
O O2 0.084131 0.780485 0.209008
O O3 0.433901 0.799374 0.750540
O O4 0.059711 0.798824 0.336830
O O5 0.500000 0.887132 0.500000
O O6 0.397253 0.894484 0.531430
O O7 0.697847 0.946016 0.857220
O O8 0.721266 0.845848 0.912831
O O9 0.175097 0.951571 0.341402
O O10 0.000000 0.896613 0.000000
O O11 0.000000 0.500000 0.500000
O O12 0.088610 0.500000 0.452907
O O13 0.000000 0.288194 0.000000
O O14 0.294558 0.260005 0.267630
O O15 0.417955 0.315587 0.309810
O O16 0.250000 0.250000 0.000000
O O17 0.000000 0.000000 0.000000
#
# Coordination Sequence:
#
# PCOD9183345 Si02
#       8
#     8   8   8   4   8   8   4   4
#     4  11  23  38  57  83 112 151 200 239 296 350
#     4  10  21  36  60  88 121 158 201 250 308 364
#     4  10  19  33  54  83 117 152 189 240 296 356
#     4   8  16  34  56  85 116 151 196 250 304 362
#     4  11  23  39  58  80 114 154 192 244 289 351
#     4  12  25  38  58  84 118 161 203 248 303 363
#     4   8  16  30  50  78 113 148 185 231 296 357
#     4  12  24  42  58  81 120 157 204 250 294 354
#
# _framework density 18.584533
#
# number of rings (size 3 to 8) (size 9 to 14) (size 15 to 20)
#    0.000    1.538    3.077    2.308    3.231    2.462 
#    0.000    0.000    0.000    0.462    0.000    1.615 
#    0.000    0.000    0.000    0.000    0.000    0.000 
#
# Total GULP energy -144775.661998 kJ/mol
# GULP energy per Si atom -5568.294692 kJ/mol
# Density = 1.854223 g / cm^3
# Si number density = 18.584533 Si / 1000 Ang^3
#
#
#
# Elastic Constant Matrix: (Units=GPa)
#
#
# Indices 1 2 3 4 5 6 
#
# 1 70.0465 26.9315 22.7719 -0.0033 -4.8700 -0.0028
# 2 26.9315 162.5031 45.4484 0.0000 -11.9656 -0.0001
# 3 22.7719 45.4484 88.6629 -0.0047 4.1438 -0.0038
# 4 -0.0033 0.0000 -0.0047 69.7469 -0.0045 36.9013
# 5 -4.8700 -11.9656 4.1438 -0.0045 31.9585 -0.0038
# 6 -0.0028 -0.0001 -0.0038 36.9013 -0.0038 61.2681
#
#
#
# Elastic Compliance Matrix: (Units=1/GPa)
#
#
# Indices 1 2 3 4 5 6 
#
# 1 0.016158 -0.001534 -0.003473 0.000000 0.002338 0.000000
# 2 -0.001534 0.007667 -0.003682 0.000000 0.003114 0.000000
# 3 -0.003473 -0.003682 0.014233 0.000000 -0.003753 0.000000
# 4 0.000000 0.000000 0.000000 0.021043 0.000001 -0.012674
# 5 0.002338 0.003114 -0.003753 0.000001 0.033299 0.000001
# 6 0.000000 0.000000 0.000000 -0.012674 0.000001 0.023955
#
#
# Mechanical properties :
#
#
# Convention : Reuss Voigt Hill
#
# Bulk Modulus (GPa) = 48.35440 56.83512 52.59476
# Shear Modulus (GPa) = 35.55526 47.66542 41.61034
#
# Velocity S-wave (km/s) = 4.37872 5.06987 4.73692
# Velocity P-wave (km/s) = 7.18605 8.05728 7.63410
#
# Compressibility (1/GPa) = 0.02068064
#
# Stress axis : x y z
#
# Youngs Moduli (GPa) = 61.89012 130.42958 70.25875
#
# Poissons Ratio (x) = 0.20014 0.24398
# Poissons Ratio (y) = 0.09497 0.25866
# Poissons Ratio (z) = 0.21492 0.48018
#
# Static dielectric constant tensor:
#      x y z
#    x 1.670820 0.000000 0.020070 
#    y 0.000000 1.699960 0.000000 
#    z 0.020070 0.000000 1.690340 
# 
# From -- ./inp_files/235797.got.cif
#   From: 2010.05.17/outbox.cif.g08.bks.cpg/sg12_118_cif.got.tgz:235797.got - 2010.06.03 13:09:07.
