data_PCOD9183199
_publ_section_title
;
Structure prediction by ZEFSAII (Michael W. Deem and Ramdas Pophale) SiO2 
 PCOD9183199
Probable space group: C 2/M
;
_chemical_formula_sum "Si O2"
_cell_formula_units_Z 64
_cell_length_a 25.061539
_cell_length_b 9.652180
_cell_length_c 28.563891
_cell_angle_alpha 90.000000
_cell_angle_beta 147.794166
_cell_angle_gamma 90.000000
_cell_volume 3682.536973
_symmetry_space_group_name_H-M "C 2/M"
_symmetry_group_IT_number 12
_symmetry_cell_setting 'monoclinic'
loop_
_space_group_symop_operation_xyz
x,y,z
-x,y,-z
-x,-y,-z
x,-y,z
1/2+x,1/2+y,z
1/2-x,1/2+y,-z
1/2-x,1/2-y,-z
1/2+x,1/2-y,z
loop_
_atom_site_type_symbol
_atom_site_label
_atom_site_fract_x
_atom_site_fract_y
_atom_site_fract_z
Si Si1 0.427260 0.334225 0.990406
Si Si2 0.571423 0.334136 0.182918
Si Si3 0.882128 0.350472 0.415276
Si Si4 0.164810 0.662249 0.509944
Si Si5 0.607990 0.332745 0.316077
Si Si6 0.733428 0.658597 0.827777
Si Si7 0.245276 0.655118 0.267340
Si Si8 0.998885 0.832885 0.329977
O O1 0.413179 0.500000 0.975508
O O2 0.321240 0.256633 0.911564
O O3 0.500000 0.293389 0.000000
O O4 0.480996 0.304693 0.079965
O O5 0.584876 0.500000 0.192470
O O6 0.569976 0.289059 0.236335
O O7 0.664508 0.258078 0.228621
O O8 0.841870 0.500000 0.367660
O O9 0.848887 0.335987 0.444183
O O10 0.848393 0.219658 0.360908
O O11 0.000000 0.357723 0.500000
O O12 0.157045 0.500000 0.489237
O O13 0.278905 0.714791 0.587158
O O14 0.077847 0.752403 0.421488
O O15 0.615965 0.500000 0.319922
O O16 0.532958 0.299441 0.302305
O O17 0.742406 0.500000 0.852563
O O18 0.754230 0.654531 0.787858
O O19 0.617987 0.703674 0.749361
O O20 0.228833 0.500000 0.272489
O O21 0.007707 0.000000 0.343836
#
# Coordination Sequence:
#
# PCOD9183199 Si02
#       8
#     8   8   8   8   8   8   8   8
#     4  10  20  34  58  86 106 135 179 222 266 317
#     4  10  19  36  58  80 106 134 174 225 267 315
#     4  10  20  33  50  74 107 145 180 217 266 320
#     4  10  19  33  54  80 106 139 182 226 269 307
#     4   9  18  35  58  78 104 142 183 223 265 314
#     4  10  22  37  53  77 113 147 174 213 269 327
#     4  11  21  32  50  77 108 142 174 212 265 319
#     4  10  21  37  55  77 106 146 185 217 263 319
#
# _framework density 17.379322999999999
#
# number of rings (size 3 to 8) (size 9 to 14) (size 15 to 20)
#    0.000    2.000    2.500    1.500    0.000    2.500 
#    0.000    1.250    0.000    0.000    0.000    0.000 
#    0.000    0.000    0.000    0.000    0.000    0.000 
#
# Total GULP energy -178306.849669 kJ/mol
# GULP energy per Si atom -5572.089052 kJ/mol
# Density = 1.733977 g / cm^3
# Si number density = 17.379323 Si / 1000 Ang^3
#
#
#
# Elastic Constant Matrix: (Units=GPa)
#
#
# Indices 1 2 3 4 5 6 
#
# 1 -109.5994 -14.8566 -80.2016 0.0000 -15.3623 0.0000
# 2 -14.8566 29.4333 29.2016 0.0000 -8.7344 -0.0001
# 3 -80.2016 29.2016 42.1520 0.0000 -17.7372 0.0000
# 4 0.0000 0.0000 0.0000 32.3482 0.0000 2.2162
# 5 -15.3623 -8.7344 -17.7372 0.0000 15.5329 0.0000
# 6 0.0000 -0.0001 0.0000 2.2162 0.0000 14.8190
#
#
#
# Elastic Compliance Matrix: (Units=1/GPa)
#
#
# Indices 1 2 3 4 5 6 
#
# 1 -0.000935 0.007628 -0.010871 0.000000 -0.009049 0.000000
# 2 0.007628 0.068668 -0.026245 0.000000 0.016188 0.000000
# 3 -0.010871 -0.026245 0.020188 0.000000 -0.002457 0.000000
# 4 0.000000 0.000000 0.000000 0.031234 0.000000 -0.004671
# 5 -0.009049 0.016188 -0.002457 0.000000 0.061727 0.000000
# 6 0.000000 0.000000 0.000000 -0.004671 0.000000 0.068179
#
#
# Mechanical properties :
#
#
# Convention : Reuss Voigt Hill
#
# Bulk Modulus (GPa) = 34.54794 -18.85858 7.84468
# Shear Modulus (GPa) = 15.73883 14.39618 15.06751
#
# Velocity S-wave (km/s) = 3.01259 2.88123 2.94764
# Velocity P-wave (km/s) = 5.65888 0.44038 4.01353
#
# Compressibility (1/GPa) = 0.02894529
#
# Stress axis : x y z
#
# Youngs Moduli (GPa) = -1069.68811 14.56284 49.53469
#
# Poissons Ratio (x) = -0.11109 0.53849
# Poissons Ratio (y) = 8.15980 1.30005
# Poissons Ratio (z) = -11.62845 0.38220
#
# Static dielectric constant tensor:
#      x y z
#    x 1.595330 0.000000 0.004840 
#    y 0.000000 1.608240 0.000000 
#    z 0.004840 0.000000 1.618550 
# 
# From -- ./inp_files/243937.got.cif
#   From: 2010.05.17/outbox.cif.g08.bks.cpg/sg12_122_cif.got.tgz:243937.got - 2010.06.03 13:09:07.
