data_PCOD9183525
_publ_section_title
;
Structure prediction by ZEFSAII (Michael W. Deem and Ramdas Pophale) SiO2 
 PCOD9183525
Probable space group: C 2/M
;
_chemical_formula_sum "Si O2"
_cell_formula_units_Z 64
_cell_length_a 20.775714
_cell_length_b 8.899331
_cell_length_c 27.069709
_cell_angle_alpha 90.000000
_cell_angle_beta 47.752750
_cell_angle_gamma 90.000000
_cell_volume 3704.892020
_symmetry_space_group_name_H-M "C 2/M"
_symmetry_group_IT_number 12
_symmetry_cell_setting 'monoclinic'
loop_
_space_group_symop_operation_xyz
x,y,z
-x,y,-z
-x,-y,-z
x,-y,z
1/2+x,1/2+y,z
1/2-x,1/2+y,-z
1/2-x,1/2-y,-z
1/2+x,1/2-y,z
loop_
_atom_site_type_symbol
_atom_site_label
_atom_site_fract_x
_atom_site_fract_y
_atom_site_fract_z
Si Si1 0.420317 0.319693 0.674849
Si Si2 0.249656 0.680662 0.423056
Si Si3 0.215134 0.819265 0.172861
Si Si4 0.280124 0.179415 0.035549
Si Si5 0.110686 0.679485 0.579133
Si Si6 0.644672 0.680285 0.827384
Si Si7 0.780056 0.680987 0.674715
Si Si8 0.034810 0.821201 0.037729
O O1 0.424020 0.500000 0.670392
O O2 0.369281 0.275850 0.751677
O O3 0.516138 0.252030 0.624617
O O4 0.360529 0.257512 0.661234
O O5 0.262072 0.500000 0.417733
O O6 0.168535 0.716389 0.500779
O O7 0.333833 0.757828 0.403487
O O8 0.230822 0.725671 0.376529
O O9 0.297620 0.752581 0.159245
O O10 0.221104 0.000000 0.171508
O O11 0.220610 0.772803 0.113047
O O12 0.377623 0.232104 0.997500
O O13 0.276607 0.000000 0.033790
O O14 0.250000 0.250000 0.000000
O O15 0.103377 0.500000 0.586096
O O16 0.647922 0.500000 0.831919
O O17 0.693621 0.717546 0.751182
O O18 0.544456 0.723930 0.885311
O O19 0.792014 0.500000 0.670422
O O20 0.051795 0.000000 0.034731
O O21 0.000000 0.798111 0.000000
#
# Coordination Sequence:
#
# PCOD9183525 Si02
#       8
#     8   8   8   8   8   8   8   8
#     4  10  20  35  55  79 106 137 174 216 261 311
#     4   9  19  36  56  77 106 141 175 215 261 308
#     4   9  19  35  54  75 102 138 175 214 260 309
#     4  11  23  38  55  76 105 140 177 219 264 310
#     4  10  20  35  55  78 105 140 179 216 257 310
#     4   9  17  31  54  80 104 135 172 212 258 310
#     4   9  18  34  55  79 106 137 174 215 259 307
#     4  10  19  33  55  81 107 136 172 214 259 310
#
# _framework density 17.274457999999999
#
# number of rings (size 3 to 8) (size 9 to 14) (size 15 to 20)
#    0.000    2.375    1.250    1.125    0.000    3.250 
#    2.250    2.500    0.000    0.000    0.000    0.000 
#    0.000    0.000    0.000    0.000    0.000    0.000 
#
# Total GULP energy -178497.164652 kJ/mol
# GULP energy per Si atom -5578.036395 kJ/mol
# Density = 1.723514 g / cm^3
# Si number density = 17.274458 Si / 1000 Ang^3
#
#
#
# Elastic Constant Matrix: (Units=GPa)
#
#
# Indices 1 2 3 4 5 6 
#
# 1 111.9976 43.9797 94.8962 0.0000 8.1853 0.0005
# 2 43.9797 29.7450 44.8001 -0.0001 2.7952 0.0006
# 3 94.8962 44.8001 129.2860 0.0000 11.1403 0.0000
# 4 0.0000 -0.0001 0.0000 22.8431 0.0000 -2.0034
# 5 8.1853 2.7952 11.1403 0.0000 33.2884 0.0000
# 6 0.0005 0.0006 0.0000 -2.0034 0.0000 33.7029
#
#
#
# Elastic Compliance Matrix: (Units=1/GPa)
#
#
# Indices 1 2 3 4 5 6 
#
# 1 0.029706 -0.023237 -0.013686 0.000000 -0.000773 0.000000
# 2 -0.023237 0.088670 -0.013922 0.000000 0.002927 -0.000001
# 3 -0.013686 -0.013922 0.022873 0.000000 -0.003121 0.000000
# 4 0.000000 0.000000 0.000000 0.044006 0.000000 0.002616
# 5 -0.000773 0.002927 -0.003121 0.000000 0.031029 0.000000
# 6 0.000000 -0.000001 0.000000 0.002616 0.000000 0.029827
#
#
# Mechanical properties :
#
#
# Convention : Reuss Voigt Hill
#
# Bulk Modulus (GPa) = 25.27822 70.93118 48.10470
# Shear Modulus (GPa) = 13.85095 23.79039 18.82067
#
# Velocity S-wave (km/s) = 2.83471 3.71509 3.30435
# Velocity P-wave (km/s) = 5.03777 7.71706 6.51660
#
# Compressibility (1/GPa) = 0.03955975
#
# Stress axis : x y z
#
# Youngs Moduli (GPa) = 33.66339 11.27781 43.71943
#
# Poissons Ratio (x) = 0.26206 0.59832
# Poissons Ratio (y) = 0.78223 0.60866
# Poissons Ratio (z) = 0.46070 0.15701
#
# Static dielectric constant tensor:
#      x y z
#    x 1.537810 0.000000 0.003540 
#    y 0.000000 1.578150 0.000000 
#    z 0.003540 0.000000 1.611580 
# 
# From -- ./inp_files/346008.got.cif
#   From: 2010.05.17/outbox.cif.g08.bks.cpg/sg12_174_cif.got.tgz:346008.got - 2010.06.03 13:09:07.
