data_PCOD9183622
_publ_section_title
;
Structure prediction by ZEFSAII (Michael W. Deem and Ramdas Pophale) SiO2 
 PCOD9183622
Probable space group: C 2/M
;
_chemical_formula_sum "Si O2"
_cell_formula_units_Z 48
_cell_length_a 17.644668
_cell_length_b 20.308796
_cell_length_c 12.289935
_cell_angle_alpha 90.000000
_cell_angle_beta 33.209870
_cell_angle_gamma 90.000000
_cell_volume 2412.102901
_symmetry_space_group_name_H-M "C 2/M"
_symmetry_group_IT_number 12
_symmetry_cell_setting 'monoclinic'
loop_
_space_group_symop_operation_xyz
x,y,z
-x,y,-z
-x,-y,-z
x,-y,z
1/2+x,1/2+y,z
1/2-x,1/2+y,-z
1/2-x,1/2-y,-z
1/2+x,1/2-y,z
loop_
_atom_site_type_symbol
_atom_site_label
_atom_site_fract_x
_atom_site_fract_y
_atom_site_fract_z
Si Si1 0.840260 0.889092 0.660092
Si Si2 0.258461 0.191030 0.579962
Si Si3 0.892833 0.074002 0.359932
Si Si4 0.368618 0.222586 0.100783
Si Si5 0.929084 0.717792 0.772255
Si Si6 0.329063 0.639584 0.898425
O O1 0.834820 0.927977 0.554031
O O2 0.766795 0.820895 0.719028
O O3 0.778560 0.903578 0.854735
O O4 0.000000 0.889167 0.500000
O O5 0.250000 0.250000 0.500000
O O6 0.200544 0.125170 0.594739
O O7 0.161666 0.211142 0.797270
O O8 0.417664 0.190834 0.427401
O O9 0.049827 0.102864 0.182377
O O10 0.894028 0.000000 0.314733
O O11 0.500000 0.189058 0.000000
O O12 0.405128 0.226822 0.930996
O O13 0.901038 0.792276 0.766493
O O14 0.808101 0.668252 0.878997
#
# Coordination Sequence:
#
# PCOD9183622 Si02
#       6
#     8   8   8   8   8   8
#     4   9  17  29  48  74 102 137 176 211 263 318
#     4  12  19  34  55  80 107 146 182 226 271 319
#     4  11  21  34  51  77 112 148 183 221 269 326
#     4  11  18  29  53  79 107 138 176 227 277 308
#     4  10  19  33  55  83 110 133 182 235 270 316
#     4   9  18  32  51  77 105 138 175 218 271 313
#
# _framework density 19.899649
#
# number of rings (size 3 to 8) (size 9 to 14) (size 15 to 20)
#    0.000    1.667    5.000    1.000    0.000    3.000 
#    0.000    0.833    0.000   14.000    0.000    0.000 
#    0.000   18.000    0.000    0.333    0.000    0.000 
#
# Total GULP energy -133654.482609 kJ/mol
# GULP energy per Si atom -5568.936775 kJ/mol
# Density = 1.985436 g / cm^3
# Si number density = 19.899649 Si / 1000 Ang^3
#
#
#
# Elastic Constant Matrix: (Units=GPa)
#
#
# Indices 1 2 3 4 5 6 
#
# 1 58.3946 25.5378 10.7802 0.0000 -18.6860 0.0001
# 2 25.5378 104.1958 22.3799 -0.0003 -17.1194 0.0002
# 3 10.7802 22.3799 62.4270 -0.0006 -16.5035 0.0002
# 4 0.0000 -0.0003 -0.0006 13.7614 0.0001 -1.8001
# 5 -18.6860 -17.1194 -16.5035 0.0001 38.3920 0.0000
# 6 0.0001 0.0002 0.0002 -1.8001 0.0000 10.6122
#
#
#
# Elastic Compliance Matrix: (Units=1/GPa)
#
#
# Indices 1 2 3 4 5 6 
#
# 1 0.021629 -0.003849 -0.000029 0.000000 0.008798 0.000000
# 2 -0.003849 0.011498 -0.002930 0.000000 0.001994 0.000000
# 3 -0.000029 -0.002930 0.018869 0.000001 0.006791 0.000000
# 4 0.000000 0.000000 0.000001 0.074316 0.000000 0.012606
# 5 0.008798 0.001994 0.006791 0.000000 0.034138 0.000000
# 6 0.000000 0.000000 0.000000 0.012606 0.000000 0.096370
#
#
# Mechanical properties :
#
#
# Convention : Reuss Voigt Hill
#
# Bulk Modulus (GPa) = 26.05583 38.04590 32.05086
# Shear Modulus (GPa) = 17.65351 23.64107 20.64729
#
# Velocity S-wave (km/s) = 2.98170 3.45050 3.22463
# Velocity P-wave (km/s) = 4.99761 5.91903 5.47773
#
# Compressibility (1/GPa) = 0.03837912
#
# Stress axis : x y z
#
# Youngs Moduli (GPa) = 46.23405 86.97395 52.99601
#
# Poissons Ratio (x) = 0.33479 0.00154
# Poissons Ratio (y) = 0.17797 0.15528
# Poissons Ratio (z) = 0.00134 0.25484
#
# Static dielectric constant tensor:
#      x y z
#    x 1.783190 0.000000 0.011940 
#    y 0.000000 1.696580 0.000000 
#    z 0.011940 0.000000 1.756980 
# 
# From -- ./inp_files/234250.got.cif
#   From: 2010.05.17/outbox.cif.g08.bks.cpg/sg12_118_cif.got.tgz:234250.got - 2010.06.03 13:09:07.
