data_PCOD9183941
_publ_section_title
;
Structure prediction by ZEFSAII (Michael W. Deem and Ramdas Pophale) SiO2 
 PCOD9183941
Probable space group: C 2/M
;
_chemical_formula_sum "Si O2"
_cell_formula_units_Z 52
_cell_length_a 26.307718
_cell_length_b 13.350075
_cell_length_c 7.758051
_cell_angle_alpha 90.000000
_cell_angle_beta 85.657572
_cell_angle_gamma 90.000000
_cell_volume 2716.883448
_symmetry_space_group_name_H-M "C 2/M"
_symmetry_group_IT_number 12
_symmetry_cell_setting 'monoclinic'
loop_
_space_group_symop_operation_xyz
x,y,z
-x,y,-z
-x,-y,-z
x,-y,z
1/2+x,1/2+y,z
1/2-x,1/2+y,-z
1/2-x,1/2-y,-z
1/2+x,1/2-y,z
loop_
_atom_site_type_symbol
_atom_site_label
_atom_site_fract_x
_atom_site_fract_y
_atom_site_fract_z
Si Si1 0.686526 0.106647 0.868363
Si Si2 0.035294 0.117939 0.318729
Si Si3 0.618857 0.734226 0.485412
Si Si4 0.283830 0.705393 0.337060
Si Si5 0.426705 0.884654 0.252264
Si Si6 0.312779 0.893499 0.728074
Si Si7 0.500000 0.753609 0.000000
O O1 0.714869 0.205551 0.801852
O O2 0.632094 0.108153 0.789717
O O3 0.712321 0.000000 0.817109
O O4 0.677043 0.108530 0.072803
O O5 0.090066 0.155962 0.372585
O O6 0.018856 0.184130 0.156079
O O7 0.000000 0.129448 0.500000
O O8 0.035046 0.000000 0.273701
O O9 0.658548 0.685537 0.613218
O O10 0.577284 0.807638 0.586319
O O11 0.655280 0.806624 0.367176
O O12 0.250000 0.750000 0.500000
O O13 0.247993 0.617714 0.279126
O O14 0.458000 0.827695 0.095134
O O15 0.444511 0.000000 0.279375
O O16 0.329374 0.000000 0.647683
#
# Coordination Sequence:
#
# PCOD9183941 Si02
#       7
#     8   8   8   8   8   8   4
#     4   9  18  33  53  78 113 154 190 236 287 346
#     4  11  24  43  64  86 114 155 204 255 306 356
#     4  10  20  39  58  85 119 157 195 250 297 355
#     4   9  19  32  54  80 111 149 188 232 285 344
#     4  10  20  35  58  89 124 160 199 243 300 360
#     4  10  19  33  56  84 116 153 194 235 293 356
#     4  12  22  40  64  90 118 158 200 256 304 362
#
# _framework density 19.139578
#
# number of rings (size 3 to 8) (size 9 to 14) (size 15 to 20)
#    0.000    2.000    1.538    2.308    0.000    4.308 
#    0.000    5.385    0.000    8.308    0.000    0.000 
#    0.000    0.000    0.000    0.000    0.000    0.000 
#
# Total GULP energy -144787.533761 kJ/mol
# GULP energy per Si atom -5568.751299 kJ/mol
# Density = 1.909602 g / cm^3
# Si number density = 19.139578 Si / 1000 Ang^3
#
#
#
# Elastic Constant Matrix: (Units=GPa)
#
#
# Indices 1 2 3 4 5 6 
#
# 1 35.9861 21.4233 1.7824 0.0000 -3.1818 0.0000
# 2 21.4233 74.9445 17.2598 0.0000 -6.2771 0.0000
# 3 1.7824 17.2598 59.9808 0.0000 -4.1695 0.0000
# 4 0.0000 0.0000 0.0000 51.6919 0.0000 3.8247
# 5 -3.1818 -6.2771 -4.1695 0.0000 29.2551 0.0000
# 6 0.0000 0.0000 0.0000 3.8247 0.0000 30.2753
#
#
#
# Elastic Compliance Matrix: (Units=1/GPa)
#
#
# Indices 1 2 3 4 5 6 
#
# 1 0.033782 -0.009962 0.001989 0.000000 0.001820 0.000000
# 2 -0.009962 0.017412 -0.004575 0.000000 0.002000 0.000000
# 3 0.001989 -0.004575 0.018055 0.000000 0.001808 0.000000
# 4 0.000000 0.000000 0.000000 0.019528 0.000000 -0.002467
# 5 0.001820 0.002000 0.001808 0.000000 0.035067 0.000000
# 6 0.000000 0.000000 0.000000 -0.002467 0.000000 0.033342
#
#
# Mechanical properties :
#
#
# Convention : Reuss Voigt Hill
#
# Bulk Modulus (GPa) = 22.64881 27.98247 25.31564
# Shear Modulus (GPa) = 25.38070 30.94087 28.16079
#
# Velocity S-wave (km/s) = 3.64550 4.02505 3.83996
# Velocity P-wave (km/s) = 5.43863 6.02107 5.73725
#
# Compressibility (1/GPa) = 0.04415243
#
# Stress axis : x y z
#
# Youngs Moduli (GPa) = 29.60178 57.43071 55.38588
#
# Poissons Ratio (x) = 0.57215 -0.11019
# Poissons Ratio (y) = 0.29491 0.25341
# Poissons Ratio (z) = -0.05889 0.26277
#
# Static dielectric constant tensor:
#      x y z
#    x 1.637840 0.000000 0.020260 
#    y 0.000000 1.724700 0.000000 
#    z 0.020260 0.000000 1.684730 
# 
# From -- ./inp_files/102557.got.cif
#   From: 2010.05.17/outbox.cif.g08.bks.cpg/sg12_52_cif.got.tgz:102557.got - 2010.06.03 13:09:07.
