data_PCOD9183793
_publ_section_title
;
Structure prediction by ZEFSAII (Michael W. Deem and Ramdas Pophale) SiO2 
 PCOD9183793
Probable space group: C 2/M
;
_chemical_formula_sum "Si O2"
_cell_formula_units_Z 56
_cell_length_a 26.832781
_cell_length_b 8.096344
_cell_length_c 14.959673
_cell_angle_alpha 90.000000
_cell_angle_beta 123.429401
_cell_angle_gamma 90.000000
_cell_volume 2712.295794
_symmetry_space_group_name_H-M "C 2/M"
_symmetry_group_IT_number 12
_symmetry_cell_setting 'monoclinic'
loop_
_space_group_symop_operation_xyz
x,y,z
-x,y,-z
-x,-y,-z
x,-y,z
1/2+x,1/2+y,z
1/2-x,1/2+y,-z
1/2-x,1/2-y,-z
1/2+x,1/2-y,z
loop_
_atom_site_type_symbol
_atom_site_label
_atom_site_fract_x
_atom_site_fract_y
_atom_site_fract_z
Si Si1 0.637144 0.190950 0.238553
Si Si2 0.495027 0.702229 0.597787
Si Si3 0.877719 0.806951 0.585513
Si Si4 0.269270 0.190149 0.370254
Si Si5 0.645823 0.801233 0.050161
Si Si6 0.891370 0.198955 0.175329
Si Si7 0.217128 0.200165 0.810125
O O1 0.611439 0.283124 0.298718
O O2 0.709294 0.203089 0.317647
O O3 0.623885 0.257416 0.125878
O O4 0.619002 0.000000 0.225956
O O5 0.500000 0.754895 0.500000
O O6 0.494984 0.500000 0.598245
O O7 0.433683 0.755669 0.583632
O O8 0.551736 0.756694 0.711970
O O9 0.817006 0.719968 0.494660
O O10 0.869507 0.000000 0.557838
O O11 0.298961 0.236154 0.304569
O O12 0.250262 0.000000 0.351302
O O13 0.714740 0.744801 0.104905
O O14 0.647464 0.000000 0.057040
O O15 0.608588 0.750531 0.927491
O O16 0.830533 0.257158 0.163821
O O17 0.890950 0.000000 0.178179
O O18 0.216384 0.000000 0.807221
#
# Coordination Sequence:
#
# PCOD9183793 Si02
#       7
#     8   8   8   8   8   8   8
#     4  10  21  38  56  77 108 142 178 218 264 319
#     4   9  19  36  57  80 106 138 177 218 261 311
#     4  11  21  35  56  79 106 141 180 222 267 314
#     4  11  21  33  53  82 112 141 176 218 267 320
#     4   9  19  34  52  77 109 141 172 217 272 321
#     4  10  19  33  56  81 105 140 183 224 264 311
#     4   9  18  33  53  79 111 145 179 215 263 319
#
# _framework density 20.646716999999999
#
# number of rings (size 3 to 8) (size 9 to 14) (size 15 to 20)
#    0.000    2.143    0.000    4.714    0.000    5.714 
#    0.000    2.143    0.000    7.286    0.000    0.000 
#    0.000    0.000    0.000    0.000    0.000    0.000 
#
# Total GULP energy -156392.690401 kJ/mol
# GULP energy per Si atom -5585.453229 kJ/mol
# Density = 2.059972 g / cm^3
# Si number density = 20.646717 Si / 1000 Ang^3
#
#
#
# Elastic Constant Matrix: (Units=GPa)
#
#
# Indices 1 2 3 4 5 6 
#
# 1 68.8135 -6.1799 38.0264 0.0000 -27.7254 0.0000
# 2 -6.1799 18.2551 -3.6648 0.0000 1.6413 0.0000
# 3 38.0264 -3.6648 145.5763 0.0000 -23.3840 0.0000
# 4 0.0000 0.0000 0.0000 29.4927 0.0000 -6.7097
# 5 -27.7254 1.6413 -23.3840 0.0000 28.0922 0.0000
# 6 0.0000 0.0000 0.0000 -6.7097 0.0000 6.5900
#
#
#
# Elastic Compliance Matrix: (Units=1/GPa)
#
#
# Indices 1 2 3 4 5 6 
#
# 1 0.025864 0.006121 -0.002954 0.000000 0.022710 0.000000
# 2 0.006121 0.056644 0.000307 0.000000 0.002987 0.000000
# 3 -0.002954 0.000307 0.008285 0.000000 0.003963 0.000000
# 4 0.000000 0.000000 0.000000 0.044129 0.000000 0.044931
# 5 0.022710 0.002987 0.003963 0.000000 0.061135 0.000000
# 6 0.000000 0.000000 0.000000 0.044931 0.000000 0.197493
#
#
# Mechanical properties :
#
#
# Convention : Reuss Voigt Hill
#
# Bulk Modulus (GPa) = 10.23110 32.11202 21.17156
# Shear Modulus (GPa) = 11.92796 26.46585 19.19691
#
# Velocity S-wave (km/s) = 2.40618 3.58417 3.05254
# Velocity P-wave (km/s) = 3.56170 5.71972 4.76450
#
# Compressibility (1/GPa) = 0.09774123
#
# Stress axis : x y z
#
# Youngs Moduli (GPa) = 38.66373 17.65403 120.69664
#
# Poissons Ratio (x) = -0.10806 0.35654
# Poissons Ratio (y) = -0.23666 -0.03705
# Poissons Ratio (z) = 0.11421 -0.00542
#
# Static dielectric constant tensor:
#      x y z
#    x 1.732040 0.000000 -0.017900 
#    y 0.000000 1.738750 0.000000 
#    z -0.017900 0.000000 1.728940 
# 
# From -- ./inp_files/243673.got.cif
#   From: 2010.05.17/outbox.cif.g08.bks.cpg/sg12_122_cif.got.tgz:243673.got - 2010.06.03 13:09:07.
