data_PCOD9183708
_publ_section_title
;
Structure prediction by ZEFSAII (Michael W. Deem and Ramdas Pophale) SiO2 
 PCOD9183708
Probable space group: C 2/M
;
_chemical_formula_sum "Si O2"
_cell_formula_units_Z 64
_cell_length_a 14.602347
_cell_length_b 27.496911
_cell_length_c 9.617824
_cell_angle_alpha 90.000000
_cell_angle_beta 63.438664
_cell_angle_gamma 90.000000
_cell_volume 3454.160159
_symmetry_space_group_name_H-M "C 2/M"
_symmetry_group_IT_number 12
_symmetry_cell_setting 'monoclinic'
loop_
_space_group_symop_operation_xyz
x,y,z
-x,y,-z
-x,-y,-z
x,-y,z
1/2+x,1/2+y,z
1/2-x,1/2+y,-z
1/2-x,1/2-y,-z
1/2+x,1/2-y,z
loop_
_atom_site_type_symbol
_atom_site_label
_atom_site_fract_x
_atom_site_fract_y
_atom_site_fract_z
Si Si1 0.775726 0.101923 0.527656
Si Si2 0.419135 0.943063 0.939668
Si Si3 0.061177 0.227517 0.315982
Si Si4 0.045721 0.398930 0.620303
Si Si5 0.801135 0.058183 0.815828
Si Si6 0.998443 0.117160 0.332747
Si Si7 0.522323 0.804199 0.828279
Si Si8 0.754051 0.714615 0.365155
O O1 0.666691 0.088429 0.533512
O O2 0.783795 0.071122 0.664662
O O3 0.767437 0.159063 0.573810
O O4 0.883869 0.099210 0.371708
O O5 0.474488 0.935706 0.755374
O O6 0.406660 0.000000 0.976248
O O7 0.500000 0.924725 0.000000
O O8 0.303342 0.923525 0.037101
O O9 0.018685 0.174679 0.297459
O O10 0.175283 0.224470 0.295941
O O11 0.000000 0.241576 0.500000
O O12 0.049667 0.266205 0.201841
O O13 0.034154 0.349942 0.718533
O O14 0.000000 0.392058 0.500000
O O15 0.905157 0.086271 0.787862
O O16 0.813887 0.000000 0.824178
O O17 0.000000 0.111684 0.500000
O O18 0.632180 0.779507 0.764435
O O19 0.500000 0.818611 0.000000
O O20 0.750000 0.750000 0.500000
#
# Coordination Sequence:
#
# PCOD9183708 Si02
#       8
#     8   8   8   8   8   8   8   8
#     4  10  19  33  55  85 117 151 195 240 297 340
#     4  10  20  37  60  84 116 155 190 237 300 356
#     4  11  18  36  58  81 110 155 200 234 292 352
#     4  11  24  38  58  85 118 159 200 244 294 356
#     4  10  19  33  59  91 119 150 187 240 303 354
#     4   9  17  32  56  85 112 150 191 242 291 347
#     4  11  25  37  55  87 120 152 198 253 295 343
#     4  11  20  34  60  80 113 162 195 241 292 352
#
# _framework density 18.528382000000001
#
# number of rings (size 3 to 8) (size 9 to 14) (size 15 to 20)
#    0.000    1.625    6.250    0.750    3.500    3.000 
#    0.000    0.000    0.000    0.000    0.000    1.750 
#    0.000    0.000    0.000    0.000    0.000    0.000 
#
# Total GULP energy -178293.946138 kJ/mol
# GULP energy per Si atom -5571.685817 kJ/mol
# Density = 1.848621 g / cm^3
# Si number density = 18.528382 Si / 1000 Ang^3
#
#
#
# Elastic Constant Matrix: (Units=GPa)
#
#
# Indices 1 2 3 4 5 6 
#
# 1 118.5283 2.0147 40.8502 0.0000 -19.4362 0.0000
# 2 2.0147 38.7449 11.2711 0.0000 -6.4948 0.0000
# 3 40.8502 11.2711 67.4338 0.0000 1.8151 0.0000
# 4 0.0000 0.0000 0.0000 19.0935 0.0000 -0.4206
# 5 -19.4362 -6.4948 1.8151 0.0000 24.5316 0.0000
# 6 0.0000 0.0000 0.0000 -0.4206 0.0000 17.1412
#
#
#
# Elastic Compliance Matrix: (Units=1/GPa)
#
#
# Indices 1 2 3 4 5 6 
#
# 1 0.013625 0.004097 -0.009277 0.000000 0.012566 0.000000
# 2 0.004097 0.029825 -0.007782 0.000000 0.011718 0.000000
# 3 -0.009277 -0.007782 0.022047 0.000000 -0.011041 0.000000
# 4 0.000000 0.000000 0.000000 0.052402 0.000000 0.001286
# 5 0.012566 0.011718 -0.011041 0.000000 0.054639 0.000000
# 6 0.000000 0.000000 0.000000 0.001286 0.000000 0.058370
#
#
# Mechanical properties :
#
#
# Convention : Reuss Voigt Hill
#
# Bulk Modulus (GPa) = 25.27016 36.99767 31.13392
# Shear Modulus (GPa) = 18.51694 23.52466 21.02080
#
# Velocity S-wave (km/s) = 3.16473 3.56709 3.37192
# Velocity P-wave (km/s) = 5.19829 6.08087 5.65682
#
# Compressibility (1/GPa) = 0.03957236
#
# Stress axis : x y z
#
# Youngs Moduli (GPa) = 73.39536 33.52902 45.35786
#
# Poissons Ratio (x) = -0.13735 0.42077
# Poissons Ratio (y) = -0.30067 0.35298
# Poissons Ratio (z) = 0.68086 0.26092
#
# Static dielectric constant tensor:
#      x y z
#    x 1.769170 0.000000 -0.129540 
#    y 0.000000 1.665490 0.000000 
#    z -0.129540 0.000000 1.666070 
# 
# From -- ./inp_files/66922.got.cif
#   From: 2010.05.17/outbox.cif.g08.bks.cpg/sg12_34_cif.got.tgz:66922.got - 2010.06.03 13:09:07.
