data_PCOD9183652
_publ_section_title
;
Structure prediction by ZEFSAII (Michael W. Deem and Ramdas Pophale) SiO2 
 PCOD9183652
Probable space group: C 2/M
;
_chemical_formula_sum "Si O2"
_cell_formula_units_Z 48
_cell_length_a 14.835660
_cell_length_b 29.868478
_cell_length_c 9.846567
_cell_angle_alpha 90.000000
_cell_angle_beta 145.057195
_cell_angle_gamma 90.000000
_cell_volume 2499.057807
_symmetry_space_group_name_H-M "C 2/M"
_symmetry_group_IT_number 12
_symmetry_cell_setting 'monoclinic'
loop_
_space_group_symop_operation_xyz
x,y,z
-x,y,-z
-x,-y,-z
x,-y,z
1/2+x,1/2+y,z
1/2-x,1/2+y,-z
1/2-x,1/2-y,-z
1/2+x,1/2-y,z
loop_
_atom_site_type_symbol
_atom_site_label
_atom_site_fract_x
_atom_site_fract_y
_atom_site_fract_z
Si Si1 0.653422 0.052195 0.277290
Si Si2 0.078516 0.122662 0.447013
Si Si3 0.449858 0.950533 0.282481
Si Si4 0.320621 0.768538 0.232710
Si Si5 0.742703 0.859674 0.961950
Si Si6 0.675297 0.811416 0.168462
O O1 0.807215 0.080987 0.437543
O O2 0.596718 0.055886 0.362677
O O3 0.680963 0.000000 0.279516
O O4 0.500000 0.066842 0.000000
O O5 0.192883 0.165260 0.577321
O O6 0.000000 0.119087 0.500000
O O7 0.926613 0.130506 0.167996
O O8 0.500000 0.952240 0.500000
O O9 0.381326 0.000000 0.161473
O O10 0.340065 0.907586 0.134221
O O11 0.500000 0.756374 0.500000
O O12 0.211456 0.741091 0.200886
O O13 0.250000 0.750000 0.000000
O O14 0.310526 0.822146 0.211695
O O15 0.704529 0.835812 0.059418
O O16 0.500000 0.819836 0.000000
#
# Coordination Sequence:
#
# PCOD9183652 Si02
#       6
#     8   8   8   8   8   8
#     4  10  20  35  58  88 117 149 196 245 289 348
#     4  10  19  33  55  83 116 151 190 238 295 344
#     4  10  21  38  58  80 111 152 193 234 288 347
#     4  10  20  37  57  79 110 147 187 234 288 346
#     4  10  20  35  56  80 110 151 193 233 282 349
#     4  10  19  34  56  82 113 147 185 234 293 344
#
# _framework density 19.207238
#
# number of rings (size 3 to 8) (size 9 to 14) (size 15 to 20)
#    0.000    2.000    0.000    6.500    0.000    1.000 
#    0.000   11.667    0.000    3.000    0.000    0.000 
#    0.000    0.000    0.000    0.000    0.000    0.000 
#
# Total GULP energy -133682.321284 kJ/mol
# GULP energy per Si atom -5570.096720 kJ/mol
# Density = 1.916352 g / cm^3
# Si number density = 19.207238 Si / 1000 Ang^3
#
#
#
# Elastic Constant Matrix: (Units=GPa)
#
#
# Indices 1 2 3 4 5 6 
#
# 1 63.4471 24.0674 37.4792 0.0000 20.8870 0.0000
# 2 24.0674 137.0241 49.4845 0.0000 29.6395 0.0000
# 3 37.4792 49.4845 106.9172 0.0000 30.5437 0.0000
# 4 0.0000 0.0000 0.0000 -6.0230 0.0000 3.5227
# 5 20.8870 29.6395 30.5437 0.0000 31.7296 0.0000
# 6 0.0000 0.0000 0.0000 3.5227 0.0000 8.0607
#
#
#
# Elastic Compliance Matrix: (Units=1/GPa)
#
#
# Indices 1 2 3 4 5 6 
#
# 1 0.021832 0.000029 -0.004901 0.000000 -0.009681 0.000000
# 2 0.000029 0.009646 -0.002614 0.000000 -0.006514 0.000000
# 3 -0.004901 -0.002614 0.014706 0.000000 -0.008488 0.000000
# 4 0.000000 0.000000 0.000000 -0.132232 0.000000 0.057789
# 5 -0.009681 -0.006514 -0.008488 0.000000 0.052145 0.000000
# 6 0.000000 0.000000 0.000000 0.057789 0.000000 0.098803
#
#
# Mechanical properties :
#
#
# Convention : Reuss Voigt Hill
#
# Bulk Modulus (GPa) = 32.03831 58.82783 45.43307
# Shear Modulus (GPa) = 55.38628 19.84396 37.61512
#
# Velocity S-wave (km/s) = 5.37576 3.21775 4.43016
# Velocity P-wave (km/s) = 7.43291 6.67081 7.06215
#
# Compressibility (1/GPa) = 0.03121263
#
# Stress axis : x y z
#
# Youngs Moduli (GPa) = 45.80380 103.67289 68.00076
#
# Poissons Ratio (x) = -0.00305 0.33328
# Poissons Ratio (y) = -0.00135 0.17775
# Poissons Ratio (z) = 0.22449 0.27099
#
# Static dielectric constant tensor:
#      x y z
#    x 1.671400 0.000000 -0.051780 
#    y 0.000000 1.719200 0.000000 
#    z -0.051780 0.000000 1.664680 
# 
# From -- ./inp_files/150318.got.cif
#   From: 2010.05.17/outbox.cif.g08.bks.cpg/sg12_76_cif.got.tgz:150318.got - 2010.06.03 13:09:07.
