data_PCOD9183629
_publ_section_title
;
Structure prediction by ZEFSAII (Michael W. Deem and Ramdas Pophale) SiO2 
 PCOD9183629
Probable space group: C 2/M
;
_chemical_formula_sum "Si O2"
_cell_formula_units_Z 64
_cell_length_a 26.156115
_cell_length_b 8.790496
_cell_length_c 15.126940
_cell_angle_alpha 90.000000
_cell_angle_beta 79.735515
_cell_angle_gamma 90.000000
_cell_volume 3422.401006
_symmetry_space_group_name_H-M "C 2/M"
_symmetry_group_IT_number 12
_symmetry_cell_setting 'monoclinic'
loop_
_space_group_symop_operation_xyz
x,y,z
-x,y,-z
-x,-y,-z
x,-y,z
1/2+x,1/2+y,z
1/2-x,1/2+y,-z
1/2-x,1/2-y,-z
1/2+x,1/2-y,z
loop_
_atom_site_type_symbol
_atom_site_label
_atom_site_fract_x
_atom_site_fract_y
_atom_site_fract_z
Si Si1 0.992135 0.321085 0.402784
Si Si2 0.439342 0.683318 0.157041
Si Si3 0.849020 0.183151 0.061917
Si Si4 0.775306 0.180242 0.405572
Si Si5 0.654968 0.817761 0.128929
Si Si6 0.544248 0.681658 0.213842
Si Si7 0.252894 0.685122 0.216088
Si Si8 0.384195 0.823494 0.344002
O O1 0.007513 0.500000 0.394039
O O2 0.931356 0.312453 0.398274
O O3 0.000000 0.265230 0.500000
O O4 0.022468 0.233651 0.316029
O O5 0.435715 0.500000 0.168808
O O6 0.407130 0.721332 0.078768
O O7 0.499579 0.723984 0.155132
O O8 0.407875 0.763183 0.245282
O O9 0.805683 0.228247 0.147961
O O10 0.846572 0.000000 0.052890
O O11 0.836678 0.259048 0.972870
O O12 0.750000 0.250000 0.500000
O O13 0.753489 0.237323 0.317554
O O14 0.835739 0.222683 0.385594
O O15 0.768092 0.000000 0.410285
O O16 0.599285 0.757120 0.177751
O O17 0.702203 0.765535 0.177406
O O18 0.654567 0.000000 0.129790
O O19 0.549788 0.500000 0.209815
O O20 0.252916 0.500000 0.217836
O O21 0.368685 0.000000 0.341038
#
# Coordination Sequence:
#
# PCOD9183629 Si02
#       8
#     8   8   8   8   8   8   8   8
#     4   9  19  36  58  82 111 149 188 227 279 342
#     4   9  18  35  60  82 108 147 187 227 277 335
#     4  10  19  37  62  85 108 145 192 236 283 340
#     4  11  22  39  59  83 113 148 189 234 285 338
#     4  11  23  38  56  83 116 153 189 233 285 338
#     4  10  21  37  56  82 114 150 190 234 281 333
#     4   9  20  39  61  80 110 152 192 229 281 344
#     4  10  19  33  55  83 111 141 182 231 280 331
#
# _framework density 18.700323000000001
#
# number of rings (size 3 to 8) (size 9 to 14) (size 15 to 20)
#    0.000    2.125    1.250    1.875    0.000    3.250 
#    0.000   10.625    0.000    0.000    0.000    0.000 
#    0.000    0.000    0.000    0.000    0.000    0.000 
#
# Total GULP energy -178568.402976 kJ/mol
# GULP energy per Si atom -5580.262593 kJ/mol
# Density = 1.865776 g / cm^3
# Si number density = 18.700323 Si / 1000 Ang^3
#
#
#
# Elastic Constant Matrix: (Units=GPa)
#
#
# Indices 1 2 3 4 5 6 
#
# 1 113.5526 28.8018 63.3093 0.0000 9.5196 0.0000
# 2 28.8018 22.1369 23.1930 0.0000 5.7207 0.0000
# 3 63.3093 23.1930 109.6230 0.0000 19.3161 0.0000
# 4 0.0000 0.0000 0.0000 32.6358 0.0000 -3.7677
# 5 9.5196 5.7207 19.3161 0.0000 20.5595 0.0000
# 6 0.0000 0.0000 0.0000 -3.7677 0.0000 28.7716
#
#
#
# Elastic Compliance Matrix: (Units=1/GPa)
#
#
# Indices 1 2 3 4 5 6 
#
# 1 0.015962 -0.014549 -0.006653 0.000000 0.002908 0.000000
# 2 -0.014549 0.071829 -0.005345 0.000000 -0.008228 0.000000
# 3 -0.006653 -0.005345 0.015927 0.000000 -0.010396 0.000000
# 4 0.000000 0.000000 0.000000 0.031112 0.000000 0.004074
# 5 0.002908 -0.008228 -0.010396 0.000000 0.059350 0.000000
# 6 0.000000 0.000000 0.000000 0.004074 0.000000 0.035290
#
#
# Mechanical properties :
#
#
# Convention : Reuss Voigt Hill
#
# Bulk Modulus (GPa) = 19.75300 52.88008 36.31654
# Shear Modulus (GPa) = 16.69798 25.06061 20.87929
#
# Velocity S-wave (km/s) = 2.99143 3.66473 3.34506
# Velocity P-wave (km/s) = 4.74525 6.80044 5.86359
#
# Compressibility (1/GPa) = 0.05062521
#
# Stress axis : x y z
#
# Youngs Moduli (GPa) = 62.64848 13.92189 62.78757
#
# Poissons Ratio (x) = 0.20256 0.41770
# Poissons Ratio (y) = 0.91150 0.33557
# Poissons Ratio (z) = 0.41677 0.07441
#
# Static dielectric constant tensor:
#      x y z
#    x 1.668700 0.000000 0.011080 
#    y 0.000000 1.637510 0.000000 
#    z 0.011080 0.000000 1.631940 
# 
# From -- ./inp_files/243851.got.cif
#   From: 2010.05.17/outbox.cif.g08.bks.cpg/sg12_122_cif.got.tgz:243851.got - 2010.06.03 13:09:07.
