data_PCOD9183749
_publ_section_title
;
Structure prediction by ZEFSAII (Michael W. Deem and Ramdas Pophale) SiO2 
 PCOD9183749
Probable space group: C 2/M
;
_chemical_formula_sum "Si O2"
_cell_formula_units_Z 48
_cell_length_a 16.586727
_cell_length_b 24.012558
_cell_length_c 6.017628
_cell_angle_alpha 90.000000
_cell_angle_beta 56.808630
_cell_angle_gamma 90.000000
_cell_volume 2005.720481
_symmetry_space_group_name_H-M "C 2/M"
_symmetry_group_IT_number 12
_symmetry_cell_setting 'monoclinic'
loop_
_space_group_symop_operation_xyz
x,y,z
-x,y,-z
-x,-y,-z
x,-y,z
1/2+x,1/2+y,z
1/2-x,1/2+y,-z
1/2-x,1/2-y,-z
1/2+x,1/2-y,z
loop_
_atom_site_type_symbol
_atom_site_label
_atom_site_fract_x
_atom_site_fract_y
_atom_site_fract_z
Si Si1 0.469941 0.062444 0.782489
Si Si2 0.161953 0.641693 0.802160
Si Si3 0.987634 0.165277 0.770863
Si Si4 0.770124 0.172357 0.023616
Si Si5 0.806573 0.435507 0.632310
Si Si6 0.586665 0.220015 0.539351
O O1 0.402834 0.115980 0.906549
O O2 0.427476 0.000000 0.822643
O O3 0.500000 0.060646 0.000000
O O4 0.424463 0.067396 0.496991
O O5 0.247654 0.672571 0.796484
O O6 0.202627 0.590209 0.598897
O O7 0.100949 0.680228 0.730508
O O8 0.877776 0.187245 0.926130
O O9 0.000000 0.138169 0.500000
O O10 0.058369 0.218410 0.660476
O O11 0.000000 0.137783 0.000000
O O12 0.753390 0.108060 0.131134
O O13 0.688172 0.209395 0.262942
O O14 0.778934 0.500000 0.687081
O O15 0.500000 0.205296 0.500000
#
# Coordination Sequence:
#
# PCOD9183749 Si02
#       6
#     8   8   8   8   8   8
#     4  10  19  33  55  92 139 184 223 270 347 434
#     4  11  23  37  65  97 139 189 234 287 350 436
#     4  11  29  53  76 103 140 190 245 308 369 429
#     4  11  26  44  73 104 139 187 239 298 357 434
#     4  10  22  37  62 101 145 184 230 286 356 437
#     4  10  27  44  66  98 141 184 237 292 358 429
#
# _framework density 23.931550000000001
#
# number of rings (size 3 to 8) (size 9 to 14) (size 15 to 20)
#    0.000    1.500    1.667    1.000   16.333    5.333 
#    0.000    0.000    0.000    1.500    0.000    0.000 
#    0.000    0.000    0.000    0.000    0.000    0.000 
#
# Total GULP energy -134015.250460 kJ/mol
# GULP energy per Si atom -5583.968769 kJ/mol
# Density = 2.387708 g / cm^3
# Si number density = 23.931550 Si / 1000 Ang^3
#
#
#
# Elastic Constant Matrix: (Units=GPa)
#
#
# Indices 1 2 3 4 5 6 
#
# 1 104.3370 14.5119 50.4678 0.0000 -4.2131 0.0000
# 2 14.5119 109.9363 30.2624 0.0000 -0.0990 0.0000
# 3 50.4678 30.2624 104.1959 0.0000 6.5577 0.0000
# 4 0.0000 0.0000 0.0000 17.2510 0.0000 2.0866
# 5 -4.2131 -0.0990 6.5577 0.0000 48.9115 0.0000
# 6 0.0000 0.0000 0.0000 2.0866 0.0000 20.7920
#
#
#
# Elastic Compliance Matrix: (Units=1/GPa)
#
#
# Indices 1 2 3 4 5 6 
#
# 1 0.012696 0.000057 -0.006288 0.000000 0.001937 0.000000
# 2 0.000057 0.009895 -0.002928 0.000000 0.000417 0.000000
# 3 -0.006288 -0.002928 0.013643 0.000000 -0.002377 0.000000
# 4 0.000000 0.000000 0.000000 0.058680 0.000000 -0.005889
# 5 0.001937 0.000417 -0.002377 0.000000 0.020931 0.000000
# 6 0.000000 0.000000 0.000000 -0.005889 0.000000 0.048686
#
#
# Mechanical properties :
#
#
# Convention : Reuss Voigt Hill
#
# Bulk Modulus (GPa) = 55.81496 56.55038 56.18267
# Shear Modulus (GPa) = 26.48012 32.27270 29.37641
#
# Velocity S-wave (km/s) = 3.33001 3.67623 3.50740
# Velocity P-wave (km/s) = 6.17727 6.45763 6.31900
#
# Compressibility (1/GPa) = 0.01791634
#
# Stress axis : x y z
#
# Youngs Moduli (GPa) = 78.76477 101.06159 73.29951
#
# Poissons Ratio (x) = -0.00573 0.46089
# Poissons Ratio (y) = -0.00446 0.21459
# Poissons Ratio (z) = 0.49525 0.29587
#
# Static dielectric constant tensor:
#      x y z
#    x 2.084740 0.000000 0.185640 
#    y 0.000000 1.905180 0.000000 
#    z 0.185640 0.000000 2.238890 
# 
# From -- ./inp_files/13049.got.cif
#   From: 2010.05.17/outbox.cif.g08.bks.cpg/sg12_7_cif.got.tgz:13049.got - 2010.06.03 13:09:07.
