data_PCOD9183890
_publ_section_title
;
Structure prediction by ZEFSAII (Michael W. Deem and Ramdas Pophale) SiO2 
 PCOD9183890
Probable space group: C 2/M
;
_chemical_formula_sum "Si O2"
_cell_formula_units_Z 56
_cell_length_a 15.331510
_cell_length_b 9.512165
_cell_length_c 23.252508
_cell_angle_alpha 90.000000
_cell_angle_beta 58.962116
_cell_angle_gamma 90.000000
_cell_volume 2905.541170
_symmetry_space_group_name_H-M "C 2/M"
_symmetry_group_IT_number 12
_symmetry_cell_setting 'monoclinic'
loop_
_space_group_symop_operation_xyz
x,y,z
-x,y,-z
-x,-y,-z
x,-y,z
1/2+x,1/2+y,z
1/2-x,1/2+y,-z
1/2-x,1/2-y,-z
1/2+x,1/2-y,z
loop_
_atom_site_type_symbol
_atom_site_label
_atom_site_fract_x
_atom_site_fract_y
_atom_site_fract_z
Si Si1 0.227878 0.836942 0.332224
Si Si2 0.032754 0.659927 0.926445
Si Si3 0.591700 0.338682 0.192578
Si Si4 0.817591 0.659142 0.933719
Si Si5 0.979307 0.165670 0.655111
Si Si6 0.186335 0.666933 0.569299
Si Si7 0.873606 0.837941 0.200835
O O1 0.108340 0.816126 0.362352
O O2 0.260780 0.814690 0.386510
O O3 0.291627 0.738198 0.268499
O O4 0.250779 0.000000 0.309333
O O5 0.071999 0.500000 0.920507
O O6 0.108997 0.755365 0.864438
O O7 0.929269 0.652446 0.924654
O O8 0.000000 0.715232 0.000000
O O9 0.628374 0.500000 0.176691
O O10 0.665990 0.236829 0.132456
O O11 0.571849 0.302444 0.265627
O O12 0.481229 0.333582 0.198890
O O13 0.778825 0.500000 0.940846
O O14 0.750000 0.750000 0.000000
O O15 0.075101 0.263991 0.611800
O O16 0.009784 0.000000 0.646332
O O17 0.181534 0.500000 0.558752
O O18 0.250000 0.750000 0.500000
O O19 0.847677 0.000000 0.199740
#
# Coordination Sequence:
#
# PCOD9183890 Si02
#       7
#     8   8   8   8   8   8   8
#     4  10  22  39  62  90 120 157 200 241 290 355
#     4   9  19  35  53  73 103 148 196 238 288 350
#     4   9  18  34  56  79 107 147 190 237 292 348
#     4  10  20  33  51  74 105 145 188 238 289 345
#     4  10  21  40  64  90 120 157 200 243 290 352
#     4  11  24  42  65  92 124 161 197 243 297 352
#     4  10  19  33  56  83 112 148 191 245 300 347
#
# _framework density 19.273517999999999
#
# number of rings (size 3 to 8) (size 9 to 14) (size 15 to 20)
#    0.000    2.143    1.429    1.286    0.000    4.857 
#    0.000    8.571    0.000    0.000    0.000    0.000 
#    0.000    0.000    0.000    0.000    0.000    0.000 
#
# Total GULP energy -156400.022937 kJ/mol
# GULP energy per Si atom -5585.715105 kJ/mol
# Density = 1.922965 g / cm^3
# Si number density = 19.273518 Si / 1000 Ang^3
#
#
#
# Elastic Constant Matrix: (Units=GPa)
#
#
# Indices 1 2 3 4 5 6 
#
# 1 59.0952 56.0005 43.6139 0.0000 -1.7089 0.0000
# 2 56.0005 153.2715 116.0000 0.0000 -9.0670 0.0000
# 3 43.6139 116.0000 136.6245 0.0000 -5.8568 0.0000
# 4 0.0000 0.0000 0.0000 39.5138 0.0000 -4.0412
# 5 -1.7089 -9.0670 -5.8568 0.0000 12.5439 0.0000
# 6 0.0000 0.0000 0.0000 -4.0412 0.0000 20.1913
#
#
#
# Elastic Compliance Matrix: (Units=1/GPa)
#
#
# Indices 1 2 3 4 5 6 
#
# 1 0.026045 -0.009275 -0.000586 0.000000 -0.003430 0.000000
# 2 -0.009275 0.022023 -0.015418 0.000000 0.007457 0.000000
# 3 -0.000586 -0.015418 0.020527 0.000000 -0.001640 0.000000
# 4 0.000000 0.000000 0.000000 0.025836 0.000000 0.005171
# 5 -0.003430 0.007457 -0.001640 0.000000 0.083876 0.000000
# 6 0.000000 0.000000 0.000000 0.005171 0.000000 0.050561
#
#
# Mechanical properties :
#
#
# Convention : Reuss Voigt Hill
#
# Bulk Modulus (GPa) = 55.44529 86.69111 71.06820
# Shear Modulus (GPa) = 17.51686 23.34160 20.42923
#
# Velocity S-wave (km/s) = 3.01799 3.48382 3.25924
# Velocity P-wave (km/s) = 6.40113 7.82686 7.14962
#
# Compressibility (1/GPa) = 0.01803580
#
# Stress axis : x y z
#
# Youngs Moduli (GPa) = 38.39554 45.40672 48.71701
#
# Poissons Ratio (x) = 0.42116 0.02855
# Poissons Ratio (y) = 0.35613 0.75112
# Poissons Ratio (z) = 0.02250 0.70008
#
# Static dielectric constant tensor:
#      x y z
#    x 1.690860 0.000000 0.009740 
#    y 0.000000 1.664570 0.000000 
#    z 0.009740 0.000000 1.634080 
# 
# From -- ./inp_files/275480.got.cif
#   From: 2010.05.17/outbox.cif.g08.bks.cpg/sg12_138_cif.got.tgz:275480.got - 2010.06.03 13:09:07.
