data_PCOD9183967
_publ_section_title
;
Structure prediction by ZEFSAII (Michael W. Deem and Ramdas Pophale) SiO2 
 PCOD9183967
Probable space group: C 2/M
;
_chemical_formula_sum "Si O2"
_cell_formula_units_Z 64
_cell_length_a 19.297880
_cell_length_b 8.764003
_cell_length_c 20.786935
_cell_angle_alpha 90.000000
_cell_angle_beta 98.017624
_cell_angle_gamma 90.000000
_cell_volume 3481.260778
_symmetry_space_group_name_H-M "C 2/M"
_symmetry_group_IT_number 12
_symmetry_cell_setting 'monoclinic'
loop_
_space_group_symop_operation_xyz
x,y,z
-x,y,-z
-x,-y,-z
x,-y,z
1/2+x,1/2+y,z
1/2-x,1/2+y,-z
1/2-x,1/2-y,-z
1/2+x,1/2-y,z
loop_
_atom_site_type_symbol
_atom_site_label
_atom_site_fract_x
_atom_site_fract_y
_atom_site_fract_z
Si Si1 0.025394 0.184472 0.073854
Si Si2 0.080466 0.684799 0.524683
Si Si3 0.336313 0.319150 0.840065
Si Si4 0.167054 0.684858 0.411900
Si Si5 0.447044 0.819066 0.186561
Si Si6 0.912116 0.681971 0.727306
Si Si7 0.688128 0.684685 0.631760
Si Si8 0.304187 0.318315 0.218099
O O1 0.105768 0.228340 0.099803
O O2 0.978320 0.255147 0.124115
O O3 0.021094 0.000000 0.077966
O O4 0.000000 0.230458 0.000000
O O5 0.081369 0.500000 0.527752
O O6 0.131264 0.737419 0.472990
O O7 0.116576 0.749919 0.593283
O O8 0.000000 0.729834 0.500000
O O9 0.327833 0.500000 0.842494
O O10 0.370289 0.271872 0.776359
O O11 0.261285 0.241628 0.830989
O O12 0.170044 0.500000 0.415694
O O13 0.115790 0.723796 0.346187
O O14 0.245034 0.736779 0.402563
O O15 0.506433 0.790941 0.248485
O O16 0.375774 0.740547 0.197409
O O17 0.437391 0.000000 0.179844
O O18 0.898767 0.500000 0.734738
O O19 0.686068 0.500000 0.629668
O O20 0.700350 0.731806 0.707444
O O21 0.302629 0.500000 0.218252
#
# Coordination Sequence:
#
# PCOD9183967 Si02
#       8
#     8   8   8   8   8   8   8   8
#     4   9  19  38  62  86 117 155 187 220 269 329
#     4  10  22  36  54  78 106 139 179 229 283 336
#     4  10  19  33  56  86 114 139 182 231 266 319
#     4   9  17  34  55  75 103 139 179 219 271 337
#     4  10  21  34  56  87 116 146 184 233 278 322
#     4   9  17  33  55  77 107 145 179 219 276 334
#     4  10  21  37  56  74 102 144 185 225 273 335
#     4  11  22  37  56  79 113 152 186 228 286 338
#
# _framework density 18.384143999999999
#
# number of rings (size 3 to 8) (size 9 to 14) (size 15 to 20)
#    0.000    2.250    1.250    1.500    1.750    2.500 
#    0.000    1.250    0.000    0.000    0.000    0.000 
#    0.000    0.000    0.000    0.000    0.000    0.000 
#
# Total GULP energy -178556.134833 kJ/mol
# GULP energy per Si atom -5579.879214 kJ/mol
# Density = 1.834230 g / cm^3
# Si number density = 18.384144 Si / 1000 Ang^3
#
#
#
# Elastic Constant Matrix: (Units=GPa)
#
#
# Indices 1 2 3 4 5 6 
#
# 1 148.8175 38.8987 52.9874 0.0000 15.8846 0.0000
# 2 38.8987 19.1993 19.8760 0.0000 8.2074 0.0000
# 3 52.9874 19.8760 85.0289 0.0000 26.8563 0.0000
# 4 0.0000 0.0000 0.0000 20.4556 0.0000 3.1925
# 5 15.8846 8.2074 26.8563 0.0000 24.9310 0.0000
# 6 0.0000 0.0000 0.0000 3.1925 0.0000 23.7690
#
#
#
# Elastic Compliance Matrix: (Units=1/GPa)
#
#
# Indices 1 2 3 4 5 6 
#
# 1 0.015078 -0.028009 -0.004134 0.000000 0.004066 0.000000
# 2 -0.028009 0.121826 -0.006052 0.000000 -0.015741 0.000000
# 3 -0.004134 -0.006052 0.021660 0.000000 -0.018706 0.000000
# 4 0.000000 0.000000 0.000000 0.049933 0.000000 -0.006707
# 5 0.004066 -0.015741 -0.018706 0.000000 0.062853 0.000000
# 6 0.000000 0.000000 0.000000 -0.006707 0.000000 0.042972
#
#
# Mechanical properties :
#
#
# Convention : Reuss Voigt Hill
#
# Bulk Modulus (GPa) = 12.16892 52.95221 32.56057
# Shear Modulus (GPa) = 11.95879 23.25001 17.60440
#
# Velocity S-wave (km/s) = 2.55325 3.56009 3.09785
# Velocity P-wave (km/s) = 3.91481 6.76496 5.52677
#
# Compressibility (1/GPa) = 0.08217658
#
# Stress axis : x y z
#
# Youngs Moduli (GPa) = 66.31989 8.20843 46.16897
#
# Poissons Ratio (x) = 0.22991 0.19084
# Poissons Ratio (y) = 1.85753 0.27940
# Poissons Ratio (z) = 0.27413 0.04967
#
# Static dielectric constant tensor:
#      x y z
#    x 1.635040 0.000000 0.014000 
#    y 0.000000 1.613300 0.000000 
#    z 0.014000 0.000000 1.617870 
# 
# From -- ./inp_files/314123.got.cif
#   From: 2010.05.17/outbox.cif.g08.bks.cpg/sg12_158_cif.got.tgz:314123.got - 2010.06.03 13:09:07.
