data_PCOD9183187
_publ_section_title
;
Structure prediction by ZEFSAII (Michael W. Deem and Ramdas Pophale) SiO2 
 PCOD9183187
Probable space group: C 2/M
;
_chemical_formula_sum "Si O2"
_cell_formula_units_Z 64
_cell_length_a 25.199995
_cell_length_b 8.691370
_cell_length_c 20.717246
_cell_angle_alpha 90.000000
_cell_angle_beta 126.287278
_cell_angle_gamma 90.000000
_cell_volume 3657.530295
_symmetry_space_group_name_H-M "C 2/M"
_symmetry_group_IT_number 12
_symmetry_cell_setting 'monoclinic'
loop_
_space_group_symop_operation_xyz
x,y,z
-x,y,-z
-x,-y,-z
x,-y,z
1/2+x,1/2+y,z
1/2-x,1/2+y,-z
1/2-x,1/2-y,-z
1/2+x,1/2-y,z
loop_
_atom_site_type_symbol
_atom_site_label
_atom_site_fract_x
_atom_site_fract_y
_atom_site_fract_z
Si Si1 0.178496 0.315531 0.966948
Si Si2 0.157074 0.684247 0.737646
Si Si3 0.299784 0.814921 0.873475
Si Si4 0.925988 0.817145 0.209264
Si Si5 0.804280 0.685426 0.374698
Si Si6 0.161689 0.685214 0.238571
Si Si7 0.430178 0.813717 0.713217
Si Si8 0.320743 0.814329 0.529893
O O1 0.179240 0.500000 0.960473
O O2 0.123680 0.247107 0.880743
O O3 0.250000 0.250000 0.000000
O O4 0.167867 0.277046 0.034809
O O5 0.152364 0.500000 0.737984
O O6 0.228364 0.736506 0.815964
O O7 0.101495 0.757607 0.742022
O O8 0.157212 0.732675 0.662427
O O9 0.340407 0.771987 0.838514
O O10 0.289512 0.000000 0.864816
O O11 0.998962 0.756851 0.248274
O O12 0.924116 0.000000 0.206930
O O13 0.800739 0.500000 0.370959
O O14 0.730268 0.749169 0.315032
O O15 0.833172 0.732448 0.464566
O O16 0.165463 0.500000 0.244998
O O17 0.101947 0.733328 0.241411
O O18 0.377884 0.767072 0.620294
O O19 0.435656 0.000000 0.716156
O O20 0.250000 0.750000 0.500000
O O21 0.317204 0.000000 0.529777
#
# Coordination Sequence:
#
# PCOD9183187 Si02
#       8
#     8   8   8   8   8   8   8   8
#     4  11  21  35  57  84 113 143 180 225 272 324
#     4  10  19  33  54  79 109 144 179 222 275 327
#     4   9  18  32  54  83 111 138 175 222 268 319
#     4  12  25  39  55  77 108 147 187 231 277 327
#     4   9  18  31  52  83 113 140 176 223 273 323
#     4   9  17  32  54  81 110 142 179 219 267 320
#     4  10  21  37  56  79 110 149 185 222 271 328
#     4  10  19  33  55  84 114 143 182 225 269 322
#
# _framework density 17.498145999999998
#
# number of rings (size 3 to 8) (size 9 to 14) (size 15 to 20)
#    0.000    2.000    2.500    1.875    0.000    2.000 
#    0.000    1.250    0.000    7.500    0.000    0.000 
#    0.000    0.000    0.000    0.000    0.000    0.000 
#
# Total GULP energy -178549.189108 kJ/mol
# GULP energy per Si atom -5579.662160 kJ/mol
# Density = 1.745832 g / cm^3
# Si number density = 17.498146 Si / 1000 Ang^3
#
#
#
# Elastic Constant Matrix: (Units=GPa)
#
#
# Indices 1 2 3 4 5 6 
#
# 1 178.2876 47.0864 89.2559 0.0000 -13.0801 0.0000
# 2 47.0864 35.5116 35.8931 0.0000 -4.9070 0.0000
# 3 89.2559 35.8931 113.8288 0.0000 -9.3823 0.0000
# 4 0.0000 0.0000 0.0000 20.6730 0.0000 4.7620
# 5 -13.0801 -4.9070 -9.3823 0.0000 29.9412 0.0000
# 6 0.0000 0.0000 0.0000 4.7620 0.0000 27.0957
#
#
#
# Elastic Compliance Matrix: (Units=1/GPa)
#
#
# Indices 1 2 3 4 5 6 
#
# 1 0.010769 -0.008306 -0.005697 0.000000 0.001558 0.000000
# 2 -0.008306 0.047963 -0.008481 0.000000 0.001574 0.000000
# 3 -0.005697 -0.008481 0.016020 0.000000 0.001142 0.000000
# 4 0.000000 0.000000 0.000000 0.050413 0.000000 -0.008860
# 5 0.001558 0.001574 0.001142 0.000000 0.034695 0.000000
# 6 0.000000 0.000000 0.000000 -0.008860 0.000000 0.038463
#
#
# Mechanical properties :
#
#
# Convention : Reuss Voigt Hill
#
# Bulk Modulus (GPa) = 33.57451 74.67764 54.12607
# Shear Modulus (GPa) = 19.74580 25.90150 22.82365
#
# Velocity S-wave (km/s) = 3.36289 3.85157 3.61549
# Velocity P-wave (km/s) = 5.85729 7.90883 6.95907
#
# Compressibility (1/GPa) = 0.02978450
#
# Stress axis : x y z
#
# Youngs Moduli (GPa) = 92.86255 20.84961 62.42027
#
# Poissons Ratio (x) = 0.17317 0.35558
# Poissons Ratio (y) = 0.77127 0.52941
# Poissons Ratio (z) = 0.52900 0.17684
#
# Static dielectric constant tensor:
#      x y z
#    x 1.594050 0.000000 -0.049920 
#    y 0.000000 1.586450 0.000000 
#    z -0.049920 0.000000 1.587090 
# 
# From -- ./inp_files/324231.got.cif
#   From: 2010.05.17/outbox.cif.g08.bks.cpg/sg12_163_cif.got.tgz:324231.got - 2010.06.03 13:09:07.
