data_PCOD9183130
_publ_section_title
;
Structure prediction by ZEFSAII (Michael W. Deem and Ramdas Pophale) SiO2 
 PCOD9183130
Probable space group: C 2/M
;
_chemical_formula_sum "Si O2"
_cell_formula_units_Z 64
_cell_length_a 20.617430
_cell_length_b 9.041710
_cell_length_c 24.060512
_cell_angle_alpha 90.000000
_cell_angle_beta 123.314747
_cell_angle_gamma 90.000000
_cell_volume 3748.199620
_symmetry_space_group_name_H-M "C 2/M"
_symmetry_group_IT_number 12
_symmetry_cell_setting 'monoclinic'
loop_
_space_group_symop_operation_xyz
x,y,z
-x,y,-z
-x,-y,-z
x,-y,z
1/2+x,1/2+y,z
1/2-x,1/2+y,-z
1/2-x,1/2-y,-z
1/2+x,1/2-y,z
loop_
_atom_site_type_symbol
_atom_site_label
_atom_site_fract_x
_atom_site_fract_y
_atom_site_fract_z
Si Si1 0.462642 0.676837 0.324083
Si Si2 0.126418 0.676622 0.428805
Si Si3 0.781871 0.825407 0.826474
Si Si4 0.378626 0.824551 0.183950
Si Si5 0.665744 0.177898 0.957966
Si Si6 0.776111 0.822485 0.428085
Si Si7 0.589545 0.177883 0.039250
Si Si8 0.805457 0.177778 0.314238
O O1 0.470130 0.500000 0.327357
O O2 0.543546 0.750458 0.378637
O O3 0.434822 0.735197 0.250927
O O4 0.392030 0.716466 0.333099
O O5 0.118622 0.500000 0.428954
O O6 0.164940 0.740963 0.502846
O O7 0.189318 0.709740 0.409694
O O8 0.708789 0.802721 0.833872
O O9 0.856731 0.752103 0.889190
O O10 0.754999 0.752712 0.756185
O O11 0.792804 0.000000 0.824832
O O12 0.377989 0.778726 0.119345
O O13 0.396173 0.000000 0.196433
O O14 0.674360 0.000000 0.959773
O O15 0.750000 0.250000 0.000000
O O16 0.621369 0.217023 0.993280
O O17 0.790322 0.780553 0.370893
O O18 0.787620 0.000000 0.438438
O O19 0.594747 0.000000 0.048018
O O20 0.500000 0.221307 0.000000
O O21 0.797968 0.000000 0.306159
#
# Coordination Sequence:
#
# PCOD9183130 Si02
#       8
#     8   8   8   8   8   8   8   8
#     4  10  20  34  54  79 107 138 173 216 259 304
#     4  10  20  35  56  80 108 140 171 212 261 305
#     4  10  19  33  54  78 106 137 169 215 268 311
#     4   9  18  33  52  76 104 134 172 216 262 308
#     4  10  19  33  55  78 101 134 176 219 260 309
#     4   9  19  37  58  78 103 140 180 213 250 304
#     4  10  21  36  53  75 105 140 176 214 259 314
#     4   9  19  36  57  79 103 137 179 215 253 306
#
# _framework density 17.074864999999999
#
# number of rings (size 3 to 8) (size 9 to 14) (size 15 to 20)
#    0.000    2.375    1.250    1.125    0.000    3.250 
#    2.250    2.500    0.000    0.000    0.000    0.000 
#    0.000    0.000    0.000    0.000    0.000    0.000 
#
# Total GULP energy -178530.789984 kJ/mol
# GULP energy per Si atom -5579.087187 kJ/mol
# Density = 1.703600 g / cm^3
# Si number density = 17.074865 Si / 1000 Ang^3
#
#
#
# Elastic Constant Matrix: (Units=GPa)
#
#
# Indices 1 2 3 4 5 6 
#
# 1 123.5679 55.3320 113.9648 0.0000 -0.5049 0.0000
# 2 55.3320 41.9410 69.0632 0.0000 5.6373 0.0000
# 3 113.9648 69.0632 176.6556 0.0000 1.0047 0.0000
# 4 0.0000 0.0000 0.0000 36.0897 0.0000 4.5177
# 5 -0.5049 5.6373 1.0047 0.0000 29.8374 0.0000
# 6 0.0000 0.0000 0.0000 4.5177 0.0000 22.4151
#
#
#
# Elastic Compliance Matrix: (Units=1/GPa)
#
#
# Indices 1 2 3 4 5 6 
#
# 1 0.024154 -0.018919 -0.008210 0.000000 0.004260 0.000000
# 2 -0.018919 0.086151 -0.021385 0.000000 -0.015877 0.000000
# 3 -0.008210 -0.021385 0.019299 0.000000 0.003252 0.000000
# 4 0.000000 0.000000 0.000000 0.028426 0.000000 -0.005729
# 5 0.004260 -0.015877 0.003252 0.000000 0.036477 0.000000
# 6 0.000000 0.000000 0.000000 -0.005729 0.000000 0.045768
#
#
# Mechanical properties :
#
#
# Convention : Reuss Voigt Hill
#
# Bulk Modulus (GPa) = 30.69782 90.98716 60.84249
# Shear Modulus (GPa) = 14.36115 24.58872 19.47493
#
# Velocity S-wave (km/s) = 2.90327 3.79892 3.38088
# Velocity P-wave (km/s) = 5.40888 8.52322 7.13797
#
# Compressibility (1/GPa) = 0.03257561
#
# Stress axis : x y z
#
# Youngs Moduli (GPa) = 41.40141 11.60755 51.81524
#
# Poissons Ratio (x) = 0.21960 0.42541
# Poissons Ratio (y) = 0.78326 1.10808
# Poissons Ratio (z) = 0.33991 0.24823
#
# Static dielectric constant tensor:
#      x y z
#    x 1.572020 0.000000 -0.013620 
#    y 0.000000 1.570110 0.000000 
#    z -0.013620 0.000000 1.546150 
# 
# From -- ./inp_files/345570.got.cif
#   From: 2010.05.17/outbox.cif.g08.bks.cpg/sg12_173_cif.got.tgz:345570.got - 2010.06.03 13:09:07.
