data_PCOD9183731
_publ_section_title
;
Structure prediction by ZEFSAII (Michael W. Deem and Ramdas Pophale) SiO2 
 PCOD9183731
Probable space group: C 2/M
;
_chemical_formula_sum "Si O2"
_cell_formula_units_Z 64
_cell_length_a 13.901988
_cell_length_b 26.799352
_cell_length_c 12.063589
_cell_angle_alpha 90.000000
_cell_angle_beta 139.034713
_cell_angle_gamma 90.000000
_cell_volume 2946.576912
_symmetry_space_group_name_H-M "C 2/M"
_symmetry_group_IT_number 12
_symmetry_cell_setting 'monoclinic'
loop_
_space_group_symop_operation_xyz
x,y,z
-x,y,-z
-x,-y,-z
x,-y,z
1/2+x,1/2+y,z
1/2-x,1/2+y,-z
1/2-x,1/2-y,-z
1/2+x,1/2-y,z
loop_
_atom_site_type_symbol
_atom_site_label
_atom_site_fract_x
_atom_site_fract_y
_atom_site_fract_z
Si Si1 0.898869 0.555936 0.632031
Si Si2 0.197670 0.277525 0.631972
Si Si3 0.251658 0.058304 0.090771
Si Si4 0.331883 0.057159 0.826171
Si Si5 0.335374 0.370345 0.169585
Si Si6 0.364889 0.780352 0.966917
Si Si7 0.666491 0.891693 0.626999
Si Si8 0.970872 0.220855 0.700542
O O1 0.884404 0.500000 0.571144
O O2 0.830593 0.556265 0.693426
O O3 0.812464 0.595082 0.481987
O O4 0.075005 0.565405 0.792157
O O5 0.247785 0.245102 0.781365
O O6 0.168353 0.333120 0.648808
O O7 0.072902 0.253350 0.445382
O O8 0.331350 0.283012 0.660529
O O9 0.236354 0.078552 0.201922
O O10 0.218878 0.000000 0.053403
O O11 0.159150 0.093310 0.930308
O O12 0.210174 0.093763 0.769195
O O13 0.314123 0.000000 0.853684
O O14 0.500000 0.072519 0.000000
O O15 0.198940 0.331816 0.043168
O O16 0.472190 0.332920 0.290237
O O17 0.500000 0.789018 0.000000
O O18 0.413537 0.746874 0.114156
O O19 0.500000 0.910474 0.500000
#
# Coordination Sequence:
#
# PCOD9183731 Si02
#       8
#     8   8   8   8   8   8   8   8
#     4   9  18  33  54  85 125 160 200 255 314 374
#     4  10  23  43  60  86 125 170 211 271 324 388
#     4  10  20  35  57  92 129 161 204 262 320 385
#     4  10  19  33  55  86 126 167 207 260 319 377
#     4  12  22  34  61  91 124 165 211 259 311 386
#     4  10  23  39  59  88 125 162 213 266 322 387
#     4  10  21  33  62  88 117 159 210 260 325 376
#     4  10  24  41  61  86 125 169 216 266 327 384
#
# _framework density 21.720117999999999
#
# number of rings (size 3 to 8) (size 9 to 14) (size 15 to 20)
#    0.000    1.875    1.250    2.250    5.250    3.500 
#    0.000    0.000    0.000    3.750    0.000    8.750 
#    0.000    0.000    0.000    0.000    0.000    0.000 
#
# Total GULP energy -178718.011155 kJ/mol
# GULP energy per Si atom -5584.937849 kJ/mol
# Density = 2.167068 g / cm^3
# Si number density = 21.720118 Si / 1000 Ang^3
#
#
#
# Elastic Constant Matrix: (Units=GPa)
#
#
# Indices 1 2 3 4 5 6 
#
# 1 45.8581 21.8445 27.7231 0.0000 -2.2447 0.0000
# 2 21.8445 129.3633 49.1500 0.0000 -10.3006 0.0000
# 3 27.7231 49.1500 82.3975 0.0000 -18.0032 0.0000
# 4 0.0000 0.0000 0.0000 27.2158 0.0000 3.5378
# 5 -2.2447 -10.3006 -18.0032 0.0000 30.9958 0.0000
# 6 0.0000 0.0000 0.0000 3.5378 0.0000 14.7070
#
#
#
# Elastic Compliance Matrix: (Units=1/GPa)
#
#
# Indices 1 2 3 4 5 6 
#
# 1 0.027997 -0.001468 -0.009401 0.000000 -0.003920 0.000000
# 2 -0.001468 0.010073 -0.005505 0.000000 0.000044 0.000000
# 3 -0.009401 -0.005505 0.020656 0.000000 0.009487 0.000000
# 4 0.000000 0.000000 0.000000 0.037929 0.000000 -0.009124
# 5 -0.003920 0.000044 0.009487 0.000000 0.037503 0.000000
# 6 0.000000 0.000000 0.000000 -0.009124 0.000000 0.070190
#
#
# Mechanical properties :
#
#
# Convention : Reuss Voigt Hill
#
# Bulk Modulus (GPa) = 38.49375 50.56158 44.52767
# Shear Modulus (GPa) = 20.34544 25.17715 22.76129
#
# Velocity S-wave (km/s) = 3.06389 3.40834 3.24070
# Velocity P-wave (km/s) = 5.50251 6.23043 5.87775
#
# Compressibility (1/GPa) = 0.02597824
#
# Stress axis : x y z
#
# Youngs Moduli (GPa) = 35.71823 99.27374 48.41250
#
# Poissons Ratio (x) = 0.14575 0.45510
# Poissons Ratio (y) = 0.05244 0.26652
# Poissons Ratio (z) = 0.33577 0.54651
#
# Static dielectric constant tensor:
#      x y z
#    x 1.840940 0.000000 0.005920 
#    y 0.000000 1.756200 0.000000 
#    z 0.005920 0.000000 1.827550 
# 
# From -- ./inp_files/149790.got.cif
#   From: 2010.05.17/outbox.cif.g08.bks.cpg/sg12_75_cif.got.tgz:149790.got - 2010.06.03 13:09:07.
