data_PCOD9183496
_publ_section_title
;
Structure prediction by ZEFSAII (Michael W. Deem and Ramdas Pophale) SiO2 
 PCOD9183496
Probable space group: C 2/M
;
_chemical_formula_sum "Si O2"
_cell_formula_units_Z 56
_cell_length_a 30.028911
_cell_length_b 7.703183
_cell_length_c 12.233691
_cell_angle_alpha 90.000000
_cell_angle_beta 109.305558
_cell_angle_gamma 90.000000
_cell_volume 2670.748297
_symmetry_space_group_name_H-M "C 2/M"
_symmetry_group_IT_number 12
_symmetry_cell_setting 'monoclinic'
loop_
_space_group_symop_operation_xyz
x,y,z
-x,y,-z
-x,-y,-z
x,-y,z
1/2+x,1/2+y,z
1/2-x,1/2+y,-z
1/2-x,1/2-y,-z
1/2+x,1/2-y,z
loop_
_atom_site_type_symbol
_atom_site_label
_atom_site_fract_x
_atom_site_fract_y
_atom_site_fract_z
Si Si1 0.547365 0.288605 0.974110
Si Si2 0.395679 0.796454 0.370782
Si Si3 0.319859 0.799260 0.141752
Si Si4 0.020878 0.789275 0.711491
Si Si5 0.086318 0.203509 0.374127
Si Si6 0.365648 0.289728 0.805306
Si Si7 0.282124 0.795505 0.883560
O O1 0.547311 0.500000 0.974932
O O2 0.544219 0.234395 0.845525
O O3 0.500000 0.234481 0.000000
O O4 0.593826 0.231947 0.076327
O O5 0.359598 0.719964 0.251723
O O6 0.447714 0.771973 0.363635
O O7 0.392220 0.719956 0.488515
O O8 0.385636 0.000000 0.373943
O O9 0.269164 0.789848 0.159957
O O10 0.333521 0.000000 0.135328
O O11 0.310207 0.724311 0.013205
O O12 0.967001 0.724928 0.666779
O O13 0.020611 0.000000 0.707329
O O14 0.118020 0.272608 0.300923
O O15 0.080327 0.000000 0.343927
O O16 0.364450 0.500000 0.805592
O O17 0.315135 0.228788 0.806463
O O18 0.273834 0.000000 0.895095
#
# Coordination Sequence:
#
# PCOD9183496 Si02
#       7
#     8   8   8   8   8   8   8
#     4   9  15  28  52  80 106 135 176 218 255 304
#     4  11  23  37  54  76 106 143 181 222 267 314
#     4   9  20  39  58  79 108 138 173 218 267 318
#     4  10  19  33  55  80 107 141 182 225 263 307
#     4  10  21  36  53  76 108 146 186 222 255 305
#     4  10  19  33  55  81 111 144 176 216 267 316
#     4  10  20  35  59  86 109 133 168 217 271 326
#
# _framework density 20.967907
#
# number of rings (size 3 to 8) (size 9 to 14) (size 15 to 20)
#    0.000    2.143    1.429    2.143    0.000    4.571 
#    0.000    0.714    0.000    0.857    0.000    0.000 
#    0.000    0.000    0.000    0.000    0.000    0.000 
#
# Total GULP energy -156387.958597 kJ/mol
# GULP energy per Si atom -5585.284236 kJ/mol
# Density = 2.092018 g / cm^3
# Si number density = 20.967907 Si / 1000 Ang^3
#
#
#
# Elastic Constant Matrix: (Units=GPa)
#
#
# Indices 1 2 3 4 5 6 
#
# 1 103.8855 -11.6556 37.6669 0.0000 -20.4341 0.0000
# 2 -11.6556 32.8623 -3.5545 0.0000 2.4881 0.0000
# 3 37.6669 -3.5545 79.7972 0.0000 -14.3827 0.0000
# 4 0.0000 0.0000 0.0000 12.0683 0.0000 0.8228
# 5 -20.4341 2.4881 -14.3827 0.0000 25.7665 0.0000
# 6 0.0000 0.0000 0.0000 0.8228 0.0000 6.1396
#
#
#
# Elastic Compliance Matrix: (Units=1/GPa)
#
#
# Indices 1 2 3 4 5 6 
#
# 1 0.013220 0.003610 -0.004728 0.000000 0.007496 0.000000
# 2 0.003610 0.031701 -0.000364 0.000000 -0.000402 0.000000
# 3 -0.004728 -0.000364 0.015653 0.000000 0.005023 0.000000
# 4 0.000000 0.000000 0.000000 0.083626 0.000000 -0.011207
# 5 0.007496 -0.000402 0.005023 0.000000 0.047597 0.000000
# 6 0.000000 0.000000 0.000000 -0.011207 0.000000 0.164380
#
#
# Mechanical properties :
#
#
# Convention : Reuss Voigt Hill
#
# Bulk Modulus (GPa) = 17.35855 29.05095 23.20475
# Shear Modulus (GPa) = 13.21544 21.73408 17.47476
#
# Velocity S-wave (km/s) = 2.51324 3.22303 2.89001
# Velocity P-wave (km/s) = 4.08882 5.26646 4.71455
#
# Compressibility (1/GPa) = 0.05760851
#
# Stress axis : x y z
#
# Youngs Moduli (GPa) = 75.64382 31.54437 63.88652
#
# Poissons Ratio (x) = -0.11387 0.30207
# Poissons Ratio (y) = -0.27306 0.02327
# Poissons Ratio (z) = 0.35767 0.01149
#
# Static dielectric constant tensor:
#      x y z
#    x 1.732510 0.000000 0.010890 
#    y 0.000000 1.788870 0.000000 
#    z 0.010890 0.000000 1.753750 
# 
# From -- ./inp_files/186375.got.cif
#   From: 2010.05.17/outbox.cif.g08.bks.cpg/sg12_94_cif.got.tgz:186375.got - 2010.06.03 13:09:07.
