data_PCOD9183211
_publ_section_title
;
Structure prediction by ZEFSAII (Michael W. Deem and Ramdas Pophale) SiO2 
 PCOD9183211
Probable space group: C 2/M
;
_chemical_formula_sum "Si O2"
_cell_formula_units_Z 60
_cell_length_a 22.106021
_cell_length_b 12.989380
_cell_length_c 21.222490
_cell_angle_alpha 90.000000
_cell_angle_beta 33.536248
_cell_angle_gamma 90.000000
_cell_volume 3366.663105
_symmetry_space_group_name_H-M "C 2/M"
_symmetry_group_IT_number 12
_symmetry_cell_setting 'monoclinic'
loop_
_space_group_symop_operation_xyz
x,y,z
-x,y,-z
-x,-y,-z
x,-y,z
1/2+x,1/2+y,z
1/2-x,1/2+y,-z
1/2-x,1/2-y,-z
1/2+x,1/2-y,z
loop_
_atom_site_type_symbol
_atom_site_label
_atom_site_fract_x
_atom_site_fract_y
_atom_site_fract_z
Si Si1 0.500000 0.274116 0.500000
Si Si2 0.212486 0.881659 0.100152
Si Si3 0.500219 0.379863 0.366364
Si Si4 0.553650 0.621999 0.885362
Si Si5 0.592567 0.268616 0.093136
Si Si6 0.190080 0.617786 0.344488
Si Si7 0.592938 0.771794 0.657595
Si Si8 0.262326 0.112264 0.554845
O O1 0.483278 0.342903 0.452379
O O2 0.602781 0.199360 0.396074
O O3 0.125384 0.870333 0.232581
O O4 0.148825 0.852712 0.090467
O O5 0.248417 0.000000 0.066863
O O6 0.312947 0.802994 0.017130
O O7 0.469379 0.500000 0.385709
O O8 0.434743 0.304647 0.376412
O O9 0.549067 0.500000 0.874598
O O10 0.483496 0.681155 0.893909
O O11 0.682912 0.647682 0.776005
O O12 0.500000 0.638844 0.000000
O O13 0.513938 0.205775 0.209083
O O14 0.173759 0.500000 0.335148
O O15 0.176118 0.615523 0.432286
O O16 0.654835 0.867927 0.574112
O O17 0.675873 0.704285 0.627366
O O18 0.208245 0.000000 0.597183
#
# Coordination Sequence:
#
# PCOD9183211 Si02
#       8
#     4   8   8   8   8   8   8   8
#     4  12  22  36  56  80 112 146 184 224 264 328
#     4   9  20  36  55  80 109 139 176 223 276 320
#     4  10  21  36  54  77 104 142 183 224 265 313
#     4  10  21  36  56  82 109 141 182 223 264 319
#     4  10  19  34  59  79 105 140 179 220 269 320
#     4  10  21  37  56  81 112 146 177 219 276 325
#     4  10  19  34  54  80 105 135 177 220 265 318
#     4  10  19  33  54  80 109 136 169 216 272 323
#
# _framework density 17.821802000000002
#
# number of rings (size 3 to 8) (size 9 to 14) (size 15 to 20)
#    0.000    2.000    2.667    1.200    1.867    1.600 
#    0.000    0.000    0.000    2.000    0.000    0.000 
#    0.000    0.000    0.000    0.000    0.000    0.000 
#
# Total GULP energy -167280.688579 kJ/mol
# GULP energy per Si atom -5576.022953 kJ/mol
# Density = 1.778124 g / cm^3
# Si number density = 17.821802 Si / 1000 Ang^3
#
#
#
# Elastic Constant Matrix: (Units=GPa)
#
#
# Indices 1 2 3 4 5 6 
#
# 1 43.1329 8.2049 13.6001 0.0000 -0.6361 0.0000
# 2 8.2049 43.3788 20.5731 0.0000 2.1638 0.0000
# 3 13.6001 20.5731 66.8451 0.0000 -2.2728 0.0000
# 4 0.0000 0.0000 0.0000 20.7660 0.0000 -0.4367
# 5 -0.6361 2.1638 -2.2728 0.0000 20.5582 0.0000
# 6 0.0000 0.0000 0.0000 -0.4367 0.0000 18.9433
#
#
#
# Elastic Compliance Matrix: (Units=1/GPa)
#
#
# Indices 1 2 3 4 5 6 
#
# 1 0.025051 -0.002764 -0.004226 0.000000 0.000599 0.000000
# 2 -0.002764 0.027593 -0.008062 0.000000 -0.003881 0.000000
# 3 -0.004226 -0.008062 0.018394 0.000000 0.002751 0.000000
# 4 0.000000 0.000000 0.000000 0.048179 0.000000 0.001111
# 5 0.000599 -0.003881 0.002751 0.000000 0.049374 0.000000
# 6 0.000000 0.000000 0.000000 0.001111 0.000000 0.052815
#
#
# Mechanical properties :
#
#
# Convention : Reuss Voigt Hill
#
# Bulk Modulus (GPa) = 24.42902 26.45700 25.44301
# Shear Modulus (GPa) = 18.85697 19.45208 19.15453
#
# Velocity S-wave (km/s) = 3.25635 3.30733 3.28194
# Velocity P-wave (km/s) = 5.27973 5.42790 5.35433
#
# Compressibility (1/GPa) = 0.04093493
#
# Stress axis : x y z
#
# Youngs Moduli (GPa) = 39.91824 36.24157 54.36412
#
# Poissons Ratio (x) = 0.10017 0.22973
# Poissons Ratio (y) = 0.11034 0.43828
# Poissons Ratio (z) = 0.16869 0.29217
#
# Static dielectric constant tensor:
#      x y z
#    x 1.596420 0.000000 -0.005770 
#    y 0.000000 1.593370 0.000000 
#    z -0.005770 0.000000 1.623370 
# 
# From -- ./inp_files/349350.got.cif
#   From: 2010.05.17/outbox.cif.g08.bks.cpg/sg12_175_cif.got.tgz:349350.got - 2010.06.03 13:09:07.
