data_PCOD9183026
_publ_section_title
;
Structure prediction by ZEFSAII (Michael W. Deem and Ramdas Pophale) SiO2 
 PCOD9183026
Probable space group: C 2/M
;
_chemical_formula_sum "Si O2"
_cell_formula_units_Z 64
_cell_length_a 29.648459
_cell_length_b 9.077323
_cell_length_c 16.021563
_cell_angle_alpha 90.000000
_cell_angle_beta 62.070233
_cell_angle_gamma 90.000000
_cell_volume 3809.626196
_symmetry_space_group_name_H-M "C 2/M"
_symmetry_group_IT_number 12
_symmetry_cell_setting 'monoclinic'
loop_
_space_group_symop_operation_xyz
x,y,z
-x,y,-z
-x,-y,-z
x,-y,z
1/2+x,1/2+y,z
1/2-x,1/2+y,-z
1/2-x,1/2-y,-z
1/2+x,1/2-y,z
loop_
_atom_site_type_symbol
_atom_site_label
_atom_site_fract_x
_atom_site_fract_y
_atom_site_fract_z
Si Si1 0.326131 0.176503 0.399871
Si Si2 0.365761 0.823592 0.848377
Si Si3 0.538760 0.675166 0.153101
Si Si4 0.806069 0.327167 0.068015
Si Si5 0.778176 0.175745 0.601273
Si Si6 0.416478 0.173453 0.047559
Si Si7 0.290677 0.824297 0.767952
Si Si8 0.434432 0.176755 0.225019
O O1 0.280573 0.209425 0.373921
O O2 0.312251 0.259262 0.497007
O O3 0.381182 0.215592 0.315371
O O4 0.324952 0.000000 0.415247
O O5 0.417821 0.740097 0.823771
O O6 0.339030 0.787259 0.784463
O O7 0.374833 0.000000 0.845211
O O8 0.326074 0.789598 0.958018
O O9 0.538592 0.500000 0.155575
O O10 0.483196 0.741081 0.219460
O O11 0.554643 0.732676 0.047056
O O12 0.791438 0.500000 0.082201
O O13 0.855969 0.310141 0.083301
O O14 0.759697 0.230387 0.139964
O O15 0.791486 0.247643 0.677705
O O16 0.783353 0.000000 0.601235
O O17 0.429947 0.211713 0.130362
O O18 0.428713 0.000000 0.022993
O O19 0.289023 0.000000 0.759786
O O20 0.441209 0.000000 0.225721
#
# Coordination Sequence:
#
# PCOD9183026 Si02
#       8
#     8   8   8   8   8   8   8   8
#     4   9  19  36  56  78 103 133 168 201 241 299
#     4   9  20  37  52  68  97 138 177 209 246 297
#     4  11  22  33  48  73 103 133 170 216 257 290
#     4   9  17  31  50  73 103 135 169 208 248 293
#     4  10  20  35  55  79 107 134 161 200 250 298
#     4   9  18  33  51  72 102 140 174 201 241 301
#     4  11  21  32  51  77 102 132 171 209 247 298
#     4  10  19  33  54  74  98 136 174 205 244 299
#
# _framework density 16.799548000000001
#
# number of rings (size 3 to 8) (size 9 to 14) (size 15 to 20)
#    0.000    2.250    0.000    4.125    0.000    8.000 
#    0.000    1.250    0.000    0.750    0.000    5.250 
#    0.000    0.000    0.000    0.000    0.000    0.000 
#
# Total GULP energy -178661.199591 kJ/mol
# GULP energy per Si atom -5583.162487 kJ/mol
# Density = 1.676131 g / cm^3
# Si number density = 16.799548 Si / 1000 Ang^3
#
#
#
# Elastic Constant Matrix: (Units=GPa)
#
#
# Indices 1 2 3 4 5 6 
#
# 1 131.1915 72.4468 93.1709 0.0000 4.0023 0.0000
# 2 72.4468 61.8214 58.4953 0.0000 2.0073 0.0000
# 3 93.1709 58.4953 87.8033 0.0000 7.8505 0.0000
# 4 0.0000 0.0000 0.0000 26.5316 0.0000 -2.6922
# 5 4.0023 2.0073 7.8505 0.0000 28.7038 0.0000
# 6 0.0000 0.0000 0.0000 -2.6922 0.0000 23.6185
#
#
#
# Elastic Compliance Matrix: (Units=1/GPa)
#
#
# Indices 1 2 3 4 5 6 
#
# 1 0.036609 -0.016085 -0.028471 0.000000 0.003807 0.000000
# 2 -0.016085 0.051551 -0.017583 0.000000 0.003447 0.000000
# 3 -0.028471 -0.017583 0.054174 0.000000 -0.009617 0.000000
# 4 0.000000 0.000000 0.000000 0.038132 0.000000 0.004347
# 5 0.003807 0.003447 -0.009617 0.000000 0.036697 0.000000
# 6 0.000000 0.000000 0.000000 0.004347 0.000000 0.042835
#
#
# Mechanical properties :
#
#
# Convention : Reuss Voigt Hill
#
# Bulk Modulus (GPa) = 55.38575 81.00467 68.19521
# Shear Modulus (GPa) = 12.81084 19.55100 16.18092
#
# Velocity S-wave (km/s) = 2.76446 3.41512 3.10687
# Velocity P-wave (km/s) = 6.57494 7.99211 7.31791
#
# Compressibility (1/GPa) = 0.01805519
#
# Stress axis : x y z
#
# Youngs Moduli (GPa) = 27.31603 19.39845 18.45888
#
# Poissons Ratio (x) = 0.31202 0.52554
# Poissons Ratio (y) = 0.43938 0.32457
# Poissons Ratio (z) = 0.77771 0.34109
#
# Static dielectric constant tensor:
#      x y z
#    x 1.568160 0.000000 0.003740 
#    y 0.000000 1.555770 0.000000 
#    z 0.003740 0.000000 1.543650 
# 
# From -- ./inp_files/243849.got.cif
#   From: 2010.05.17/outbox.cif.g08.bks.cpg/sg12_122_cif.got.tgz:243849.got - 2010.06.03 13:09:07.
