data_PCOD9183654
_publ_section_title
;
Structure prediction by ZEFSAII (Michael W. Deem and Ramdas Pophale) SiO2 
 PCOD9183654
Probable space group: C 2/M
;
_chemical_formula_sum "Si O2"
_cell_formula_units_Z 50
_cell_length_a 5.567573
_cell_length_b 27.898013
_cell_length_c 17.598299
_cell_angle_alpha 90.000000
_cell_angle_beta 128.943724
_cell_angle_gamma 90.000000
_cell_volume 2125.972085
_symmetry_space_group_name_H-M "C 2/M"
_symmetry_group_IT_number 12
_symmetry_cell_setting 'monoclinic'
loop_
_space_group_symop_operation_xyz
x,y,z
-x,y,-z
-x,-y,-z
x,-y,z
1/2+x,1/2+y,z
1/2-x,1/2+y,-z
1/2-x,1/2-y,-z
1/2+x,1/2-y,z
loop_
_atom_site_type_symbol
_atom_site_label
_atom_site_fract_x
_atom_site_fract_y
_atom_site_fract_z
Si Si1 0.217166 0.872260 0.779870
Si Si2 0.580313 0.946317 0.311069
Si Si3 0.627076 0.773054 0.375573
Si Si4 0.365768 0.549580 0.126642
Si Si5 0.000000 0.000000 0.000000
Si Si6 0.003430 0.628183 0.591100
Si Si7 0.132778 0.264409 0.155590
O O1 0.273740 0.902587 0.867875
O O2 0.854875 0.864485 0.690083
O O3 0.321938 0.908136 0.733542
O O4 0.362491 0.820085 0.818260
O O5 0.211985 0.950872 0.228105
O O6 0.626033 0.921453 0.401471
O O7 0.713044 0.000000 0.328814
O O8 0.444114 0.749224 0.409077
O O9 0.672292 0.828226 0.404070
O O10 0.377617 0.764100 0.258638
O O11 0.204084 0.500000 0.124332
O O12 0.408457 0.541046 0.046248
O O13 0.000000 0.630418 0.500000
O O14 0.300036 0.257898 0.107679
#
# Coordination Sequence:
#
# PCOD9183654 Si02
#       7
#     8   8   8   8   2   8   8
#     4  11  20  35  58  80 115 155 200 240 305 353
#     4  10  21  38  57  81 110 154 196 242 297 356
#     4  10  19  36  54  81 112 151 197 263 317 360
#     4   8  18  35  59  88 122 146 172 233 292 370
#     4   8  16  40  62  96 130 138 168 236 302 360
#     4  11  24  37  53  76 111 156 207 257 304 351
#     4  10  19  33  55  83 116 154 204 257 295 357
#
# _framework density 23.518650999999998
#
# number of rings (size 3 to 8) (size 9 to 14) (size 15 to 20)
#    0.480    1.600    3.200    2.400    2.240    2.240 
#    0.000    2.400    0.000    0.000    0.000    1.120 
#    0.000    0.000    0.000    0.000    0.000    0.000 
#
# Total GULP energy -139390.600835 kJ/mol
# GULP energy per Si atom -5575.624033 kJ/mol
# Density = 2.346512 g / cm^3
# Si number density = 23.518651 Si / 1000 Ang^3
#
#
#
# Elastic Constant Matrix: (Units=GPa)
#
#
# Indices 1 2 3 4 5 6 
#
# 1 89.0306 46.1156 23.5221 0.0000 -11.3735 0.0000
# 2 46.1156 186.2119 30.3898 0.0000 -20.2309 0.0000
# 3 23.5221 30.3898 69.0691 0.0000 -6.6541 0.0000
# 4 0.0000 0.0000 0.0000 25.7004 0.0000 -16.6651
# 5 -11.3735 -20.2309 -6.6541 0.0000 42.4381 0.0000
# 6 0.0000 0.0000 0.0000 -16.6651 0.0000 32.8624
#
#
#
# Elastic Compliance Matrix: (Units=1/GPa)
#
#
# Indices 1 2 3 4 5 6 
#
# 1 0.013726 -0.002651 -0.003326 0.000000 0.001893 0.000000
# 2 -0.002651 0.006548 -0.001773 0.000000 0.002133 0.000000
# 3 -0.003326 -0.001773 0.016472 0.000000 0.000846 0.000000
# 4 0.000000 0.000000 0.000000 0.057974 0.000000 0.029399
# 5 0.001893 0.002133 0.000846 0.000000 0.025221 0.000000
# 6 0.000000 0.000000 0.000000 0.029399 0.000000 0.045339
#
#
# Mechanical properties :
#
#
# Convention : Reuss Voigt Hill
#
# Bulk Modulus (GPa) = 47.06438 60.48518 53.77478
# Shear Modulus (GPa) = 26.61560 36.48576 31.55068
#
# Velocity S-wave (km/s) = 3.36770 3.94300 3.66665
# Velocity P-wave (km/s) = 5.93100 6.81934 6.39063
#
# Compressibility (1/GPa) = 0.02124749
#
# Stress axis : x y z
#
# Youngs Moduli (GPa) = 72.85642 152.72469 60.70767
#
# Poissons Ratio (x) = 0.40483 0.20190
# Poissons Ratio (y) = 0.19312 0.10762
# Poissons Ratio (z) = 0.24230 0.27074
#
# Static dielectric constant tensor:
#      x y z
#    x 1.962560 0.000000 -0.005440 
#    y 0.000000 1.916530 0.000000 
#    z -0.005440 0.000000 1.929620 
# 
# From -- ./inp_files/253507.got.cif
#   From: 2010.05.17/outbox.cif.g08.bks.cpg/sg12_127_cif.got.tgz:253507.got - 2010.06.03 13:09:07.
