data_PCOD9183277
_publ_section_title
;
Structure prediction by ZEFSAII (Michael W. Deem and Ramdas Pophale) SiO2 
 PCOD9183277
Probable space group: C 2/M
;
_chemical_formula_sum "Si O2"
_cell_formula_units_Z 48
_cell_length_a 26.087981
_cell_length_b 7.740943
_cell_length_c 12.872770
_cell_angle_alpha 90.000000
_cell_angle_beta 110.284635
_cell_angle_gamma 90.000000
_cell_volume 2438.376840
_symmetry_space_group_name_H-M "C 2/M"
_symmetry_group_IT_number 12
_symmetry_cell_setting 'monoclinic'
loop_
_space_group_symop_operation_xyz
x,y,z
-x,y,-z
-x,-y,-z
x,-y,z
1/2+x,1/2+y,z
1/2-x,1/2+y,-z
1/2-x,1/2-y,-z
1/2+x,1/2-y,z
loop_
_atom_site_type_symbol
_atom_site_label
_atom_site_fract_x
_atom_site_fract_y
_atom_site_fract_z
Si Si1 0.693962 0.205561 0.243881
Si Si2 0.309820 0.294121 0.997835
Si Si3 0.315739 0.290016 0.382390
Si Si4 0.112409 0.208724 0.765094
Si Si5 0.993502 0.293692 0.612994
Si Si6 0.382210 0.796011 0.632062
O O1 0.684265 0.231264 0.115395
O O2 0.754165 0.271626 0.317303
O O3 0.646686 0.277165 0.285441
O O4 0.696298 0.000000 0.263976
O O5 0.314070 0.500000 0.998504
O O6 0.250000 0.250000 0.000000
O O7 0.355222 0.228084 0.110704
O O8 0.315980 0.500000 0.384428
O O9 0.354868 0.234080 0.315075
O O10 0.340099 0.225362 0.507421
O O11 0.049799 0.262939 0.712429
O O12 0.114185 0.000000 0.766803
O O13 0.985431 0.500000 0.597217
O O14 0.000000 0.223663 0.500000
O O15 0.940152 0.222350 0.633986
O O16 0.391293 0.000000 0.656954
#
# Coordination Sequence:
#
# PCOD9183277 Si02
#       6
#     8   8   8   8   8   8
#     4  10  21  38  56  80 115 149 183 227 276 327
#     4  11  22  38  59  83 112 144 185 228 272 327
#     4  10  19  33  54  81 114 143 177 226 279 334
#     4  10  21  36  55  82 110 140 180 227 275 324
#     4  10  20  35  55  81 110 143 186 228 268 323
#     4  10  21  36  55  81 114 148 184 228 276 326
#
# _framework density 19.685227000000001
#
# number of rings (size 3 to 8) (size 9 to 14) (size 15 to 20)
#    0.000    1.833    3.333    1.000    0.000    3.667 
#    0.000    0.833    0.000    5.000    0.000    0.000 
#    0.000    0.000    0.000    0.000    0.000    0.000 
#
# Total GULP energy -134038.842873 kJ/mol
# GULP energy per Si atom -5584.951786 kJ/mol
# Density = 1.964042 g / cm^3
# Si number density = 19.685227 Si / 1000 Ang^3
#
#
#
# Elastic Constant Matrix: (Units=GPa)
#
#
# Indices 1 2 3 4 5 6 
#
# 1 147.1772 5.8178 101.4656 0.0000 -23.1509 0.0000
# 2 5.8178 19.7487 -22.8939 0.0000 -3.9495 0.0000
# 3 101.4656 -22.8939 131.5570 0.0000 -8.0886 0.0000
# 4 0.0000 0.0000 0.0000 26.7209 0.0000 5.1775
# 5 -23.1509 -3.9495 -8.0886 0.0000 35.2532 0.0000
# 6 0.0000 0.0000 0.0000 5.1775 0.0000 8.7503
#
#
#
# Elastic Compliance Matrix: (Units=1/GPa)
#
#
# Indices 1 2 3 4 5 6 
#
# 1 0.031706 -0.044291 -0.031633 0.000000 0.008602 0.000000
# 2 -0.044291 0.128809 0.056471 0.000000 -0.001698 0.000000
# 3 -0.031633 0.056471 0.041523 0.000000 -0.004920 0.000000
# 4 0.000000 0.000000 0.000000 0.042270 0.000000 -0.025011
# 5 0.008602 -0.001698 -0.004920 0.000000 0.032696 0.000000
# 6 0.000000 0.000000 0.000000 -0.025011 0.000000 0.129081
#
#
# Mechanical properties :
#
#
# Convention : Reuss Voigt Hill
#
# Bulk Modulus (GPa) = 6.12991 51.91798 29.02394
# Shear Modulus (GPa) = 10.01263 28.41776 19.21520
#
# Velocity S-wave (km/s) = 2.25774 3.80361 3.12769
# Velocity P-wave (km/s) = 3.14917 6.76175 5.27440
#
# Compressibility (1/GPa) = 0.16313455
#
# Stress axis : x y z
#
# Youngs Moduli (GPa) = 31.53940 7.76341 24.08279
#
# Poissons Ratio (x) = 0.34385 0.76181
# Poissons Ratio (y) = 1.39691 -1.35999
# Poissons Ratio (z) = 0.99768 -0.43841
#
# Static dielectric constant tensor:
#      x y z
#    x 1.694950 0.000000 -0.007770 
#    y 0.000000 1.683850 0.000000 
#    z -0.007770 0.000000 1.652080 
# 
# From -- ./inp_files/172093.got.cif
#   From: 2010.05.17/outbox.cif.g08.bks.cpg/sg12_87_cif.got.tgz:172093.got - 2010.06.03 13:09:07.
