data_PCOD9183997
_publ_section_title
;
Structure prediction by ZEFSAII (Michael W. Deem and Ramdas Pophale) SiO2 
 PCOD9183997
Probable space group: C 2/M
;
_chemical_formula_sum "Si O2"
_cell_formula_units_Z 40
_cell_length_a 7.268310
_cell_length_b 18.367824
_cell_length_c 19.026177
_cell_angle_alpha 90.000000
_cell_angle_beta 141.181810
_cell_angle_gamma 90.000000
_cell_volume 1592.234926
_symmetry_space_group_name_H-M "C 2/M"
_symmetry_group_IT_number 12
_symmetry_cell_setting 'monoclinic'
loop_
_space_group_symop_operation_xyz
x,y,z
-x,y,-z
-x,-y,-z
x,-y,z
1/2+x,1/2+y,z
1/2-x,1/2+y,-z
1/2-x,1/2-y,-z
1/2+x,1/2-y,z
loop_
_atom_site_type_symbol
_atom_site_label
_atom_site_fract_x
_atom_site_fract_y
_atom_site_fract_z
Si Si1 0.349822 0.668449 0.156943
Si Si2 0.848901 0.786464 0.611755
Si Si3 0.340157 0.163792 0.103897
Si Si4 0.255631 0.922742 0.490439
Si Si5 0.578267 0.127544 0.719212
O O1 0.533336 0.674182 0.284194
O O2 0.349872 0.748479 0.121104
O O3 0.568472 0.616979 0.179603
O O4 0.973300 0.649060 0.911007
O O5 0.500000 0.774587 0.500000
O O6 0.912373 0.846558 0.570445
O O7 0.007025 0.709327 0.668114
O O8 0.480778 0.127653 0.215231
O O9 0.000000 0.144124 0.000000
O O10 0.500000 0.921930 0.500000
O O11 0.407623 0.920290 0.611866
O O12 0.095609 0.000000 0.435179
#
# Coordination Sequence:
#
# PCOD9183997 Si02
#       5
#     8   8   8   8   8
#     4  11  20  33  54  88 117 157 194 234 300 352
#     4  10  19  33  56  88 120 157 193 235 286 353
#     4  11  23  36  55  87 124 150 194 256 307 349
#     4  10  20  35  59  88 121 160 200 240 290 353
#     4  11  22  36  59  89 121 158 200 242 294 356
#
# _framework density 25.121922000000001
#
# number of rings (size 3 to 8) (size 9 to 14) (size 15 to 20)
#    0.000    1.400    8.000    1.200    0.000    0.000 
#    0.000    0.000    0.000    7.200    0.000    1.400 
#    0.000    7.800    0.000    0.000    0.000    0.000 
#
# Total GULP energy -111660.587160 kJ/mol
# GULP energy per Si atom -5583.029358 kJ/mol
# Density = 2.506474 g / cm^3
# Si number density = 25.121922 Si / 1000 Ang^3
#
#
#
# Elastic Constant Matrix: (Units=GPa)
#
#
# Indices 1 2 3 4 5 6 
#
# 1 140.9563 12.0737 22.9555 -0.0006 12.6902 -0.0002
# 2 12.0737 89.2854 8.6665 -0.0001 -9.7056 -0.0001
# 3 22.9555 8.6665 102.8583 -0.0006 8.4264 -0.0004
# 4 -0.0006 -0.0001 -0.0006 -3.7449 -0.0004 -2.2532
# 5 12.6902 -9.7056 8.4264 -0.0004 58.6400 -0.0002
# 6 -0.0002 -0.0001 -0.0004 -2.2532 -0.0002 3.8571
#
#
#
# Elastic Compliance Matrix: (Units=1/GPa)
#
#
# Indices 1 2 3 4 5 6 
#
# 1 0.007568 -0.001055 -0.001469 -0.000001 -0.001601 0.000000
# 2 -0.001055 0.011683 -0.000937 0.000000 0.002297 0.000000
# 3 -0.001469 -0.000937 0.010236 -0.000001 -0.001308 0.000000
# 4 -0.000001 0.000000 -0.000001 -0.197586 -0.000001 -0.115422
# 5 -0.001601 0.002297 -0.001308 -0.000001 0.017968 0.000000
# 6 0.000000 0.000000 0.000000 -0.115422 0.000000 0.191839
#
#
# Mechanical properties :
#
#
# Convention : Reuss Voigt Hill
#
# Bulk Modulus (GPa) = 44.31529 46.72127 45.51828
# Shear Modulus (GPa) = 89.04326 31.04405 60.04365
#
# Velocity S-wave (km/s) = 5.95998 3.51912 4.89416
# Velocity P-wave (km/s) = 8.06475 5.92878 7.07781
#
# Compressibility (1/GPa) = 0.02256557
#
# Stress axis : x y z
#
# Youngs Moduli (GPa) = 132.13268 85.59220 97.69371
#
# Poissons Ratio (x) = 0.09029 0.14351
# Poissons Ratio (y) = 0.13939 0.09155
# Poissons Ratio (z) = 0.19410 0.08021
#
# Static dielectric constant tensor:
#      x y z
#    x 2.191060 0.000000 0.006770 
#    y 0.000000 1.962080 0.000000 
#    z 0.006770 0.000000 2.017790 
# 
# From -- ./inp_files/130338.got.cif
#   From: 2010.05.17/outbox.cif.g08.bks.cpg/sg12_66_cif.got.tgz:130338.got - 2010.06.03 13:09:07.
