data_PCOD9183657
_publ_section_title
;
Structure prediction by ZEFSAII (Michael W. Deem and Ramdas Pophale) SiO2 
 PCOD9183657
Probable space group: C 2/M
;
_chemical_formula_sum "Si O2"
_cell_formula_units_Z 58
_cell_length_a 30.953563
_cell_length_b 7.820242
_cell_length_c 11.243642
_cell_angle_alpha 90.000000
_cell_angle_beta 102.905107
_cell_angle_gamma 90.000000
_cell_volume 2652.938684
_symmetry_space_group_name_H-M "C 2/M"
_symmetry_group_IT_number 12
_symmetry_cell_setting 'monoclinic'
loop_
_space_group_symop_operation_xyz
x,y,z
-x,y,-z
-x,-y,-z
x,-y,z
1/2+x,1/2+y,z
1/2-x,1/2+y,-z
1/2-x,1/2-y,-z
1/2+x,1/2-y,z
loop_
_atom_site_type_symbol
_atom_site_label
_atom_site_fract_x
_atom_site_fract_y
_atom_site_fract_z
Si Si1 0.139642 0.700005 0.924353
Si Si2 0.435899 0.303253 0.487960
Si Si3 0.000000 0.500000 0.500000
Si Si4 0.187956 0.204641 0.195822
Si Si5 0.473378 0.805741 0.872653
Si Si6 0.112621 0.704500 0.321900
Si Si7 0.774479 0.705301 0.138843
Si Si8 0.551372 0.307801 0.776209
O O1 0.131064 0.500000 0.895744
O O2 0.175513 0.769213 0.850232
O O3 0.093028 0.792364 0.888548
O O4 0.161905 0.718531 0.066695
O O5 0.451353 0.500000 0.509827
O O6 0.395143 0.280162 0.552133
O O7 0.429798 0.268909 0.343475
O O8 0.469569 0.152801 0.541419
O O9 0.159504 0.250205 0.292930
O O10 0.239359 0.263010 0.216876
O O11 0.187903 0.000000 0.181057
O O12 0.428196 0.732371 0.788596
O O13 0.511540 0.807718 0.796216
O O14 0.461866 0.000000 0.903494
O O15 0.500000 0.722634 0.000000
O O16 0.109092 0.500000 0.325842
O O17 0.778449 0.500000 0.149153
O O18 0.750000 0.750000 0.000000
O O19 0.533802 0.500000 0.764175
#
# Coordination Sequence:
#
# PCOD9183657 Si02
#       8
#     8   8   2   8   8   8   8   8
#     4  10  19  33  56  82 114 151 192 235 286 350
#     4  11  25  41  60  87 114 148 198 253 295 342
#     4  12  22  40  64  82 106 148 194 244 292 336
#     4  10  19  33  55  83 119 151 186 236 292 347
#     4  10  22  37  54  78 110 145 181 224 274 336
#     4  11  22  37  58  83 113 152 196 237 287 348
#     4   8  16  30  50  80 111 147 187 231 284 343
#     4  11  24  38  56  81 111 147 189 237 291 344
#
# _framework density 21.862549000000001
#
# number of rings (size 3 to 8) (size 9 to 14) (size 15 to 20)
#    0.000    1.793    0.690    3.517    3.862    4.690 
#    0.000    0.000    0.000    0.828    0.000    0.000 
#    0.000    0.000    0.000    0.000    0.000    0.000 
#
# Total GULP energy -161560.017929 kJ/mol
# GULP energy per Si atom -5571.035101 kJ/mol
# Density = 2.181279 g / cm^3
# Si number density = 21.862549 Si / 1000 Ang^3
#
#
#
# Elastic Constant Matrix: (Units=GPa)
#
#
# Indices 1 2 3 4 5 6 
#
# 1 93.4238 7.2215 -9.5984 0.0000 -37.0192 0.0000
# 2 7.2215 73.0699 7.5106 0.0000 -6.7964 0.0000
# 3 -9.5984 7.5106 32.8115 0.0000 -19.6823 0.0000
# 4 0.0000 0.0000 0.0000 19.9876 0.0000 -13.4073
# 5 -37.0192 -6.7964 -19.6823 0.0000 38.3120 0.0000
# 6 0.0000 0.0000 0.0000 -13.4073 0.0000 18.6739
#
#
#
# Elastic Compliance Matrix: (Units=1/GPa)
#
#
# Indices 1 2 3 4 5 6 
#
# 1 0.047351 -0.003807 0.060367 0.000000 0.076091 0.000000
# 2 -0.003807 0.014360 -0.007342 0.000000 -0.004903 0.000000
# 3 0.060367 -0.007342 0.121454 0.000000 0.119423 0.000000
# 4 0.000000 0.000000 0.000000 0.096511 0.000000 0.069292
# 5 0.076091 -0.004903 0.119423 0.000000 0.160107 0.000000
# 6 0.000000 0.000000 0.000000 0.069292 0.000000 0.103301
#
#
# Mechanical properties :
#
#
# Convention : Reuss Voigt Hill
#
# Bulk Modulus (GPa) = 3.55113 23.28584 13.41848
# Shear Modulus (GPa) = 9.28479 28.33946 18.81212
#
# Velocity S-wave (km/s) = 2.06303 3.60426 2.93656
# Velocity P-wave (km/s) = 2.70234 5.29104 4.20105
#
# Compressibility (1/GPa) = 0.28160057
#
# Stress axis : x y z
#
# Youngs Moduli (GPa) = 21.11876 69.63591 8.23359
#
# Poissons Ratio (x) = 0.26512 -0.49704
# Poissons Ratio (y) = 0.08040 0.06045
# Poissons Ratio (z) = -1.27487 0.51127
#
# Static dielectric constant tensor:
#      x y z
#    x 1.870630 0.000000 -0.039180 
#    y 0.000000 1.809470 0.000000 
#    z -0.039180 0.000000 1.847250 
# 
# From -- ./inp_files/186735.got.cif
#   From: 2010.05.17/outbox.cif.g08.bks.cpg/sg12_94_cif.got.tgz:186735.got - 2010.06.03 13:09:07.
