data_PCOD9183193
_publ_section_title
;
Structure prediction by ZEFSAII (Michael W. Deem and Ramdas Pophale) SiO2 
 PCOD9183193
Probable space group: C 2/M
;
_chemical_formula_sum "Si O2"
_cell_formula_units_Z 60
_cell_length_a 24.529600
_cell_length_b 24.282441
_cell_length_c 5.216191
_cell_angle_alpha 90.000000
_cell_angle_beta 92.906083
_cell_angle_gamma 90.000000
_cell_volume 3102.968903
_symmetry_space_group_name_H-M "C 2/M"
_symmetry_group_IT_number 12
_symmetry_cell_setting 'monoclinic'
loop_
_space_group_symop_operation_xyz
x,y,z
-x,y,-z
-x,-y,-z
x,-y,z
1/2+x,1/2+y,z
1/2-x,1/2+y,-z
1/2-x,1/2-y,-z
1/2+x,1/2-y,z
loop_
_atom_site_type_symbol
_atom_site_label
_atom_site_fract_x
_atom_site_fract_y
_atom_site_fract_z
Si Si1 0.174615 0.633242 0.085774
Si Si2 0.122179 0.252940 0.955868
Si Si3 0.538220 0.500000 0.762968
Si Si4 0.893040 0.902767 0.417076
Si Si5 0.815806 0.437166 0.433493
Si Si6 0.802767 0.941910 0.722906
Si Si7 0.702775 0.659022 0.906188
Si Si8 0.938349 0.788522 0.559168
O O1 0.135318 0.683718 0.010426
O O2 0.158738 0.597942 0.330907
O O3 0.178412 0.593422 0.838289
O O4 0.234474 0.659419 0.162596
O O5 0.177942 0.217157 0.983981
O O6 0.081684 0.230202 0.165907
O O7 0.098206 0.240666 0.668821
O O8 0.500000 0.500000 0.500000
O O9 0.574962 0.444500 0.759235
O O10 0.500000 0.500000 0.000000
O O11 0.861949 0.940577 0.612438
O O12 0.930865 0.854775 0.538098
O O13 0.842156 0.868066 0.290773
O O14 0.835931 0.500000 0.425214
O O15 0.750276 0.441140 0.472756
O O16 0.798281 0.885237 0.868493
O O17 0.796933 0.000000 0.872175
O O18 0.000000 0.774851 0.500000
#
# Coordination Sequence:
#
# PCOD9183193 Si02
#       8
#     8   8   4   8   8   8   8   8
#     4  11  21  37  59  90 124 154 192 234 287 364
#     4  11  23  39  62  86 117 152 196 246 301 354
#     4  12  30  42  56  80 110 154 222 282 309 329
#     4  11  22  37  58  76 112 152 205 254 314 342
#     4  10  21  36  57  87 127 161 191 221 279 348
#     4  10  19  33  54  79 113 159 204 247 284 348
#     4  10  22  35  54  85 117 156 195 246 307 361
#     4  11  24  42  61  81 112 155 202 253 303 349
#
# _framework density 19.336319
#
# number of rings (size 3 to 8) (size 9 to 14) (size 15 to 20)
#    0.000    1.333    3.333    2.400    2.800    2.667 
#    0.000    4.000    0.000    0.000    0.000    0.000 
#    0.000   37.333    0.000    0.000    0.000    0.000 
#
# Total GULP energy -167347.593373 kJ/mol
# GULP energy per Si atom -5578.253112 kJ/mol
# Density = 1.929231 g / cm^3
# Si number density = 19.336319 Si / 1000 Ang^3
#
#
#
# Elastic Constant Matrix: (Units=GPa)
#
#
# Indices 1 2 3 4 5 6 
#
# 1 25.9927 8.2144 -12.1880 0.0000 -1.8220 0.0000
# 2 8.2144 108.8891 7.6224 0.0000 10.0327 0.0000
# 3 -12.1880 7.6224 51.4068 0.0000 2.7214 0.0000
# 4 0.0000 0.0000 0.0000 26.4172 0.0000 5.6860
# 5 -1.8220 10.0327 2.7214 0.0000 20.4329 0.0000
# 6 0.0000 0.0000 0.0000 5.6860 0.0000 16.0156
#
#
#
# Elastic Compliance Matrix: (Units=1/GPa)
#
#
# Indices 1 2 3 4 5 6 
#
# 1 0.045558 -0.004671 0.011237 0.000000 0.004859 0.000000
# 2 -0.004671 0.010170 -0.002346 0.000000 -0.005098 0.000000
# 3 0.011237 -0.002346 0.022509 0.000000 -0.000844 0.000000
# 4 0.000000 0.000000 0.000000 0.040986 0.000000 -0.014551
# 5 0.004859 -0.005098 -0.000844 0.000000 0.051989 0.000000
# 6 0.000000 0.000000 0.000000 -0.014551 0.000000 0.067605
#
#
# Mechanical properties :
#
#
# Convention : Reuss Voigt Hill
#
# Bulk Modulus (GPa) = 11.53706 21.50959 16.52332
# Shear Modulus (GPa) = 19.28491 24.74914 22.01702
#
# Velocity S-wave (km/s) = 3.16150 3.58149 3.37803
# Velocity P-wave (km/s) = 4.39389 5.31515 4.87632
#
# Compressibility (1/GPa) = 0.08667719
#
# Stress axis : x y z
#
# Youngs Moduli (GPa) = 21.95001 98.32927 44.42614
#
# Poissons Ratio (x) = 0.45931 -0.49920
# Poissons Ratio (y) = 0.10253 0.10420
# Poissons Ratio (z) = -0.24665 0.23064
#
# Static dielectric constant tensor:
#      x y z
#    x 1.720910 0.000000 0.073920 
#    y 0.000000 1.678820 0.000000 
#    z 0.073920 0.000000 1.815790 
# 
# From -- ./inp_files/25649.got.cif
#   From: 2010.05.17/outbox.cif.g08.bks.cpg/sg12_13_cif.got.tgz:25649.got - 2010.06.03 13:09:07.
