data_PCOD9183014
_publ_section_title
;
Structure prediction by ZEFSAII (Michael W. Deem and Ramdas Pophale) SiO2 
 PCOD9183014
Probable space group: C 2/M
;
_chemical_formula_sum "Si O2"
_cell_formula_units_Z 48
_cell_length_a 9.250077
_cell_length_b 22.404968
_cell_length_c 12.050893
_cell_angle_alpha 90.000000
_cell_angle_beta 102.407943
_cell_angle_gamma 90.000000
_cell_volume 2439.183792
_symmetry_space_group_name_H-M "C 2/M"
_symmetry_group_IT_number 12
_symmetry_cell_setting 'monoclinic'
loop_
_space_group_symop_operation_xyz
x,y,z
-x,y,-z
-x,-y,-z
x,-y,z
1/2+x,1/2+y,z
1/2-x,1/2+y,-z
1/2-x,1/2-y,-z
1/2+x,1/2-y,z
loop_
_atom_site_type_symbol
_atom_site_label
_atom_site_fract_x
_atom_site_fract_y
_atom_site_fract_z
Si Si1 0.884634 0.570220 0.378583
Si Si2 0.889581 0.847221 0.705061
Si Si3 0.819406 0.844569 0.111898
Si Si4 0.599236 0.766231 0.418279
Si Si5 0.560822 0.859773 0.222094
Si Si6 0.723372 0.201427 0.880328
O O1 0.853883 0.500000 0.365358
O O2 0.725600 0.604623 0.364404
O O3 0.000000 0.578418 0.500000
O O4 0.969047 0.592368 0.280080
O O5 0.959335 0.797529 0.635232
O O6 0.779219 0.810770 0.766468
O O7 0.028143 0.864637 0.805694
O O8 0.689603 0.877754 0.158597
O O9 0.781415 0.773017 0.114244
O O10 0.815523 0.842340 0.977534
O O11 0.500000 0.791644 0.500000
O O12 0.750000 0.750000 0.500000
O O13 0.618971 0.813603 0.324418
O O14 0.442810 0.821461 0.133028
#
# Coordination Sequence:
#
# PCOD9183014 Si02
#       6
#     8   8   8   8   8   8
#     4  10  23  44  63  78 107 160 210 240 284 349
#     4  11  21  35  56  84 116 149 191 240 291 342
#     4  11  19  32  55  88 121 152 187 232 285 352
#     4  12  21  31  49  80 117 143 177 232 297 350
#     4  11  20  35  55  84 117 154 190 235 289 352
#     4  10  19  33  53  83 127 159 183 217 285 366
#
# _framework density 19.678715
#
# number of rings (size 3 to 8) (size 9 to 14) (size 15 to 20)
#    0.000    1.167    3.333    5.500    0.000    2.667 
#    0.000    0.833    0.000   18.500    0.000    0.000 
#    0.000    0.000    0.000    0.000    0.000    0.000 
#
# Total GULP energy -133622.154801 kJ/mol
# GULP energy per Si atom -5567.589783 kJ/mol
# Density = 1.963393 g / cm^3
# Si number density = 19.678715 Si / 1000 Ang^3
#
#
#
# Elastic Constant Matrix: (Units=GPa)
#
#
# Indices 1 2 3 4 5 6 
#
# 1 56.8424 -6.8308 -5.7318 0.0000 3.2478 0.0000
# 2 -6.8308 58.5816 3.0950 0.0000 -7.4629 0.0000
# 3 -5.7318 3.0950 60.7978 0.0000 4.1803 0.0000
# 4 0.0000 0.0000 0.0000 14.1504 0.0000 3.5442
# 5 3.2478 -7.4629 4.1803 0.0000 38.1499 0.0000
# 6 0.0000 0.0000 0.0000 3.5442 0.0000 15.1108
#
#
#
# Elastic Compliance Matrix: (Units=1/GPa)
#
#
# Indices 1 2 3 4 5 6 
#
# 1 0.018064 0.001843 0.001703 0.000000 -0.001364 0.000000
# 2 0.001843 0.017773 -0.000967 0.000000 0.003426 0.000000
# 3 0.001703 -0.000967 0.016807 0.000000 -0.002176 0.000000
# 4 0.000000 0.000000 0.000000 0.075080 0.000000 -0.017610
# 5 -0.001364 0.003426 -0.002176 0.000000 0.027237 0.000000
# 6 0.000000 0.000000 0.000000 -0.017610 0.000000 0.070308
#
#
# Mechanical properties :
#
#
# Convention : Reuss Voigt Hill
#
# Bulk Modulus (GPa) = 17.30065 17.47629 17.38847
# Shear Modulus (GPa) = 20.88746 25.86151 23.37448
#
# Velocity S-wave (km/s) = 3.26148 3.62910 3.45019
# Velocity P-wave (km/s) = 4.79517 5.14399 4.97264
#
# Compressibility (1/GPa) = 0.05780128
#
# Stress axis : x y z
#
# Youngs Moduli (GPa) = 55.35999 56.26658 59.49794
#
# Poissons Ratio (x) = -0.10367 -0.10132
# Poissons Ratio (y) = -0.10200 0.05751
# Poissons Ratio (z) = -0.09428 0.05439
#
# Static dielectric constant tensor:
#      x y z
#    x 1.740130 0.000000 0.049450 
#    y 0.000000 1.728130 0.000000 
#    z 0.049450 0.000000 1.842490 
# 
# From -- ./inp_files/121891.got.cif
#   From: 2010.05.17/outbox.cif.g08.bks.cpg/sg12_61_cif.got.tgz:121891.got - 2010.06.03 13:09:07.
