data_PCOD9183437
_publ_section_title
;
Structure prediction by ZEFSAII (Michael W. Deem and Ramdas Pophale) SiO2 
 PCOD9183437
Probable space group: C 2/M
;
_chemical_formula_sum "Si O2"
_cell_formula_units_Z 40
_cell_length_a 25.367976
_cell_length_b 7.481294
_cell_length_c 12.897128
_cell_angle_alpha 90.000000
_cell_angle_beta 47.745331
_cell_angle_gamma 90.000000
_cell_volume 1811.686790
_symmetry_space_group_name_H-M "C 2/M"
_symmetry_group_IT_number 12
_symmetry_cell_setting 'monoclinic'
loop_
_space_group_symop_operation_xyz
x,y,z
-x,y,-z
-x,-y,-z
x,-y,z
1/2+x,1/2+y,z
1/2-x,1/2+y,-z
1/2-x,1/2-y,-z
1/2+x,1/2-y,z
loop_
_atom_site_type_symbol
_atom_site_label
_atom_site_fract_x
_atom_site_fract_y
_atom_site_fract_z
Si Si1 0.430110 0.216092 0.844752
Si Si2 0.851603 0.280958 0.156121
Si Si3 0.078970 0.209756 0.377245
Si Si4 0.417550 0.212522 0.279290
Si Si5 0.809762 0.785188 0.601551
O O1 0.404458 0.274302 0.765850
O O2 0.510766 0.281194 0.760862
O O3 0.430635 0.000000 0.842274
O O4 0.381565 0.273774 0.005124
O O5 0.852265 0.500000 0.156444
O O6 0.901392 0.220549 0.185282
O O7 0.770946 0.220292 0.282791
O O8 0.139152 0.283859 0.373863
O O9 0.000000 0.287958 0.500000
O O10 0.074217 0.000000 0.409930
O O11 0.349509 0.243364 0.441953
O O12 0.427863 0.000000 0.256358
O O13 0.805529 0.000000 0.615322
#
# Coordination Sequence:
#
# PCOD9183437 Si02
#       5
#     8   8   8   8   8
#     4  10  20  34  55  79 103 133 170 211 254 302
#     4   9  19  35  53  77 106 135 167 208 259 305
#     4  10  20  35  53  74 103 137 172 209 252 302
#     4  10  19  33  55  79 104 133 169 211 253 301
#     4  10  20  35  55  75 102 139 173 207 252 303
#
# _framework density 22.078872
#
# number of rings (size 3 to 8) (size 9 to 14) (size 15 to 20)
#    0.000    2.200    2.000    1.200    0.000    4.400 
#    0.000    2.000    0.000    2.400    0.000    0.000 
#    0.000    0.000    0.000    0.000    0.000    0.000 
#
# Total GULP energy -111766.877628 kJ/mol
# GULP energy per Si atom -5588.343881 kJ/mol
# Density = 2.202862 g / cm^3
# Si number density = 22.078872 Si / 1000 Ang^3
#
#
#
# Elastic Constant Matrix: (Units=GPa)
#
#
# Indices 1 2 3 4 5 6 
#
# 1 2225.2727 306.2281 3688.0884 0.0013-1471.5997 -0.0007
# 2 306.2281 103.9239 500.3467 0.0002 -216.3476 -0.0001
# 3 3688.0884 500.3467 6358.2713 0.0022-2518.9130 -0.0012
# 4 0.0013 0.0002 0.0022 24.2099 -0.0009 5.7302
# 5 -1471.5997 -216.3476-2518.9130 -0.0009 1067.0632 0.0005
# 6 -0.0007 -0.0001 -0.0012 5.7302 0.0005 9.2523
#
#
#
# Elastic Compliance Matrix: (Units=1/GPa)
#
#
# Indices 1 2 3 4 5 6 
#
# 1 0.012273 -0.002719 -0.006448 0.000000 0.001153 0.000000
# 2 -0.002719 0.017325 0.001849 0.000000 0.004128 0.000000
# 3 -0.006448 0.001849 0.005825 0.000000 0.005232 0.000000
# 4 0.000000 0.000000 0.000000 0.048400 0.000000 -0.029976
# 5 0.001153 0.004128 0.005232 0.000000 0.015716 0.000000
# 6 0.000000 0.000000 0.000000 -0.029976 0.000000 0.126646
#
#
# Mechanical properties :
#
#
# Convention : Reuss Voigt Hill
#
# Bulk Modulus (GPa) = 48.10705 1964.08826 1006.09766
# Shear Modulus (GPa) = 20.18156 499.62539 259.90347
#
# Velocity S-wave (km/s) = 3.02663 15.05930 10.86147
# Velocity P-wave (km/s) = 5.83524 34.55265 24.77838
#
# Compressibility (1/GPa) = 0.02078697
#
# Stress axis : x y z
#
# Youngs Moduli (GPa) = 81.47899 57.71954 171.67810
#
# Poissons Ratio (x) = 0.15694 1.10701
# Poissons Ratio (y) = 0.22154 -0.31745
# Poissons Ratio (z) = 0.52539 -0.10673
#
# Static dielectric constant tensor:
#      x y z
#    x 1.801200 0.000000 -0.016800 
#    y 0.000000 1.857430 0.000000 
#    z -0.016800 0.000000 1.763120 
# 
# From -- ./inp_files/71330.got.cif
#   From: 2010.05.17/outbox.cif.g08.bks.cpg/sg12_36_cif.got.tgz:71330.got - 2010.06.03 13:09:07.
