data_PCOD9183256
_publ_section_title
;
Structure prediction by ZEFSAII (Michael W. Deem and Ramdas Pophale) SiO2 
 PCOD9183256
Probable space group: C 2/M
;
_chemical_formula_sum "Si O2"
_cell_formula_units_Z 40
_cell_length_a 11.934379
_cell_length_b 13.214818
_cell_length_c 21.887550
_cell_angle_alpha 90.000000
_cell_angle_beta 146.141751
_cell_angle_gamma 90.000000
_cell_volume 1923.191850
_symmetry_space_group_name_H-M "C 2/M"
_symmetry_group_IT_number 12
_symmetry_cell_setting 'monoclinic'
loop_
_space_group_symop_operation_xyz
x,y,z
-x,y,-z
-x,-y,-z
x,-y,z
1/2+x,1/2+y,z
1/2-x,1/2+y,-z
1/2-x,1/2-y,-z
1/2+x,1/2-y,z
loop_
_atom_site_type_symbol
_atom_site_label
_atom_site_fract_x
_atom_site_fract_y
_atom_site_fract_z
Si Si1 0.848613 0.387272 0.824865
Si Si2 0.725270 0.273214 0.884904
Si Si3 0.171934 0.114484 0.976919
Si Si4 0.527747 0.765360 0.677404
Si Si5 0.353216 0.117275 0.490743
O O1 0.771100 0.500000 0.778232
O O2 0.820206 0.357518 0.883209
O O3 0.710134 0.301746 0.731685
O O4 0.083568 0.387263 0.915750
O O5 0.863889 0.196720 0.986747
O O6 0.599208 0.208352 0.778453
O O7 0.606935 0.337043 0.883040
O O8 0.099525 0.000000 0.953661
O O9 0.468163 0.854554 0.605464
O O10 0.339418 0.689914 0.599347
O O11 0.500000 0.135971 0.500000
O O12 0.293615 0.000000 0.462849
#
# Coordination Sequence:
#
# PCOD9183256 Si02
#       5
#     8   8   8   8   8
#     4   9  18  33  55  76 101 138 177 212 254 309
#     4   9  20  32  53  80 109 138 170 215 256 308
#     4  10  19  33  54  81 109 140 175 211 257 307
#     4   9  21  34  56  79 105 133 179 220 258 308
#     4  10  21  38  57  76 103 139 176 218 268 318
#
# _framework density 20.798756000000001
#
# number of rings (size 3 to 8) (size 9 to 14) (size 15 to 20)
#    1.200    1.400    0.000    1.800    2.800    2.400 
#    0.000    0.000    0.000   13.800    0.000    0.000 
#    0.000    0.000    0.000    0.000    0.000    0.000 
#
# Total GULP energy -111403.833829 kJ/mol
# GULP energy per Si atom -5570.191691 kJ/mol
# Density = 2.075142 g / cm^3
# Si number density = 20.798756 Si / 1000 Ang^3
#
#
#
# Elastic Constant Matrix: (Units=GPa)
#
#
# Indices 1 2 3 4 5 6 
#
# 1 62.6656 11.9991 0.9673 0.0000 -1.3091 0.0000
# 2 11.9991 71.8030 -20.0982 0.0001 -7.5014 0.0000
# 3 0.9673 -20.0982 50.7244 0.0002 -12.6517 0.0001
# 4 0.0000 0.0001 0.0002 21.3551 0.0000 2.0287
# 5 -1.3091 -7.5014 -12.6517 0.0000 22.4793 0.0000
# 6 0.0000 0.0000 0.0001 2.0287 0.0000 17.4781
#
#
#
# Elastic Compliance Matrix: (Units=1/GPa)
#
#
# Indices 1 2 3 4 5 6 
#
# 1 0.016629 -0.003488 -0.002033 0.000000 -0.001340 0.000000
# 2 -0.003488 0.018674 0.010434 0.000000 0.011901 0.000000
# 3 -0.002033 0.010434 0.028764 0.000000 0.019552 0.000000
# 4 0.000000 0.000000 0.000000 0.047349 0.000000 -0.005496
# 5 -0.001340 0.011901 0.019552 0.000000 0.059383 0.000000
# 6 0.000000 0.000000 0.000000 -0.005496 0.000000 0.057852
#
#
# Mechanical properties :
#
#
# Convention : Reuss Voigt Hill
#
# Bulk Modulus (GPa) = 13.53342 18.99216 16.26279
# Shear Modulus (GPa) = 20.53753 25.08416 22.81085
#
# Velocity S-wave (km/s) = 3.14576 3.47658 3.31530
# Velocity P-wave (km/s) = 4.44020 5.02660 4.74247
#
# Compressibility (1/GPa) = 0.07389114
#
# Stress axis : x y z
#
# Youngs Moduli (GPa) = 60.13590 53.55142 34.76574
#
# Poissons Ratio (x) = 0.18679 0.07069
# Poissons Ratio (y) = 0.20976 -0.36274
# Poissons Ratio (z) = 0.12228 -0.55874
#
# Static dielectric constant tensor:
#      x y z
#    x 1.784730 0.000000 0.030500 
#    y 0.000000 1.757280 0.000000 
#    z 0.030500 0.000000 1.774600 
# 
# From -- ./inp_files/203641.got.cif
#   From: 2010.05.17/outbox.cif.g08.bks.cpg/sg12_102_cif.got.tgz:203641.got - 2010.06.03 13:09:07.
