data_PCOD9183270
_publ_section_title
;
Structure prediction by ZEFSAII (Michael W. Deem and Ramdas Pophale) SiO2 
 PCOD9183270
Probable space group: C 2/M
;
_chemical_formula_sum "Si O2"
_cell_formula_units_Z 40
_cell_length_a 11.216494
_cell_length_b 27.684111
_cell_length_c 8.839154
_cell_angle_alpha 90.000000
_cell_angle_beta 139.323135
_cell_angle_gamma 90.000000
_cell_volume 1788.988667
_symmetry_space_group_name_H-M "C 2/M"
_symmetry_group_IT_number 12
_symmetry_cell_setting 'monoclinic'
loop_
_space_group_symop_operation_xyz
x,y,z
-x,y,-z
-x,-y,-z
x,-y,z
1/2+x,1/2+y,z
1/2-x,1/2+y,-z
1/2-x,1/2-y,-z
1/2+x,1/2-y,z
loop_
_atom_site_type_symbol
_atom_site_label
_atom_site_fract_x
_atom_site_fract_y
_atom_site_fract_z
Si Si1 0.030194 0.703100 0.707135
Si Si2 0.465666 0.698227 0.143796
Si Si3 0.466509 0.000000 0.151599
Si Si4 0.533439 0.400653 0.710368
Si Si5 0.469401 0.895295 0.149460
Si Si6 0.958476 0.000000 0.138681
O O1 0.959183 0.751152 0.721121
O O2 0.957658 0.651584 0.694915
O O3 0.000000 0.707997 0.500000
O O4 0.246420 0.700578 0.951767
O O5 0.537945 0.650446 0.296378
O O6 0.500000 0.693917 0.000000
O O7 0.542312 0.052343 0.272579
O O8 0.500000 0.000000 0.000000
O O9 0.255252 0.000000 0.008557
O O10 0.500000 0.403637 0.500000
O O11 0.464423 0.449990 0.719556
O O12 0.750165 0.398598 0.954054
O O13 0.500000 0.889297 0.000000
O O14 0.000000 0.000000 0.000000
#
# Coordination Sequence:
#
# PCOD9183270 Si02
#       6
#     8   8   4   8   8   4
#     4  10  21  35  52  76 103 134 174 215 262 321
#     4  10  21  36  53  75 105 137 171 219 269 312
#     4   8  16  33  55  75 104 143 178 216 264 316
#     4  10  20  34  54  80 107 139 179 219 265 322
#     4   9  18  34  54  75 102 137 175 217 261 312
#     4  10  19  33  54  81 112 143 179 226 273 318
#
# _framework density 22.359000999999999
#
# number of rings (size 3 to 8) (size 9 to 14) (size 15 to 20)
#    0.000    2.400    0.000    2.100    0.000    2.400 
#    0.000    0.500    0.000    0.000    0.000    0.000 
#    0.000    0.000    0.000    0.000    0.000    0.000 
#
# Total GULP energy -111616.644777 kJ/mol
# GULP energy per Si atom -5580.832239 kJ/mol
# Density = 2.230811 g / cm^3
# Si number density = 22.359001 Si / 1000 Ang^3
#
#
#
# Elastic Constant Matrix: (Units=GPa)
#
#
# Indices 1 2 3 4 5 6 
#
# 1 84.1355 57.3099 27.8891 0.0000 -6.0711 0.0000
# 2 57.3099 276.3830 67.1230 0.0000 -50.0395 0.0000
# 3 27.8891 67.1230 78.5869 0.0000 -12.1026 0.0000
# 4 0.0000 0.0000 0.0000 17.5419 0.0000 -37.5227
# 5 -6.0711 -50.0395 -12.1026 0.0000 61.4940 0.0000
# 6 0.0000 0.0000 0.0000 -37.5227 0.0000 22.1454
#
#
#
# Elastic Compliance Matrix: (Units=1/GPa)
#
#
# Indices 1 2 3 4 5 6 
#
# 1 0.014542 -0.002439 -0.003261 0.000000 -0.001191 0.000000
# 2 -0.002439 0.005601 -0.003355 0.000000 0.003656 0.000000
# 3 -0.003261 -0.003355 0.016786 0.000000 0.000252 0.000000
# 4 0.000000 0.000000 0.000000 -0.021722 0.000000 -0.036806
# 5 -0.001191 0.003656 0.000252 0.000000 0.019169 0.000000
# 6 0.000000 0.000000 0.000000 -0.036806 0.000000 -0.017207
#
#
# Mechanical properties :
#
#
# Convention : Reuss Voigt Hill
#
# Bulk Modulus (GPa) = 53.13720 82.63883 67.88802
# Shear Modulus (GPa) = 120.33146 39.35515 79.84330
#
# Velocity S-wave (km/s) = 7.34403 4.19996 5.98224
# Velocity P-wave (km/s) = 9.78417 7.78202 8.83996
#
# Compressibility (1/GPa) = 0.01881921
#
# Stress axis : x y z
#
# Youngs Moduli (GPa) = 68.76663 178.54827 59.57218
#
# Poissons Ratio (x) = 0.43549 0.19425
# Poissons Ratio (y) = 0.16772 0.19987
# Poissons Ratio (z) = 0.22424 0.59904
#
# Static dielectric constant tensor:
#      x y z
#    x 1.838120 0.000000 0.059550 
#    y 0.000000 1.861930 0.000000 
#    z 0.059550 0.000000 1.757880 
# 
# From -- ./inp_files/8378.got.cif
#   From: 2010.05.17/outbox.cif.g08.bks.cpg/sg12_5_cif.got.tgz:8378.got - 2010.06.03 13:09:07.
