data_PCOD9183175
_publ_section_title
;
Structure prediction by ZEFSAII (Michael W. Deem and Ramdas Pophale) SiO2 
 PCOD9183175
Probable space group: C 2/M
;
_chemical_formula_sum "Si O2"
_cell_formula_units_Z 48
_cell_length_a 5.424848
_cell_length_b 26.309458
_cell_length_c 15.452586
_cell_angle_alpha 90.000000
_cell_angle_beta 85.667398
_cell_angle_gamma 90.000000
_cell_volume 2199.164864
_symmetry_space_group_name_H-M "C 2/M"
_symmetry_group_IT_number 12
_symmetry_cell_setting 'monoclinic'
loop_
_space_group_symop_operation_xyz
x,y,z
-x,y,-z
-x,-y,-z
x,-y,z
1/2+x,1/2+y,z
1/2-x,1/2+y,-z
1/2-x,1/2-y,-z
1/2+x,1/2-y,z
loop_
_atom_site_type_symbol
_atom_site_label
_atom_site_fract_x
_atom_site_fract_y
_atom_site_fract_z
Si Si1 0.788759 0.617113 0.324055
Si Si2 0.741995 0.808150 0.537297
Si Si3 0.745901 0.729699 0.097914
Si Si4 0.831696 0.942152 0.114236
Si Si5 0.332638 0.887004 0.115085
Si Si6 0.712471 0.441249 0.674038
O O1 0.779683 0.674563 0.362527
O O2 0.812881 0.616021 0.220075
O O3 0.533276 0.587731 0.351372
O O4 0.031159 0.587634 0.352272
O O5 0.500000 0.830643 0.500000
O O6 0.750000 0.750000 0.500000
O O7 0.000000 0.830686 0.500000
O O8 0.476575 0.744584 0.140796
O O9 0.786866 0.670224 0.088366
O O10 0.750000 0.750000 0.000000
O O11 0.605409 0.907692 0.087621
O O12 0.808518 0.941957 0.220023
O O13 0.106436 0.921771 0.088975
O O14 0.798664 0.000000 0.086108
O O15 0.717799 0.500000 0.645351
#
# Coordination Sequence:
#
# PCOD9183175 Si02
#       6
#     8   8   8   8   8   8
#     4  10  19  33  54  79 107 140 180 229 263 317
#     4  10  21  38  54  71  98 142 188 215 278 325
#     4  10  21  38  56  80 111 152 192 220 275 327
#     4   9  17  30  52  84 120 146 174 224 282 330
#     4  10  19  33  54  86 114 141 189 230 269 322
#     4   9  17  30  52  80 110 141 173 218 277 325
#
# _framework density 21.826467999999998
#
# number of rings (size 3 to 8) (size 9 to 14) (size 15 to 20)
#    0.000    2.333    0.000    3.000    0.000    4.000 
#    6.000    0.000    0.000   10.000    0.000   46.667 
#    0.000    0.000    0.000    0.000    0.000    1.000 
#
# Total GULP energy -133899.197769 kJ/mol
# GULP energy per Si atom -5579.133240 kJ/mol
# Density = 2.177679 g / cm^3
# Si number density = 21.826468 Si / 1000 Ang^3
#
#
#
# Elastic Constant Matrix: (Units=GPa)
#
#
# Indices 1 2 3 4 5 6 
#
# 1 207.3234 58.6071 23.5542 0.0000 5.6144 0.0000
# 2 58.6071 151.4355 22.9530 0.0000 3.4894 0.0000
# 3 23.5542 22.9530 43.6703 0.0000 -0.5034 0.0000
# 4 0.0000 0.0000 0.0000 29.6482 0.0000 12.1350
# 5 5.6144 3.4894 -0.5034 0.0000 13.1972 0.0000
# 6 0.0000 0.0000 0.0000 12.1350 0.0000 -58.7606
#
#
#
# Elastic Compliance Matrix: (Units=1/GPa)
#
#
# Indices 1 2 3 4 5 6 
#
# 1 0.005629 -0.001813 -0.002106 0.000000 -0.001996 0.000000
# 2 -0.001813 0.007815 -0.003146 0.000000 -0.001415 0.000000
# 3 -0.002106 -0.003146 0.025719 0.000000 0.002709 0.000000
# 4 0.000000 0.000000 0.000000 0.031100 0.000000 0.006423
# 5 -0.001996 -0.001415 0.002709 0.000000 0.077100 0.000000
# 6 0.000000 0.000000 0.000000 0.006423 0.000000 -0.015692
#
#
# Mechanical properties :
#
#
# Convention : Reuss Voigt Hill
#
# Bulk Modulus (GPa) = 39.94715 68.07311 54.01013
# Shear Modulus (GPa) = 32.43666 16.63795 24.53731
#
# Velocity S-wave (km/s) = 3.85920 2.76394 3.35655
# Velocity P-wave (km/s) = 6.18060 6.43754 6.31038
#
# Compressibility (1/GPa) = 0.02503307
#
# Stress axis : x y z
#
# Youngs Moduli (GPa) = 177.64119 127.96485 38.88122
#
# Poissons Ratio (x) = 0.23205 0.08189
# Poissons Ratio (y) = 0.32213 0.12230
# Poissons Ratio (z) = 0.37414 0.40252
#
# Static dielectric constant tensor:
#      x y z
#    x 1.850340 0.000000 -0.016590 
#    y 0.000000 1.750420 0.000000 
#    z -0.016590 0.000000 1.829300 
# 
# From -- ./inp_files/253157.got.cif
#   From: 2010.05.17/outbox.cif.g08.bks.cpg/sg12_127_cif.got.tgz:253157.got - 2010.06.03 13:09:07.
