data_PCOD9183155
_publ_section_title
;
Structure prediction by ZEFSAII (Michael W. Deem and Ramdas Pophale) SiO2 
 PCOD9183155
Probable space group: C 2/M
;
_chemical_formula_sum "Si O2"
_cell_formula_units_Z 28
_cell_length_a 7.949341
_cell_length_b 33.027189
_cell_length_c 5.256426
_cell_angle_alpha 90.000000
_cell_angle_beta 123.101254
_cell_angle_gamma 90.000000
_cell_volume 1156.073153
_symmetry_space_group_name_H-M "C 2/M"
_symmetry_group_IT_number 12
_symmetry_cell_setting 'monoclinic'
loop_
_space_group_symop_operation_xyz
x,y,z
-x,y,-z
-x,-y,-z
x,-y,z
1/2+x,1/2+y,z
1/2-x,1/2+y,-z
1/2-x,1/2-y,-z
1/2+x,1/2-y,z
loop_
_atom_site_type_symbol
_atom_site_label
_atom_site_fract_x
_atom_site_fract_y
_atom_site_fract_z
Si Si1 0.235195 0.207826 0.637857
Si Si2 0.141399 0.500000 0.866955
Si Si3 0.770942 0.826407 0.862400
Si Si4 0.639210 0.912610 0.865963
O O1 0.250000 0.250000 0.500000
O O2 0.315649 0.175990 0.495140
O O3 0.000000 0.200048 0.500000
O O4 0.318599 0.202941 0.993188
O O5 0.249583 0.456380 0.959531
O O6 0.000000 0.500000 0.500000
O O7 0.000000 0.500000 0.000000
O O8 0.768436 0.871963 0.963271
O O9 0.000000 0.813546 0.000000
O O10 0.500000 0.912138 0.500000
O O11 0.500000 0.910699 0.000000
#
# Coordination Sequence:
#
# PCOD9183155 Si02
#       4
#     8   4   8   8
#     4  10  21  36  53  73 100 133 168 210 256 301
#     4   8  16  30  49  74 105 132 164 210 252 288
#     4  10  21  36  52  75 106 134 164 210 261 301
#     4  10  19  33  54  79 103 135 174 210 248 300
#
# _framework density 24.219922
#
# number of rings (size 3 to 8) (size 9 to 14) (size 15 to 20)
#    0.000    2.286    0.000    2.571    0.000    3.429 
#    0.000    0.714    0.000    0.000    0.000   18.000 
#    0.000    0.000    0.000    0.000    0.000    0.000 
#
# Total GULP energy -78135.308307 kJ/mol
# GULP energy per Si atom -5581.093451 kJ/mol
# Density = 2.416480 g / cm^3
# Si number density = 24.219922 Si / 1000 Ang^3
#
#
#
# Elastic Constant Matrix: (Units=GPa)
#
#
# Indices 1 2 3 4 5 6 
#
# 1 96.2223 31.7890 47.9586 0.0000 -46.1584 0.0000
# 2 31.7890 186.8250 15.7639 0.0000 -41.2161 0.0000
# 3 47.9586 15.7639 150.6369 0.0000 -52.0263 0.0000
# 4 0.0000 0.0000 0.0000 39.8676 0.0000 -22.3950
# 5 -46.1584 -41.2161 -52.0263 0.0000 52.7253 0.0000
# 6 0.0000 0.0000 0.0000 -22.3950 0.0000 43.1519
#
#
#
# Elastic Compliance Matrix: (Units=1/GPa)
#
#
# Indices 1 2 3 4 5 6 
#
# 1 0.017965 0.000447 -0.000324 0.000000 0.015757 0.000000
# 2 0.000447 0.006752 0.001683 0.000000 0.007329 0.000000
# 3 -0.000324 0.001683 0.010500 0.000000 0.011392 0.000000
# 4 0.000000 0.000000 0.000000 0.035405 0.000000 0.018374
# 5 0.015757 0.007329 0.011392 0.000000 0.049731 0.000000
# 6 0.000000 0.000000 0.000000 0.018374 0.000000 0.032710
#
#
# Mechanical properties :
#
#
# Convention : Reuss Voigt Hill
#
# Bulk Modulus (GPa) = 25.75531 69.41192 47.58361
# Shear Modulus (GPa) = 30.78901 49.69380 40.24140
#
# Velocity S-wave (km/s) = 3.56929 4.53457 4.08057
# Velocity P-wave (km/s) = 5.25771 7.49250 6.47229
#
# Compressibility (1/GPa) = 0.03882694
#
# Stress axis : x y z
#
# Youngs Moduli (GPa) = 55.66249 148.11500 95.23500
#
# Poissons Ratio (x) = -0.06616 0.03089
# Poissons Ratio (y) = -0.02486 -0.16023
# Poissons Ratio (z) = 0.01805 -0.24921
#
# Static dielectric constant tensor:
#      x y z
#    x 1.903300 0.000000 0.043320 
#    y 0.000000 1.983660 0.000000 
#    z 0.043320 0.000000 2.063020 
# 
# From -- ./inp_files/3086.got.cif
#   From: 2010.05.17/outbox.cif.g08.bks.cpg/sg12_2_cif.got.tgz:3086.got - 2010.06.03 13:09:07.
