data_PCOD9183908
_publ_section_title
;
Structure prediction by ZEFSAII (Michael W. Deem and Ramdas Pophale) SiO2 
 PCOD9183908
Probable space group: C 2/M
;
_chemical_formula_sum "Si O2"
_cell_formula_units_Z 64
_cell_length_a 14.752927
_cell_length_b 19.366085
_cell_length_c 11.321754
_cell_angle_alpha 90.000000
_cell_angle_beta 99.251819
_cell_angle_gamma 90.000000
_cell_volume 3192.618674
_symmetry_space_group_name_H-M "C 2/M"
_symmetry_group_IT_number 12
_symmetry_cell_setting 'monoclinic'
loop_
_space_group_symop_operation_xyz
x,y,z
-x,y,-z
-x,-y,-z
x,-y,z
1/2+x,1/2+y,z
1/2-x,1/2+y,-z
1/2-x,1/2-y,-z
1/2+x,1/2-y,z
loop_
_atom_site_type_symbol
_atom_site_label
_atom_site_fract_x
_atom_site_fract_y
_atom_site_fract_z
Si Si1 0.599821 0.420041 0.577038
Si Si2 0.294366 0.725009 0.888468
Si Si3 0.872613 0.784870 0.284935
Si Si4 0.021398 0.422725 0.864963
Si Si5 0.731749 0.077421 0.826547
Si Si6 0.042855 0.276189 0.214501
Si Si7 0.280864 0.077599 0.459657
Si Si8 0.646408 0.779254 0.474412
O O1 0.500000 0.405177 0.500000
O O2 0.599577 0.500000 0.616100
O O3 0.622735 0.365596 0.684194
O O4 0.679817 0.412720 0.495559
O O5 0.226440 0.757385 0.775014
O O6 0.290464 0.642268 0.881030
O O7 0.394815 0.753149 0.881371
O O8 0.250000 0.750000 0.000000
O O9 0.897775 0.747409 0.413646
O O10 0.945250 0.761256 0.202583
O O11 0.993617 0.500000 0.819132
O O12 0.130029 0.416032 0.861065
O O13 0.972765 0.358192 0.793857
O O14 0.000000 0.418352 0.000000
O O15 0.723794 0.083163 0.682911
O O16 0.766236 0.000000 0.861085
O O17 0.095869 0.256209 0.345862
O O18 0.344851 0.138184 0.520246
O O19 0.311659 0.000000 0.496063
O O20 0.750000 0.750000 0.500000
#
# Coordination Sequence:
#
# PCOD9183908 Si02
#       8
#     8   8   8   8   8   8   8   8
#     4  10  21  35  56  88 123 161 202 246 304 373
#     4  12  25  42  63  92 123 163 214 263 313 373
#     4  12  24  40  61  90 125 159 207 258 313 370
#     4  10  21  40  64  91 124 162 209 264 318 375
#     4  10  20  39  62  88 123 163 206 254 311 375
#     4  12  24  37  66  91 123 167 207 258 313 373
#     4  10  19  33  56  83 120 159 192 239 300 370
#     4  12  20  37  57  87 124 160 199 250 309 370
#
# _framework density 20.046239
#
# number of rings (size 3 to 8) (size 9 to 14) (size 15 to 20)
#    0.000    1.000    5.000    1.875    1.750    0.500 
#    0.000    1.250    0.000    3.750    0.000    1.750 
#    0.000    0.000    0.000    0.000    0.000    0.000 
#
# Total GULP energy -178834.431868 kJ/mol
# GULP energy per Si atom -5588.575996 kJ/mol
# Density = 2.000061 g / cm^3
# Si number density = 20.046239 Si / 1000 Ang^3
#
#
#
# Elastic Constant Matrix: (Units=GPa)
#
#
# Indices 1 2 3 4 5 6 
#
# 1 72.7795 24.8146 8.2027 0.0000 -30.0345 0.0000
# 2 24.8146 139.5345 7.3025 0.0000 -8.3817 0.0000
# 3 8.2027 7.3025 46.5224 0.0000 -21.1325 0.0000
# 4 0.0000 0.0000 0.0000 26.4185 0.0000 -3.2182
# 5 -30.0345 -8.3817 -21.1325 0.0000 33.9873 0.0000
# 6 0.0000 0.0000 0.0000 -3.2182 0.0000 24.8393
#
#
#
# Elastic Compliance Matrix: (Units=1/GPa)
#
#
# Indices 1 2 3 4 5 6 
#
# 1 0.024644 -0.003241 0.007934 0.000000 0.025912 0.000000
# 2 -0.003241 0.007708 -0.001500 0.000000 -0.001896 0.000000
# 3 0.007934 -0.001500 0.032538 0.000000 0.026873 0.000000
# 4 0.000000 0.000000 0.000000 0.038459 0.000000 0.004983
# 5 0.025912 -0.001896 0.026873 0.000000 0.068562 0.000000
# 6 0.000000 0.000000 0.000000 0.004983 0.000000 0.040904
#
#
# Mechanical properties :
#
#
# Convention : Reuss Voigt Hill
#
# Bulk Modulus (GPa) = 14.02994 37.71954 25.87474
# Shear Modulus (GPa) = 21.72125 31.61681 26.66903
#
# Velocity S-wave (km/s) = 3.29531 3.97570 3.65139
# Velocity P-wave (km/s) = 4.63603 6.31918 5.54188
#
# Compressibility (1/GPa) = 0.07127614
#
# Stress axis : x y z
#
# Youngs Moduli (GPa) = 40.57717 129.73999 30.73296
#
# Poissons Ratio (x) = 0.42054 -0.24383
# Poissons Ratio (y) = 0.13153 0.04609
# Poissons Ratio (z) = -0.32193 0.19456
#
# Static dielectric constant tensor:
#      x y z
#    x 1.722650 0.000000 -0.030610 
#    y 0.000000 1.724500 0.000000 
#    z -0.030610 0.000000 1.717330 
# 
# From -- ./inp_files/146142.got.cif
#   From: 2010.05.17/outbox.cif.g08.bks.cpg/sg12_74_cif.got.tgz:146142.got - 2010.06.03 13:09:07.
