data_PCOD9183623
_publ_section_title
;
Structure prediction by ZEFSAII (Michael W. Deem and Ramdas Pophale) SiO2 
 PCOD9183623
Probable space group: C 2/M
;
_chemical_formula_sum "Si O2"
_cell_formula_units_Z 48
_cell_length_a 20.145188
_cell_length_b 7.795616
_cell_length_c 19.318189
_cell_angle_alpha 90.000000
_cell_angle_beta 45.122245
_cell_angle_gamma 90.000000
_cell_volume 2149.798734
_symmetry_space_group_name_H-M "C 2/M"
_symmetry_group_IT_number 12
_symmetry_cell_setting 'monoclinic'
loop_
_space_group_symop_operation_xyz
x,y,z
-x,y,-z
-x,-y,-z
x,-y,z
1/2+x,1/2+y,z
1/2-x,1/2+y,-z
1/2-x,1/2-y,-z
1/2+x,1/2-y,z
loop_
_atom_site_type_symbol
_atom_site_label
_atom_site_fract_x
_atom_site_fract_y
_atom_site_fract_z
Si Si1 0.389431 0.707335 0.933438
Si Si2 0.207385 0.798569 0.140009
Si Si3 0.106915 0.197111 0.583580
Si Si4 0.594128 0.710710 0.751020
Si Si5 0.420954 0.196485 0.646956
Si Si6 0.296197 0.799585 0.620865
O O1 0.387081 0.500000 0.937130
O O2 0.347204 0.759329 0.889537
O O3 0.497068 0.764441 0.857487
O O4 0.316775 0.772301 0.043915
O O5 0.165737 0.701914 0.236005
O O6 0.188090 0.000000 0.163657
O O7 0.095507 0.265999 0.669483
O O8 0.178809 0.284868 0.478221
O O9 0.006056 0.208518 0.620947
O O10 0.136078 0.000000 0.567622
O O11 0.593941 0.500000 0.751247
O O12 0.692411 0.770370 0.710542
O O13 0.379911 0.272864 0.606152
O O14 0.453554 0.000000 0.612616
O O15 0.294061 0.000000 0.640926
#
# Coordination Sequence:
#
# PCOD9183623 Si02
#       6
#     8   8   8   8   8   8
#     4   9  17  33  56  81 107 137 176 222 269 318
#     4  10  19  33  55  83 110 137 176 225 271 315
#     4  11  21  36  58  82 107 141 183 227 272 315
#     4   9  18  36  58  80 108 141 181 224 266 317
#     4  11  22  36  55  80 110 145 183 220 265 321
#     4  10  22  38  55  78 110 146 182 222 266 319
#
# _framework density 22.327672
#
# number of rings (size 3 to 8) (size 9 to 14) (size 15 to 20)
#    0.000    2.000    1.667    2.500    0.000    4.000 
#    0.000    2.500    0.000    5.000    0.000    0.000 
#    0.000    0.000    0.000    0.000    0.000    0.000 
#
# Total GULP energy -134090.495187 kJ/mol
# GULP energy per Si atom -5587.103966 kJ/mol
# Density = 2.227685 g / cm^3
# Si number density = 22.327672 Si / 1000 Ang^3
#
#
#
# Elastic Constant Matrix: (Units=GPa)
#
#
# Indices 1 2 3 4 5 6 
#
# 1 53.8530 1.8715 0.9132 0.0001 -22.9083 0.0000
# 2 1.8715 35.0071 -2.5756 0.0008 2.0875 -0.0005
# 3 0.9132 -2.5756 89.0889 -0.0001 -18.0391 0.0000
# 4 0.0001 0.0008 -0.0001 27.0950 -0.0001 -0.9336
# 5 -22.9083 2.0875 -18.0391 -0.0001 38.8458 0.0001
# 6 0.0000 -0.0005 0.0000 -0.9336 0.0001 11.1493
#
#
#
# Elastic Compliance Matrix: (Units=1/GPa)
#
#
# Indices 1 2 3 4 5 6 
#
# 1 0.025688 -0.002143 0.003052 0.000000 0.016681 0.000000
# 2 -0.002143 0.028863 0.000316 -0.000001 -0.002668 0.000001
# 3 0.003052 0.000316 0.012764 0.000000 0.007710 0.000000
# 4 0.000000 -0.000001 0.000000 0.037014 0.000000 0.003099
# 5 0.016681 -0.002668 0.007710 0.000000 0.039304 0.000000
# 6 0.000000 0.000001 0.000000 0.003099 0.000000 0.089951
#
#
# Mechanical properties :
#
#
# Convention : Reuss Voigt Hill
#
# Bulk Modulus (GPa) = 14.33392 19.81857 17.07624
# Shear Modulus (GPa) = 19.65500 27.26735 23.46118
#
# Velocity S-wave (km/s) = 2.97020 3.49841 3.24507
# Velocity P-wave (km/s) = 4.26574 5.02135 4.65889
#
# Compressibility (1/GPa) = 0.06976457
#
# Stress axis : x y z
#
# Youngs Moduli (GPa) = 38.92895 34.64689 78.34647
#
# Poissons Ratio (x) = 0.07426 -0.23915
# Poissons Ratio (y) = 0.08344 -0.02477
# Poissons Ratio (z) = -0.11883 -0.01095
#
# Static dielectric constant tensor:
#      x y z
#    x 1.846220 0.000000 -0.021270 
#    y 0.000000 1.822000 0.000000 
#    z -0.021270 0.000000 1.820360 
# 
# From -- ./inp_files/230338.got.cif
#   From: 2010.05.17/outbox.cif.g08.bks.cpg/sg12_116_cif.got.tgz:230338.got - 2010.06.03 13:09:07.
