data_PCOD9183171
_publ_section_title
;
Structure prediction by ZEFSAII (Michael W. Deem and Ramdas Pophale) SiO2 
 PCOD9183171
Probable space group: C 2/M
;
_chemical_formula_sum "Si O2"
_cell_formula_units_Z 56
_cell_length_a 14.953799
_cell_length_b 9.706484
_cell_length_c 27.760398
_cell_angle_alpha 90.000000
_cell_angle_beta 38.748578
_cell_angle_gamma 90.000000
_cell_volume 2522.011008
_symmetry_space_group_name_H-M "C 2/M"
_symmetry_group_IT_number 12
_symmetry_cell_setting 'monoclinic'
loop_
_space_group_symop_operation_xyz
x,y,z
-x,y,-z
-x,-y,-z
x,-y,z
1/2+x,1/2+y,z
1/2-x,1/2+y,-z
1/2-x,1/2-y,-z
1/2+x,1/2-y,z
loop_
_atom_site_type_symbol
_atom_site_label
_atom_site_fract_x
_atom_site_fract_y
_atom_site_fract_z
Si Si1 0.215634 0.152711 0.469999
Si Si2 0.913802 0.839276 0.746460
Si Si3 0.458769 0.158483 0.816761
Si Si4 0.671771 0.338369 0.991398
Si Si5 0.091266 0.153325 0.360277
Si Si6 0.575509 0.837548 0.874575
Si Si7 0.837384 0.655614 0.590446
O O1 0.250000 0.250000 0.500000
O O2 0.240774 0.236433 0.411163
O O3 0.045495 0.135442 0.548101
O O4 0.281059 0.000000 0.444597
O O5 0.980463 0.752829 0.761511
O O6 0.958223 0.809532 0.672651
O O7 0.741779 0.819691 0.815776
O O8 0.940260 0.000000 0.744277
O O9 0.539351 0.194029 0.833259
O O10 0.493469 0.000000 0.791222
O O11 0.288349 0.166776 0.900156
O O12 0.652896 0.500000 0.011750
O O13 0.521158 0.260733 0.051573
O O14 0.750000 0.250000 0.000000
O O15 0.169639 0.278366 0.353556
O O16 0.161699 0.000000 0.327701
O O17 0.537633 0.000000 0.897175
O O18 0.781902 0.500000 0.611855
O O19 0.000000 0.646794 0.500000
#
# Coordination Sequence:
#
# PCOD9183171 Si02
#       7
#     8   8   8   8   8   8   8
#     4  10  19  33  54  79 107 136 172 219 267 314
#     4  10  21  37  56  77 108 147 184 220 265 326
#     4   9  19  35  53  76 108 141 177 224 272 315
#     4   9  17  31  53  79 107 139 178 227 276 321
#     4   9  19  36  54  74 105 140 174 215 264 316
#     4   9  19  36  55  77 107 142 181 223 270 327
#     4   9  17  31  53  77 101 130 167 209 254 308
#
# _framework density 22.204502999999999
#
# number of rings (size 3 to 8) (size 9 to 14) (size 15 to 20)
#    0.000    2.714    0.000    2.143    0.000    6.857 
#    2.571    2.857    0.000    0.000    0.000    0.000 
#    0.000    0.000    0.000    0.000    0.000    0.000 
#
# Total GULP energy -156232.224140 kJ/mol
# GULP energy per Si atom -5579.722291 kJ/mol
# Density = 2.215396 g / cm^3
# Si number density = 22.204503 Si / 1000 Ang^3
#
#
#
# Elastic Constant Matrix: (Units=GPa)
#
#
# Indices 1 2 3 4 5 6 
#
# 1 82.3034 57.3016 27.2099 0.0000 14.5208 0.0000
# 2 57.3016 148.9146 39.4552 0.0000 28.3130 0.0000
# 3 27.2099 39.4552 70.8521 0.0000 0.8778 0.0000
# 4 0.0000 0.0000 0.0000 20.9647 0.0000 14.8153
# 5 14.5208 28.3130 0.8778 0.0000 39.5816 0.0000
# 6 0.0000 0.0000 0.0000 14.8153 0.0000 21.5104
#
#
#
# Elastic Compliance Matrix: (Units=1/GPa)
#
#
# Indices 1 2 3 4 5 6 
#
# 1 0.017504 -0.005245 -0.003769 0.000000 -0.002586 0.000000
# 2 -0.005245 0.010885 -0.003975 0.000000 -0.005773 0.000000
# 3 -0.003769 -0.003975 0.017728 0.000000 0.003833 0.000000
# 4 0.000000 0.000000 0.000000 0.092931 0.000000 -0.064006
# 5 -0.002586 -0.005773 0.003833 0.000000 0.030258 0.000000
# 6 0.000000 0.000000 0.000000 -0.064006 0.000000 0.090573
#
#
# Mechanical properties :
#
#
# Convention : Reuss Voigt Hill
#
# Bulk Modulus (GPa) = 49.66046 61.11151 55.38599
# Shear Modulus (GPa) = 17.08987 28.28489 22.68738
#
# Velocity S-wave (km/s) = 2.77728 3.57296 3.19995
# Velocity P-wave (km/s) = 5.71821 6.67856 6.21696
#
# Compressibility (1/GPa) = 0.02013674
#
# Stress axis : x y z
#
# Youngs Moduli (GPa) = 57.12825 91.87322 56.40860
#
# Poissons Ratio (x) = 0.48190 0.21263
# Poissons Ratio (y) = 0.29965 0.22424
# Poissons Ratio (z) = 0.21534 0.36523
#
# Static dielectric constant tensor:
#      x y z
#    x 1.889220 0.000000 -0.079230 
#    y 0.000000 1.806060 0.000000 
#    z -0.079230 0.000000 1.877610 
# 
# From -- ./inp_files/377687.got.cif
#   From: 2010.05.17/outbox.cif.g08.bks.cpg/sg12_189_cif.got.tgz:377687.got - 2010.06.03 13:09:07.
