data_PCOD9183868
_publ_section_title
;
Structure prediction by ZEFSAII (Michael W. Deem and Ramdas Pophale) SiO2 
 PCOD9183868
Probable space group: C 2/M
;
_chemical_formula_sum "Si O2"
_cell_formula_units_Z 48
_cell_length_a 20.960397
_cell_length_b 7.655373
_cell_length_c 15.352513
_cell_angle_alpha 90.000000
_cell_angle_beta 107.640959
_cell_angle_gamma 90.000000
_cell_volume 2347.613016
_symmetry_space_group_name_H-M "C 2/M"
_symmetry_group_IT_number 12
_symmetry_cell_setting 'monoclinic'
loop_
_space_group_symop_operation_xyz
x,y,z
-x,y,-z
-x,-y,-z
x,-y,z
1/2+x,1/2+y,z
1/2-x,1/2+y,-z
1/2-x,1/2-y,-z
1/2+x,1/2-y,z
loop_
_atom_site_type_symbol
_atom_site_label
_atom_site_fract_x
_atom_site_fract_y
_atom_site_fract_z
Si Si1 0.208492 0.290117 0.570106
Si Si2 0.189306 0.792420 0.038999
Si Si3 0.550413 0.208830 0.260831
Si Si4 0.694818 0.711146 0.238592
Si Si5 0.060333 0.285690 0.462645
Si Si6 0.038698 0.707743 0.930958
O O1 0.205337 0.500000 0.576355
O O2 0.250000 0.250000 0.500000
O O3 0.248642 0.223870 0.671014
O O4 0.132727 0.226682 0.527091
O O5 0.200422 0.723336 0.141861
O O6 0.185108 0.000000 0.044224
O O7 0.250000 0.750000 0.000000
O O8 0.117624 0.732144 0.973424
O O9 0.622412 0.242172 0.247262
O O10 0.549882 0.275857 0.359210
O O11 0.494143 0.278142 0.171295
O O12 0.541559 0.000000 0.264338
O O13 0.699264 0.500000 0.238671
O O14 0.061464 0.500000 0.462231
O O15 0.000000 0.232072 0.500000
O O16 0.025874 0.500000 0.924738
O O17 0.000000 0.779401 0.000000
#
# Coordination Sequence:
#
# PCOD9183868 Si02
#       6
#     8   8   8   8   8   8
#     4  10  19  33  56  83 109 142 183 228 276 330
#     4  11  24  40  58  83 117 153 189 236 289 339
#     4  10  19  33  57  84 108 144 188 231 273 328
#     4  10  21  35  55  83 112 145 184 233 284 333
#     4   9  18  32  52  80 110 141 179 224 272 324
#     4  10  20  35  58  86 113 145 190 237 280 333
#
# _framework density 20.446299
#
# number of rings (size 3 to 8) (size 9 to 14) (size 15 to 20)
#    0.000    2.000    3.333    0.500    0.000    3.000 
#    0.000    5.000    0.000    2.000    0.000    0.000 
#    0.000    0.000    0.000    0.000    0.000    0.000 
#
# Total GULP energy -134043.178042 kJ/mol
# GULP energy per Si atom -5585.132418 kJ/mol
# Density = 2.039976 g / cm^3
# Si number density = 20.446299 Si / 1000 Ang^3
#
#
#
# Elastic Constant Matrix: (Units=GPa)
#
#
# Indices 1 2 3 4 5 6 
#
# 1 170.1281 -21.6594 121.3298 0.0000 6.7983 0.0000
# 2 -21.6594 30.0668 0.1743 0.0000 3.7175 0.0000
# 3 121.3298 0.1743 240.8337 0.0000 16.4258 0.0000
# 4 0.0000 0.0000 0.0000 2.8284 0.0000 -1.3957
# 5 6.7983 3.7175 16.4258 0.0000 41.8522 0.0000
# 6 0.0000 0.0000 0.0000 -1.3957 0.0000 25.2221
#
#
#
# Elastic Compliance Matrix: (Units=1/GPa)
#
#
# Indices 1 2 3 4 5 6 
#
# 1 0.010725 0.007797 -0.005387 0.000000 -0.000320 0.000000
# 2 0.007797 0.039305 -0.003732 0.000000 -0.003293 0.000000
# 3 -0.005387 -0.003732 0.006973 0.000000 -0.001530 0.000000
# 4 0.000000 0.000000 0.000000 0.363478 0.000000 0.020114
# 5 -0.000320 -0.003293 -0.001530 0.000000 0.024839 0.000000
# 6 0.000000 0.000000 0.000000 0.020114 0.000000 0.040761
#
#
# Mechanical properties :
#
#
# Convention : Reuss Voigt Hill
#
# Bulk Modulus (GPa) = 18.39606 71.19090 44.79348
# Shear Modulus (GPa) = 9.86495 36.72616 23.29555
#
# Velocity S-wave (km/s) = 2.19893 4.24279 3.37909
# Velocity P-wave (km/s) = 3.93241 7.67436 6.09752
#
# Compressibility (1/GPa) = 0.05435946
#
# Stress axis : x y z
#
# Youngs Moduli (GPa) = 93.23762 25.44217 143.40461
#
# Poissons Ratio (x) = -0.19837 0.77253
# Poissons Ratio (y) = -0.72698 0.53518
# Poissons Ratio (z) = 0.50228 0.09495
#
# Static dielectric constant tensor:
#      x y z
#    x 1.643660 0.000000 0.005820 
#    y 0.000000 1.746480 0.000000 
#    z 0.005820 0.000000 1.746160 
# 
# From -- ./inp_files/229819.got.cif
#   From: 2010.05.17/outbox.cif.g08.bks.cpg/sg12_115_cif.got.tgz:229819.got - 2010.06.03 13:09:07.
