data_PCOD9183369
_publ_section_title
;
Structure prediction by ZEFSAII (Michael W. Deem and Ramdas Pophale) SiO2 
 PCOD9183369
Probable space group: C 2/M
;
_chemical_formula_sum "Si O2"
_cell_formula_units_Z 34
_cell_length_a 20.003440
_cell_length_b 7.529934
_cell_length_c 11.746752
_cell_angle_alpha 90.000000
_cell_angle_beta 67.530083
_cell_angle_gamma 90.000000
_cell_volume 1635.021186
_symmetry_space_group_name_H-M "C 2/M"
_symmetry_group_IT_number 12
_symmetry_cell_setting 'monoclinic'
loop_
_space_group_symop_operation_xyz
x,y,z
-x,y,-z
-x,-y,-z
x,-y,z
1/2+x,1/2+y,z
1/2-x,1/2+y,-z
1/2-x,1/2-y,-z
1/2+x,1/2-y,z
loop_
_atom_site_type_symbol
_atom_site_label
_atom_site_fract_x
_atom_site_fract_y
_atom_site_fract_z
Si Si1 0.799696 0.793556 0.640504
Si Si2 0.500000 0.500000 0.500000
Si Si3 0.424888 0.200721 0.706600
Si Si4 0.506028 0.785976 0.868355
Si Si5 0.852428 0.284461 0.360456
O O1 0.843161 0.703944 0.713513
O O2 0.847511 0.780614 0.493559
O O3 0.720957 0.724579 0.655296
O O4 0.791909 0.000000 0.674349
O O5 0.466682 0.344804 0.605695
O O6 0.437874 0.245503 0.830481
O O7 0.454116 0.000000 0.670625
O O8 0.576840 0.724719 0.752846
O O9 0.514200 0.000000 0.872509
O O10 0.500000 0.715748 0.000000
O O11 0.851122 0.500000 0.366494
#
# Coordination Sequence:
#
# PCOD9183369 Si02
#       5
#     8   2   8   8   8
#     4  10  19  33  54  84 121 149 187 241 297 353
#     4  12  22  36  58  90 120 148 188 240 300 344
#     4  11  22  36  59  87 118 154 194 240 294 352
#     4   9  19  37  59  83 113 155 204 245 286 341
#     4   9  18  33  56  82 113 155 193 239 295 346
#
# _framework density 20.794837000000001
#
# number of rings (size 3 to 8) (size 9 to 14) (size 15 to 20)
#    0.000    2.118    1.176    2.471    0.000    2.824 
#    0.000    1.765    0.000    0.000    0.000    0.000 
#    0.000    0.000    0.000    0.000    0.000    0.000 
#
# Total GULP energy -94664.834543 kJ/mol
# GULP energy per Si atom -5568.519679 kJ/mol
# Density = 2.074751 g / cm^3
# Si number density = 20.794837 Si / 1000 Ang^3
#
#
#
# Elastic Constant Matrix: (Units=GPa)
#
#
# Indices 1 2 3 4 5 6 
#
# 1 134.4268 2.0221 73.0836 0.0000 35.3211 0.0000
# 2 2.0221 99.2606 0.3176 0.0000 13.8623 0.0000
# 3 73.0836 0.3176 67.0242 0.0000 28.0084 0.0000
# 4 0.0000 0.0000 0.0000 33.2614 0.0000 13.1650
# 5 35.3211 13.8623 28.0084 0.0000 32.4370 0.0000
# 6 0.0000 0.0000 0.0000 13.1650 0.0000 22.7155
#
#
#
# Elastic Compliance Matrix: (Units=1/GPa)
#
#
# Indices 1 2 3 4 5 6 
#
# 1 0.018654 0.000308 -0.018459 0.000000 -0.004505 0.000000
# 2 0.000308 0.011096 0.002712 0.000000 -0.007419 0.000000
# 3 -0.018459 0.002712 0.042429 0.000000 -0.017695 0.000000
# 4 0.000000 0.000000 0.000000 0.039015 0.000000 -0.022611
# 5 -0.004505 -0.007419 -0.017695 0.000000 0.054185 0.000000
# 6 0.000000 0.000000 0.000000 -0.022611 0.000000 0.057127
#
#
# Mechanical properties :
#
#
# Convention : Reuss Voigt Hill
#
# Bulk Modulus (GPa) = 24.21276 50.17313 37.19294
# Shear Modulus (GPa) = 18.71609 32.70199 25.70904
#
# Velocity S-wave (km/s) = 3.00331 3.96991 3.51995
# Velocity P-wave (km/s) = 4.86780 6.72262 5.86895
#
# Compressibility (1/GPa) = 0.04130054
#
# Stress axis : x y z
#
# Youngs Moduli (GPa) = 53.60910 90.12565 23.56865
#
# Poissons Ratio (x) = -0.02778 0.43505
# Poissons Ratio (y) = -0.01652 -0.06391
# Poissons Ratio (z) = 0.98956 -0.24438
#
# Static dielectric constant tensor:
#      x y z
#    x 1.820620 0.000000 0.017050 
#    y 0.000000 1.753140 0.000000 
#    z 0.017050 0.000000 1.695600 
# 
# From -- ./inp_files/161835.got.cif
#   From: 2010.05.17/outbox.cif.g08.bks.cpg/sg12_81_cif.got.tgz:161835.got - 2010.06.03 13:09:07.
