data_PCOD9183828
_publ_section_title
;
Structure prediction by ZEFSAII (Michael W. Deem and Ramdas Pophale) SiO2 
 PCOD9183828
Probable space group: C 2/M
;
_chemical_formula_sum "Si O2"
_cell_formula_units_Z 56
_cell_length_a 31.013432
_cell_length_b 7.629281
_cell_length_c 11.846102
_cell_angle_alpha 90.000000
_cell_angle_beta 65.978664
_cell_angle_gamma 90.000000
_cell_volume 2560.159539
_symmetry_space_group_name_H-M "C 2/M"
_symmetry_group_IT_number 12
_symmetry_cell_setting 'monoclinic'
loop_
_space_group_symop_operation_xyz
x,y,z
-x,y,-z
-x,-y,-z
x,-y,z
1/2+x,1/2+y,z
1/2-x,1/2+y,-z
1/2-x,1/2-y,-z
1/2+x,1/2-y,z
loop_
_atom_site_type_symbol
_atom_site_label
_atom_site_fract_x
_atom_site_fract_y
_atom_site_fract_z
Si Si1 0.205002 0.210371 0.971731
Si Si2 0.487734 0.210055 0.637112
Si Si3 0.323052 0.793141 0.482708
Si Si4 0.053140 0.209533 0.955107
Si Si5 0.397618 0.710817 0.869985
Si Si6 0.228332 0.786749 0.695000
Si Si7 0.423126 0.788709 0.318548
O O1 0.211769 0.273826 0.835655
O O2 0.201717 0.000000 0.967199
O O3 0.250000 0.250000 0.000000
O O4 0.156066 0.275511 0.078463
O O5 0.500000 0.277598 0.500000
O O6 0.434785 0.246661 0.733090
O O7 0.527413 0.276729 0.682618
O O8 0.492461 0.000000 0.629689
O O9 0.281390 0.723904 0.607363
O O10 0.304370 0.770321 0.374421
O O11 0.376174 0.721674 0.431380
O O12 0.326073 0.000000 0.503268
O O13 0.079436 0.243761 0.810341
O O14 0.049683 0.000000 0.972813
O O15 0.079581 0.277640 0.037102
O O16 0.000000 0.280740 0.000000
O O17 0.395741 0.500000 0.877499
O O18 0.228250 0.000000 0.694226
O O19 0.423115 0.000000 0.326759
#
# Coordination Sequence:
#
# PCOD9183828 Si02
#       7
#     8   8   8   8   8   8   8
#     4  10  22  38  57  80 108 144 185 227 268 318
#     4  10  22  38  55  77 107 144 184 221 262 320
#     4   9  18  32  53  80 108 138 173 220 272 320
#     4  10  19  33  56  82 108 140 177 216 264 322
#     4  10  21  38  57  81 111 141 179 226 273 320
#     4   9  18  35  56  78 106 140 177 220 270 319
#     4  10  20  33  51  79 111 140 176 220 266 317
#
# _framework density 21.873638
#
# number of rings (size 3 to 8) (size 9 to 14) (size 15 to 20)
#    0.000    2.286    1.429    0.857    0.000    5.143 
#    0.000    2.857    0.000    0.000    0.000    0.000 
#    0.000    0.000    0.000    0.000    0.000    0.000 
#
# Total GULP energy -156361.728169 kJ/mol
# GULP energy per Si atom -5584.347435 kJ/mol
# Density = 2.182385 g / cm^3
# Si number density = 21.873638 Si / 1000 Ang^3
#
#
#
# Elastic Constant Matrix: (Units=GPa)
#
#
# Indices 1 2 3 4 5 6 
#
# 1 106.6988 -3.0385 61.0218 0.0000 -35.1659 0.0000
# 2 -3.0385 38.6050 -6.5925 0.0000 -0.8869 0.0000
# 3 61.0218 -6.5925 144.3619 0.0000 -23.9918 0.0000
# 4 0.0000 0.0000 0.0000 24.1930 0.0000 -0.7303
# 5 -35.1659 -0.8869 -23.9918 0.0000 39.1032 0.0000
# 6 0.0000 0.0000 0.0000 -0.7303 0.0000 16.2626
#
#
#
# Elastic Compliance Matrix: (Units=1/GPa)
#
#
# Indices 1 2 3 4 5 6 
#
# 1 0.015873 0.000692 -0.004792 0.000000 0.011351 0.000000
# 2 0.000692 0.026214 0.001233 0.000000 0.001973 0.000000
# 3 -0.004792 0.001233 0.009239 0.000000 0.001388 0.000000
# 4 0.000000 0.000000 0.000000 0.041390 0.000000 0.001859
# 5 0.011351 0.001973 0.001388 0.000000 0.036677 0.000000
# 6 0.000000 0.000000 0.000000 0.001859 0.000000 0.061574
#
#
# Mechanical properties :
#
#
# Convention : Reuss Voigt Hill
#
# Bulk Modulus (GPa) = 21.93380 43.60526 32.76953
# Shear Modulus (GPa) = 23.59604 31.79674 27.69639
#
# Velocity S-wave (km/s) = 3.28799 3.81682 3.56223
# Velocity P-wave (km/s) = 4.94608 6.27714 5.65094
#
# Compressibility (1/GPa) = 0.04559174
#
# Stress axis : x y z
#
# Youngs Moduli (GPa) = 62.99919 38.14807 108.23269
#
# Poissons Ratio (x) = -0.02639 0.51861
# Poissons Ratio (y) = -0.04359 -0.13340
# Poissons Ratio (z) = 0.30187 -0.04702
#
# Static dielectric constant tensor:
#      x y z
#    x 1.807030 0.000000 -0.036260 
#    y 0.000000 1.817860 0.000000 
#    z -0.036260 0.000000 1.790170 
# 
# From -- ./inp_files/181122.got.cif
#   From: 2010.05.17/outbox.cif.g08.bks.cpg/sg12_91_cif.got.tgz:181122.got - 2010.06.03 13:09:07.
