data_PCOD9183233
_publ_section_title
;
Structure prediction by ZEFSAII (Michael W. Deem and Ramdas Pophale) SiO2 
 PCOD9183233
Probable space group: C 2/M
;
_chemical_formula_sum "Si O2"
_cell_formula_units_Z 56
_cell_length_a 31.352965
_cell_length_b 8.221346
_cell_length_c 12.154240
_cell_angle_alpha 90.000000
_cell_angle_beta 116.783251
_cell_angle_gamma 90.000000
_cell_volume 2796.813069
_symmetry_space_group_name_H-M "C 2/M"
_symmetry_group_IT_number 12
_symmetry_cell_setting 'monoclinic'
loop_
_space_group_symop_operation_xyz
x,y,z
-x,y,-z
-x,-y,-z
x,-y,z
1/2+x,1/2+y,z
1/2-x,1/2+y,-z
1/2-x,1/2-y,-z
1/2+x,1/2-y,z
loop_
_atom_site_type_symbol
_atom_site_label
_atom_site_fract_x
_atom_site_fract_y
_atom_site_fract_z
Si Si1 0.850900 0.697082 0.071849
Si Si2 0.268270 0.198180 0.822338
Si Si3 0.201911 0.696220 0.382828
Si Si4 0.158380 0.806796 0.697201
Si Si5 0.432266 0.188588 0.995864
Si Si6 0.112200 0.307282 0.422721
Si Si7 0.469605 0.314036 0.815122
O O1 0.851472 0.500000 0.080193
O O2 0.859661 0.768443 0.201800
O O3 0.890864 0.744851 0.029301
O O4 0.799729 0.750232 0.962884
O O5 0.294217 0.248791 0.739421
O O6 0.213493 0.253622 0.756509
O O7 0.267576 0.000000 0.822874
O O8 0.200515 0.500000 0.381818
O O9 0.250000 0.750000 0.500000
O O10 0.155690 0.754377 0.395746
O O11 0.127611 0.727367 0.565086
O O12 0.158732 0.000000 0.678822
O O13 0.483295 0.205270 0.115833
O O14 0.422825 0.000000 0.957062
O O15 0.438238 0.282670 0.888493
O O16 0.107435 0.500000 0.400095
O O17 0.063355 0.226293 0.326450
O O18 0.485498 0.500000 0.832017
#
# Coordination Sequence:
#
# PCOD9183233 Si02
#       7
#     8   8   8   8   8   8   8
#     4  10  21  38  59  81 110 151 195 235 277 335
#     4   9  18  34  55  80 113 149 187 230 280 331
#     4  10  19  33  54  80 112 146 183 229 277 331
#     4  11  22  36  55  80 116 154 191 239 283 330
#     4  10  20  38  63  88 116 148 187 233 283 341
#     4  11  22  37  58  83 115 155 194 231 281 343
#     4  11  22  37  61  90 119 146 181 234 289 341
#
# _framework density 20.022790000000001
#
# number of rings (size 3 to 8) (size 9 to 14) (size 15 to 20)
#    0.000    1.714    1.429    4.714    0.000    4.000 
#    0.000    2.143    0.000    4.286    0.000    0.000 
#    0.000    0.000    0.000    0.000    0.000    0.000 
#
# Total GULP energy -156482.969611 kJ/mol
# GULP energy per Si atom -5588.677486 kJ/mol
# Density = 1.997722 g / cm^3
# Si number density = 20.022790 Si / 1000 Ang^3
#
#
#
# Elastic Constant Matrix: (Units=GPa)
#
#
# Indices 1 2 3 4 5 6 
#
# 1 40.0745 -2.9673 23.8711 0.0000 -1.5873 0.0000
# 2 -2.9673 21.9220 -7.7453 0.0000 -1.4571 0.0000
# 3 23.8711 -7.7453 105.8151 0.0000 7.3511 0.0000
# 4 0.0000 0.0000 0.0000 20.8624 0.0000 -3.4997
# 5 -1.5873 -1.4571 7.3511 0.0000 22.7084 0.0000
# 6 0.0000 0.0000 0.0000 -3.4997 0.0000 14.9623
#
#
#
# Elastic Compliance Matrix: (Units=1/GPa)
#
#
# Indices 1 2 3 4 5 6 
#
# 1 0.029301 0.001862 -0.006777 0.000000 0.004361 0.000000
# 2 0.001862 0.047029 0.002868 0.000000 0.002219 0.000000
# 3 -0.006777 0.002868 0.011467 0.000000 -0.004002 0.000000
# 4 0.000000 0.000000 0.000000 0.049891 0.000000 0.011670
# 5 0.004361 0.002219 -0.004002 0.000000 0.045779 0.000000
# 6 0.000000 0.000000 0.000000 0.011670 0.000000 0.069564
#
#
# Mechanical properties :
#
#
# Convention : Reuss Voigt Hill
#
# Bulk Modulus (GPa) = 11.94695 21.56986 16.75841
# Shear Modulus (GPa) = 17.54223 22.01681 19.77952
#
# Velocity S-wave (km/s) = 2.96313 3.31960 3.14642
# Velocity P-wave (km/s) = 4.20553 5.04867 4.64626
#
# Compressibility (1/GPa) = 0.08370336
#
# Stress axis : x y z
#
# Youngs Moduli (GPa) = 34.12870 21.26338 87.20533
#
# Poissons Ratio (x) = -0.03958 0.59097
# Poissons Ratio (y) = -0.06353 -0.25012
# Poissons Ratio (z) = 0.23128 -0.06099
#
# Static dielectric constant tensor:
#      x y z
#    x 1.703160 0.000000 0.005770 
#    y 0.000000 1.699190 0.000000 
#    z 0.005770 0.000000 1.687100 
# 
# From -- ./inp_files/187780.got.cif
#   From: 2010.05.17/outbox.cif.g08.bks.cpg/sg12_94_cif.got.tgz:187780.got - 2010.06.03 13:09:07.
