data_PCOD9183382
_publ_section_title
;
Structure prediction by ZEFSAII (Michael W. Deem and Ramdas Pophale) SiO2 
 PCOD9183382
Probable space group: C 2/M
;
_chemical_formula_sum "Si O2"
_cell_formula_units_Z 60
_cell_length_a 10.634337
_cell_length_b 14.892601
_cell_length_c 16.530112
_cell_angle_alpha 90.000000
_cell_angle_beta 59.393034
_cell_angle_gamma 90.000000
_cell_volume 2253.193796
_symmetry_space_group_name_H-M "C 2/M"
_symmetry_group_IT_number 12
_symmetry_cell_setting 'monoclinic'
loop_
_space_group_symop_operation_xyz
x,y,z
-x,y,-z
-x,-y,-z
x,-y,z
1/2+x,1/2+y,z
1/2-x,1/2+y,-z
1/2-x,1/2-y,-z
1/2+x,1/2-y,z
loop_
_atom_site_type_symbol
_atom_site_label
_atom_site_fract_x
_atom_site_fract_y
_atom_site_fract_z
Si Si1 0.975045 0.000000 0.726216
Si Si2 0.564367 0.348641 0.569447
Si Si3 0.637758 0.152737 0.608479
Si Si4 0.886276 0.857484 0.204827
Si Si5 0.886315 0.400948 0.604127
Si Si6 0.229158 0.363864 0.094768
Si Si7 0.897766 0.648325 0.204956
Si Si8 0.679653 0.845194 0.934952
O O1 0.991292 0.078354 0.649699
O O2 1.000000 0.078702 0.788806
O O3 0.500000 0.340843 0.500000
O O4 0.575441 0.252453 0.610572
O O5 0.734538 0.370664 0.495336
O O6 0.498126 0.092105 0.641211
O O7 0.688095 0.142469 0.683584
O O8 0.751531 0.852186 0.313590
O O9 0.828085 0.894647 0.137558
O O10 0.928127 0.754151 0.178649
O O11 0.835921 0.500000 0.595555
O O12 0.000000 0.364048 0.500000
O O13 0.256222 0.255620 0.089034
O O14 0.060068 0.389075 0.162998
O O15 0.247741 0.387792 0.993682
O O16 0.808880 0.610356 0.157642
O O17 0.500000 0.841505 0.000000
#
# Coordination Sequence:
#
# PCOD9183382 Si02
#       8
#     4   8   8   8   8   8   8   8
#     4  12  23  42  57  84 116 168 214 253 309 368
#     4  11  26  41  59  79 122 163 208 256 310 359
#     4  11  23  38  59  89 114 155 210 253 295 362
#     4  11  21  35  57  83 122 156 204 250 305 356
#     4  11  23  36  57  82 118 160 202 253 302 350
#     4   9  17  33  54  87 119 151 192 244 302 354
#     4  10  19  33  54  89 122 150 198 253 298 360
#     4   8  16  30  55  85 119 148 188 247 297 355
#
# _framework density 26.628867
#
# number of rings (size 3 to 8) (size 9 to 14) (size 15 to 20)
#    0.000    1.733    3.333    1.400    6.533    0.000 
#    0.000    0.000    0.000    0.000    1.733   49.000 
#    0.000    0.000    0.000    0.000    0.000    0.000 
#
# Total GULP energy -167207.326124 kJ/mol
# GULP energy per Si atom -5573.577537 kJ/mol
# Density = 2.656826 g / cm^3
# Si number density = 26.628867 Si / 1000 Ang^3
#
#
#
# Elastic Constant Matrix: (Units=GPa)
#
#
# Indices 1 2 3 4 5 6 
#
# 1 125.5314 19.5495 36.7787 0.0000 28.3247 0.0000
# 2 19.5495 83.4984 26.3407 0.0000 14.8259 0.0000
# 3 36.7787 26.3407 173.3878 0.0000 49.3594 0.0000
# 4 0.0000 0.0000 0.0000 1.1853 0.0000 10.1893
# 5 28.3247 14.8259 49.3594 0.0000 64.0888 0.0000
# 6 0.0000 0.0000 0.0000 10.1893 0.0000 43.9763
#
#
#
# Elastic Compliance Matrix: (Units=1/GPa)
#
#
# Indices 1 2 3 4 5 6 
#
# 1 0.009114 -0.001319 -0.000862 0.000000 -0.003059 0.000000
# 2 -0.001319 0.012942 -0.001281 0.000000 -0.001425 0.000000
# 3 -0.000862 -0.001281 0.007624 0.000000 -0.005194 0.000000
# 4 0.000000 0.000000 0.000000 -0.850712 0.000000 0.197109
# 5 -0.003059 -0.001425 -0.005194 0.000000 0.021285 0.000000
# 6 0.000000 0.000000 0.000000 0.197109 0.000000 -0.022930
#
#
# Mechanical properties :
#
#
# Convention : Reuss Voigt Hill
#
# Bulk Modulus (GPa) = 43.94361 60.86170 52.40266
# Shear Modulus (GPa) = -6.18684 41.83335 17.82326
#
# Velocity S-wave (km/s) = -1.52591 3.96786 2.58993
# Velocity P-wave (km/s) = 3.66518 6.62548 5.35400
#
# Compressibility (1/GPa) = 0.02275644
#
# Stress axis : x y z
#
# Youngs Moduli (GPa) = 109.71698 77.26744 131.17331
#
# Poissons Ratio (x) = 0.10190 0.11309
# Poissons Ratio (y) = 0.14470 0.16801
# Poissons Ratio (z) = 0.09459 0.09897
#
# Static dielectric constant tensor:
#      x y z
#    x 2.169970 0.000000 0.040580 
#    y 0.000000 1.922670 0.000000 
#    z 0.040580 0.000000 2.157200 
# 
# From -- ./inp_files/206639.got.cif
#   From: 2010.05.17/outbox.cif.g08.bks.cpg/sg12_104_cif.got.tgz:206639.got - 2010.06.03 13:09:07.
