data_PCOD9183497
_publ_section_title
;
Structure prediction by ZEFSAII (Michael W. Deem and Ramdas Pophale) SiO2 
 PCOD9183497
Probable space group: C 2/M
;
_chemical_formula_sum "Si O2"
_cell_formula_units_Z 56
_cell_length_a 12.506368
_cell_length_b 21.081201
_cell_length_c 12.311597
_cell_angle_alpha 90.000000
_cell_angle_beta 113.884453
_cell_angle_gamma 90.000000
_cell_volume 2967.973329
_symmetry_space_group_name_H-M "C 2/M"
_symmetry_group_IT_number 12
_symmetry_cell_setting 'monoclinic'
loop_
_space_group_symop_operation_xyz
x,y,z
-x,y,-z
-x,-y,-z
x,-y,z
1/2+x,1/2+y,z
1/2-x,1/2+y,-z
1/2-x,1/2-y,-z
1/2+x,1/2-y,z
loop_
_atom_site_type_symbol
_atom_site_label
_atom_site_fract_x
_atom_site_fract_y
_atom_site_fract_z
Si Si1 0.905367 0.428077 0.202436
Si Si2 0.121947 0.674408 0.984373
Si Si3 0.113894 0.189176 0.351504
Si Si4 0.715722 0.926683 0.619632
Si Si5 0.365484 0.712991 0.180524
Si Si6 0.174694 0.571155 0.350736
Si Si7 0.711103 0.702022 0.627616
O O1 0.869553 0.500000 0.163818
O O2 0.856264 0.381055 0.093134
O O3 0.867101 0.415362 0.310907
O O4 0.045063 0.423650 0.251122
O O5 0.112908 0.737159 0.906056
O O6 0.240243 0.681103 0.103458
O O7 0.000000 0.666435 0.000000
O O8 0.190939 0.129606 0.345288
O O9 0.171772 0.256353 0.341070
O O10 0.128958 0.196451 0.487991
O O11 0.987178 0.176946 0.248544
O O12 0.661131 0.923094 0.476279
O O13 0.759342 0.000000 0.647634
O O14 0.349028 0.737535 0.296851
O O15 0.221022 0.500000 0.347849
O O16 0.252258 0.628837 0.339261
#
# Coordination Sequence:
#
# PCOD9183497 Si02
#       7
#     8   8   8   8   8   8   8
#     4  10  19  33  55  80 107 141 182 225 267 314
#     4  11  24  39  55  76 105 143 184 226 269 315
#     4  10  20  34  57  84 110 138 172 221 272 320
#     4   9  18  33  53  81 114 145 176 213 266 327
#     4  11  22  38  57  76 105 141 181 220 267 325
#     4   9  17  31  54  83 114 143 172 215 271 327
#     4  10  20  35  56  84 111 136 174 223 272 323
#
# _framework density 18.868092999999998
#
# number of rings (size 3 to 8) (size 9 to 14) (size 15 to 20)
#    0.000    2.000    0.000    4.286    0.000    3.143 
#    0.000    7.857    0.000    5.143    0.000    0.000 
#    0.000    0.000    0.000    0.000    0.000    0.000 
#
# Total GULP energy -155874.725120 kJ/mol
# GULP energy per Si atom -5566.954469 kJ/mol
# Density = 1.882515 g / cm^3
# Si number density = 18.868093 Si / 1000 Ang^3
#
#
#
# Elastic Constant Matrix: (Units=GPa)
#
#
# Indices 1 2 3 4 5 6 
#
# 1 46.9518 17.6757 20.4487 0.0000 12.8391 0.0000
# 2 17.6757 63.0368 29.9545 0.0000 9.8314 0.0000
# 3 20.4487 29.9545 55.9239 0.0000 8.1248 0.0000
# 4 0.0000 0.0000 0.0000 13.7432 0.0000 1.9977
# 5 12.8391 9.8314 8.1248 0.0000 35.5964 0.0000
# 6 0.0000 0.0000 0.0000 1.9977 0.0000 9.0297
#
#
#
# Elastic Compliance Matrix: (Units=1/GPa)
#
#
# Indices 1 2 3 4 5 6 
#
# 1 0.027724 -0.003097 -0.007395 0.000000 -0.007456 0.000000
# 2 -0.003097 0.022029 -0.010286 0.000000 -0.002619 0.000000
# 3 -0.007395 -0.010286 0.026162 0.000000 -0.000463 0.000000
# 4 0.000000 0.000000 0.000000 0.075181 0.000000 -0.016632
# 5 -0.007456 -0.002619 -0.000463 0.000000 0.031611 0.000000
# 6 0.000000 0.000000 0.000000 -0.016632 0.000000 0.114425
#
#
# Mechanical properties :
#
#
# Convention : Reuss Voigt Hill
#
# Bulk Modulus (GPa) = 29.10502 33.56336 31.33419
# Shear Modulus (GPa) = 14.27994 18.19611 16.23803
#
# Velocity S-wave (km/s) = 2.75404 3.10882 2.93679
# Velocity P-wave (km/s) = 5.05687 5.54197 5.30497
#
# Compressibility (1/GPa) = 0.03435834
#
# Stress axis : x y z
#
# Youngs Moduli (GPa) = 36.06964 45.39571 38.22271
#
# Poissons Ratio (x) = 0.14058 0.28267
# Poissons Ratio (y) = 0.11170 0.39317
# Poissons Ratio (z) = 0.26675 0.46695
#
# Static dielectric constant tensor:
#      x y z
#    x 1.681610 0.000000 -0.011210 
#    y 0.000000 1.672330 0.000000 
#    z -0.011210 0.000000 1.666990 
# 
# From -- ./inp_files/133985.got.cif
#   From: 2010.05.17/outbox.cif.g08.bks.cpg/sg12_67_cif.got.tgz:133985.got - 2010.06.03 13:09:07.
