data_PCOD9183227
_publ_section_title
;
Structure prediction by ZEFSAII (Michael W. Deem and Ramdas Pophale) SiO2 
 PCOD9183227
Probable space group: C 2/M
;
_chemical_formula_sum "Si O2"
_cell_formula_units_Z 64
_cell_length_a 28.670060
_cell_length_b 7.479884
_cell_length_c 25.143510
_cell_angle_alpha 90.000000
_cell_angle_beta 30.740454
_cell_angle_gamma 90.000000
_cell_volume 2756.116964
_symmetry_space_group_name_H-M "C 2/M"
_symmetry_group_IT_number 12
_symmetry_cell_setting 'monoclinic'
loop_
_space_group_symop_operation_xyz
x,y,z
-x,y,-z
-x,-y,-z
x,-y,z
1/2+x,1/2+y,z
1/2-x,1/2+y,-z
1/2-x,1/2-y,-z
1/2+x,1/2-y,z
loop_
_atom_site_type_symbol
_atom_site_label
_atom_site_fract_x
_atom_site_fract_y
_atom_site_fract_z
Si Si1 0.011074 0.204858 0.830395
Si Si2 0.355864 0.284897 0.385974
Si Si3 0.238430 0.295575 0.248579
Si Si4 0.069153 0.216402 0.980226
Si Si5 0.675205 0.211774 0.028216
Si Si6 0.178315 0.217358 0.196016
Si Si7 0.073164 0.283337 0.472474
Si Si8 0.488157 0.710542 0.347827
O O1 0.925168 0.206052 0.873610
O O2 0.097615 0.282959 0.714291
O O3 0.034624 0.000000 0.820448
O O4 0.972275 0.285244 0.923373
O O5 0.364903 0.500000 0.375407
O O6 0.250000 0.250000 0.500000
O O7 0.417592 0.215132 0.374290
O O8 0.259526 0.500000 0.243386
O O9 0.332683 0.212692 0.135650
O O10 0.174943 0.292311 0.258361
O O11 0.174264 0.217649 0.357073
O O12 0.079421 0.000000 0.976591
O O13 0.000000 0.249070 0.000000
O O14 0.662260 0.000000 0.039016
O O15 0.750000 0.250000 0.000000
O O16 0.727681 0.273456 0.923531
O O17 0.091779 0.280622 0.246708
O O18 0.176698 0.000000 0.199994
O O19 0.074614 0.500000 0.468452
O O20 0.046568 0.231838 0.557925
O O21 0.000000 0.220974 0.500000
O O22 0.495820 0.500000 0.329409
#
# Coordination Sequence:
#
# PCOD9183227 Si02
#       8
#     8   8   8   8   8   8   8   8
#     4  10  20  38  63  86 114 151 193 241 291 344
#     4  10  23  42  62  85 114 152 198 244 291 343
#     4  10  19  33  54  80 111 146 186 233 280 334
#     4   9  18  33  56  85 113 146 188 232 283 340
#     4  11  22  35  55  85 119 154 193 237 289 349
#     4  10  20  34  54  80 113 148 184 229 283 343
#     4  10  20  33  52  82 116 147 187 238 286 336
#     4  10  21  37  56  80 113 153 195 236 283 347
#
# _framework density 23.221074000000002
#
# number of rings (size 3 to 8) (size 9 to 14) (size 15 to 20)
#    0.000    2.000    2.500    1.125    0.000    5.250 
#    0.000    3.750    0.000    1.500    0.000    0.000 
#    0.000    0.000    0.000    0.000    0.000    0.000 
#
# Total GULP energy -178723.418560 kJ/mol
# GULP energy per Si atom -5585.106830 kJ/mol
# Density = 2.316822 g / cm^3
# Si number density = 23.221074 Si / 1000 Ang^3
#
#
#
# Elastic Constant Matrix: (Units=GPa)
#
#
# Indices 1 2 3 4 5 6 
#
# 1 73.4080 -2.7522 42.8117 -0.0112 -10.0890 0.0017
# 2 -2.7522 74.4419 4.2066 -0.0233 -2.0866 0.0426
# 3 42.8117 4.2066 189.1561 -0.0397 -16.5821 0.0066
# 4 -0.0112 -0.0233 -0.0397 -31.5115 -0.0059 -11.8655
# 5 -10.0890 -2.0866 -16.5821 -0.0059 31.4792 -0.0277
# 6 0.0017 0.0426 0.0066 -11.8655 -0.0277 11.7827
#
#
#
# Elastic Compliance Matrix: (Units=1/GPa)
#
#
# Indices 1 2 3 4 5 6 
#
# 1 0.016088 0.000881 -0.003359 -0.000003 0.003445 0.000001
# 2 0.000881 0.013516 -0.000416 0.000005 0.000959 -0.000041
# 3 -0.003359 -0.000416 0.006248 -0.000006 0.002187 -0.000002
# 4 -0.000003 0.000005 -0.000006 -0.023009 -0.000028 -0.023171
# 5 0.003445 0.000959 0.002187 -0.000028 0.034087 0.000046
# 6 0.000001 -0.000041 -0.000002 -0.023171 0.000046 0.061536
#
#
# Mechanical properties :
#
#
# Convention : Reuss Voigt Hill
#
# Bulk Modulus (GPa) = 33.26133 47.28199 40.27166
# Shear Modulus (GPa) = 40.23353 21.86607 31.04980
#
# Velocity S-wave (km/s) = 4.16700 3.07196 3.66066
# Velocity P-wave (km/s) = 6.12428 5.74356 5.93697
#
# Compressibility (1/GPa) = 0.03006495
#
# Stress axis : x y z
#
# Youngs Moduli (GPa) = 62.15864 73.98477 160.05640
#
# Poissons Ratio (x) = -0.06519 0.53759
# Poissons Ratio (y) = -0.05477 0.06657
# Poissons Ratio (z) = 0.20877 0.03077
#
# Static dielectric constant tensor:
#      x y z
#    x 1.869180 -0.000070 0.004930 
#    y -0.000070 2.060990 0.000050 
#    z 0.004930 0.000050 1.900120 
# 
# From -- ./inp_files/353300.got.cif
#   From: 2010.05.17/outbox.cif.g08.bks.cpg/sg12_177_cif.got.tgz:353300.got - 2010.06.03 13:09:07.
