data_PCOD9183191
_publ_section_title
;
Structure prediction by ZEFSAII (Michael W. Deem and Ramdas Pophale) SiO2 
 PCOD9183191
Probable space group: C 2/M
;
_chemical_formula_sum "Si O2"
_cell_formula_units_Z 48
_cell_length_a 19.654941
_cell_length_b 8.623262
_cell_length_c 20.305957
_cell_angle_alpha 90.000000
_cell_angle_beta 129.775602
_cell_angle_gamma 90.000000
_cell_volume 2645.101379
_symmetry_space_group_name_H-M "C 2/M"
_symmetry_group_IT_number 12
_symmetry_cell_setting 'monoclinic'
loop_
_space_group_symop_operation_xyz
x,y,z
-x,y,-z
-x,-y,-z
x,-y,z
1/2+x,1/2+y,z
1/2-x,1/2+y,-z
1/2-x,1/2-y,-z
1/2+x,1/2-y,z
loop_
_atom_site_type_symbol
_atom_site_label
_atom_site_fract_x
_atom_site_fract_y
_atom_site_fract_z
Si Si1 0.819090 0.183286 0.234891
Si Si2 0.195321 0.312964 0.528245
Si Si3 0.992942 0.685608 0.637639
Si Si4 0.702517 0.313255 0.276158
Si Si5 0.327014 0.184620 0.093574
Si Si6 0.984105 0.814356 0.779096
O O1 0.742592 0.233240 0.237182
O O2 0.810339 0.266649 0.158988
O O3 0.914114 0.236416 0.322817
O O4 0.820016 0.000000 0.224731
O O5 0.198806 0.500000 0.527522
O O6 0.250000 0.250000 0.500000
O O7 0.092588 0.267121 0.457534
O O8 0.240920 0.265039 0.624523
O O9 0.003248 0.500000 0.640574
O O10 0.973640 0.734962 0.701161
O O11 0.710633 0.500000 0.274225
O O12 0.600428 0.276944 0.228619
O O13 0.422457 0.257251 0.134991
O O14 0.331528 0.000000 0.091565
O O15 0.250000 0.250000 0.000000
O O16 0.986383 0.000000 0.770619
#
# Coordination Sequence:
#
# PCOD9183191 Si02
#       6
#     8   8   8   8   8   8
#     4  11  23  38  57  82 114 149 188 233 282 332
#     4  10  20  33  53  80 111 150 195 239 279 326
#     4  10  19  33  54  79 110 150 194 236 280 330
#     4  10  21  37  55  80 116 154 188 232 285 331
#     4  11  22  40  65  89 114 142 180 225 274 337
#     4  10  19  34  58  84 113 148 187 228 277 334
#
# _framework density 18.146751999999999
#
# number of rings (size 3 to 8) (size 9 to 14) (size 15 to 20)
#    0.000    1.667    1.667    6.000    0.000    3.333 
#    0.000    4.167    0.000    5.000    0.000    0.000 
#    0.000    0.000    0.000    0.000    0.000    0.000 
#
# Total GULP energy -134069.023876 kJ/mol
# GULP energy per Si atom -5586.209328 kJ/mol
# Density = 1.810545 g / cm^3
# Si number density = 18.146752 Si / 1000 Ang^3
#
#
#
# Elastic Constant Matrix: (Units=GPa)
#
#
# Indices 1 2 3 4 5 6 
#
# 1 100.3094 13.2781 34.8222 0.0000 15.7062 0.0000
# 2 13.2781 38.6693 10.5934 0.0000 5.9539 0.0000
# 3 34.8222 10.5934 110.9377 0.0000 23.7485 0.0000
# 4 0.0000 0.0000 0.0000 23.8685 0.0000 2.6246
# 5 15.7062 5.9539 23.7485 0.0000 21.1656 0.0000
# 6 0.0000 0.0000 0.0000 2.6246 0.0000 33.4143
#
#
#
# Elastic Compliance Matrix: (Units=1/GPa)
#
#
# Indices 1 2 3 4 5 6 
#
# 1 0.011993 -0.002626 -0.002325 0.000000 -0.005552 0.000000
# 2 -0.002626 0.027740 -0.000752 0.000000 -0.005011 0.000000
# 3 -0.002325 -0.000752 0.012373 0.000000 -0.011946 0.000000
# 4 0.000000 0.000000 0.000000 0.042261 0.000000 -0.003320
# 5 -0.005552 -0.005011 -0.011946 0.000000 0.066180 0.000000
# 6 0.000000 0.000000 0.000000 -0.003320 0.000000 0.030188
#
#
# Mechanical properties :
#
#
# Convention : Reuss Voigt Hill
#
# Bulk Modulus (GPa) = 24.57060 40.81151 32.69106
# Shear Modulus (GPa) = 23.17948 28.43787 25.80867
#
# Velocity S-wave (km/s) = 3.57786 3.96296 3.77532
# Velocity P-wave (km/s) = 5.53511 6.59383 6.08753
#
# Compressibility (1/GPa) = 0.04069904
#
# Stress axis : x y z
#
# Youngs Moduli (GPa) = 83.37957 36.04951 80.82101
#
# Poissons Ratio (x) = 0.09468 0.18793
# Poissons Ratio (y) = 0.21899 0.06076
# Poissons Ratio (z) = 0.19388 0.02710
#
# Static dielectric constant tensor:
#      x y z
#    x 1.606050 0.000000 0.019490 
#    y 0.000000 1.613040 0.000000 
#    z 0.019490 0.000000 1.617840 
# 
# From -- ./inp_files/313597.got.cif
#   From: 2010.05.17/outbox.cif.g08.bks.cpg/sg12_157_cif.got.tgz:313597.got - 2010.06.03 13:09:07.
