data_PCOD9183507
_publ_section_title
;
Structure prediction by ZEFSAII (Michael W. Deem and Ramdas Pophale) SiO2 
 PCOD9183507
Probable space group: C 2/M
;
_chemical_formula_sum "Si O2"
_cell_formula_units_Z 56
_cell_length_a 18.312566
_cell_length_b 7.719024
_cell_length_c 19.109361
_cell_angle_alpha 90.000000
_cell_angle_beta 104.390905
_cell_angle_gamma 90.000000
_cell_volume 2616.449569
_symmetry_space_group_name_H-M "C 2/M"
_symmetry_group_IT_number 12
_symmetry_cell_setting 'monoclinic'
loop_
_space_group_symop_operation_xyz
x,y,z
-x,y,-z
-x,-y,-z
x,-y,z
1/2+x,1/2+y,z
1/2-x,1/2+y,-z
1/2-x,1/2-y,-z
1/2+x,1/2-y,z
loop_
_atom_site_type_symbol
_atom_site_label
_atom_site_fract_x
_atom_site_fract_y
_atom_site_fract_z
Si Si1 0.967591 0.200713 0.563791
Si Si2 0.877599 0.287989 0.854361
Si Si3 0.953408 0.287908 0.144948
Si Si4 0.835382 0.291795 0.999980
Si Si5 0.082617 0.700226 0.707350
Si Si6 0.693242 0.707339 0.423767
Si Si7 0.249464 0.702191 0.284273
O O1 0.889649 0.275083 0.574875
O O2 0.000000 0.280599 0.500000
O O3 0.031454 0.207147 0.637844
O O4 0.949357 0.000000 0.542791
O O5 0.877688 0.500000 0.853825
O O6 0.856001 0.229457 0.927157
O O7 0.815252 0.230836 0.783390
O O8 0.961771 0.234037 0.853514
O O9 0.951688 0.500000 0.144041
O O10 0.930577 0.231949 0.217373
O O11 0.893815 0.227942 0.072570
O O12 0.842490 0.500000 0.999923
O O13 0.750000 0.250000 0.000000
O O14 0.058243 0.500000 0.700592
O O15 0.170193 0.710312 0.708609
O O16 0.690018 0.500000 0.413930
O O17 0.750000 0.750000 0.500000
O O18 0.722030 0.780807 0.357250
O O19 0.261119 0.500000 0.270961
#
# Coordination Sequence:
#
# PCOD9183507 Si02
#       7
#     8   8   8   8   8   8   8
#     4  10  22  40  60  83 112 145 181 225 278 332
#     4   9  18  33  55  81 107 144 191 231 274 331
#     4   9  18  33  54  81 110 141 183 234 280 328
#     4  10  19  33  55  80 109 144 183 229 278 331
#     4  11  22  36  57  84 113 146 187 233 282 337
#     4  11  23  39  61  88 117 149 186 228 277 334
#     4  11  22  37  57  81 114 151 189 234 279 330
#
# _framework density 21.403047999999998
#
# number of rings (size 3 to 8) (size 9 to 14) (size 15 to 20)
#    0.000    1.857    0.000    4.286    0.000    5.429 
#    0.000    1.429    0.000    5.143    0.000    0.000 
#    0.000    0.000    0.000    0.000    0.000    0.000 
#
# Total GULP energy -156548.834526 kJ/mol
# GULP energy per Si atom -5591.029804 kJ/mol
# Density = 2.135433 g / cm^3
# Si number density = 21.403048 Si / 1000 Ang^3
#
#
#
# Elastic Constant Matrix: (Units=GPa)
#
#
# Indices 1 2 3 4 5 6 
#
# 1 194.9932 -15.2702 100.5706 0.0000 -5.2909 0.0000
# 2 -15.2702 36.2593 -15.3328 0.0000 -1.8241 0.0000
# 3 100.5706 -15.3328 188.8436 0.0000 -6.9131 0.0000
# 4 0.0000 0.0000 0.0000 -3.2252 0.0000 2.7740
# 5 -5.2909 -1.8241 -6.9131 0.0000 46.8391 0.0000
# 6 0.0000 0.0000 0.0000 2.7740 0.0000 13.6833
#
#
#
# Elastic Compliance Matrix: (Units=1/GPa)
#
#
# Indices 1 2 3 4 5 6 
#
# 1 0.007148 0.001472 -0.003675 0.000000 0.000322 0.000000
# 2 0.001472 0.028963 0.001624 0.000000 0.001534 0.000000
# 3 -0.003675 0.001624 0.007412 0.000000 0.000742 0.000000
# 4 0.000000 0.000000 0.000000 -0.264021 0.000000 0.053525
# 5 0.000322 0.001534 0.000742 0.000000 0.021555 0.000000
# 6 0.000000 0.000000 0.000000 0.053525 0.000000 0.062231
#
#
# Mechanical properties :
#
#
# Convention : Reuss Voigt Hill
#
# Bulk Modulus (GPa) = 23.60506 62.22570 42.91538
# Shear Modulus (GPa) = -41.17522 34.80135 -3.18693
#
# Velocity S-wave (km/s) = -4.39087 4.03674 -1.22157
# Velocity P-wave (km/s) = 3.82800 7.13186 4.25499
#
# Compressibility (1/GPa) = 0.04236380
#
# Stress axis : x y z
#
# Youngs Moduli (GPa) = 139.89747 34.52694 134.92046
#
# Poissons Ratio (x) = -0.05083 0.49589
# Poissons Ratio (y) = -0.20597 -0.21906
# Poissons Ratio (z) = 0.51419 -0.05606
#
# Static dielectric constant tensor:
#      x y z
#    x 1.732270 0.000000 -0.013040 
#    y 0.000000 1.826530 0.000000 
#    z -0.013040 0.000000 1.734730 
# 
# From -- ./inp_files/275573.got.cif
#   From: 2010.05.17/outbox.cif.g08.bks.cpg/sg12_138_cif.got.tgz:275573.got - 2010.06.03 13:09:07.
