data_PCOD9183120
_publ_section_title
;
Structure prediction by ZEFSAII (Michael W. Deem and Ramdas Pophale) SiO2 
 PCOD9183120
Probable space group: C 2/M
;
_chemical_formula_sum "Si O2"
_cell_formula_units_Z 48
_cell_length_a 20.242698
_cell_length_b 7.444590
_cell_length_c 25.808915
_cell_angle_alpha 90.000000
_cell_angle_beta 30.004111
_cell_angle_gamma 90.000000
_cell_volume 1944.925184
_symmetry_space_group_name_H-M "C 2/M"
_symmetry_group_IT_number 12
_symmetry_cell_setting 'monoclinic'
loop_
_space_group_symop_operation_xyz
x,y,z
-x,y,-z
-x,-y,-z
x,-y,z
1/2+x,1/2+y,z
1/2-x,1/2+y,-z
1/2-x,1/2-y,-z
1/2+x,1/2-y,z
loop_
_atom_site_type_symbol
_atom_site_label
_atom_site_fract_x
_atom_site_fract_y
_atom_site_fract_z
Si Si1 0.927866 0.703301 0.664619
Si Si2 0.681562 0.709128 0.441597
Si Si3 0.443098 0.719156 0.983358
Si Si4 0.935918 0.719778 0.323619
Si Si5 0.303663 0.717555 0.247572
Si Si6 0.808660 0.714062 0.903862
O O1 0.891332 0.500000 0.704983
O O2 0.001561 0.780455 0.664615
O O3 0.796737 0.783379 0.728947
O O4 0.040360 0.699916 0.544088
O O5 0.657048 0.500000 0.468471
O O6 0.748677 0.723995 0.340075
O O7 0.789876 0.782922 0.408519
O O8 0.439927 0.500000 0.986785
O O9 0.548579 0.772497 0.867666
O O10 0.500000 0.777366 0.000000
O O11 0.297401 0.780889 0.066464
O O12 0.926922 0.500000 0.330005
O O13 0.043257 0.777905 0.207716
O O14 0.299611 0.500000 0.250006
O O15 0.814653 0.500000 0.893902
O O16 0.750000 0.750000 0.000000
#
# Coordination Sequence:
#
# PCOD9183120 Si02
#       6
#     8   8   8   8   8   8
#     4  10  20  36  56  75  99 133 174 215 252 295
#     4  11  22  35  52  75 105 137 169 208 254 304
#     4   9  17  31  54  81 103 128 169 215 251 290
#     4   9  19  35  54  76 102 135 171 208 253 300
#     4  10  20  34  54  79 104 132 168 210 254 299
#     4  10  19  33  54  78 105 135 167 205 251 303
#
# _framework density 24.679614000000001
#
# number of rings (size 3 to 8) (size 9 to 14) (size 15 to 20)
#    0.000    2.167    0.000    3.500    0.000    6.667 
#    0.000    2.500    0.000    4.000    0.000    0.000 
#    0.000    0.000    0.000    0.000    0.000    0.000 
#
# Total GULP energy -134243.290409 kJ/mol
# GULP energy per Si atom -5593.470434 kJ/mol
# Density = 2.462344 g / cm^3
# Si number density = 24.679614 Si / 1000 Ang^3
#
#
#
# Elastic Constant Matrix: (Units=GPa)
#
#
# Indices 1 2 3 4 5 6 
#
# 1 69.2650 -3.4074 -19.7359 0.0000 -7.1059 0.0000
# 2 -3.4074 82.8508 -3.6126 0.0006 -5.8519 -0.0024
# 3 -19.7359 -3.6126 74.7637 0.0001 -6.9188 0.0003
# 4 0.0000 0.0006 0.0001 11.4818 -0.0001 8.6638
# 5 -7.1059 -5.8519 -6.9188 -0.0001 50.2307 0.0002
# 6 0.0000 -0.0024 0.0003 8.6638 0.0002 8.5035
#
#
#
# Elastic Compliance Matrix: (Units=1/GPa)
#
#
# Indices 1 2 3 4 5 6 
#
# 1 0.016108 0.001077 0.004585 -0.000001 0.003036 0.000001
# 2 0.001077 0.012281 0.001037 -0.000014 0.001726 0.000017
# 3 0.004585 0.001037 0.014897 0.000000 0.002821 -0.000001
# 4 -0.000001 -0.000014 0.000000 0.376692 0.000000 -0.383791
# 5 0.003036 0.001726 0.002821 0.000000 0.020927 0.000000
# 6 0.000001 0.000017 -0.000001 -0.383791 0.000000 0.508622
#
#
# Mechanical properties :
#
#
# Convention : Reuss Voigt Hill
#
# Bulk Modulus (GPa) = 17.64124 19.26310 18.45217
# Shear Modulus (GPa) = 5.23547 30.95223 18.09385
#
# Velocity S-wave (km/s) = 1.45807 3.54526 2.71061
# Velocity P-wave (km/s) = 3.16200 4.95789 4.15806
#
# Compressibility (1/GPa) = 0.05668535
#
# Stress axis : x y z
#
# Youngs Moduli (GPa) = 62.08028 81.42448 67.12729
#
# Poissons Ratio (x) = -0.08768 -0.30779
# Poissons Ratio (y) = -0.06685 -0.06964
# Poissons Ratio (z) = -0.28465 -0.08447
#
# Static dielectric constant tensor:
#      x y z
#    x 1.943660 0.000000 0.021490 
#    y 0.000000 2.002550 0.000000 
#    z 0.021490 0.000000 1.928370 
# 
# From -- ./inp_files/172118.got.cif
#   From: 2010.05.17/outbox.cif.g08.bks.cpg/sg12_87_cif.got.tgz:172118.got - 2010.06.03 13:09:07.
