data_PCOD9183910
_publ_section_title
;
Structure prediction by ZEFSAII (Michael W. Deem and Ramdas Pophale) SiO2 
 PCOD9183910
Probable space group: C 2/M
;
_chemical_formula_sum "Si O2"
_cell_formula_units_Z 44
_cell_length_a 23.324910
_cell_length_b 15.815523
_cell_length_c 7.468260
_cell_angle_alpha 90.000000
_cell_angle_beta 55.447978
_cell_angle_gamma 90.000000
_cell_volume 2269.057005
_symmetry_space_group_name_H-M "C 2/M"
_symmetry_group_IT_number 12
_symmetry_cell_setting 'monoclinic'
loop_
_space_group_symop_operation_xyz
x,y,z
-x,y,-z
-x,-y,-z
x,-y,z
1/2+x,1/2+y,z
1/2-x,1/2+y,-z
1/2-x,1/2-y,-z
1/2+x,1/2-y,z
loop_
_atom_site_type_symbol
_atom_site_label
_atom_site_fract_x
_atom_site_fract_y
_atom_site_fract_z
Si Si1 0.584033 0.000000 0.339423
Si Si2 0.969366 0.901654 0.252337
Si Si3 0.674708 0.694785 0.496303
Si Si4 0.000000 0.215664 0.500000
Si Si5 0.671183 0.161710 0.786208
Si Si6 0.081599 0.500000 0.915307
Si Si7 0.138588 0.321052 0.265383
O O1 0.500000 0.000000 0.500000
O O2 0.622439 0.082448 0.347692
O O3 0.590694 0.000000 0.113575
O O4 0.890830 0.866618 0.411346
O O5 0.013609 0.844607 0.308311
O O6 0.972034 0.000000 0.295306
O O7 0.000000 0.891604 0.000000
O O8 0.658801 0.752557 0.697274
O O9 0.746715 0.644393 0.386877
O O10 0.684425 0.763159 0.316581
O O11 0.935129 0.275165 0.585650
O O12 0.621847 0.087078 0.797131
O O13 0.659316 0.176010 0.019535
O O14 0.000000 0.500000 0.000000
#
# Coordination Sequence:
#
# PCOD9183910 Si02
#       7
#     4   8   8   4   8   4   8
#     4  10  20  34  54  86 120 149 188 235 294 339
#     4  10  21  36  56  81 109 142 190 239 285 328
#     4  10  22  37  60  79 112 158 188 235 287 344
#     4  10  19  33  56  84 108 146 182 237 281 336
#     4  10  22  39  55  85 115 149 194 229 285 348
#     4  10  24  36  60  88 119 152 187 248 289 346
#     4  10  20  35  57  82 117 148 190 235 281 342
#
# _framework density 19.391316
#
# number of rings (size 3 to 8) (size 9 to 14) (size 15 to 20)
#    0.000    2.000    0.909    1.909    3.818    2.182 
#    0.000    0.000    0.000    0.000    0.000    0.000 
#    0.000    0.000    0.000    0.000    0.000    0.000 
#
# Total GULP energy -122648.369703 kJ/mol
# GULP energy per Si atom -5574.925896 kJ/mol
# Density = 1.934718 g / cm^3
# Si number density = 19.391316 Si / 1000 Ang^3
#
#
#
# Elastic Constant Matrix: (Units=GPa)
#
#
# Indices 1 2 3 4 5 6 
#
# 1 57.9541 32.1337 0.8748 0.0000 -7.3050 0.0000
# 2 32.1337 114.6458 38.9244 0.0000 1.1636 0.0000
# 3 0.8748 38.9244 53.9864 0.0000 10.6310 0.0000
# 4 0.0000 0.0000 0.0000 213.1243 0.0000 118.6288
# 5 -7.3050 1.1636 10.6310 0.0000 30.4812 0.0000
# 6 0.0000 0.0000 0.0000 118.6288 0.0000 69.1471
#
#
#
# Elastic Compliance Matrix: (Units=1/GPa)
#
#
# Indices 1 2 3 4 5 6 
#
# 1 0.021958 -0.007688 0.004395 0.000000 0.004023 0.000000
# 2 -0.007688 0.014443 -0.010542 0.000000 0.001283 0.000000
# 3 0.004395 -0.010542 0.027666 0.000000 -0.008194 0.000000
# 4 0.000000 0.000000 0.000000 0.104115 0.000000 -0.178620
# 5 0.004023 0.001283 -0.008194 0.000000 0.036580 0.000000
# 6 0.000000 0.000000 0.000000 -0.178620 0.000000 0.320903
#
#
# Mechanical properties :
#
#
# Convention : Reuss Voigt Hill
#
# Bulk Modulus (GPa) = 27.47365 41.16134 34.31750
# Shear Modulus (GPa) = 8.84224 72.86075 40.85149
#
# Velocity S-wave (km/s) = 2.13771 6.13641 4.59485
# Velocity P-wave (km/s) = 4.50465 8.45459 6.77392
#
# Compressibility (1/GPa) = 0.03639851
#
# Stress axis : x y z
#
# Youngs Moduli (GPa) = 45.54085 69.23600 36.14534
#
# Poissons Ratio (x) = 0.53225 -0.15885
# Poissons Ratio (y) = 0.35010 0.38104
# Poissons Ratio (z) = -0.20014 0.72987
#
# Static dielectric constant tensor:
#      x y z
#    x 1.659420 0.000000 0.027660 
#    y 0.000000 1.678750 0.000000 
#    z 0.027660 0.000000 1.695930 
# 
# From -- ./inp_files/96164.got.cif
#   From: 2010.05.17/outbox.cif.g08.bks.cpg/sg12_49_cif.got.tgz:96164.got - 2010.06.03 13:09:07.
