data_PCOD9183061
_publ_section_title
;
Structure prediction by ZEFSAII (Michael W. Deem and Ramdas Pophale) SiO2 
 PCOD9183061
Probable space group: C 2/M
;
_chemical_formula_sum "Si O2"
_cell_formula_units_Z 40
_cell_length_a 5.540388
_cell_length_b 35.146844
_cell_length_c 10.083990
_cell_angle_alpha 90.000000
_cell_angle_beta 66.279762
_cell_angle_gamma 90.000000
_cell_volume 1797.740581
_symmetry_space_group_name_H-M "C 2/M"
_symmetry_group_IT_number 12
_symmetry_cell_setting 'monoclinic'
loop_
_space_group_symop_operation_xyz
x,y,z
-x,y,-z
-x,-y,-z
x,-y,z
1/2+x,1/2+y,z
1/2-x,1/2+y,-z
1/2-x,1/2-y,-z
1/2+x,1/2-y,z
loop_
_atom_site_type_symbol
_atom_site_label
_atom_site_fract_x
_atom_site_fract_y
_atom_site_fract_z
Si Si1 0.174172 0.261999 0.336170
Si Si2 0.681494 0.956721 0.592021
Si Si3 0.205330 0.379539 0.709658
Si Si4 0.500000 0.828894 0.000000
Si Si5 0.233857 0.149923 0.678281
Si Si6 0.500000 0.670488 0.000000
O O1 0.448973 0.239012 0.271688
O O2 0.266375 0.304969 0.343535
O O3 0.000000 0.247987 0.500000
O O4 0.500000 0.949220 0.500000
O O5 0.635575 0.923895 0.710681
O O6 0.000000 0.955628 0.500000
O O7 0.616407 0.000000 0.647279
O O8 0.105772 0.356495 0.860236
O O9 0.518613 0.372506 0.640999
O O10 0.038165 0.361449 0.626138
O O11 0.755238 0.806862 0.994389
O O12 0.117683 0.145745 0.854642
#
# Coordination Sequence:
#
# PCOD9183061 Si02
#       6
#     8   8   8   4   8   4
#     4  10  21  36  50  68  99 134 164 203 256 300
#     4  10  21  36  52  74 108 141 166 204 257 300
#     4  10  19  33  54  78 101 131 172 211 247 297
#     4   8  16  30  49  73 102 130 159 206 259 292
#     4  10  19  33  54  76  99 129 169 210 247 298
#     4   8  16  30  48  73 101 126 155 204 261 294
#
# _framework density 22.250153000000001
#
# number of rings (size 3 to 8) (size 9 to 14) (size 15 to 20)
#    0.000    2.400    0.000    2.400    0.000    2.400 
#    0.000    1.500    0.000    0.000    0.000   12.600 
#    0.000    0.000    0.000    0.000    0.000    0.000 
#
# Total GULP energy -111393.693828 kJ/mol
# GULP energy per Si atom -5569.684691 kJ/mol
# Density = 2.219951 g / cm^3
# Si number density = 22.250153 Si / 1000 Ang^3
#
#
#
# Elastic Constant Matrix: (Units=GPa)
#
#
# Indices 1 2 3 4 5 6 
#
# 1 254.0553 28.9298 25.3216 0.0000 7.5792 0.0000
# 2 28.9298 108.8184 2.9074 0.0000 4.1574 0.0000
# 3 25.3216 2.9074 61.6566 0.0000 1.5220 0.0000
# 4 0.0000 0.0000 0.0000 6.6689 0.0000 -4.5914
# 5 7.5792 4.1574 1.5220 0.0000 23.2414 0.0000
# 6 0.0000 0.0000 0.0000 -4.5914 0.0000 28.3435
#
#
#
# Elastic Compliance Matrix: (Units=1/GPa)
#
#
# Indices 1 2 3 4 5 6 
#
# 1 0.004254 -0.001045 -0.001671 0.000000 -0.001091 0.000000
# 2 -0.001045 0.009519 0.000014 0.000000 -0.001363 0.000000
# 3 -0.001671 0.000014 0.016918 0.000000 -0.000566 0.000000
# 4 0.000000 0.000000 0.000000 0.168774 0.000000 0.027340
# 5 -0.001091 -0.001363 -0.000566 0.000000 0.043663 0.000000
# 6 0.000000 0.000000 0.000000 0.027340 0.000000 0.039710
#
#
# Mechanical properties :
#
#
# Convention : Reuss Voigt Hill
#
# Bulk Modulus (GPa) = 39.54438 59.87198 49.70818
# Shear Modulus (GPa) = 16.85360 36.14220 26.49790
#
# Velocity S-wave (km/s) = 2.75519 4.03470 3.45470
# Velocity P-wave (km/s) = 5.28513 6.97654 6.18889
#
# Compressibility (1/GPa) = 0.02528804
#
# Stress axis : x y z
#
# Youngs Moduli (GPa) = 235.06172 105.05248 59.10725
#
# Poissons Ratio (x) = 0.10975 0.09877
# Poissons Ratio (y) = 0.24556 -0.00082
# Poissons Ratio (z) = 0.39278 -0.00145
#
# Static dielectric constant tensor:
#      x y z
#    x 1.995740 0.000000 0.087150 
#    y 0.000000 1.774140 0.000000 
#    z 0.087150 0.000000 1.977650 
# 
# From -- ./inp_files/115930.got.cif
#   From: 2010.05.17/outbox.cif.g08.bks.cpg/sg12_58_cif.got.tgz:115930.got - 2010.06.03 13:09:07.
