data_PCOD9183707
_publ_section_title
;
Structure prediction by ZEFSAII (Michael W. Deem and Ramdas Pophale) SiO2 
 PCOD9183707
Probable space group: C 2/M
;
_chemical_formula_sum "Si O2"
_cell_formula_units_Z 56
_cell_length_a 15.548706
_cell_length_b 8.582505
_cell_length_c 24.105161
_cell_angle_alpha 90.000000
_cell_angle_beta 64.090380
_cell_angle_gamma 90.000000
_cell_volume 2893.423485
_symmetry_space_group_name_H-M "C 2/M"
_symmetry_group_IT_number 12
_symmetry_cell_setting 'monoclinic'
loop_
_space_group_symop_operation_xyz
x,y,z
-x,y,-z
-x,-y,-z
x,-y,z
1/2+x,1/2+y,z
1/2-x,1/2+y,-z
1/2-x,1/2-y,-z
1/2+x,1/2-y,z
loop_
_atom_site_type_symbol
_atom_site_label
_atom_site_fract_x
_atom_site_fract_y
_atom_site_fract_z
Si Si1 0.322436 0.813774 0.932914
Si Si2 0.355289 0.687710 0.710003
Si Si3 0.725200 0.187439 0.849649
Si Si4 0.485486 0.686830 0.069016
Si Si5 0.734069 0.312154 0.379747
Si Si6 0.094175 0.687522 0.508118
Si Si7 0.938140 0.687896 0.355755
O O1 0.286303 0.746535 0.884766
O O2 0.428644 0.760004 0.919708
O O3 0.317217 0.000000 0.933245
O O4 0.250000 0.750000 0.000000
O O5 0.356275 0.500000 0.708229
O O6 0.279960 0.735161 0.778150
O O7 0.322706 0.744870 0.658330
O O8 0.461580 0.745707 0.692346
O O9 0.618669 0.255428 0.883366
O O10 0.719603 0.000000 0.853063
O O11 0.490815 0.500000 0.071567
O O12 0.500000 0.729515 0.000000
O O13 0.731173 0.500000 0.380854
O O14 0.684029 0.254904 0.449927
O O15 0.844904 0.264827 0.347438
O O16 0.101122 0.500000 0.505832
O O17 0.081296 0.738334 0.575121
O O18 0.000000 0.733212 0.500000
O O19 0.944283 0.500000 0.353750
#
# Coordination Sequence:
#
# PCOD9183707 Si02
#       7
#     8   8   8   8   8   8   8
#     4  12  24  40  65  95 125 159 199 248 304 361
#     4  10  23  41  59  84 118 156 198 245 294 353
#     4  11  24  42  63  90 126 163 205 254 305 366
#     4  11  23  40  65  96 127 159 200 247 302 364
#     4  10  21  37  58  84 115 152 198 246 297 353
#     4  10  19  33  55  85 117 150 195 248 302 353
#     4  10  21  37  58  84 117 156 198 247 299 356
#
# _framework density 19.354234999999999
#
# number of rings (size 3 to 8) (size 9 to 14) (size 15 to 20)
#    0.000    1.429    2.857    2.571    0.000    4.286 
#    0.000    1.429    0.000    0.000    0.000    0.000 
#    0.000    0.000    0.000    0.000    0.000    0.000 
#
# Total GULP energy -156510.751892 kJ/mol
# GULP energy per Si atom -5589.669710 kJ/mol
# Density = 1.931018 g / cm^3
# Si number density = 19.354235 Si / 1000 Ang^3
#
#
#
# Elastic Constant Matrix: (Units=GPa)
#
#
# Indices 1 2 3 4 5 6 
#
# 1 105.1198 9.0166 21.9814 0.0000 -31.2640 0.0000
# 2 9.0166 24.6160 14.2041 0.0000 -6.3509 0.0000
# 3 21.9814 14.2041 96.5604 0.0000 -30.2279 0.0000
# 4 0.0000 0.0000 0.0000 24.3839 0.0000 -7.9356
# 5 -31.2640 -6.3509 -30.2279 0.0000 33.0762 0.0000
# 6 0.0000 0.0000 0.0000 -7.9356 0.0000 30.8280
#
#
#
# Elastic Compliance Matrix: (Units=1/GPa)
#
#
# Indices 1 2 3 4 5 6 
#
# 1 0.013461 -0.002296 0.001567 0.000000 0.013715 0.000000
# 2 -0.002296 0.045089 -0.005714 0.000000 0.001265 0.000000
# 3 0.001567 -0.005714 0.015352 0.000000 0.014414 0.000000
# 4 0.000000 0.000000 0.000000 0.044760 0.000000 0.011522
# 5 0.013715 0.001265 0.014414 0.000000 0.056612 0.000000
# 6 0.000000 0.000000 0.000000 0.011522 0.000000 0.035404
#
#
# Mechanical properties :
#
#
# Convention : Reuss Voigt Hill
#
# Bulk Modulus (GPa) = 16.38935 35.18893 25.78914
# Shear Modulus (GPa) = 20.49989 29.73057 25.11523
#
# Velocity S-wave (km/s) = 3.25806 3.92360 3.60621
# Velocity P-wave (km/s) = 4.75812 6.22472 5.54017
#
# Compressibility (1/GPa) = 0.06101524
#
# Stress axis : x y z
#
# Youngs Moduli (GPa) = 74.28757 22.17857 65.13679
#
# Poissons Ratio (x) = 0.05093 -0.10205
# Poissons Ratio (y) = 0.17059 0.37218
# Poissons Ratio (z) = -0.11639 0.12672
#
# Static dielectric constant tensor:
#      x y z
#    x 1.669810 0.000000 0.009280 
#    y 0.000000 1.655810 0.000000 
#    z 0.009280 0.000000 1.653100 
# 
# From -- ./inp_files/308887.got.cif
#   From: 2010.05.17/outbox.cif.g08.bks.cpg/sg12_155_cif.got.tgz:308887.got - 2010.06.03 13:09:07.
