data_PCOD9183118
_publ_section_title
;
Structure prediction by ZEFSAII (Michael W. Deem and Ramdas Pophale) SiO2 
 PCOD9183118
Probable space group: C 2/M
;
_chemical_formula_sum "Si O2"
_cell_formula_units_Z 56
_cell_length_a 10.009197
_cell_length_b 15.587831
_cell_length_c 17.330683
_cell_angle_alpha 90.000000
_cell_angle_beta 94.648033
_cell_angle_gamma 90.000000
_cell_volume 2695.069592
_symmetry_space_group_name_H-M "C 2/M"
_symmetry_group_IT_number 12
_symmetry_cell_setting 'monoclinic'
loop_
_space_group_symop_operation_xyz
x,y,z
-x,y,-z
-x,-y,-z
x,-y,z
1/2+x,1/2+y,z
1/2-x,1/2+y,-z
1/2-x,1/2-y,-z
1/2+x,1/2-y,z
loop_
_atom_site_type_symbol
_atom_site_label
_atom_site_fract_x
_atom_site_fract_y
_atom_site_fract_z
Si Si1 0.565496 0.900137 0.581235
Si Si2 0.186587 0.161397 0.315417
Si Si3 0.853706 0.395996 0.022118
Si Si4 0.869363 0.363270 0.713615
Si Si5 0.410129 0.601185 0.065038
Si Si6 0.875201 0.337211 0.191333
Si Si7 0.585654 0.638196 0.760136
O O1 0.500000 0.864574 0.500000
O O2 0.704219 0.855028 0.612978
O O3 0.452685 0.894932 0.643176
O O4 0.598177 0.000000 0.570518
O O5 0.159113 0.262837 0.305041
O O6 0.265380 0.125233 0.244281
O O7 0.036866 0.123568 0.304472
O O8 0.849924 0.500000 0.033192
O O9 0.830051 0.350812 0.102651
O O10 0.741384 0.368234 0.955866
O O11 0.000000 0.373118 0.000000
O O12 0.724964 0.397967 0.733113
O O13 0.976841 0.375376 0.787570
O O14 0.405405 0.500000 0.050709
O O15 0.452723 0.609749 0.155295
O O16 0.500000 0.639312 0.000000
O O17 0.890500 0.239563 0.221500
#
# Coordination Sequence:
#
# PCOD9183118 Si02
#       7
#     8   8   8   8   8   8   8
#     4  10  22  40  61  87 117 147 181 220 267 331
#     4   9  19  36  57  82 111 144 182 223 273 335
#     4  10  20  32  46  68 100 139 185 232 276 325
#     4   9  19  36  57  83 112 142 182 228 273 327
#     4  10  21  33  44  65  99 136 176 224 276 326
#     4   9  18  32  51  75 103 138 183 229 272 325
#     4  10  19  33  54  78 104 137 182 232 275 321
#
# _framework density 20.778684999999999
#
# number of rings (size 3 to 8) (size 9 to 14) (size 15 to 20)
#    0.000    2.429    0.000    2.571    0.000    5.143 
#    0.000    0.714    0.000    1.714    0.000    0.000 
#    0.000    0.000    0.000    0.000    0.000    0.000 
#
# Total GULP energy -156017.997533 kJ/mol
# GULP energy per Si atom -5572.071340 kJ/mol
# Density = 2.073139 g / cm^3
# Si number density = 20.778685 Si / 1000 Ang^3
#
#
#
# Elastic Constant Matrix: (Units=GPa)
#
#
# Indices 1 2 3 4 5 6 
#
# 1 99.1625 12.7456 9.4888 0.0000 20.2183 0.0000
# 2 12.7456 18.3638 -5.0608 0.0000 8.4610 0.0000
# 3 9.4888 -5.0608 84.2532 0.0000 20.6724 0.0000
# 4 0.0000 0.0000 0.0000 20.3565 0.0000 -3.5152
# 5 20.2183 8.4610 20.6724 0.0000 30.4789 0.0000
# 6 0.0000 0.0000 0.0000 -3.5152 0.0000 5.6863
#
#
#
# Elastic Compliance Matrix: (Units=1/GPa)
#
#
# Indices 1 2 3 4 5 6 
#
# 1 0.012111 -0.005470 -0.000113 0.000000 -0.006439 0.000000
# 2 -0.005470 0.072136 0.010763 0.000000 -0.023697 0.000000
# 3 -0.000113 0.010763 0.015887 0.000000 -0.013688 0.000000
# 4 0.000000 0.000000 0.000000 0.054995 0.000000 0.033997
# 5 -0.006439 -0.023697 -0.013688 0.000000 0.052943 0.000000
# 6 0.000000 0.000000 0.000000 0.033997 0.000000 0.196879
#
#
# Mechanical properties :
#
#
# Convention : Reuss Voigt Hill
#
# Bulk Modulus (GPa) = 9.05022 26.23630 17.64326
# Shear Modulus (GPa) = 11.58956 23.61139 17.60047
#
# Velocity S-wave (km/s) = 2.36426 3.37460 2.91356
# Velocity P-wave (km/s) = 3.43773 5.27616 4.45286
#
# Compressibility (1/GPa) = 0.11049458
#
# Stress axis : x y z
#
# Youngs Moduli (GPa) = 82.56817 13.86271 62.94549
#
# Poissons Ratio (x) = 0.07583 0.00709
# Poissons Ratio (y) = 0.45166 -0.67750
# Poissons Ratio (z) = 0.00930 -0.14921
#
# Static dielectric constant tensor:
#      x y z
#    x 1.779950 0.000000 0.004760 
#    y 0.000000 1.798190 0.000000 
#    z 0.004760 0.000000 1.734650 
# 
# From -- ./inp_files/257146.got.cif
#   From: 2010.05.17/outbox.cif.g08.bks.cpg/sg12_129_cif.got.tgz:257146.got - 2010.06.03 13:09:07.
