data_PCOD9183886
_publ_section_title
;
Structure prediction by ZEFSAII (Michael W. Deem and Ramdas Pophale) SiO2 
 PCOD9183886
Probable space group: C 2/M
;
_chemical_formula_sum "Si O2"
_cell_formula_units_Z 56
_cell_length_a 9.384768
_cell_length_b 16.023529
_cell_length_c 17.019892
_cell_angle_alpha 90.000000
_cell_angle_beta 64.333758
_cell_angle_gamma 90.000000
_cell_volume 2306.871910
_symmetry_space_group_name_H-M "C 2/M"
_symmetry_group_IT_number 12
_symmetry_cell_setting 'monoclinic'
loop_
_space_group_symop_operation_xyz
x,y,z
-x,y,-z
-x,-y,-z
x,-y,z
1/2+x,1/2+y,z
1/2-x,1/2+y,-z
1/2-x,1/2-y,-z
1/2+x,1/2-y,z
loop_
_atom_site_type_symbol
_atom_site_label
_atom_site_fract_x
_atom_site_fract_y
_atom_site_fract_z
Si Si1 0.439160 0.088677 0.741196
Si Si2 0.820080 0.589167 0.076730
Si Si3 0.430524 0.244242 0.136883
Si Si4 0.203786 0.092877 0.380773
Si Si5 0.191779 0.594030 0.462324
Si Si6 0.221125 0.726401 0.327439
Si Si7 0.241638 0.352320 0.069520
O O1 0.626543 0.088253 0.702138
O O2 0.385894 0.167005 0.702261
O O3 0.360585 0.092768 0.845276
O O4 0.392981 0.000000 0.714256
O O5 0.781099 0.500000 0.122127
O O6 0.823445 0.665459 0.135159
O O7 0.720840 0.603871 0.021152
O O8 0.000000 0.586648 0.000000
O O9 0.379811 0.263637 0.237274
O O10 0.379140 0.316472 0.090296
O O11 0.612064 0.220097 0.082290
O O12 0.248011 0.100918 0.462548
O O13 0.143355 0.183808 0.366933
O O14 0.126585 0.000000 0.388234
O O15 0.236665 0.500000 0.425604
O O16 0.253599 0.670758 0.396147
O O17 0.000000 0.598837 0.500000
#
# Coordination Sequence:
#
# PCOD9183886 Si02
#       7
#     8   8   8   8   8   8   8
#     4  10  19  33  56  83 112 146 195 243 280 337
#     4   9  18  33  55  82 110 147 197 247 288 335
#     4  10  21  33  54  83 116 150 189 241 292 352
#     4  10  20  34  53  80 110 144 188 237 286 346
#     4  10  19  34  57  83 109 143 192 247 291 345
#     4  11  20  33  54  84 113 147 186 244 301 343
#     4  10  19  35  55  84 116 150 194 241 294 346
#
# _framework density 24.275296000000001
#
# number of rings (size 3 to 8) (size 9 to 14) (size 15 to 20)
#    0.000    2.000    2.857    1.714    0.000    1.143 
#    0.000    0.000    0.000    8.143    0.000    0.000 
#    0.000    0.000    0.000    0.000    0.000    0.000 
#
# Total GULP energy -156460.919539 kJ/mol
# GULP energy per Si atom -5587.889984 kJ/mol
# Density = 2.422004 g / cm^3
# Si number density = 24.275296 Si / 1000 Ang^3
#
#
#
# Elastic Constant Matrix: (Units=GPa)
#
#
# Indices 1 2 3 4 5 6 
#
# 1 56.8523 26.1869 14.3694 0.0000 9.2681 0.0000
# 2 26.1869 178.5962 50.9055 0.0000 9.7145 0.0000
# 3 14.3694 50.9055 97.2625 0.0000 8.6959 0.0000
# 4 0.0000 0.0000 0.0000 21.7487 0.0000 4.5649
# 5 9.2681 9.7145 8.6959 0.0000 25.2828 0.0000
# 6 0.0000 0.0000 0.0000 4.5649 0.0000 19.8124
#
#
#
# Elastic Compliance Matrix: (Units=1/GPa)
#
#
# Indices 1 2 3 4 5 6 
#
# 1 0.019914 -0.002242 -0.001231 0.000000 -0.006015 0.000000
# 2 -0.002242 0.006881 -0.003206 0.000000 -0.000719 0.000000
# 3 -0.001231 -0.003206 0.012371 0.000000 -0.002572 0.000000
# 4 0.000000 0.000000 0.000000 0.048316 0.000000 -0.011132
# 5 -0.006015 -0.000719 -0.002572 0.000000 0.042919 0.000000
# 6 0.000000 0.000000 0.000000 -0.011132 0.000000 0.053038
#
#
# Mechanical properties :
#
#
# Convention : Reuss Voigt Hill
#
# Bulk Modulus (GPa) = 38.74667 57.29273 48.01970
# Shear Modulus (GPa) = 24.34285 29.45206 26.89746
#
# Velocity S-wave (km/s) = 3.17011 3.48696 3.33230
# Velocity P-wave (km/s) = 5.42176 6.31382 5.88472
#
# Compressibility (1/GPa) = 0.02580867
#
# Stress axis : x y z
#
# Youngs Moduli (GPa) = 50.21650 145.33165 80.83351
#
# Poissons Ratio (x) = 0.32581 0.09950
# Poissons Ratio (y) = 0.11258 0.25913
# Poissons Ratio (z) = 0.06181 0.46590
#
# Static dielectric constant tensor:
#      x y z
#    x 1.947240 0.000000 -0.005490 
#    y 0.000000 2.032750 0.000000 
#    z -0.005490 0.000000 1.944560 
# 
# From -- ./inp_files/262827.got.cif
#   From: 2010.05.17/outbox.cif.g08.bks.cpg/sg12_132_cif.got.tgz:262827.got - 2010.06.03 13:09:07.
