data_PCOD9183349
_publ_section_title
;
Structure prediction by ZEFSAII (Michael W. Deem and Ramdas Pophale) SiO2 
 PCOD9183349
Probable space group: C 2/M
;
_chemical_formula_sum "Si O2"
_cell_formula_units_Z 64
_cell_length_a 29.691368
_cell_length_b 8.328716
_cell_length_c 15.661150
_cell_angle_alpha 90.000000
_cell_angle_beta 126.997990
_cell_angle_gamma 90.000000
_cell_volume 3093.086085
_symmetry_space_group_name_H-M "C 2/M"
_symmetry_group_IT_number 12
_symmetry_cell_setting 'monoclinic'
loop_
_space_group_symop_operation_xyz
x,y,z
-x,y,-z
-x,-y,-z
x,-y,z
1/2+x,1/2+y,z
1/2-x,1/2+y,-z
1/2-x,1/2-y,-z
1/2+x,1/2-y,z
loop_
_atom_site_type_symbol
_atom_site_label
_atom_site_fract_x
_atom_site_fract_y
_atom_site_fract_z
Si Si1 0.829244 0.694309 0.818382
Si Si2 0.928685 0.189361 0.168422
Si Si3 0.209956 0.306484 0.738831
Si Si4 0.953338 0.693459 0.015354
Si Si5 0.005299 0.694431 0.408112
Si Si6 0.370746 0.804053 0.506301
Si Si7 0.188087 0.692248 0.902465
Si Si8 0.809903 0.306305 0.603031
O O1 0.829557 0.500000 0.820548
O O2 0.774524 0.750359 0.807634
O O3 0.820901 0.750404 0.711214
O O4 0.890233 0.750521 0.919668
O O5 0.960726 0.261466 0.122748
O O6 0.863515 0.244335 0.100076
O O7 0.958498 0.243778 0.289741
O O8 0.930366 0.000000 0.162919
O O9 0.209852 0.500000 0.736766
O O10 0.174767 0.249061 0.616270
O O11 0.181628 0.257028 0.795741
O O12 0.953558 0.500000 0.010241
O O13 0.000000 0.751224 0.000000
O O14 0.002368 0.500000 0.403659
O O15 0.066771 0.745970 0.446403
O O16 0.000000 0.746529 0.500000
O O17 0.354270 0.752244 0.582381
O O18 0.369441 0.000000 0.503067
O O19 0.186605 0.500000 0.905082
O O20 0.250000 0.750000 0.000000
O O21 0.810625 0.500000 0.606272
O O22 0.750000 0.250000 0.500000
#
# Coordination Sequence:
#
# PCOD9183349 Si02
#       8
#     8   8   8   8   8   8   8   8
#     4  10  21  35  56  88 120 152 198 251 302 359
#     4  12  26  43  63  92 130 167 205 256 317 380
#     4  10  20  36  59  87 116 153 193 238 296 362
#     4  10  23  43  67  89 116 162 217 267 315 370
#     4  10  21  40  67  93 120 161 211 260 309 369
#     4   9  18  33  57  84 113 149 195 243 292 353
#     4  11  23  40  64  91 120 156 205 254 307 371
#     4  10  19  33  54  83 118 154 193 240 296 360
#
# _framework density 20.691309
#
# number of rings (size 3 to 8) (size 9 to 14) (size 15 to 20)
#    0.000    1.750    1.250    3.000    1.750    6.000 
#    0.000    1.250    0.000    0.000    0.000    0.000 
#    0.000    0.000    0.000    0.000    0.000    0.000 
#
# Total GULP energy -178807.350132 kJ/mol
# GULP energy per Si atom -5587.729692 kJ/mol
# Density = 2.064421 g / cm^3
# Si number density = 20.691309 Si / 1000 Ang^3
#
#
#
# Elastic Constant Matrix: (Units=GPa)
#
#
# Indices 1 2 3 4 5 6 
#
# 1 153.0498 13.6223 30.3277 0.0000 -6.8803 0.0000
# 2 13.6223 9.2963 5.6696 0.0000 -1.9305 0.0000
# 3 30.3277 5.6696 82.8201 0.0000 -3.2822 0.0000
# 4 0.0000 0.0000 0.0000 24.0477 0.0000 5.1864
# 5 -6.8803 -1.9305 -3.2822 0.0000 39.5856 0.0000
# 6 0.0000 0.0000 0.0000 5.1864 0.0000 19.1175
#
#
#
# Elastic Compliance Matrix: (Units=1/GPa)
#
#
# Indices 1 2 3 4 5 6 
#
# 1 0.007894 -0.010098 -0.002172 0.000000 0.000700 0.000000
# 2 -0.010098 0.126111 -0.004777 0.000000 0.003999 0.000000
# 3 -0.002172 -0.004777 0.013216 0.000000 0.000485 0.000000
# 4 0.000000 0.000000 0.000000 0.044168 0.000000 -0.011982
# 5 0.000700 0.003999 0.000485 0.000000 0.025619 0.000000
# 6 0.000000 0.000000 0.000000 -0.011982 0.000000 0.055559
#
#
# Mechanical properties :
#
#
# Convention : Reuss Voigt Hill
#
# Bulk Modulus (GPa) = 8.83958 38.26726 23.55342
# Shear Modulus (GPa) = 14.51926 29.58659 22.05293
#
# Velocity S-wave (km/s) = 2.65185 3.78551 3.26821
# Velocity P-wave (km/s) = 3.69565 6.13525 5.06454
#
# Compressibility (1/GPa) = 0.11312752
#
# Stress axis : x y z
#
# Youngs Moduli (GPa) = 126.67164 7.92952 75.66639
#
# Poissons Ratio (x) = 0.08007 0.16433
# Poissons Ratio (y) = 1.27916 0.36145
# Poissons Ratio (z) = 0.27511 0.03788
#
# Static dielectric constant tensor:
#      x y z
#    x 1.751050 0.000000 -0.026610 
#    y 0.000000 1.721860 0.000000 
#    z -0.026610 0.000000 1.742650 
# 
# From -- ./inp_files/250120.got.cif
#   From: 2010.05.17/outbox.cif.g08.bks.cpg/sg12_126_cif.got.tgz:250120.got - 2010.06.03 13:09:07.
