data_PCOD9183889
_publ_section_title
;
Structure prediction by ZEFSAII (Michael W. Deem and Ramdas Pophale) SiO2 
 PCOD9183889
Probable space group: C 2/M
;
_chemical_formula_sum "Si O2"
_cell_formula_units_Z 64
_cell_length_a 19.308433
_cell_length_b 8.469833
_cell_length_c 21.543162
_cell_angle_alpha 90.000000
_cell_angle_beta 71.164190
_cell_angle_gamma 90.000000
_cell_volume 3334.478529
_symmetry_space_group_name_H-M "C 2/M"
_symmetry_group_IT_number 12
_symmetry_cell_setting 'monoclinic'
loop_
_space_group_symop_operation_xyz
x,y,z
-x,y,-z
-x,-y,-z
x,-y,z
1/2+x,1/2+y,z
1/2-x,1/2+y,-z
1/2-x,1/2-y,-z
1/2+x,1/2-y,z
loop_
_atom_site_type_symbol
_atom_site_label
_atom_site_fract_x
_atom_site_fract_y
_atom_site_fract_z
Si Si1 0.920883 0.687822 0.335740
Si Si2 0.682668 0.188859 0.978276
Si Si3 0.033750 0.314272 0.086224
Si Si4 0.871622 0.188135 0.130557
Si Si5 0.447149 0.315559 0.784567
Si Si6 0.860129 0.309605 0.698427
Si Si7 0.506134 0.808430 0.428291
Si Si8 0.306260 0.690100 0.281457
O O1 0.933186 0.500000 0.326283
O O2 0.843025 0.733148 0.330738
O O3 0.979767 0.775651 0.275299
O O4 0.939715 0.732934 0.401044
O O5 0.816405 0.500000 0.019056
O O6 0.604595 0.245615 0.028587
O O7 0.750000 0.250000 0.000000
O O8 0.680748 0.242286 0.907371
O O9 0.025448 0.500000 0.076012
O O10 0.051275 0.284146 0.153276
O O11 0.955863 0.235406 0.094561
O O12 0.848206 0.241562 0.206395
O O13 0.865120 0.000000 0.130910
O O14 0.445457 0.500000 0.800894
O O15 0.382050 0.268539 0.757132
O O16 0.865437 0.500000 0.704475
O O17 0.920131 0.261513 0.629590
O O18 0.778610 0.270351 0.701653
O O19 0.500000 0.747365 0.500000
O O20 0.507794 0.000000 0.431351
O O21 0.313133 0.500000 0.284086
#
# Coordination Sequence:
#
# PCOD9183889 Si02
#       8
#     8   8   8   8   8   8   8   8
#     4  10  19  33  56  83 112 148 187 229 275 330
#     4  11  26  44  61  83 114 149 189 237 287 341
#     4  11  23  40  61  83 111 147 188 231 281 340
#     4  11  23  39  60  85 112 148 190 233 284 341
#     4  11  21  34  55  84 112 142 184 233 279 331
#     4   9  19  35  55  80 114 151 186 228 280 332
#     4   8  15  31  56  83 110 148 195 232 268 324
#     4  10  21  36  55  82 116 149 185 232 285 333
#
# _framework density 19.193406
#
# number of rings (size 3 to 8) (size 9 to 14) (size 15 to 20)
#    0.000    1.875    1.250    3.750    1.750    4.500 
#    0.000    0.625    0.000    9.375    0.000    0.000 
#    0.000    0.000    0.000    0.000    0.000    0.000 
#
# Total GULP energy -178710.086628 kJ/mol
# GULP energy per Si atom -5584.690207 kJ/mol
# Density = 1.914972 g / cm^3
# Si number density = 19.193406 Si / 1000 Ang^3
#
#
#
# Elastic Constant Matrix: (Units=GPa)
#
#
# Indices 1 2 3 4 5 6 
#
# 1 123.6323 21.2730 41.0697 0.0000 28.7569 0.0000
# 2 21.2730 24.0155 5.9814 0.0001 3.1345 0.0002
# 3 41.0697 5.9814 99.5777 0.0000 27.5837 0.0000
# 4 0.0000 0.0001 0.0000 10.9866 0.0000 5.6215
# 5 28.7569 3.1345 27.5837 0.0000 25.5293 0.0000
# 6 0.0000 0.0002 0.0000 5.6215 0.0000 30.3227
#
#
#
# Elastic Compliance Matrix: (Units=1/GPa)
#
#
# Indices 1 2 3 4 5 6 
#
# 1 0.012989 -0.009587 -0.001505 0.000000 -0.011828 0.000000
# 2 -0.009587 0.049568 -0.000469 0.000000 0.005221 0.000000
# 3 -0.001505 -0.000469 0.014565 0.000000 -0.013984 0.000000
# 4 0.000000 0.000000 0.000000 0.100559 0.000000 -0.018643
# 5 -0.011828 0.005221 -0.013984 0.000000 0.066963 0.000000
# 6 0.000000 0.000000 0.000000 -0.018643 0.000000 0.036435
#
#
# Mechanical properties :
#
#
# Convention : Reuss Voigt Hill
#
# Bulk Modulus (GPa) = 18.51883 42.65262 30.58573
# Shear Modulus (GPa) = 15.51820 25.29447 20.40634
#
# Velocity S-wave (km/s) = 2.84653 3.63419 3.26420
# Velocity P-wave (km/s) = 4.52472 6.31511 5.49335
#
# Compressibility (1/GPa) = 0.05399909
#
# Stress axis : x y z
#
# Youngs Moduli (GPa) = 76.98598 20.17436 68.65756
#
# Poissons Ratio (x) = 0.19342 0.10332
# Poissons Ratio (y) = 0.73809 0.03222
# Poissons Ratio (z) = 0.11585 0.00947
#
# Static dielectric constant tensor:
#      x y z
#    x 1.671390 0.000000 0.001130 
#    y 0.000000 1.661510 0.000000 
#    z 0.001130 0.000000 1.670150 
# 
# From -- ./inp_files/314176.got.cif
#   From: 2010.05.17/outbox.cif.g08.bks.cpg/sg12_158_cif.got.tgz:314176.got - 2010.06.03 13:09:07.
