data_PCOD9183566
_publ_section_title
;
Structure prediction by ZEFSAII (Michael W. Deem and Ramdas Pophale) SiO2 
 PCOD9183566
Probable space group: C 2/M
;
_chemical_formula_sum "Si O2"
_cell_formula_units_Z 56
_cell_length_a 15.323648
_cell_length_b 7.412829
_cell_length_c 22.357900
_cell_angle_alpha 90.000000
_cell_angle_beta 68.482072
_cell_angle_gamma 90.000000
_cell_volume 2362.661512
_symmetry_space_group_name_H-M "C 2/M"
_symmetry_group_IT_number 12
_symmetry_cell_setting 'monoclinic'
loop_
_space_group_symop_operation_xyz
x,y,z
-x,y,-z
-x,-y,-z
x,-y,z
1/2+x,1/2+y,z
1/2-x,1/2+y,-z
1/2-x,1/2-y,-z
1/2+x,1/2-y,z
loop_
_atom_site_type_symbol
_atom_site_label
_atom_site_fract_x
_atom_site_fract_y
_atom_site_fract_z
Si Si1 0.870773 0.784545 0.211583
Si Si2 0.707508 0.795474 0.333474
Si Si3 0.087936 0.718372 0.020334
Si Si4 0.222608 0.283494 0.887053
Si Si5 0.425544 0.293901 0.837711
Si Si6 0.009627 0.720804 0.428088
Si Si7 0.812766 0.285903 0.426089
O O1 0.780844 0.709522 0.269150
O O2 0.850510 0.755621 0.147014
O O3 0.973295 0.712352 0.203726
O O4 0.873672 0.000000 0.221668
O O5 0.606107 0.715098 0.373917
O O6 0.763464 0.800802 0.381806
O O7 0.689289 0.000000 0.316822
O O8 0.089244 0.500000 0.025710
O O9 0.179682 0.779732 0.960572
O O10 0.078984 0.794649 0.088779
O O11 0.000000 0.764357 0.000000
O O12 0.230738 0.500000 0.889776
O O13 0.325669 0.211042 0.844902
O O14 0.426307 0.500000 0.815168
O O15 0.012024 0.500000 0.428687
O O16 0.917815 0.775795 0.414569
O O17 0.000000 0.776837 0.500000
O O18 0.815336 0.500000 0.414680
O O19 0.750000 0.250000 0.500000
#
# Coordination Sequence:
#
# PCOD9183566 Si02
#       7
#     8   8   8   8   8   8   8
#     4  10  22  38  56  79 109 146 184 222 270 326
#     4  10  21  39  58  79 111 146 182 224 267 320
#     4  10  19  33  55  82 107 140 184 230 274 318
#     4  10  21  37  56  78 110 145 181 227 275 323
#     4  10  21  36  55  81 111 144 180 225 281 328
#     4   9  17  33  57  80 106 143 176 210 264 322
#     4  11  21  35  58  86 111 140 178 220 269 322
#
# _framework density 23.702082999999998
#
# number of rings (size 3 to 8) (size 9 to 14) (size 15 to 20)
#    0.000    2.000    2.857    0.857    0.000    3.143 
#    0.000    2.143    0.000    0.000    0.000    0.000 
#    0.000    0.000    0.000    0.000    0.000    0.000 
#
# Total GULP energy -156497.779420 kJ/mol
# GULP energy per Si atom -5589.206408 kJ/mol
# Density = 2.364814 g / cm^3
# Si number density = 23.702083 Si / 1000 Ang^3
#
#
#
# Elastic Constant Matrix: (Units=GPa)
#
#
# Indices 1 2 3 4 5 6 
#
# 1 133.5046 0.7220 15.7202 0.0000 -48.7655 0.0000
# 2 0.7220 86.6006 -6.7986 -0.0001 -10.6710 0.0000
# 3 15.7202 -6.7986 89.8243 0.0000 -40.9552 0.0000
# 4 0.0000 -0.0001 0.0000 -2.2739 0.0000 4.8488
# 5 -48.7655 -10.6710 -40.9552 0.0000 52.7165 0.0000
# 6 0.0000 0.0000 0.0000 4.8488 0.0000 5.9567
#
#
#
# Elastic Compliance Matrix: (Units=1/GPa)
#
#
# Indices 1 2 3 4 5 6 
#
# 1 0.012960 0.002401 0.005577 0.000000 0.016807 0.000000
# 2 0.002401 0.012865 0.004264 0.000000 0.008137 0.000000
# 3 0.005577 0.004264 0.020480 0.000000 0.021932 0.000000
# 4 0.000000 0.000000 0.000000 -0.160749 0.000000 0.130852
# 5 0.016807 0.008137 0.021932 0.000000 0.053203 0.000000
# 6 0.000000 0.000000 0.000000 0.130852 0.000000 0.061363
#
#
# Mechanical properties :
#
#
# Convention : Reuss Voigt Hill
#
# Bulk Modulus (GPa) = 14.12696 36.57964 25.35330
# Shear Modulus (GPa) = -6534.44892 31.29893 -3251.57499
#
# Velocity S-wave (km/s) = -52.56324 3.63783 -37.07870
# Velocity P-wave (km/s) = 60.64557 5.75427 42.68943
#
# Compressibility (1/GPa) = 0.07078662
#
# Stress axis : x y z
#
# Youngs Moduli (GPa) = 77.16128 77.73223 48.82909
#
# Poissons Ratio (x) = -0.18661 -0.27231
# Poissons Ratio (y) = -0.18524 -0.20820
# Poissons Ratio (z) = -0.43031 -0.33143
#
# Static dielectric constant tensor:
#      x y z
#    x 1.901370 0.000000 -0.045810 
#    y 0.000000 1.849930 0.000000 
#    z -0.045810 0.000000 1.886140 
# 
# From -- ./inp_files/338503.got.cif
#   From: 2010.05.17/outbox.cif.g08.bks.cpg/sg12_170_cif.got.tgz:338503.got - 2010.06.03 13:09:07.
