data_PCOD9183579
_publ_section_title
;
Structure prediction by ZEFSAII (Michael W. Deem and Ramdas Pophale) SiO2 
 PCOD9183579
Probable space group: C 2/M
;
_chemical_formula_sum "Si O2"
_cell_formula_units_Z 48
_cell_length_a 24.053796
_cell_length_b 7.485056
_cell_length_c 12.195614
_cell_angle_alpha 90.000000
_cell_angle_beta 111.205770
_cell_angle_gamma 90.000000
_cell_volume 2047.067448
_symmetry_space_group_name_H-M "C 2/M"
_symmetry_group_IT_number 12
_symmetry_cell_setting 'monoclinic'
loop_
_space_group_symop_operation_xyz
x,y,z
-x,y,-z
-x,-y,-z
x,-y,z
1/2+x,1/2+y,z
1/2-x,1/2+y,-z
1/2-x,1/2-y,-z
1/2+x,1/2-y,z
loop_
_atom_site_type_symbol
_atom_site_label
_atom_site_fract_x
_atom_site_fract_y
_atom_site_fract_z
Si Si1 0.602408 0.292301 0.845575
Si Si2 0.646490 0.215693 0.470284
Si Si3 0.434566 0.797331 0.944102
Si Si4 0.198998 0.791829 0.744497
Si Si5 0.510924 0.215750 0.382251
Si Si6 0.320308 0.219772 0.738619
O O1 0.614403 0.500000 0.878359
O O2 0.655074 0.217236 0.805864
O O3 0.541204 0.282705 0.732968
O O4 0.592760 0.198228 0.954001
O O5 0.667672 0.281934 0.603193
O O6 0.577953 0.269053 0.400166
O O7 0.684585 0.272696 0.392051
O O8 0.647944 0.000000 0.477160
O O9 0.383660 0.718800 0.830751
O O10 0.444756 0.000000 0.909108
O O11 0.500000 0.712282 0.000000
O O12 0.264873 0.716286 0.771609
O O13 0.206301 0.000000 0.777414
O O14 0.500000 0.271076 0.500000
O O15 0.508035 0.000000 0.376229
O O16 0.319930 0.000000 0.741447
#
# Coordination Sequence:
#
# PCOD9183579 Si02
#       6
#     8   8   8   8   8   8
#     4  11  23  36  54  82 117 149 180 222 276 334
#     4  10  19  34  58  84 109 141 186 233 273 318
#     4  10  21  40  64  83 104 140 188 234 276 322
#     4  10  21  36  53  79 116 150 179 218 275 333
#     4  10  19  33  55  82 110 141 184 231 270 316
#     4   9  19  36  57  80 108 145 186 228 273 323
#
# _framework density 23.448179
#
# number of rings (size 3 to 8) (size 9 to 14) (size 15 to 20)
#    0.000    2.000    1.667    2.000    0.000    5.333 
#    0.000    1.667    0.000    0.000    0.000    0.000 
#    0.000    0.000    0.000    0.000    0.000    0.000 
#
# Total GULP energy -134173.128996 kJ/mol
# GULP energy per Si atom -5590.547041 kJ/mol
# Density = 2.339481 g / cm^3
# Si number density = 23.448179 Si / 1000 Ang^3
#
#
#
# Elastic Constant Matrix: (Units=GPa)
#
#
# Indices 1 2 3 4 5 6 
#
# 1 145.7946 0.4044 31.4779 0.0000 2.6381 0.0000
# 2 0.4044 69.0243 -11.5179 0.0000 0.4724 0.0000
# 3 31.4779 -11.5179 78.4547 0.0000 -12.8554 0.0000
# 4 0.0000 0.0000 0.0000 6.6780 0.0000 -5.1862
# 5 2.6381 0.4724 -12.8554 0.0000 30.5441 0.0000
# 6 0.0000 0.0000 0.0000 -5.1862 0.0000 14.5626
#
#
#
# Elastic Compliance Matrix: (Units=1/GPa)
#
#
# Indices 1 2 3 4 5 6 
#
# 1 0.007657 -0.000616 -0.003512 0.000000 -0.002130 0.000000
# 2 -0.000616 0.014917 0.002586 0.000000 0.000911 0.000000
# 3 -0.003512 0.002586 0.015658 0.000000 0.006853 0.000000
# 4 0.000000 0.000000 0.000000 0.206994 0.000000 0.073717
# 5 -0.002130 0.000911 0.006853 0.000000 0.035794 0.000000
# 6 0.000000 0.000000 0.000000 0.073717 0.000000 0.094922
#
#
# Mechanical properties :
#
#
# Convention : Reuss Voigt Hill
#
# Bulk Modulus (GPa) = 28.45053 37.11136 32.78095
# Shear Modulus (GPa) = 12.79620 28.55087 20.67354
#
# Velocity S-wave (km/s) = 2.33860 3.49322 2.97251
# Velocity P-wave (km/s) = 4.41042 5.66846 5.07855
#
# Compressibility (1/GPa) = 0.03514873
#
# Stress axis : x y z
#
# Youngs Moduli (GPa) = 130.59195 67.03926 63.86530
#
# Poissons Ratio (x) = 0.04132 0.22428
# Poissons Ratio (y) = 0.08048 -0.16519
# Poissons Ratio (z) = 0.45862 -0.17340
#
# Static dielectric constant tensor:
#      x y z
#    x 1.894770 0.000000 0.002560 
#    y 0.000000 1.944530 0.000000 
#    z 0.002560 0.000000 1.828360 
# 
# From -- ./inp_files/172879.got.cif
#   From: 2010.05.17/outbox.cif.g08.bks.cpg/sg12_87_cif.got.tgz:172879.got - 2010.06.03 13:09:07.
