data_PCOD9183151
_publ_section_title
;
Structure prediction by ZEFSAII (Michael W. Deem and Ramdas Pophale) SiO2 
 PCOD9183151
Probable space group: C 2/M
;
_chemical_formula_sum "Si O2"
_cell_formula_units_Z 64
_cell_length_a 21.383158
_cell_length_b 17.033940
_cell_length_c 12.015258
_cell_angle_alpha 90.000000
_cell_angle_beta 128.552848
_cell_angle_gamma 90.000000
_cell_volume 3422.516028
_symmetry_space_group_name_H-M "C 2/M"
_symmetry_group_IT_number 12
_symmetry_cell_setting 'monoclinic'
loop_
_space_group_symop_operation_xyz
x,y,z
-x,y,-z
-x,-y,-z
x,-y,z
1/2+x,1/2+y,z
1/2-x,1/2+y,-z
1/2-x,1/2-y,-z
1/2+x,1/2-y,z
loop_
_atom_site_type_symbol
_atom_site_label
_atom_site_fract_x
_atom_site_fract_y
_atom_site_fract_z
Si Si1 0.332576 0.094430 0.703736
Si Si2 0.348719 0.908154 0.981582
Si Si3 0.043712 0.149219 0.192815
Si Si4 0.007098 0.330401 0.137375
Si Si5 0.086792 0.908674 0.652194
Si Si6 0.205568 0.834441 0.950783
Si Si7 0.378384 0.590293 0.939996
Si Si8 0.657952 0.590860 0.493405
O O1 0.331981 0.115588 0.834661
O O2 0.409116 0.133109 0.731537
O O3 0.246617 0.118456 0.561377
O O4 0.338231 0.000000 0.703661
O O5 0.272030 0.891530 0.971305
O O6 0.367847 0.000000 0.002430
O O7 0.427180 0.860843 0.106763
O O8 0.105616 0.127943 0.162979
O O9 0.088639 0.138260 0.357510
O O10 0.012772 0.237259 0.145865
O O11 0.966835 0.094116 0.093465
O O12 0.000000 0.356452 0.000000
O O13 0.125756 0.850289 0.786330
O O14 0.146346 0.907842 0.612786
O O15 0.000000 0.891123 0.500000
O O16 0.083030 0.000000 0.690215
O O17 0.250000 0.750000 0.000000
O O18 0.179874 0.860063 0.045925
O O19 0.352850 0.500000 0.902651
O O20 0.649052 0.500000 0.448123
#
# Coordination Sequence:
#
# PCOD9183151 Si02
#       8
#     8   8   8   8   8   8   8   8
#     4   9  18  32  53  79 107 140 181 229 281 337
#     4  10  19  35  57  81 110 144 186 233 283 341
#     4  11  21  35  55  83 116 150 187 234 284 344
#     4  10  19  33  54  78 114 143 182 229 286 333
#     4  10  20  36  58  84 116 154 196 242 296 357
#     4  12  24  36  58  86 121 154 191 248 298 348
#     4  11  22  37  55  78 112 157 196 228 277 350
#     4  10  19  33  54  79 110 146 188 237 285 338
#
# _framework density 18.699693
#
# number of rings (size 3 to 8) (size 9 to 14) (size 15 to 20)
#    0.000    1.625    2.500    4.500    1.750    3.000 
#    0.000    0.000    0.000    0.000    0.000    0.000 
#    0.000    8.500    0.000    0.000    0.000    0.000 
#
# Total GULP energy -178515.504659 kJ/mol
# GULP energy per Si atom -5578.609521 kJ/mol
# Density = 1.865713 g / cm^3
# Si number density = 18.699693 Si / 1000 Ang^3
#
#
#
# Elastic Constant Matrix: (Units=GPa)
#
#
# Indices 1 2 3 4 5 6 
#
# 1 80.7456 19.6505 4.7389 0.0000 3.4719 0.0000
# 2 19.6505 60.3672 16.1354 0.0000 2.4976 0.0000
# 3 4.7389 16.1354 41.7943 0.0000 7.2879 0.0000
# 4 0.0000 0.0000 0.0000 93.5145 0.0000 9.4887
# 5 3.4719 2.4976 7.2879 0.0000 30.1138 0.0000
# 6 0.0000 0.0000 0.0000 9.4887 0.0000 27.8469
#
#
#
# Elastic Compliance Matrix: (Units=1/GPa)
#
#
# Indices 1 2 3 4 5 6 
#
# 1 0.013499 -0.004451 0.000412 0.000000 -0.001287 0.000000
# 2 -0.004451 0.019940 -0.007303 0.000000 0.000627 0.000000
# 3 0.000412 -0.007303 0.027774 0.000000 -0.006164 0.000000
# 4 0.000000 0.000000 0.000000 0.011076 0.000000 -0.003774
# 5 -0.001287 0.000627 -0.006164 0.000000 0.034795 0.000000
# 6 0.000000 0.000000 0.000000 -0.003774 0.000000 0.037197
#
#
# Mechanical properties :
#
#
# Convention : Reuss Voigt Hill
#
# Bulk Modulus (GPa) = 25.95387 29.32853 27.64120
# Shear Modulus (GPa) = 27.80734 39.78718 33.79726
#
# Velocity S-wave (km/s) = 3.86041 4.61769 4.25593
# Velocity P-wave (km/s) = 5.81204 6.64446 6.24214
#
# Compressibility (1/GPa) = 0.03852989
#
# Stress axis : x y z
#
# Youngs Moduli (GPa) = 74.07990 50.14992 36.00472
#
# Poissons Ratio (x) = 0.22322 -0.01484
# Poissons Ratio (y) = 0.32973 0.26294
# Poissons Ratio (z) = -0.03054 0.36624
#
# Static dielectric constant tensor:
#      x y z
#    x 1.673980 0.000000 0.017170 
#    y 0.000000 1.647390 0.000000 
#    z 0.017170 0.000000 1.662720 
# 
# From -- ./inp_files/168801.got.cif
#   From: 2010.05.17/outbox.cif.g08.bks.cpg/sg12_85_cif.got.tgz:168801.got - 2010.06.03 13:09:07.
