data_PCOD9183831
_publ_section_title
;
Structure prediction by ZEFSAII (Michael W. Deem and Ramdas Pophale) SiO2 
 PCOD9183831
Probable space group: C 2/M
;
_chemical_formula_sum "Si O2"
_cell_formula_units_Z 64
_cell_length_a 16.465020
_cell_length_b 7.709160
_cell_length_c 29.076095
_cell_angle_alpha 90.000000
_cell_angle_beta 137.547617
_cell_angle_gamma 90.000000
_cell_volume 2491.119330
_symmetry_space_group_name_H-M "C 2/M"
_symmetry_group_IT_number 12
_symmetry_cell_setting 'monoclinic'
loop_
_space_group_symop_operation_xyz
x,y,z
-x,y,-z
-x,-y,-z
x,-y,z
1/2+x,1/2+y,z
1/2-x,1/2+y,-z
1/2-x,1/2-y,-z
1/2+x,1/2-y,z
loop_
_atom_site_type_symbol
_atom_site_label
_atom_site_fract_x
_atom_site_fract_y
_atom_site_fract_z
Si Si1 0.022719 0.694228 0.953923
Si Si2 0.796292 0.702572 0.283179
Si Si3 0.210388 0.301485 0.921817
Si Si4 0.367342 0.209628 0.461107
Si Si5 0.056067 0.287347 0.410543
Si Si6 0.236788 0.288965 0.161073
Si Si7 0.387749 0.203383 0.667094
Si Si8 0.965212 0.295518 0.795022
O O1 0.011251 0.500000 0.931369
O O2 0.899412 0.781515 0.885799
O O3 0.162331 0.737377 0.005155
O O4 0.000000 0.695492 0.000000
O O5 0.783256 0.500000 0.287795
O O6 0.916385 0.764013 0.358670
O O7 0.816527 0.729676 0.237037
O O8 0.668690 0.785566 0.241207
O O9 0.208952 0.500000 0.935140
O O10 0.226252 0.282062 0.873061
O O11 0.076290 0.222173 0.871488
O O12 0.500000 0.258620 0.500000
O O13 0.363934 0.268549 0.513045
O O14 0.255705 0.281359 0.386159
O O15 0.359754 0.000000 0.455607
O O16 0.059083 0.500000 0.411555
O O17 0.091292 0.221927 0.374860
O O18 0.236939 0.500000 0.158195
O O19 0.455076 0.281144 0.739267
O O20 0.419259 0.000000 0.678301
O O21 0.992465 0.500000 0.802142
#
# Coordination Sequence:
#
# PCOD9183831 Si02
#       8
#     8   8   8   8   8   8   8   8
#     4   8  16  31  51  77 109 142 175 219 273 320
#     4  11  22  37  58  80 104 140 185 225 269 329
#     4  10  19  33  56  82 108 142 184 225 266 319
#     4  10  20  35  55  80 112 144 174 215 266 315
#     4   9  19  36  56  79 108 140 175 222 274 317
#     4  10  20  35  55  80 112 144 175 220 276 325
#     4  10  20  36  57  78 105 141 179 219 264 318
#     4  10  22  38  53  75 110 145 177 224 282 324
#
# _framework density 25.691261999999998
#
# number of rings (size 3 to 8) (size 9 to 14) (size 15 to 20)
#    0.000    2.250    0.000    3.750    0.000    7.500 
#    0.000    4.375    0.000    0.000    0.000    0.000 
#    0.000    0.000    0.000    0.000    0.000    0.000 
#
# Total GULP energy -178846.563038 kJ/mol
# GULP energy per Si atom -5588.955095 kJ/mol
# Density = 2.563279 g / cm^3
# Si number density = 25.691262 Si / 1000 Ang^3
#
#
#
# Elastic Constant Matrix: (Units=GPa)
#
#
# Indices 1 2 3 4 5 6 
#
# 1 85.2428 -3.1898 12.1280 0.0000 11.9827 0.0000
# 2 -3.1898 52.2582 -3.6868 0.0000 6.0628 0.0000
# 3 12.1280 -3.6868 147.4287 0.0000 9.1451 0.0000
# 4 0.0000 0.0000 0.0000 13.9928 0.0000 5.0223
# 5 11.9827 6.0628 9.1451 0.0000 48.3065 0.0000
# 6 0.0000 0.0000 0.0000 5.0223 0.0000 21.3330
#
#
#
# Elastic Compliance Matrix: (Units=1/GPa)
#
#
# Indices 1 2 3 4 5 6 
#
# 1 0.012310 0.001047 -0.000798 0.000000 -0.003034 0.000000
# 2 0.001047 0.019568 0.000578 0.000000 -0.002825 0.000000
# 3 -0.000798 0.000578 0.006937 0.000000 -0.001188 0.000000
# 4 0.000000 0.000000 0.000000 0.078061 0.000000 -0.018378
# 5 -0.003034 -0.002825 -0.001188 0.000000 0.022033 0.000000
# 6 0.000000 0.000000 0.000000 -0.018378 0.000000 0.051202
#
#
# Mechanical properties :
#
#
# Convention : Reuss Voigt Hill
#
# Bulk Modulus (GPa) = 24.70970 32.82583 28.76777
# Shear Modulus (GPa) = 24.75886 35.37168 30.06527
#
# Velocity S-wave (km/s) = 3.10773 3.71455 3.42461
# Velocity P-wave (km/s) = 4.74512 5.58587 5.18257
#
# Compressibility (1/GPa) = 0.04046993
#
# Stress axis : x y z
#
# Youngs Moduli (GPa) = 81.23179 51.10321 144.15959
#
# Poissons Ratio (x) = -0.05351 0.11508
# Poissons Ratio (y) = -0.08506 -0.08339
# Poissons Ratio (z) = 0.06485 -0.02956
#
# Static dielectric constant tensor:
#      x y z
#    x 2.133720 0.000000 0.003860 
#    y 0.000000 1.942850 0.000000 
#    z 0.003860 0.000000 2.004650 
# 
# From -- ./inp_files/378414.got.cif
#   From: 2010.05.17/outbox.cif.g08.bks.cpg/sg12_190_cif.got.tgz:378414.got - 2010.06.03 13:09:07.
