data_PCOD9183590
_publ_section_title
;
Structure prediction by ZEFSAII (Michael W. Deem and Ramdas Pophale) SiO2 
 PCOD9183590
Probable space group: C 2/M
;
_chemical_formula_sum "Si O2"
_cell_formula_units_Z 52
_cell_length_a 13.730980
_cell_length_b 17.579911
_cell_length_c 8.549733
_cell_angle_alpha 90.000000
_cell_angle_beta 74.406099
_cell_angle_gamma 90.000000
_cell_volume 1987.848394
_symmetry_space_group_name_H-M "C 2/M"
_symmetry_group_IT_number 12
_symmetry_cell_setting 'monoclinic'
loop_
_space_group_symop_operation_xyz
x,y,z
-x,y,-z
-x,-y,-z
x,-y,z
1/2+x,1/2+y,z
1/2-x,1/2+y,-z
1/2-x,1/2-y,-z
1/2+x,1/2-y,z
loop_
_atom_site_type_symbol
_atom_site_label
_atom_site_fract_x
_atom_site_fract_y
_atom_site_fract_z
Si Si1 0.500000 0.704806 0.500000
Si Si2 0.631544 0.581533 0.885983
Si Si3 0.836291 0.207659 0.340016
Si Si4 0.384508 0.417630 0.750695
Si Si5 0.338584 0.140991 0.170407
Si Si6 0.347083 0.092336 0.495083
Si Si7 0.875964 0.587086 0.825988
O O1 0.413345 0.742923 0.433103
O O2 0.565277 0.650191 0.361919
O O3 0.612758 0.500000 0.818962
O O4 0.601125 0.649794 0.791489
O O5 0.753196 0.588237 0.856590
O O6 0.589742 0.583126 0.077504
O O7 0.805483 0.273545 0.232763
O O8 0.750148 0.151931 0.451882
O O9 0.410677 0.500000 0.672234
O O10 0.263625 0.407806 0.795832
O O11 0.392920 0.106927 0.301716
O O12 0.391933 0.135691 0.977607
O O13 0.405549 0.107256 0.634211
O O14 0.322954 0.000000 0.511655
O O15 0.906027 0.500000 0.846351
#
# Coordination Sequence:
#
# PCOD9183590 Si02
#       7
#     4   8   8   8   8   8   8
#     4  12  25  36  50  76 121 154 192 232 265 346
#     4   8  17  35  54  76 111 147 186 232 279 335
#     4  11  23  36  52  80 113 154 190 230 280 339
#     4  10  21  36  59  85 110 147 192 235 281 336
#     4  11  20  35  56  83 115 149 189 235 288 335
#     4  10  19  33  55  82 112 142 180 233 285 330
#     4   8  16  30  52  83 109 135 179 232 283 335
#
# _framework density 26.158937000000002
#
# number of rings (size 3 to 8) (size 9 to 14) (size 15 to 20)
#    0.000    2.154    1.538    4.385    0.000    8.000 
#    0.000    1.538    0.000    0.000    0.000    4.846 
#    0.000    2.462    0.000    0.000    0.000    0.000 
#
# Total GULP energy -145215.866423 kJ/mol
# GULP energy per Si atom -5585.225632 kJ/mol
# Density = 2.609940 g / cm^3
# Si number density = 26.158937 Si / 1000 Ang^3
#
#
#
# Elastic Constant Matrix: (Units=GPa)
#
#
# Indices 1 2 3 4 5 6 
#
# 1 79.1245 18.9427 25.2882 0.0000 16.9873 0.0000
# 2 18.9427 109.6188 60.5016 0.0000 9.9376 0.0000
# 3 25.2882 60.5016 193.9684 0.0000 9.5341 0.0000
# 4 0.0000 0.0000 0.0000 44.3332 0.0000 3.5231
# 5 16.9873 9.9376 9.5341 0.0000 41.5798 0.0000
# 6 0.0000 0.0000 0.0000 3.5231 0.0000 12.8390
#
#
#
# Elastic Compliance Matrix: (Units=1/GPa)
#
#
# Indices 1 2 3 4 5 6 
#
# 1 0.014490 -0.001357 -0.001204 0.000000 -0.005319 0.000000
# 2 -0.001357 0.011292 -0.003277 0.000000 -0.001393 0.000000
# 3 -0.001204 -0.003277 0.006343 0.000000 -0.000179 0.000000
# 4 0.000000 0.000000 0.000000 0.023059 0.000000 -0.006328
# 5 -0.005319 -0.001393 -0.000179 0.000000 0.026597 0.000000
# 6 0.000000 0.000000 0.000000 -0.006328 0.000000 0.079624
#
#
# Mechanical properties :
#
#
# Convention : Reuss Voigt Hill
#
# Bulk Modulus (GPa) = 48.90184 65.79743 57.34964
# Shear Modulus (GPa) = 27.79349 38.28236 33.03792
#
# Velocity S-wave (km/s) = 3.26311 3.82966 3.55768
# Velocity P-wave (km/s) = 5.73864 6.69049 6.23276
#
# Compressibility (1/GPa) = 0.02044913
#
# Stress axis : x y z
#
# Youngs Moduli (GPa) = 69.01251 88.55985 157.64510
#
# Poissons Ratio (x) = 0.12018 0.18987
# Poissons Ratio (y) = 0.09365 0.51655
# Poissons Ratio (z) = 0.08312 0.29018
#
# Static dielectric constant tensor:
#      x y z
#    x 2.156510 0.000000 -0.006960 
#    y 0.000000 1.992320 0.000000 
#    z -0.006960 0.000000 2.086510 
# 
# From -- ./inp_files/75286.got.cif
#   From: 2010.05.17/outbox.cif.g08.bks.cpg/sg12_38_cif.got.tgz:75286.got - 2010.06.03 13:09:07.
