data_PCOD9183920
_publ_section_title
;
Structure prediction by ZEFSAII (Michael W. Deem and Ramdas Pophale) SiO2 
 PCOD9183920
Probable space group: C 2/M
;
_chemical_formula_sum "Si O2"
_cell_formula_units_Z 56
_cell_length_a 18.411099
_cell_length_b 8.647233
_cell_length_c 29.669856
_cell_angle_alpha 90.000000
_cell_angle_beta 140.736694
_cell_angle_gamma 90.000000
_cell_volume 2989.490788
_symmetry_space_group_name_H-M "C 2/M"
_symmetry_group_IT_number 12
_symmetry_cell_setting 'monoclinic'
loop_
_space_group_symop_operation_xyz
x,y,z
-x,y,-z
-x,-y,-z
x,-y,z
1/2+x,1/2+y,z
1/2-x,1/2+y,-z
1/2-x,1/2-y,-z
1/2+x,1/2-y,z
loop_
_atom_site_type_symbol
_atom_site_label
_atom_site_fract_x
_atom_site_fract_y
_atom_site_fract_z
Si Si1 0.368041 0.186559 0.426808
Si Si2 0.050038 0.683816 0.706591
Si Si3 0.212893 0.814804 0.707451
Si Si4 0.203654 0.185331 0.430661
Si Si5 0.669177 0.813958 0.000818
Si Si6 0.477219 0.187172 0.845186
Si Si7 0.361188 0.314126 0.156824
O O1 0.500000 0.227961 0.500000
O O2 0.323532 0.263678 0.359892
O O3 0.288521 0.230882 0.430778
O O4 0.362387 0.000000 0.418870
O O5 0.041241 0.500000 0.702269
O O6 0.128606 0.739397 0.703139
O O7 0.105143 0.740823 0.779761
O O8 0.923445 0.754179 0.640293
O O9 0.344720 0.767491 0.779798
O O10 0.205850 0.000000 0.708116
O O11 0.250000 0.250000 0.500000
O O12 0.201918 0.000000 0.432059
O O13 0.542095 0.769568 0.923113
O O14 0.673234 0.000000 0.002317
O O15 0.750000 0.750000 0.000000
O O16 0.734205 0.766302 0.077713
O O17 0.548182 0.260614 0.837915
O O18 0.483372 0.000000 0.843452
O O19 0.365140 0.500000 0.162469
#
# Coordination Sequence:
#
# PCOD9183920 Si02
#       7
#     8   8   8   8   8   8   8
#     4  10  22  40  61  86 116 148 180 219 272 331
#     4  12  25  40  57  78 112 154 193 236 283 330
#     4  11  23  38  58  83 111 145 188 236 283 336
#     4  11  23  40  64  92 121 151 186 227 272 328
#     4   8  15  29  51  79 110 143 180 226 279 337
#     4   9  18  34  56  83 113 145 183 229 286 346
#     4  10  19  33  56  84 112 145 188 234 280 335
#
# _framework density 18.732286999999999
#
# number of rings (size 3 to 8) (size 9 to 14) (size 15 to 20)
#    0.000    1.857    0.000    4.286    0.000    6.571 
#    0.000    0.714    0.000    4.286    0.000    0.000 
#    0.000    0.000    0.000    0.000    0.000    0.000 
#
# Total GULP energy -156337.002254 kJ/mol
# GULP energy per Si atom -5583.464366 kJ/mol
# Density = 1.868965 g / cm^3
# Si number density = 18.732287 Si / 1000 Ang^3
#
#
#
# Elastic Constant Matrix: (Units=GPa)
#
#
# Indices 1 2 3 4 5 6 
#
# 1 133.5228 47.9861 97.0336 0.0000 -3.9429 0.0000
# 2 47.9861 48.0502 52.1367 -0.0001 -2.0947 0.0001
# 3 97.0336 52.1367 209.5374 0.0000 -4.5806 0.0000
# 4 0.0000 -0.0001 0.0000 28.4370 0.0000 -6.1187
# 5 -3.9429 -2.0947 -4.5806 0.0000 32.4132 0.0000
# 6 0.0000 0.0001 0.0000 -6.1187 0.0000 24.2525
#
#
#
# Elastic Compliance Matrix: (Units=1/GPa)
#
#
# Indices 1 2 3 4 5 6 
#
# 1 0.013824 -0.009382 -0.004056 0.000000 0.000502 0.000000
# 2 -0.009382 0.034899 -0.004328 0.000000 0.000502 0.000000
# 3 -0.004056 -0.004328 0.007735 0.000000 0.000320 0.000000
# 4 0.000000 0.000000 0.000000 0.037184 0.000000 0.009381
# 5 0.000502 0.000502 0.000320 0.000000 0.030990 0.000000
# 6 0.000000 0.000000 0.000000 0.009381 0.000000 0.043600
#
#
# Mechanical properties :
#
#
# Convention : Reuss Voigt Hill
#
# Bulk Modulus (GPa) = 47.78968 87.26925 67.52946
# Shear Modulus (GPa) = 23.72608 29.95081 26.83844
#
# Velocity S-wave (km/s) = 3.56278 4.00295 3.78926
# Velocity P-wave (km/s) = 6.51857 8.24946 7.43456
#
# Compressibility (1/GPa) = 0.02092502
#
# Stress axis : x y z
#
# Youngs Moduli (GPa) = 72.33965 28.65407 129.29031
#
# Poissons Ratio (x) = 0.26884 0.52441
# Poissons Ratio (y) = 0.67871 0.55953
# Poissons Ratio (z) = 0.29341 0.12401
#
# Static dielectric constant tensor:
#      x y z
#    x 1.606130 0.000000 0.009050 
#    y 0.000000 1.629460 0.000000 
#    z 0.009050 0.000000 1.664390 
# 
# From -- ./inp_files/377778.got.cif
#   From: 2010.05.17/outbox.cif.g08.bks.cpg/sg12_189_cif.got.tgz:377778.got - 2010.06.03 13:09:07.
