data_PCOD9183531
_publ_section_title
;
Structure prediction by ZEFSAII (Michael W. Deem and Ramdas Pophale) SiO2 
 PCOD9183531
Probable space group: C 2/M
;
_chemical_formula_sum "Si O2"
_cell_formula_units_Z 56
_cell_length_a 12.549032
_cell_length_b 13.318197
_cell_length_c 17.706611
_cell_angle_alpha 90.000000
_cell_angle_beta 122.205918
_cell_angle_gamma 90.000000
_cell_volume 2503.988729
_symmetry_space_group_name_H-M "C 2/M"
_symmetry_group_IT_number 12
_symmetry_cell_setting 'monoclinic'
loop_
_space_group_symop_operation_xyz
x,y,z
-x,y,-z
-x,-y,-z
x,-y,z
1/2+x,1/2+y,z
1/2-x,1/2+y,-z
1/2-x,1/2-y,-z
1/2+x,1/2-y,z
loop_
_atom_site_type_symbol
_atom_site_label
_atom_site_fract_x
_atom_site_fract_y
_atom_site_fract_z
Si Si1 0.150569 0.670249 0.060415
Si Si2 0.816109 0.889815 0.978281
Si Si3 0.494082 0.391445 0.826005
Si Si4 0.802629 0.389972 0.306709
Si Si5 0.944622 0.827589 0.562309
Si Si6 0.859401 0.188383 0.243131
Si Si7 0.333975 0.112614 0.498642
O O1 0.217421 0.623087 0.011216
O O2 0.227338 0.639719 0.165372
O O3 0.184420 0.789158 0.069751
O O4 0.000000 0.654269 0.000000
O O5 0.953126 0.887312 0.070149
O O6 0.797275 0.000000 0.935967
O O7 0.540369 0.500000 0.813604
O O8 0.347612 0.389311 0.759979
O O9 0.559452 0.306053 0.802598
O O10 0.848543 0.500000 0.300250
O O11 0.843997 0.296521 0.273858
O O12 0.830552 0.376844 0.406287
O O13 0.809219 0.877788 0.525635
O O14 0.912036 0.707753 0.558431
O O15 0.000000 0.843586 0.500000
O O16 0.048421 0.864212 0.661576
O O17 0.380772 0.000000 0.533397
#
# Coordination Sequence:
#
# PCOD9183531 Si02
#       7
#     8   8   8   8   8   8   8
#     4  10  21  36  55  84 114 147 185 233 281 324
#     4   9  19  36  56  79 110 148 186 228 279 333
#     4   9  18  35  58  80 108 148 190 228 273 331
#     4  10  19  33  55  81 107 144 185 223 273 329
#     4  11  22  38  59  84 111 148 188 230 279 328
#     4  11  21  34  58  84 114 145 188 234 275 330
#     4  10  22  39  58  81 112 145 184 232 279 331
#
# _framework density 22.364317
#
# number of rings (size 3 to 8) (size 9 to 14) (size 15 to 20)
#    0.000    2.000    2.857    0.857    0.000    2.286 
#    0.000    0.000    0.000    0.857    0.000    0.000 
#    0.000    0.000    0.000    0.000    0.000    0.000 
#
# Total GULP energy -156327.347740 kJ/mol
# GULP energy per Si atom -5583.119562 kJ/mol
# Density = 2.231342 g / cm^3
# Si number density = 22.364317 Si / 1000 Ang^3
#
#
#
# Elastic Constant Matrix: (Units=GPa)
#
#
# Indices 1 2 3 4 5 6 
#
# 1 91.7561 24.2397 35.7189 0.0000 17.7951 0.0000
# 2 24.2397 67.7228 -5.5429 0.0000 0.4035 0.0000
# 3 35.7189 -5.5429 115.2925 0.0000 32.8759 0.0000
# 4 0.0000 0.0000 0.0000 17.2886 0.0000 -5.3104
# 5 17.7951 0.4035 32.8759 0.0000 39.3859 0.0000
# 6 0.0000 0.0000 0.0000 -5.3104 0.0000 19.3067
#
#
#
# Elastic Compliance Matrix: (Units=1/GPa)
#
#
# Indices 1 2 3 4 5 6 
#
# 1 0.014464 -0.005468 -0.003801 0.000000 -0.003306 0.000000
# 2 -0.005468 0.016921 0.002431 0.000000 0.000268 0.000000
# 3 -0.003801 0.002431 0.012449 0.000000 -0.008698 0.000000
# 4 0.000000 0.000000 0.000000 0.063180 0.000000 0.017378
# 5 -0.003306 0.000268 -0.008698 0.000000 0.034141 0.000000
# 6 0.000000 0.000000 0.000000 0.017378 0.000000 0.056575
#
#
# Mechanical properties :
#
#
# Convention : Reuss Voigt Hill
#
# Bulk Modulus (GPa) = 33.16051 42.62253 37.89152
# Shear Modulus (GPa) = 22.57757 29.88662 26.23210
#
# Velocity S-wave (km/s) = 3.18077 3.65958 3.42854
# Velocity P-wave (km/s) = 5.32441 6.07918 5.71427
#
# Compressibility (1/GPa) = 0.03015635
#
# Stress axis : x y z
#
# Youngs Moduli (GPa) = 69.13703 59.09892 80.33077
#
# Poissons Ratio (x) = 0.32318 0.30536
# Poissons Ratio (y) = 0.37807 -0.19531
# Poissons Ratio (z) = 0.26281 -0.14369
#
# Static dielectric constant tensor:
#      x y z
#    x 1.833140 0.000000 0.025810 
#    y 0.000000 1.876540 0.000000 
#    z 0.025810 0.000000 1.846900 
# 
# From -- ./inp_files/263411.got.cif
#   From: 2010.05.17/outbox.cif.g08.bks.cpg/sg12_132_cif.got.tgz:263411.got - 2010.06.03 13:09:07.
