data_PCOD9183518
_publ_section_title
;
Structure prediction by ZEFSAII (Michael W. Deem and Ramdas Pophale) SiO2 
 PCOD9183518
Probable space group: C 2/M
;
_chemical_formula_sum "Si O2"
_cell_formula_units_Z 56
_cell_length_a 9.379474
_cell_length_b 25.664207
_cell_length_c 14.079319
_cell_angle_alpha 90.000000
_cell_angle_beta 98.644231
_cell_angle_gamma 90.000000
_cell_volume 3350.629788
_symmetry_space_group_name_H-M "C 2/M"
_symmetry_group_IT_number 12
_symmetry_cell_setting 'monoclinic'
loop_
_space_group_symop_operation_xyz
x,y,z
-x,y,-z
-x,-y,-z
x,-y,z
1/2+x,1/2+y,z
1/2-x,1/2+y,-z
1/2-x,1/2-y,-z
1/2+x,1/2-y,z
loop_
_atom_site_type_symbol
_atom_site_label
_atom_site_fract_x
_atom_site_fract_y
_atom_site_fract_z
Si Si1 0.852089 0.000000 0.104599
Si Si2 0.122147 0.895786 0.779761
Si Si3 0.640717 0.060220 0.563480
Si Si4 0.725128 0.396508 0.231343
Si Si5 0.373573 0.440299 0.423020
Si Si6 0.643828 0.805661 0.884450
Si Si7 0.199037 0.000000 0.113173
Si Si8 0.694355 0.804154 0.111032
O O1 0.824747 0.947344 0.159383
O O2 0.024942 0.000000 0.105348
O O3 0.772118 0.000000 0.995912
O O4 0.150624 0.907137 0.672420
O O5 0.210768 0.847042 0.826409
O O6 0.948929 0.889760 0.777392
O O7 0.500000 0.083627 0.500000
O O8 0.708032 0.091457 0.658218
O O9 0.746161 0.056539 0.484657
O O10 0.611760 0.000000 0.592533
O O11 0.797667 0.348535 0.183299
O O12 0.751336 0.448244 0.170915
O O13 0.500000 0.417811 0.500000
O O14 0.414316 0.500000 0.397187
O O15 0.469742 0.800807 0.866767
O O16 0.723912 0.751013 0.872917
O O17 0.684714 0.818865 0.998058
#
# Coordination Sequence:
#
# PCOD9183518 Si02
#       8
#     4   8   8   8   8   8   4   8
#     4   9  18  30  47  82 114 150 183 221 276 335
#     4  11  20  33  57  85 115 150 190 233 282 334
#     4  10  21  35  53  80 115 154 196 235 280 334
#     4  11  20  34  57  83 115 153 188 232 283 334
#     4  10  19  33  55  80 113 151 195 239 273 328
#     4  10  22  40  61  84 112 147 190 238 280 340
#     4   9  18  30  49  77 118 149 183 223 272 339
#     4  10  22  40  61  85 111 146 192 235 285 336
#
# _framework density 16.713276
#
# number of rings (size 3 to 8) (size 9 to 14) (size 15 to 20)
#    0.000    1.857    2.857    1.714    2.000    2.857 
#    0.000    0.714    0.000    4.286    0.000    0.000 
#    0.000    0.000    0.000    0.000    0.000    0.000 
#
# Total GULP energy -156103.855186 kJ/mol
# GULP energy per Si atom -5575.137685 kJ/mol
# Density = 1.667524 g / cm^3
# Si number density = 16.713276 Si / 1000 Ang^3
#
#
#
# Elastic Constant Matrix: (Units=GPa)
#
#
# Indices 1 2 3 4 5 6 
#
# 1 91.0031 52.3490 66.1729 0.0000 14.5521 0.0000
# 2 52.3490 110.0667 84.8226 0.0000 7.8536 0.0000
# 3 66.1729 84.8226 146.1516 0.0000 9.1500 0.0000
# 4 0.0000 0.0000 0.0000 22.2263 0.0000 -2.2647
# 5 14.5521 7.8536 9.1500 0.0000 23.4504 0.0000
# 6 0.0000 0.0000 0.0000 -2.2647 0.0000 28.0504
#
#
#
# Elastic Compliance Matrix: (Units=1/GPa)
#
#
# Indices 1 2 3 4 5 6 
#
# 1 0.018655 -0.003939 -0.005656 0.000000 -0.008050 0.000000
# 2 -0.003939 0.017346 -0.008275 0.000000 -0.000136 0.000000
# 3 -0.005656 -0.008275 0.014158 0.000000 0.000757 0.000000
# 4 0.000000 0.000000 0.000000 0.045365 0.000000 0.003663
# 5 -0.008050 -0.000136 0.000757 0.000000 0.047389 0.000000
# 6 0.000000 0.000000 0.000000 0.003663 0.000000 0.035946
#
#
# Mechanical properties :
#
#
# Convention : Reuss Voigt Hill
#
# Bulk Modulus (GPa) = 69.35645 83.76783 76.56214
# Shear Modulus (GPa) = 22.78895 24.33722 23.56308
#
# Velocity S-wave (km/s) = 3.69660 3.82011 3.75886
# Velocity P-wave (km/s) = 7.73354 8.34787 8.04657
#
# Compressibility (1/GPa) = 0.01441827
#
# Stress axis : x y z
#
# Youngs Moduli (GPa) = 53.60588 57.65133 70.62997
#
# Poissons Ratio (x) = 0.22710 0.39949
# Poissons Ratio (y) = 0.21116 0.58446
# Poissons Ratio (z) = 0.30320 0.47706
#
# Static dielectric constant tensor:
#      x y z
#    x 1.538270 0.000000 0.019910 
#    y 0.000000 1.541490 0.000000 
#    z 0.019910 0.000000 1.543520 
# 
# From -- ./inp_files/197568.got.cif
#   From: 2010.05.17/outbox.cif.g08.bks.cpg/sg12_99_cif.got.tgz:197568.got - 2010.06.03 13:09:07.
