data_PCOD9183508
_publ_section_title
;
Structure prediction by ZEFSAII (Michael W. Deem and Ramdas Pophale) SiO2 
 PCOD9183508
Probable space group: C 2/M
;
_chemical_formula_sum "Si O2"
_cell_formula_units_Z 56
_cell_length_a 20.862357
_cell_length_b 12.835208
_cell_length_c 11.262769
_cell_angle_alpha 90.000000
_cell_angle_beta 66.704346
_cell_angle_gamma 90.000000
_cell_volume 2769.997988
_symmetry_space_group_name_H-M "C 2/M"
_symmetry_group_IT_number 12
_symmetry_cell_setting 'monoclinic'
loop_
_space_group_symop_operation_xyz
x,y,z
-x,y,-z
-x,-y,-z
x,-y,z
1/2+x,1/2+y,z
1/2-x,1/2+y,-z
1/2-x,1/2-y,-z
1/2+x,1/2-y,z
loop_
_atom_site_type_symbol
_atom_site_label
_atom_site_fract_x
_atom_site_fract_y
_atom_site_fract_z
Si Si1 0.451582 0.380189 0.150336
Si Si2 0.417195 0.118437 0.420186
Si Si3 0.801591 0.381319 0.063059
Si Si4 0.666014 0.262388 0.151590
Si Si5 0.516902 0.312751 0.354253
Si Si6 0.788961 0.379881 0.676491
Si Si7 0.173218 0.274070 0.714798
O O1 0.429552 0.500000 0.155765
O O2 0.486637 0.366611 0.256202
O O3 0.386226 0.303894 0.195150
O O4 0.500000 0.357859 0.000000
O O5 0.480309 0.198963 0.380888
O O6 0.368252 0.119845 0.571569
O O7 0.363042 0.161092 0.362168
O O8 0.439597 0.000000 0.380296
O O9 0.819112 0.500000 0.024372
O O10 0.721806 0.352966 0.087590
O O11 0.806196 0.355018 0.198295
O O12 0.850265 0.299908 0.956594
O O13 0.599119 0.303005 0.270317
O O14 0.706322 0.175222 0.199937
O O15 0.500000 0.356359 0.500000
O O16 0.764965 0.500000 0.694421
O O17 0.738378 0.302476 0.640076
#
# Coordination Sequence:
#
# PCOD9183508 Si02
#       7
#     8   8   8   8   8   8   8
#     4  10  22  40  61  85 116 157 202 243 291 351
#     4  10  21  35  55  82 113 152 190 231 291 353
#     4  10  21  37  59  85 115 152 196 243 292 345
#     4  10  21  37  57  85 118 153 193 241 292 348
#     4  11  22  39  61  87 124 156 192 244 296 351
#     4  10  19  33  55  80 109 148 193 237 286 346
#     4  10  20  36  57  81 112 146 192 244 292 336
#
# _framework density 20.216622000000001
#
# number of rings (size 3 to 8) (size 9 to 14) (size 15 to 20)
#    0.000    1.857    1.429    2.571    0.000    2.286 
#    0.000    3.571    0.000    4.714    0.000    0.000 
#    0.000    0.000    0.000    0.000    0.000    0.000 
#
# Total GULP energy -156118.957913 kJ/mol
# GULP energy per Si atom -5575.677068 kJ/mol
# Density = 2.017061 g / cm^3
# Si number density = 20.216622 Si / 1000 Ang^3
#
#
#
# Elastic Constant Matrix: (Units=GPa)
#
#
# Indices 1 2 3 4 5 6 
#
# 1 39.3353 -6.2944 16.0306 0.0000 1.0695 0.0000
# 2 -6.2944 44.4094 5.1610 0.0000 5.7716 0.0000
# 3 16.0306 5.1610 88.5755 0.0000 -7.6635 0.0000
# 4 0.0000 0.0000 0.0000 16.9662 0.0000 -4.1580
# 5 1.0695 5.7716 -7.6635 0.0000 30.1370 0.0000
# 6 0.0000 0.0000 0.0000 -4.1580 0.0000 11.7786
#
#
#
# Elastic Compliance Matrix: (Units=1/GPa)
#
#
# Indices 1 2 3 4 5 6 
#
# 1 0.028713 0.005197 -0.005801 0.000000 -0.003490 0.000000
# 2 0.005197 0.024307 -0.002838 0.000000 -0.005561 0.000000
# 3 -0.005801 -0.002838 0.012853 0.000000 0.004018 0.000000
# 4 0.000000 0.000000 0.000000 0.064523 0.000000 0.022778
# 5 -0.003490 -0.005561 0.004018 0.000000 0.035392 0.000000
# 6 0.000000 0.000000 0.000000 0.022778 0.000000 0.092941
#
#
# Mechanical properties :
#
#
# Convention : Reuss Voigt Hill
#
# Bulk Modulus (GPa) = 16.95233 22.45718 19.70475
# Shear Modulus (GPa) = 17.52688 22.27123 19.89905
#
# Velocity S-wave (km/s) = 2.94760 3.32268 3.14075
# Velocity P-wave (km/s) = 4.47080 5.08455 4.78752
#
# Compressibility (1/GPa) = 0.05898893
#
# Stress axis : x y z
#
# Youngs Moduli (GPa) = 34.82712 41.14039 77.80451
#
# Poissons Ratio (x) = -0.21382 0.45137
# Poissons Ratio (y) = -0.18101 0.22082
# Poissons Ratio (z) = 0.20204 0.11676
#
# Static dielectric constant tensor:
#      x y z
#    x 1.725960 0.000000 0.033180 
#    y 0.000000 1.684050 0.000000 
#    z 0.033180 0.000000 1.753290 
# 
# From -- ./inp_files/165597.got.cif
#   From: 2010.05.17/outbox.cif.g08.bks.cpg/sg12_83_cif.got.tgz:165597.got - 2010.06.03 13:09:07.
