data_PCOD9183795
_publ_section_title
;
Structure prediction by ZEFSAII (Michael W. Deem and Ramdas Pophale) SiO2 
 PCOD9183795
Probable space group: C 2/M
;
_chemical_formula_sum "Si O2"
_cell_formula_units_Z 56
_cell_length_a 35.098260
_cell_length_b 9.396719
_cell_length_c 11.270153
_cell_angle_alpha 90.000000
_cell_angle_beta 54.767744
_cell_angle_gamma 90.000000
_cell_volume 3036.114431
_symmetry_space_group_name_H-M "C 2/M"
_symmetry_group_IT_number 12
_symmetry_cell_setting 'monoclinic'
loop_
_space_group_symop_operation_xyz
x,y,z
-x,y,-z
-x,-y,-z
x,-y,z
1/2+x,1/2+y,z
1/2-x,1/2+y,-z
1/2-x,1/2-y,-z
1/2+x,1/2-y,z
loop_
_atom_site_type_symbol
_atom_site_label
_atom_site_fract_x
_atom_site_fract_y
_atom_site_fract_z
Si Si1 0.498113 0.830381 0.362498
Si Si2 0.733041 0.833076 0.228863
Si Si3 0.815446 0.333313 0.193029
Si Si4 0.841816 0.164018 0.775277
Si Si5 0.090080 0.835941 0.576326
Si Si6 0.334806 0.167381 0.422027
Si Si7 0.603419 0.166006 0.122977
O O1 0.500000 0.796897 0.500000
O O2 0.457026 0.745121 0.373391
O O3 0.548976 0.797590 0.217647
O O4 0.510588 0.000000 0.632276
O O5 0.781763 0.759082 0.171296
O O6 0.703846 0.751714 0.180676
O O7 0.702511 0.818379 0.404911
O O8 0.737593 0.000000 0.193896
O O9 0.801456 0.500000 0.209813
O O10 0.813997 0.288328 0.332730
O O11 0.868128 0.322002 0.050002
O O12 0.876637 0.167156 0.599713
O O13 0.869594 0.238537 0.830820
O O14 0.830470 0.000000 0.821773
O O15 0.119897 0.756639 0.623289
O O16 0.081239 0.000000 0.622514
O O17 0.346868 0.000000 0.391238
O O18 0.606186 0.000000 0.156855
#
# Coordination Sequence:
#
# PCOD9183795 Si02
#       7
#     8   8   8   8   8   8   8
#     4  10  19  33  56  81 106 138 175 215 261 314
#     4  10  20  34  56  81 105 137 178 219 262 311
#     4  10  21  37  55  77 107 141 177 218 262 310
#     4  10  20  34  53  79 109 139 174 218 265 311
#     4  10  20  33  54  83 109 135 173 222 266 306
#     4   9  19  36  57  79 105 139 178 218 259 309
#     4  10  21  36  54  78 108 141 176 214 262 318
#
# _framework density 18.444628000000002
#
# number of rings (size 3 to 8) (size 9 to 14) (size 15 to 20)
#    0.000    2.143    1.429    1.714    0.000    4.286 
#    0.000    0.714    0.000    4.286    0.000    0.000 
#    0.000    0.000    0.000    0.000    0.000    0.000 
#
# Total GULP energy -156348.781987 kJ/mol
# GULP energy per Si atom -5583.885071 kJ/mol
# Density = 1.840265 g / cm^3
# Si number density = 18.444628 Si / 1000 Ang^3
#
#
#
# Elastic Constant Matrix: (Units=GPa)
#
#
# Indices 1 2 3 4 5 6 
#
# 1 88.9374 49.0792 12.9349 0.0000 -28.3288 0.0000
# 2 49.0792 71.8733 21.1461 0.0000 -18.1536 0.0000
# 3 12.9349 21.1461 29.3817 0.0000 -17.7411 0.0000
# 4 0.0000 0.0000 0.0000 15.1700 0.0000 -3.0734
# 5 -28.3288 -18.1536 -17.7411 0.0000 24.9846 0.0000
# 6 0.0000 0.0000 0.0000 -3.0734 0.0000 33.7617
#
#
#
# Elastic Compliance Matrix: (Units=1/GPa)
#
#
# Indices 1 2 3 4 5 6 
#
# 1 0.028600 -0.016770 0.020484 0.000000 0.034789 0.000000
# 2 -0.016770 0.028140 -0.021016 0.000000 -0.013491 0.000000
# 3 0.020484 -0.021016 0.078681 0.000000 0.063826 0.000000
# 4 0.000000 0.000000 0.000000 0.067158 0.000000 0.006113
# 5 0.034789 -0.013491 0.063826 0.000000 0.114990 0.000000
# 6 0.000000 0.000000 0.000000 0.006113 0.000000 0.030176
#
#
# Mechanical properties :
#
#
# Convention : Reuss Voigt Hill
#
# Bulk Modulus (GPa) = 9.91876 39.61256 24.76566
# Shear Modulus (GPa) = 12.02058 21.91873 16.96966
#
# Velocity S-wave (km/s) = 2.55563 3.45099 3.03649
# Velocity P-wave (km/s) = 3.75468 6.11573 5.07444
#
# Compressibility (1/GPa) = 0.10081908
#
# Stress axis : x y z
#
# Youngs Moduli (GPa) = 34.96507 35.53625 12.70957
#
# Poissons Ratio (x) = 0.59593 -0.26035
# Poissons Ratio (y) = 0.58635 0.26710
# Poissons Ratio (z) = -0.71624 0.74682
#
# Static dielectric constant tensor:
#      x y z
#    x 1.587720 0.000000 -0.005870 
#    y 0.000000 1.621390 0.000000 
#    z -0.005870 0.000000 1.655210 
# 
# From -- ./inp_files/186444.got.cif
#   From: 2010.05.17/outbox.cif.g08.bks.cpg/sg12_94_cif.got.tgz:186444.got - 2010.06.03 13:09:07.
