data_PCOD9183670
_publ_section_title
;
Structure prediction by ZEFSAII (Michael W. Deem and Ramdas Pophale) SiO2 
 PCOD9183670
Probable space group: C 2/M
;
_chemical_formula_sum "Si O2"
_cell_formula_units_Z 56
_cell_length_a 27.636885
_cell_length_b 7.718378
_cell_length_c 12.250386
_cell_angle_alpha 90.000000
_cell_angle_beta 77.347441
_cell_angle_gamma 90.000000
_cell_volume 2549.696238
_symmetry_space_group_name_H-M "C 2/M"
_symmetry_group_IT_number 12
_symmetry_cell_setting 'monoclinic'
loop_
_space_group_symop_operation_xyz
x,y,z
-x,y,-z
-x,-y,-z
x,-y,z
1/2+x,1/2+y,z
1/2-x,1/2+y,-z
1/2-x,1/2-y,-z
1/2+x,1/2-y,z
loop_
_atom_site_type_symbol
_atom_site_label
_atom_site_fract_x
_atom_site_fract_y
_atom_site_fract_z
Si Si1 0.860642 0.700568 0.436934
Si Si2 0.648430 0.296316 0.801985
Si Si3 0.245535 0.209151 0.874931
Si Si4 0.837115 0.707076 0.685253
Si Si5 0.056665 0.788101 0.979564
Si Si6 0.431817 0.291270 0.782729
Si Si7 0.974766 0.791013 0.396157
O O1 0.846495 0.500000 0.438872
O O2 0.844388 0.779994 0.330534
O O3 0.839845 0.777229 0.560422
O O4 0.920300 0.714638 0.414290
O O5 0.646885 0.500000 0.828475
O O6 0.694506 0.223512 0.847372
O O7 0.595120 0.227153 0.868589
O O8 0.292380 0.274766 0.781806
O O9 0.245581 0.000000 0.865603
O O10 0.250000 0.250000 0.000000
O O11 0.831173 0.500000 0.678702
O O12 0.888862 0.736947 0.721645
O O13 0.054216 0.000000 0.975865
O O14 0.077317 0.738059 0.088431
O O15 0.000000 0.727485 0.000000
O O16 0.433006 0.500000 0.780223
O O17 0.485803 0.233040 0.714259
O O18 0.000000 0.752284 0.500000
O O19 0.969126 0.000000 0.390972
#
# Coordination Sequence:
#
# PCOD9183670 Si02
#       7
#     8   8   8   8   8   8   8
#     4  11  23  37  55  81 116 155 190 227 284 346
#     4  10  21  38  59  81 110 148 190 236 283 331
#     4  10  22  41  63  86 112 146 188 236 288 340
#     4  10  22  38  55  80 115 148 182 231 287 338
#     4   9  17  31  53  80 108 138 176 227 281 329
#     4  10  19  33  57  85 111 145 191 234 278 335
#     4  10  19  33  55  84 115 148 189 235 276 325
#
# _framework density 21.963401999999999
#
# number of rings (size 3 to 8) (size 9 to 14) (size 15 to 20)
#    0.000    2.000    1.429    2.143    0.000    6.571 
#    0.000    0.714    0.000    1.714    0.000    0.000 
#    0.000    0.000    0.000    0.000    0.000    0.000 
#
# Total GULP energy -156448.224450 kJ/mol
# GULP energy per Si atom -5587.436587 kJ/mol
# Density = 2.191341 g / cm^3
# Si number density = 21.963402 Si / 1000 Ang^3
#
#
#
# Elastic Constant Matrix: (Units=GPa)
#
#
# Indices 1 2 3 4 5 6 
#
# 1 113.8495 0.3243 75.2914 0.0000 -3.9944 0.0000
# 2 0.3243 26.6639 -0.0646 0.0000 -4.1110 0.0000
# 3 75.2914 -0.0646 181.1647 0.0000 -9.1781 0.0000
# 4 0.0000 0.0000 0.0000 -9.5187 0.0000 32.1539
# 5 -3.9944 -4.1110 -9.1781 0.0000 38.0841 0.0000
# 6 0.0000 0.0000 0.0000 32.1539 0.0000 -17.0752
#
#
#
# Elastic Compliance Matrix: (Units=1/GPa)
#
#
# Indices 1 2 3 4 5 6 
#
# 1 0.012113 -0.000153 -0.005032 0.000000 0.000041 0.000000
# 2 -0.000153 0.038150 0.000289 0.000000 0.004172 0.000000
# 3 -0.005032 0.000289 0.007680 0.000000 0.001354 0.000000
# 4 0.000000 0.000000 0.000000 0.019597 0.000000 0.036902
# 5 0.000041 0.004172 0.001354 0.000000 0.027039 0.000000
# 6 0.000000 0.000000 0.000000 0.036902 0.000000 0.010924
#
#
# Mechanical properties :
#
#
# Convention : Reuss Voigt Hill
#
# Bulk Modulus (GPa) = 20.76873 52.53114 36.64993
# Shear Modulus (GPa) = 35.37429 18.70651 27.04040
#
# Velocity S-wave (km/s) = 4.01758 2.92158 3.51259
# Velocity P-wave (km/s) = 5.56758 5.94561 5.75970
#
# Compressibility (1/GPa) = 0.04814931
#
# Stress axis : x y z
#
# Youngs Moduli (GPa) = 82.55362 26.21256 130.20970
#
# Poissons Ratio (x) = 0.00401 0.65524
# Poissons Ratio (y) = 0.01264 -0.03758
# Poissons Ratio (z) = 0.41543 -0.00756
#
# Static dielectric constant tensor:
#      x y z
#    x 1.771930 0.000000 -0.021460 
#    y 0.000000 1.826190 0.000000 
#    z -0.021460 0.000000 1.804300 
# 
# From -- ./inp_files/180786.got.cif
#   From: 2010.05.17/outbox.cif.g08.bks.cpg/sg12_91_cif.got.tgz:180786.got - 2010.06.03 13:09:07.
