data_PCOD9183293
_publ_section_title
;
Structure prediction by ZEFSAII (Michael W. Deem and Ramdas Pophale) SiO2 
 PCOD9183293
Probable space group: C 2/M
;
_chemical_formula_sum "Si O2"
_cell_formula_units_Z 58
_cell_length_a 19.945245
_cell_length_b 7.394731
_cell_length_c 19.473206
_cell_angle_alpha 90.000000
_cell_angle_beta 110.373526
_cell_angle_gamma 90.000000
_cell_volume 2692.427769
_symmetry_space_group_name_H-M "C 2/M"
_symmetry_group_IT_number 12
_symmetry_cell_setting 'monoclinic'
loop_
_space_group_symop_operation_xyz
x,y,z
-x,y,-z
-x,-y,-z
x,-y,z
1/2+x,1/2+y,z
1/2-x,1/2+y,-z
1/2-x,1/2-y,-z
1/2+x,1/2-y,z
loop_
_atom_site_type_symbol
_atom_site_label
_atom_site_fract_x
_atom_site_fract_y
_atom_site_fract_z
Si Si1 0.518459 0.218053 0.082440
Si Si2 0.815325 0.281937 0.236980
Si Si3 0.424480 0.206848 0.677893
Si Si4 0.908553 0.283808 0.405398
Si Si5 0.341454 0.287708 0.784149
Si Si6 0.666397 0.215639 0.480699
Si Si7 0.000000 0.000000 0.500000
Si Si8 0.059996 0.721771 0.809716
O O1 0.597545 0.266435 0.136777
O O2 0.464418 0.279132 0.123305
O O3 0.514922 0.000000 0.079921
O O4 0.500000 0.284451 0.000000
O O5 0.810217 0.500000 0.228689
O O6 0.861646 0.247225 0.321693
O O7 0.734904 0.214954 0.218522
O O8 0.862986 0.219212 0.189952
O O9 0.371728 0.203824 0.724900
O O10 0.380830 0.288736 0.599103
O O11 0.498307 0.283565 0.734333
O O12 0.441999 0.000000 0.664538
O O13 0.923106 0.500000 0.413260
O O14 0.863170 0.222398 0.456405
O O15 0.977813 0.160526 0.436415
O O16 0.333029 0.500000 0.765639
O O17 0.750000 0.250000 0.500000
O O18 0.658685 0.000000 0.478544
O O19 0.058261 0.500000 0.808492
#
# Coordination Sequence:
#
# PCOD9183293 Si02
#       8
#     8   8   8   8   8   8   2   8
#     4   9  18  35  58  82 108 139 175 215 261 320
#     4   9  18  34  56  77 107 146 182 222 277 336
#     4   9  18  33  53  74  99 138 185 224 270 326
#     4  10  23  41  57  79 115 154 194 247 300 346
#     4  10  19  33  54  82 108 140 177 220 276 331
#     4  10  21  35  54  77 107 145 188 241 294 342
#     4  12  26  40  56  86 108 152 210 238 296 358
#     4   8  15  30  54  78  97 133 181 215 254 320
#
# _framework density 21.541895
#
# number of rings (size 3 to 8) (size 9 to 14) (size 15 to 20)
#    0.000    2.621    0.000    2.276    2.897    1.931 
#    2.483    0.690    0.000    0.000    0.000    0.000 
#    0.000    0.000    0.000    0.000    0.000    0.000 
#
# Total GULP energy -161712.326872 kJ/mol
# GULP energy per Si atom -5576.287134 kJ/mol
# Density = 2.149286 g / cm^3
# Si number density = 21.541895 Si / 1000 Ang^3
#
#
#
# Elastic Constant Matrix: (Units=GPa)
#
#
# Indices 1 2 3 4 5 6 
#
# 1 154.1471 -3.2202 52.3096 0.0000 -10.8888 0.0000
# 2 -3.2202 85.0857 8.2100 0.0000 2.0236 0.0000
# 3 52.3096 8.2100 99.9188 0.0000 -11.1303 0.0000
# 4 0.0000 0.0000 0.0000 5.5419 0.0000 10.8551
# 5 -10.8888 2.0236 -11.1303 0.0000 16.2906 0.0000
# 6 0.0000 0.0000 0.0000 10.8551 0.0000 11.5713
#
#
#
# Elastic Compliance Matrix: (Units=1/GPa)
#
#
# Indices 1 2 3 4 5 6 
#
# 1 0.008029 0.000625 -0.003967 0.000000 0.002578 0.000000
# 2 0.000625 0.011977 -0.001548 0.000000 -0.002128 0.000000
# 3 -0.003967 -0.001548 0.012922 0.000000 0.006369 0.000000
# 4 0.000000 0.000000 0.000000 -0.215456 0.000000 0.202120
# 5 0.002578 -0.002128 0.006369 0.000000 0.067724 0.000000
# 6 0.000000 0.000000 0.000000 0.202120 0.000000 -0.103189
#
#
# Mechanical properties :
#
#
# Convention : Reuss Voigt Hill
#
# Bulk Modulus (GPa) = 43.20375 50.41671 46.81023
# Shear Modulus (GPa) = -24.93807 25.47091 0.26642
#
# Velocity S-wave (km/s) = -3.40612 3.44232 0.35206
# Velocity P-wave (km/s) = 2.15182 6.26532 4.68426
#
# Compressibility (1/GPa) = 0.02314614
#
# Stress axis : x y z
#
# Youngs Moduli (GPa) = 124.55101 83.49659 77.38814
#
# Poissons Ratio (x) = -0.05222 0.30703
# Poissons Ratio (y) = -0.07789 0.11983
# Poissons Ratio (z) = 0.49415 0.12929
#
# Static dielectric constant tensor:
#      x y z
#    x 1.860750 0.000000 -0.049020 
#    y 0.000000 1.837120 0.000000 
#    z -0.049020 0.000000 1.770120 
# 
# From -- ./inp_files/281546.got.cif
#   From: 2010.05.17/outbox.cif.g08.bks.cpg/sg12_141_cif.got.tgz:281546.got - 2010.06.03 13:09:07.
