data_PCOD9183008
_publ_section_title
;
Structure prediction by ZEFSAII (Michael W. Deem and Ramdas Pophale) SiO2 
 PCOD9183008
Probable space group: C 2/M
;
_chemical_formula_sum "Si O2"
_cell_formula_units_Z 56
_cell_length_a 11.633142
_cell_length_b 22.922727
_cell_length_c 29.833666
_cell_angle_alpha 90.000000
_cell_angle_beta 158.811759
_cell_angle_gamma 90.000000
_cell_volume 2875.398223
_symmetry_space_group_name_H-M "C 2/M"
_symmetry_group_IT_number 12
_symmetry_cell_setting 'monoclinic'
loop_
_space_group_symop_operation_xyz
x,y,z
-x,y,-z
-x,-y,-z
x,-y,z
1/2+x,1/2+y,z
1/2-x,1/2+y,-z
1/2-x,1/2-y,-z
1/2+x,1/2-y,z
loop_
_atom_site_type_symbol
_atom_site_label
_atom_site_fract_x
_atom_site_fract_y
_atom_site_fract_z
Si Si1 0.694229 0.931598 0.690280
Si Si2 0.358327 0.865534 0.751336
Si Si3 0.195507 0.640651 0.117518
Si Si4 0.061257 0.434257 0.742374
Si Si5 0.178495 0.883863 0.000318
Si Si6 0.271268 0.566524 0.561214
Si Si7 0.786176 0.228351 0.878278
O O1 0.594727 0.911397 0.703886
O O2 0.404401 0.929265 0.550307
O O3 0.981555 0.893672 0.774932
O O4 0.792663 0.000000 0.729923
O O5 0.353694 0.898836 0.702287
O O6 0.657398 0.884874 0.891274
O O7 0.451984 0.799636 0.772493
O O8 0.043110 0.884748 0.662338
O O9 0.251087 0.707233 0.154586
O O10 0.966029 0.611657 0.070279
O O11 0.000000 0.641413 0.000000
O O12 0.941993 0.500000 0.696502
O O13 0.413786 0.430984 0.892149
O O14 0.983572 0.821943 0.923485
O O15 0.402887 0.500000 0.613896
O O16 0.000000 0.573540 0.500000
O O17 0.000000 0.235945 0.000000
#
# Coordination Sequence:
#
# PCOD9183008 Si02
#       7
#     8   8   8   8   8   8   8
#     4  10  22  37  53  81 114 142 186 230 266 325
#     4  10  20  36  55  79 110 144 187 227 271 322
#     4  11  19  33  56  81 108 149 179 220 284 328
#     4  10  20  34  53  81 115 145 179 228 274 323
#     4  10  19  33  53  83 115 141 181 228 269 324
#     4  10  21  38  59  80 108 147 186 225 272 328
#     4   8  18  33  53  82 109 141 183 226 268 326
#
# _framework density 19.475563999999999
#
# number of rings (size 3 to 8) (size 9 to 14) (size 15 to 20)
#    0.000    2.143    1.429    3.000    0.000    3.143 
#    0.000    2.857    0.000    0.000    0.000    0.000 
#    0.000    0.000    0.000    0.000    0.000    0.000 
#
# Total GULP energy -156061.192704 kJ/mol
# GULP energy per Si atom -5573.614025 kJ/mol
# Density = 1.943124 g / cm^3
# Si number density = 19.475564 Si / 1000 Ang^3
#
#
#
# Elastic Constant Matrix: (Units=GPa)
#
#
# Indices 1 2 3 4 5 6 
#
# 1 78.2258 1.3144 6.1644 -0.0721 -1.2239 -0.0061
# 2 1.3144 42.8542 11.7495 -0.0494 12.2556 -0.0030
# 3 6.1644 11.7495 49.2285 -0.0869 6.3840 -0.0367
# 4 -0.0721 -0.0494 -0.0869 9.5818 -0.0326 0.2236
# 5 -1.2239 12.2556 6.3840 -0.0326 30.8136 0.0053
# 6 -0.0061 -0.0030 -0.0367 0.2236 0.0053 16.5826
#
#
#
# Elastic Compliance Matrix: (Units=1/GPa)
#
#
# Indices 1 2 3 4 5 6 
#
# 1 0.012935 -0.000203 -0.001694 0.000084 0.000945 0.000000
# 2 -0.000203 0.027621 -0.005283 0.000059 -0.009899 -0.000004
# 3 -0.001694 -0.005283 0.022117 0.000151 -0.002548 0.000046
# 4 0.000084 0.000059 0.000151 0.104400 0.000059 -0.001407
# 5 0.000945 -0.009899 -0.002548 0.000059 0.036956 -0.000020
# 6 0.000000 -0.000004 0.000046 -0.001407 -0.000020 0.060323
#
#
# Mechanical properties :
#
#
# Convention : Reuss Voigt Hill
#
# Bulk Modulus (GPa) = 20.69791 23.19612 21.94702
# Shear Modulus (GPa) = 16.95971 21.46760 19.21366
#
# Velocity S-wave (km/s) = 2.95417 3.32367 3.14435
# Velocity P-wave (km/s) = 4.72089 5.16384 4.94733
#
# Compressibility (1/GPa) = 0.04831405
#
# Stress axis : x y z
#
# Youngs Moduli (GPa) = 77.30810 36.20476 45.21362
#
# Poissons Ratio (x) = 0.00734 0.07659
# Poissons Ratio (y) = 0.01566 0.23887
# Poissons Ratio (z) = 0.13095 0.19127
#
# Static dielectric constant tensor:
#      x y z
#    x 1.708700 0.000000 0.004410 
#    y 0.000000 1.705560 -0.000020 
#    z 0.004410 -0.000020 1.665570 
# 
# From -- ./inp_files/136547.got.cif
#   From: 2010.05.17/outbox.cif.g08.bks.cpg/sg12_69_cif.got.tgz:136547.got - 2010.06.03 13:09:07.
