data_PCOD9183613
_publ_section_title
;
Structure prediction by ZEFSAII (Michael W. Deem and Ramdas Pophale) SiO2 
 PCOD9183613
Probable space group: C 2/M
;
_chemical_formula_sum "Si O2"
_cell_formula_units_Z 52
_cell_length_a 19.251979
_cell_length_b 13.354944
_cell_length_c 21.451015
_cell_angle_alpha 90.000000
_cell_angle_beta 147.902574
_cell_angle_gamma 90.000000
_cell_volume 2930.586753
_symmetry_space_group_name_H-M "C 2/M"
_symmetry_group_IT_number 12
_symmetry_cell_setting 'monoclinic'
loop_
_space_group_symop_operation_xyz
x,y,z
-x,y,-z
-x,-y,-z
x,-y,z
1/2+x,1/2+y,z
1/2-x,1/2+y,-z
1/2-x,1/2-y,-z
1/2+x,1/2-y,z
loop_
_atom_site_type_symbol
_atom_site_label
_atom_site_fract_x
_atom_site_fract_y
_atom_site_fract_z
Si Si1 0.835513 0.218767 0.164025
Si Si2 0.042772 0.500000 0.377595
Si Si3 0.754302 0.500000 0.207844
Si Si4 0.149251 0.220681 0.128195
Si Si5 0.183276 0.116640 0.976416
Si Si6 0.763731 0.500000 0.362922
Si Si7 0.605602 0.299564 0.233979
Si Si8 0.385520 0.791240 0.629611
O O1 0.747623 0.219293 0.158692
O O2 0.806860 0.134297 0.090605
O O3 0.988741 0.224999 0.295193
O O4 0.795306 0.320606 0.096118
O O5 0.112003 0.500000 0.497959
O O6 0.087943 0.401666 0.375425
O O7 0.887862 0.500000 0.270974
O O8 0.674958 0.601962 0.135523
O O9 0.789786 0.500000 0.308622
O O10 0.166600 0.235024 0.215227
O O11 0.000000 0.245382 0.000000
O O12 0.045250 0.167526 0.890726
O O13 0.183863 0.000000 0.992214
O O14 0.679329 0.400506 0.311574
O O15 0.615042 0.219578 0.296061
O O16 0.250000 0.750000 0.500000
#
# Coordination Sequence:
#
# PCOD9183613 Si02
#       8
#     8   4   4   8   8   4   8   8
#     4  10  22  36  55  87 112 153 189 231 282 340
#     4  12  21  37  59  80 112 153 197 241 279 333
#     4  10  22  32  50  90 118 148 178 230 296 345
#     4  11  20  34  56  83 122 151 182 223 288 352
#     4  10  20  35  58  83 117 146 189 234 281 337
#     4  10  19  33  55  82 116 148 186 229 289 347
#     4  10  20  35  56  86 115 151 185 230 285 346
#     4  11  23  39  56  81 115 151 195 238 282 328
#
# _framework density 17.743887000000001
#
# number of rings (size 3 to 8) (size 9 to 14) (size 15 to 20)
#    0.000    1.538    5.385    0.462    2.154    0.000 
#    0.000    0.769    1.692    0.462    0.000    1.077 
#    0.000    0.000    0.000    0.000    0.000    0.000 
#
# Total GULP energy -145165.986152 kJ/mol
# GULP energy per Si atom -5583.307160 kJ/mol
# Density = 1.770350 g / cm^3
# Si number density = 17.743887 Si / 1000 Ang^3
#
#
#
# Elastic Constant Matrix: (Units=GPa)
#
#
# Indices 1 2 3 4 5 6 
#
# 1 117.6391 11.3773 22.8566 0.0001 9.3676 0.0000
# 2 11.3773 32.6871 5.6429 0.0002 -1.1736 0.0000
# 3 22.8566 5.6429 93.2544 0.0004 15.7552 0.0000
# 4 0.0001 0.0002 0.0004 18.7937 0.0001 0.8791
# 5 9.3676 -1.1736 15.7552 0.0001 26.2908 0.0000
# 6 0.0000 0.0000 0.0000 0.8791 0.0000 23.9011
#
#
#
# Elastic Compliance Matrix: (Units=1/GPa)
#
#
# Indices 1 2 3 4 5 6 
#
# 1 0.009317 -0.003040 -0.001687 0.000000 -0.002445 0.000000
# 2 -0.003040 0.032092 -0.001805 0.000000 0.003597 0.000000
# 3 -0.001687 -0.001805 0.012415 0.000000 -0.006919 0.000000
# 4 0.000000 0.000000 0.000000 0.053301 0.000000 -0.001960
# 5 -0.002445 0.003597 -0.006919 0.000000 0.043214 0.000000
# 6 0.000000 0.000000 0.000000 -0.001960 0.000000 0.041911
#
#
# Mechanical properties :
#
#
# Convention : Reuss Voigt Hill
#
# Bulk Modulus (GPa) = 24.53260 35.92604 30.22932
# Shear Modulus (GPa) = 22.84158 27.37738 25.10948
#
# Velocity S-wave (km/s) = 3.59178 3.93226 3.76587
# Velocity P-wave (km/s) = 5.57289 6.39593 5.99854
#
# Compressibility (1/GPa) = 0.04076209
#
# Stress axis : x y z
#
# Youngs Moduli (GPa) = 107.33177 31.16065 80.54788
#
# Poissons Ratio (x) = 0.09471 0.13585
# Poissons Ratio (y) = 0.32624 0.14536
# Poissons Ratio (z) = 0.18103 0.05623
#
# Static dielectric constant tensor:
#      x y z
#    x 1.633830 0.000000 -0.013680 
#    y 0.000000 1.583060 0.000000 
#    z -0.013680 0.000000 1.626230 
# 
# From -- ./inp_files/155337.got.cif
#   From: 2010.05.17/outbox.cif.g08.bks.cpg/sg12_78_cif.got.tgz:155337.got - 2010.06.03 13:09:07.
