data_PCOD9183391
_publ_section_title
;
Structure prediction by ZEFSAII (Michael W. Deem and Ramdas Pophale) SiO2 
 PCOD9183391
Probable space group: C 2/M
;
_chemical_formula_sum "Si O2"
_cell_formula_units_Z 48
_cell_length_a 32.176151
_cell_length_b 7.807584
_cell_length_c 18.688379
_cell_angle_alpha 90.000000
_cell_angle_beta 30.680063
_cell_angle_gamma 90.000000
_cell_volume 2395.521264
_symmetry_space_group_name_H-M "C 2/M"
_symmetry_group_IT_number 12
_symmetry_cell_setting 'monoclinic'
loop_
_space_group_symop_operation_xyz
x,y,z
-x,y,-z
-x,-y,-z
x,-y,z
1/2+x,1/2+y,z
1/2-x,1/2+y,-z
1/2-x,1/2-y,-z
1/2+x,1/2-y,z
loop_
_atom_site_type_symbol
_atom_site_label
_atom_site_fract_x
_atom_site_fract_y
_atom_site_fract_z
Si Si1 0.164870 0.293223 0.588996
Si Si2 0.995814 0.290380 0.089108
Si Si3 0.746554 0.203885 0.087907
Si Si4 0.915777 0.290036 0.590889
Si Si5 0.834677 0.701496 0.095223
Si Si6 0.670483 0.202420 0.419445
O O1 0.159703 0.500000 0.594251
O O2 0.250000 0.250000 0.500000
O O3 0.086782 0.232251 0.749707
O O4 0.165239 0.225925 0.506951
O O5 0.994884 0.500000 0.091442
O O6 0.000000 0.237843 0.000000
O O7 0.077524 0.233541 0.009289
O O8 0.660431 0.263830 0.247789
O O9 0.815575 0.272086 0.039609
O O10 0.749193 0.000000 0.090579
O O11 0.750000 0.250000 0.000000
O O12 0.917080 0.500000 0.588140
O O13 0.894380 0.230214 0.542486
O O14 0.000000 0.231546 0.500000
O O15 0.832763 0.500000 0.112885
O O16 0.759553 0.777736 0.251772
O O17 0.655038 0.000000 0.448242
#
# Coordination Sequence:
#
# PCOD9183391 Si02
#       6
#     8   8   8   8   8   8
#     4  10  20  34  52  74 101 133 171 213 256 303
#     4   9  18  32  51  76 103 133 172 214 252 300
#     4  10  20  34  53  77 106 137 171 212 255 302
#     4   8  15  29  50  73  95 125 166 207 246 293
#     4  10  19  33  55  77 100 134 172 211 257 305
#     4   9  18  32  50  73 101 130 162 208 259 303
#
# _framework density 20.037392000000001
#
# number of rings (size 3 to 8) (size 9 to 14) (size 15 to 20)
#    0.000    2.667    0.000    3.000    0.000    3.333 
#    0.000    6.667    0.000   21.000    0.000    0.000 
#    0.000    0.000    0.000    0.000    0.000    0.000 
#
# Total GULP energy -133901.192533 kJ/mol
# GULP energy per Si atom -5579.216356 kJ/mol
# Density = 1.999179 g / cm^3
# Si number density = 20.037392 Si / 1000 Ang^3
#
#
#
# Elastic Constant Matrix: (Units=GPa)
#
#
# Indices 1 2 3 4 5 6 
#
# 1 231.7885 -0.1574 127.4170 0.0006 -4.2682 -0.0001
# 2 -0.1574 22.4497 -2.6556 -0.0012 -0.7010 -0.0031
# 3 127.4170 -2.6556 122.5833 -0.0045 -4.7154 0.0002
# 4 0.0006 -0.0012 -0.0045 10.9179 0.0016 -3.6802
# 5 -4.2682 -0.7010 -4.7154 0.0016 44.7245 -0.0003
# 6 -0.0001 -0.0031 0.0002 -3.6802 -0.0003 21.8957
#
#
#
# Elastic Compliance Matrix: (Units=1/GPa)
#
#
# Indices 1 2 3 4 5 6 
#
# 1 0.010098 -0.001180 -0.010528 -0.000005 -0.000165 -0.000001
# 2 -0.001180 0.044825 0.002229 0.000008 0.000825 0.000008
# 3 -0.010528 0.002229 0.019189 0.000009 0.001053 0.000002
# 4 -0.000005 0.000008 0.000009 0.097094 -0.000003 0.016319
# 5 -0.000165 0.000825 0.001053 -0.000003 0.022467 0.000000
# 6 -0.000001 0.000008 0.000002 0.016319 0.000000 0.048414
#
#
# Mechanical properties :
#
#
# Convention : Reuss Voigt Hill
#
# Bulk Modulus (GPa) = 18.13059 69.55884 43.84472
# Shear Modulus (GPa) = 17.89364 32.32213 25.10788
#
# Velocity S-wave (km/s) = 2.99157 4.02069 3.54369
# Velocity P-wave (km/s) = 4.58265 7.50629 6.21873
#
# Compressibility (1/GPa) = 0.05515540
#
# Stress axis : x y z
#
# Youngs Moduli (GPa) = 99.03264 22.30890 52.11205
#
# Poissons Ratio (x) = 0.02632 0.54862
# Poissons Ratio (y) = 0.11683 -0.11616
# Poissons Ratio (z) = 1.04259 -0.04973
#
# Static dielectric constant tensor:
#      x y z
#    x 1.732960 0.000000 0.019430 
#    y 0.000000 1.752570 0.000000 
#    z 0.019430 0.000000 1.686980 
# 
# From -- ./inp_files/274008.got.cif
#   From: 2010.05.17/outbox.cif.g08.bks.cpg/sg12_138_cif.got.tgz:274008.got - 2010.06.03 13:09:07.
