data_PCOD9183182
_publ_section_title
;
Structure prediction by ZEFSAII (Michael W. Deem and Ramdas Pophale) SiO2 
 PCOD9183182
Probable space group: C 2/M
;
_chemical_formula_sum "Si O2"
_cell_formula_units_Z 56
_cell_length_a 20.191979
_cell_length_b 9.884505
_cell_length_c 16.850095
_cell_angle_alpha 90.000000
_cell_angle_beta 64.782651
_cell_angle_gamma 90.000000
_cell_volume 3042.564801
_symmetry_space_group_name_H-M "C 2/M"
_symmetry_group_IT_number 12
_symmetry_cell_setting 'monoclinic'
loop_
_space_group_symop_operation_xyz
x,y,z
-x,y,-z
-x,-y,-z
x,-y,z
1/2+x,1/2+y,z
1/2-x,1/2+y,-z
1/2-x,1/2-y,-z
1/2+x,1/2-y,z
loop_
_atom_site_type_symbol
_atom_site_label
_atom_site_fract_x
_atom_site_fract_y
_atom_site_fract_z
Si Si1 0.581686 0.839716 0.294164
Si Si2 0.661670 0.849429 0.988276
Si Si3 0.585855 0.350088 0.436798
Si Si4 0.544575 0.339771 0.723893
Si Si5 0.267627 0.147655 0.876336
Si Si6 0.679742 0.657162 0.549164
Si Si7 0.528640 0.652792 0.075201
O O1 0.598155 0.771164 0.369995
O O2 0.516085 0.753808 0.287812
O O3 0.656305 0.825321 0.206242
O O4 0.564154 0.000000 0.307682
O O5 0.710994 0.862172 0.041907
O O6 0.591543 0.763479 0.049545
O O7 0.642260 0.000000 0.971205
O O8 0.707631 0.764111 0.900959
O O9 0.500000 0.350153 0.500000
O O10 0.603825 0.500000 0.393645
O O11 0.630345 0.334440 0.495157
O O12 0.532743 0.500000 0.709730
O O13 0.624988 0.305121 0.649420
O O14 0.531272 0.325914 0.825103
O O15 0.239215 0.000000 0.865077
O O16 0.701500 0.500000 0.548962
O O17 0.750000 0.750000 0.500000
O O18 0.558447 0.500000 0.072772
O O19 0.500000 0.659343 0.000000
#
# Coordination Sequence:
#
# PCOD9183182 Si02
#       7
#     8   8   8   8   8   8   8
#     4  11  21  34  57  89 118 144 188 246 293 339
#     4  10  19  33  54  79 108 143 184 231 281 333
#     4  10  20  38  61  86 119 154 193 239 290 357
#     4  10  20  38  62  83 110 154 198 236 293 359
#     4   9  19  34  51  77 112 145 180 226 281 339
#     4  10  22  41  63  86 117 158 199 244 295 353
#     4  10  21  37  58  82 111 150 195 240 288 347
#
# _framework density 18.405525000000001
#
# number of rings (size 3 to 8) (size 9 to 14) (size 15 to 20)
#    0.000    2.000    2.857    0.857    0.000    3.429 
#    2.571    0.000    0.000    0.000    0.000    0.000 
#    0.000    0.000    0.000    0.000    0.000    0.000 
#
# Total GULP energy -156095.256176 kJ/mol
# GULP energy per Si atom -5574.830578 kJ/mol
# Density = 1.836363 g / cm^3
# Si number density = 18.405525 Si / 1000 Ang^3
#
#
#
# Elastic Constant Matrix: (Units=GPa)
#
#
# Indices 1 2 3 4 5 6 
#
# 1 50.6722 45.9023 38.4370 -0.0001 -15.4697 0.0000
# 2 45.9023 128.5893 79.1601 -0.0003 -28.0956 0.0002
# 3 38.4370 79.1601 105.6687 0.0000 -23.2865 0.0000
# 4 -0.0001 -0.0003 0.0000-1317.3269 0.0000 745.4136
# 5 -15.4697 -28.0956 -23.2865 0.0000 29.2121 0.0000
# 6 0.0000 0.0002 0.0000 745.4136 0.0000 -404.4176
#
#
#
# Elastic Compliance Matrix: (Units=1/GPa)
#
#
# Indices 1 2 3 4 5 6 
#
# 1 0.031630 -0.006863 -0.005007 0.000000 0.006158 0.000000
# 2 -0.006863 0.016975 -0.009005 0.000000 0.005513 0.000000
# 3 -0.005007 -0.009005 0.018849 0.000000 0.003713 0.000000
# 4 0.000000 0.000000 0.000000 0.017667 0.000000 0.032563
# 5 0.006158 0.005513 0.003713 0.000000 0.045756 0.000000
# 6 0.000000 0.000000 0.000000 0.032563 0.000000 0.057547
#
#
# Mechanical properties :
#
#
# Convention : Reuss Voigt Hill
#
# Bulk Modulus (GPa) = 38.90520 67.99212 53.44866
# Shear Modulus (GPa) = 20.94324 -330.41109 -154.73393
#
# Velocity S-wave (km/s) = 3.37690 -13.41294 -9.17888
# Velocity P-wave (km/s) = 6.03227 14.24271 9.12322
#
# Compressibility (1/GPa) = 0.02570350
#
# Stress axis : x y z
#
# Youngs Moduli (GPa) = 31.61601 58.91160 53.05335
#
# Poissons Ratio (x) = 0.40431 0.26563
# Poissons Ratio (y) = 0.21698 0.47774
# Poissons Ratio (z) = 0.15830 0.53049
#
# Static dielectric constant tensor:
#      x y z
#    x 1.610900 0.000000 0.003080 
#    y 0.000000 1.666270 0.000000 
#    z 0.003080 0.000000 1.670850 
# 
# From -- ./inp_files/280979.got.cif
#   From: 2010.05.17/outbox.cif.g08.bks.cpg/sg12_141_cif.got.tgz:280979.got - 2010.06.03 13:09:07.
