data_PCOD9183339
_publ_section_title
;
Structure prediction by ZEFSAII (Michael W. Deem and Ramdas Pophale) SiO2 
 PCOD9183339
Probable space group: C 2/M
;
_chemical_formula_sum "Si O2"
_cell_formula_units_Z 56
_cell_length_a 21.035444
_cell_length_b 8.684325
_cell_length_c 30.770274
_cell_angle_alpha 90.000000
_cell_angle_beta 146.248405
_cell_angle_gamma 90.000000
_cell_volume 3123.030147
_symmetry_space_group_name_H-M "C 2/M"
_symmetry_group_IT_number 12
_symmetry_cell_setting 'monoclinic'
loop_
_space_group_symop_operation_xyz
x,y,z
-x,y,-z
-x,-y,-z
x,-y,z
1/2+x,1/2+y,z
1/2-x,1/2+y,-z
1/2-x,1/2-y,-z
1/2+x,1/2-y,z
loop_
_atom_site_type_symbol
_atom_site_label
_atom_site_fract_x
_atom_site_fract_y
_atom_site_fract_z
Si Si1 0.460863 0.815810 0.259159
Si Si2 0.588268 0.813585 0.669863
Si Si3 0.686719 0.315133 0.342626
Si Si4 0.917943 0.814777 0.071451
Si Si5 0.297765 0.683115 0.095252
Si Si6 0.931123 0.184574 0.504541
Si Si7 0.670832 0.312677 0.232639
O O1 0.440464 0.767888 0.297329
O O2 0.575907 0.743049 0.305110
O O3 0.356227 0.764041 0.169208
O O4 0.470754 0.000000 0.263495
O O5 0.498999 0.747198 0.584584
O O6 0.715871 0.763358 0.728342
O O7 0.584716 0.000000 0.665355
O O8 0.688989 0.500000 0.344641
O O9 0.803668 0.250630 0.428902
O O10 0.678738 0.264915 0.287557
O O11 0.871786 0.779644 0.093889
O O12 0.049458 0.763278 0.143791
O O13 0.912223 0.000000 0.063044
O O14 0.830165 0.738066 0.988253
O O15 0.301656 0.500000 0.103277
O O16 0.000000 0.231356 0.500000
O O17 0.926897 0.000000 0.503499
O O18 0.669049 0.500000 0.231540
#
# Coordination Sequence:
#
# PCOD9183339 Si02
#       7
#     8   8   8   8   8   8   8
#     4  11  23  38  57  85 119 151 188 236 288 339
#     4  10  22  40  61  83 112 154 194 232 283 342
#     4  11  21  37  63  86 111 151 193 235 280 337
#     4   9  17  32  55  84 111 141 188 241 281 325
#     4  10  19  33  54  83 115 150 188 229 285 343
#     4  11  23  38  58  89 120 146 184 238 291 335
#     4   9  17  34  59  85 108 141 194 237 274 332
#
# _framework density 17.931304000000001
#
# number of rings (size 3 to 8) (size 9 to 14) (size 15 to 20)
#    0.000    1.857    2.857    1.714    0.000    2.857 
#    0.000    1.429    0.000    4.286    0.000    0.000 
#    0.000    0.000    0.000    0.000    0.000    0.000 
#
# Total GULP energy -156362.985413 kJ/mol
# GULP energy per Si atom -5584.392336 kJ/mol
# Density = 1.789049 g / cm^3
# Si number density = 17.931304 Si / 1000 Ang^3
#
#
#
# Elastic Constant Matrix: (Units=GPa)
#
#
# Indices 1 2 3 4 5 6 
#
# 1 125.4395 30.5926 73.8133 0.0000 -1.2521 -0.0001
# 2 30.5926 25.2286 29.6467 -0.0001 -4.7281 -0.0001
# 3 73.8133 29.6467 157.7643 0.0000 7.5189 0.0000
# 4 0.0000 -0.0001 0.0000 24.8733 0.0000 -1.9644
# 5 -1.2521 -4.7281 7.5189 0.0000 30.6384 0.0000
# 6 -0.0001 -0.0001 0.0000 -1.9644 0.0000 20.9441
#
#
#
# Elastic Compliance Matrix: (Units=1/GPa)
#
#
# Indices 1 2 3 4 5 6 
#
# 1 0.013042 -0.011160 -0.003995 0.000000 -0.000209 0.000000
# 2 -0.011160 0.063861 -0.007313 0.000000 0.011193 0.000000
# 3 -0.003995 -0.007313 0.009758 0.000000 -0.003686 0.000000
# 4 0.000000 0.000000 0.000000 0.040504 0.000000 0.003799
# 5 -0.000209 0.011193 -0.003686 0.000000 0.035262 0.000000
# 6 0.000000 0.000000 0.000000 0.003799 0.000000 0.048102
#
#
# Mechanical properties :
#
#
# Convention : Reuss Voigt Hill
#
# Bulk Modulus (GPa) = 23.96593 64.05974 44.01284
# Shear Modulus (GPa) = 18.56156 26.91648 22.73902
#
# Velocity S-wave (km/s) = 3.22086 3.87859 3.56493
# Velocity P-wave (km/s) = 5.21789 7.47400 6.44542
#
# Compressibility (1/GPa) = 0.04172590
#
# Stress axis : x y z
#
# Youngs Moduli (GPa) = 76.67268 15.65895 102.48375
#
# Poissons Ratio (x) = 0.17475 0.40943
# Poissons Ratio (y) = 0.85566 0.74944
# Poissons Ratio (z) = 0.30631 0.11451
#
# Static dielectric constant tensor:
#      x y z
#    x 1.598560 0.000000 0.007650 
#    y 0.000000 1.604540 0.000000 
#    z 0.007650 0.000000 1.591570 
# 
# From -- ./inp_files/380761.got.cif
#   From: 2010.05.17/outbox.cif.g08.bks.cpg/sg12_191_cif.got.tgz:380761.got - 2010.06.03 13:09:07.
