data_PCOD9183057
_publ_section_title
;
Structure prediction by ZEFSAII (Michael W. Deem and Ramdas Pophale) SiO2 
 PCOD9183057
Probable space group: C 2/M
;
_chemical_formula_sum "Si O2"
_cell_formula_units_Z 56
_cell_length_a 21.291080
_cell_length_b 12.269820
_cell_length_c 12.111135
_cell_angle_alpha 90.000000
_cell_angle_beta 113.785893
_cell_angle_gamma 90.000000
_cell_volume 2895.141700
_symmetry_space_group_name_H-M "C 2/M"
_symmetry_group_IT_number 12
_symmetry_cell_setting 'monoclinic'
loop_
_space_group_symop_operation_xyz
x,y,z
-x,y,-z
-x,-y,-z
x,-y,z
1/2+x,1/2+y,z
1/2-x,1/2+y,-z
1/2-x,1/2-y,-z
1/2+x,1/2-y,z
loop_
_atom_site_type_symbol
_atom_site_label
_atom_site_fract_x
_atom_site_fract_y
_atom_site_fract_z
Si Si1 0.010510 0.381977 0.852431
Si Si2 0.246522 0.123616 0.627877
Si Si3 0.294232 0.628226 0.156518
Si Si4 0.545480 0.874876 0.425243
Si Si5 0.934248 0.828672 0.885890
Si Si6 0.144168 0.794375 0.376793
Si Si7 0.851035 0.270434 0.011841
O O1 0.986325 0.500000 0.870914
O O2 0.088228 0.357011 0.937299
O O3 0.003441 0.377106 0.715980
O O4 0.963552 0.289204 0.870502
O O5 0.205118 0.144824 0.711544
O O6 0.195569 0.135902 0.488229
O O7 0.307827 0.209753 0.657334
O O8 0.273821 0.000000 0.653555
O O9 0.303930 0.500000 0.140720
O O10 0.344926 0.702271 0.120569
O O11 0.219035 0.668427 0.064996
O O12 0.500000 0.849718 0.500000
O O13 0.600366 0.782941 0.429102
O O14 0.573687 0.000000 0.457512
O O15 0.901655 0.862305 0.744348
O O16 0.873915 0.812940 0.931690
O O17 0.000000 0.878184 0.000000
#
# Coordination Sequence:
#
# PCOD9183057 Si02
#       7
#     8   8   8   8   8   8   8
#     4   9  18  30  51  82 107 134 171 216 271 329
#     4  10  21  36  57  80 105 144 187 224 263 314
#     4  10  21  35  53  76 106 144 181 221 263 313
#     4   9  18  31  49  77 110 138 168 213 274 329
#     4   9  18  33  54  82 106 137 170 216 272 327
#     4  10  19  35  58  79 108 141 178 223 271 317
#     4  10  19  33  54  76 109 137 175 217 270 323
#
# _framework density 19.342749999999999
#
# number of rings (size 3 to 8) (size 9 to 14) (size 15 to 20)
#    0.000    2.429    1.429    0.857    2.000    3.714 
#    0.000    0.714    0.000   12.429    0.000    0.000 
#    0.000    0.000    0.000    0.000    0.000    0.000 
#
# Total GULP energy -155969.777974 kJ/mol
# GULP energy per Si atom -5570.349213 kJ/mol
# Density = 1.929872 g / cm^3
# Si number density = 19.342750 Si / 1000 Ang^3
#
#
#
# Elastic Constant Matrix: (Units=GPa)
#
#
# Indices 1 2 3 4 5 6 
#
# 1 44.2714 7.4487 13.7507 0.0000 -13.8095 0.0000
# 2 7.4487 53.1564 17.8937 0.0000 -10.1109 0.0000
# 3 13.7507 17.8937 100.5228 0.0000 -10.7960 0.0000
# 4 0.0000 0.0000 0.0000 9.9077 0.0000 0.4997
# 5 -13.8095 -10.1109 -10.7960 0.0000 41.0044 0.0000
# 6 0.0000 0.0000 0.0000 0.4997 0.0000 3.0080
#
#
#
# Elastic Compliance Matrix: (Units=1/GPa)
#
#
# Indices 1 2 3 4 5 6 
#
# 1 0.026010 -0.001328 -0.002486 0.000000 0.007777 0.000000
# 2 -0.001328 0.020777 -0.003102 0.000000 0.003859 0.000000
# 3 -0.002486 -0.003102 0.010979 0.000000 0.001288 0.000000
# 4 0.000000 0.000000 0.000000 0.101785 0.000000 -0.016910
# 5 0.007777 0.003859 0.001288 0.000000 0.028298 0.000000
# 6 0.000000 0.000000 0.000000 -0.016910 0.000000 0.335256
#
#
# Mechanical properties :
#
#
# Convention : Reuss Voigt Hill
#
# Bulk Modulus (GPa) = 22.76272 30.68188 26.72230
# Shear Modulus (GPa) = 9.06484 21.37450 15.21967
#
# Velocity S-wave (km/s) = 2.16716 3.32782 2.80811
# Velocity P-wave (km/s) = 4.24921 5.53737 4.93550
#
# Compressibility (1/GPa) = 0.04393149
#
# Stress axis : x y z
#
# Youngs Moduli (GPa) = 38.44728 48.13039 91.08580
#
# Poissons Ratio (x) = 0.06394 0.22645
# Poissons Ratio (y) = 0.05108 0.28257
# Poissons Ratio (z) = 0.09559 0.14931
#
# Static dielectric constant tensor:
#      x y z
#    x 1.657050 0.000000 0.003380 
#    y 0.000000 1.675900 0.000000 
#    z 0.003380 0.000000 1.726440 
# 
# From -- ./inp_files/165705.got.cif
#   From: 2010.05.17/outbox.cif.g08.bks.cpg/sg12_83_cif.got.tgz:165705.got - 2010.06.03 13:09:07.
