data_PCOD9183489
_publ_section_title
;
Structure prediction by ZEFSAII (Michael W. Deem and Ramdas Pophale) SiO2 
 PCOD9183489
Probable space group: C 2/M
;
_chemical_formula_sum "Si O2"
_cell_formula_units_Z 48
_cell_length_a 15.591064
_cell_length_b 7.309499
_cell_length_c 16.571493
_cell_angle_alpha 90.000000
_cell_angle_beta 99.160123
_cell_angle_gamma 90.000000
_cell_volume 1864.450931
_symmetry_space_group_name_H-M "C 2/M"
_symmetry_group_IT_number 12
_symmetry_cell_setting 'monoclinic'
loop_
_space_group_symop_operation_xyz
x,y,z
-x,y,-z
-x,-y,-z
x,-y,z
1/2+x,1/2+y,z
1/2-x,1/2+y,-z
1/2-x,1/2-y,-z
1/2+x,1/2-y,z
loop_
_atom_site_type_symbol
_atom_site_label
_atom_site_fract_x
_atom_site_fract_y
_atom_site_fract_z
Si Si1 0.053235 0.782705 0.431969
Si Si2 0.224085 0.793018 0.377604
Si Si3 0.928090 0.278216 0.148644
Si Si4 0.843175 0.716591 0.975864
Si Si5 0.115647 0.719079 0.689094
Si Si6 0.628299 0.220786 0.198971
O O1 0.149145 0.710695 0.423839
O O2 0.000000 0.706544 0.500000
O O3 0.983397 0.756001 0.350385
O O4 0.063987 0.000000 0.445109
O O5 0.317397 0.708306 0.368552
O O6 0.178322 0.798757 0.282779
O O7 0.239331 0.000000 0.408868
O O8 0.920060 0.500000 0.144944
O O9 0.906429 0.211973 0.055613
O O10 0.870677 0.215365 0.216692
O O11 0.026681 0.235086 0.184426
O O12 0.862054 0.500000 0.970511
O O13 0.750000 0.750000 0.000000
O O14 0.842353 0.786622 0.884810
O O15 0.127269 0.500000 0.691468
O O16 0.637822 0.000000 0.206353
#
# Coordination Sequence:
#
# PCOD9183489 Si02
#       6
#     8   8   8   8   8   8
#     4  10  22  40  59  82 115 148 178 223 284 340
#     4  10  21  37  58  84 114 147 183 229 282 329
#     4   9  17  32  53  76 105 141 182 226 271 318
#     4  10  20  33  50  75 108 145 186 230 272 319
#     4  10  20  36  59  84 110 145 188 228 271 329
#     4  10  19  33  55  80 106 144 192 231 269 325
#
# _framework density 25.744844000000001
#
# number of rings (size 3 to 8) (size 9 to 14) (size 15 to 20)
#    0.000    2.167    1.667    1.500    0.000    5.667 
#    0.000    1.667    0.000    2.000    0.000    0.000 
#    0.000    0.000    0.000    0.000    0.000    0.000 
#
# Total GULP energy -134152.580430 kJ/mol
# GULP energy per Si atom -5589.690851 kJ/mol
# Density = 2.568625 g / cm^3
# Si number density = 25.744844 Si / 1000 Ang^3
#
#
#
# Elastic Constant Matrix: (Units=GPa)
#
#
# Indices 1 2 3 4 5 6 
#
# 1 93.9148 5.0725 10.9763 0.0000 -34.0184 0.0000
# 2 5.0725 114.0054 2.4489 0.0000 -4.8875 0.0000
# 3 10.9763 2.4489 128.9280 0.0000 -29.9665 0.0000
# 4 0.0000 0.0000 0.0000 -2.2176 0.0000 6.6526
# 5 -34.0184 -4.8875 -29.9665 0.0000 59.5709 0.0000
# 6 0.0000 0.0000 0.0000 6.6526 0.0000 9.5346
#
#
#
# Elastic Compliance Matrix: (Units=1/GPa)
#
#
# Indices 1 2 3 4 5 6 
#
# 1 0.013493 -0.000271 0.000727 0.000000 0.008049 0.000000
# 2 -0.000271 0.008808 -0.000014 0.000000 0.000561 0.000000
# 3 0.000727 -0.000014 0.008822 0.000000 0.004852 0.000000
# 4 0.000000 0.000000 0.000000 -0.145788 0.000000 0.101721
# 5 0.008049 0.000561 0.004852 0.000000 0.023870 0.000000
# 6 0.000000 0.000000 0.000000 0.101721 0.000000 0.033908
#
#
# Mechanical properties :
#
#
# Convention : Reuss Voigt Hill
#
# Bulk Modulus (GPa) = 31.24191 41.53819 36.39005
# Shear Modulus (GPa) = -106.15083 34.60094 -35.77495
#
# Velocity S-wave (km/s) = -6.42817 3.67003 -3.73177
# Velocity P-wave (km/s) = 6.55238 5.84195 2.09824
#
# Compressibility (1/GPa) = 0.03200829
#
# Stress axis : x y z
#
# Youngs Moduli (GPa) = 74.11191 113.53425 113.34785
#
# Poissons Ratio (x) = 0.03076 -0.08243
# Poissons Ratio (y) = 0.02008 0.00157
# Poissons Ratio (z) = -0.05389 0.00157
#
# Static dielectric constant tensor:
#      x y z
#    x 2.016070 0.000000 -0.016550 
#    y 0.000000 1.971140 0.000000 
#    z -0.016550 0.000000 2.082410 
# 
# From -- ./inp_files/212641.got.cif
#   From: 2010.05.17/outbox.cif.g08.bks.cpg/sg12_107_cif.got.tgz:212641.got - 2010.06.03 13:09:07.
