data_PCOD9183017
_publ_section_title
;
Structure prediction by ZEFSAII (Michael W. Deem and Ramdas Pophale) SiO2 
 PCOD9183017
Probable space group: C 2/M
;
_chemical_formula_sum "Si O2"
_cell_formula_units_Z 56
_cell_length_a 8.846735
_cell_length_b 20.327559
_cell_length_c 19.862449
_cell_angle_alpha 90.000000
_cell_angle_beta 120.152650
_cell_angle_gamma 90.000000
_cell_volume 3088.599418
_symmetry_space_group_name_H-M "C 2/M"
_symmetry_group_IT_number 12
_symmetry_cell_setting 'monoclinic'
loop_
_space_group_symop_operation_xyz
x,y,z
-x,y,-z
-x,-y,-z
x,-y,z
1/2+x,1/2+y,z
1/2-x,1/2+y,-z
1/2-x,1/2-y,-z
1/2+x,1/2-y,z
loop_
_atom_site_type_symbol
_atom_site_label
_atom_site_fract_x
_atom_site_fract_y
_atom_site_fract_z
Si Si1 0.209768 0.925521 0.051255
Si Si2 0.798864 0.314260 0.968165
Si Si3 0.902765 0.340204 0.198644
Si Si4 0.979193 0.189741 0.369676
Si Si5 0.244545 0.296441 0.190260
Si Si6 0.867070 0.668817 0.620548
Si Si7 0.335847 0.424227 0.515745
O O1 0.295068 0.897531 0.138700
O O2 0.266950 0.000000 0.054063
O O3 0.271933 0.877639 0.006847
O O4 0.000000 0.922871 0.000000
O O5 0.720017 0.323763 0.876261
O O6 0.750000 0.250000 0.000000
O O7 0.000000 0.303982 0.000000
O O8 0.766793 0.281551 0.183520
O O9 0.058221 0.315894 0.182047
O O10 0.001299 0.353983 0.290888
O O11 0.894646 0.184214 0.276753
O O12 0.816794 0.185803 0.384587
O O13 0.064987 0.262001 0.394253
O O14 0.104489 0.128525 0.414570
O O15 0.824459 0.611042 0.558673
O O16 0.500000 0.426894 0.500000
O O17 0.302817 0.500000 0.529126
#
# Coordination Sequence:
#
# PCOD9183017 Si02
#       7
#     8   8   8   8   8   8   8
#     4  11  25  40  53  75 109 146 182 223 273 324
#     4  12  21  35  59  82 106 139 183 226 270 317
#     4  10  20  35  54  81 108 136 175 226 271 316
#     4   9  18  32  52  80 109 134 173 218 264 309
#     4  10  19  33  53  85 104 134 178 221 270 315
#     4   9  18  32  55  80 106 136 174 217 265 309
#     4   9  17  31  52  78 107 140 177 213 258 314
#
# _framework density 18.131195000000002
#
# number of rings (size 3 to 8) (size 9 to 14) (size 15 to 20)
#    0.000    2.000    2.857    0.857    2.000    0.857 
#    0.000    2.857    0.000    1.714    0.000    0.000 
#    0.000    0.000    0.000    0.000    0.000    0.000 
#
# Total GULP energy -156080.964273 kJ/mol
# GULP energy per Si atom -5574.320153 kJ/mol
# Density = 1.808993 g / cm^3
# Si number density = 18.131195 Si / 1000 Ang^3
#
#
#
# Elastic Constant Matrix: (Units=GPa)
#
#
# Indices 1 2 3 4 5 6 
#
# 1 31.0207 34.1189 10.4402 0.0000 3.6954 0.0000
# 2 34.1189 151.2116 66.2261 0.0000 8.0164 0.0000
# 3 10.4402 66.2261 67.1144 0.0000 5.9263 0.0000
# 4 0.0000 0.0000 0.0000 18.7382 0.0000 -3.3738
# 5 3.6954 8.0164 5.9263 0.0000 19.1934 0.0000
# 6 0.0000 0.0000 0.0000 -3.3738 0.0000 17.5514
#
#
#
# Elastic Compliance Matrix: (Units=1/GPa)
#
#
# Indices 1 2 3 4 5 6 
#
# 1 0.044372 -0.012177 0.005571 0.000000 -0.005177 0.000000
# 2 -0.012177 0.015023 -0.012935 0.000000 0.000064 0.000000
# 3 0.005571 -0.012935 0.027155 0.000000 -0.004055 0.000000
# 4 0.000000 0.000000 0.000000 0.055280 0.000000 0.010626
# 5 -0.005177 0.000064 -0.004055 0.000000 0.054323 0.000000
# 6 0.000000 0.000000 0.000000 0.010626 0.000000 0.059018
#
#
# Mechanical properties :
#
#
# Convention : Reuss Voigt Hill
#
# Bulk Modulus (GPa) = 21.06738 52.32411 36.69574
# Shear Modulus (GPa) = 16.12500 20.33403 18.22951
#
# Velocity S-wave (km/s) = 2.98543 3.35250 3.17428
# Velocity P-wave (km/s) = 4.85061 6.62623 5.80669
#
# Compressibility (1/GPa) = 0.04746675
#
# Stress axis : x y z
#
# Youngs Moduli (GPa) = 22.53671 66.56547 36.82500
#
# Poissons Ratio (x) = 0.81060 -0.20515
# Poissons Ratio (y) = 0.27444 0.47634
# Poissons Ratio (z) = -0.12555 0.86105
#
# Static dielectric constant tensor:
#      x y z
#    x 1.618770 0.000000 0.011760 
#    y 0.000000 1.606840 0.000000 
#    z 0.011760 0.000000 1.668480 
# 
# From -- ./inp_files/300906.got.cif
#   From: 2010.05.17/outbox.cif.g08.bks.cpg/sg12_151_cif.got.tgz:300906.got - 2010.06.03 13:09:07.
