data_PCOD9183575
_publ_section_title
;
Structure prediction by ZEFSAII (Michael W. Deem and Ramdas Pophale) SiO2 
 PCOD9183575
Probable space group: C 2/M
;
_chemical_formula_sum "Si O2"
_cell_formula_units_Z 56
_cell_length_a 15.460635
_cell_length_b 7.461799
_cell_length_c 25.572310
_cell_angle_alpha 90.000000
_cell_angle_beta 124.269573
_cell_angle_gamma 90.000000
_cell_volume 2437.978081
_symmetry_space_group_name_H-M "C 2/M"
_symmetry_group_IT_number 12
_symmetry_cell_setting 'monoclinic'
loop_
_space_group_symop_operation_xyz
x,y,z
-x,y,-z
-x,-y,-z
x,-y,z
1/2+x,1/2+y,z
1/2-x,1/2+y,-z
1/2-x,1/2-y,-z
1/2+x,1/2-y,z
loop_
_atom_site_type_symbol
_atom_site_label
_atom_site_fract_x
_atom_site_fract_y
_atom_site_fract_z
Si Si1 0.692521 0.705090 0.341690
Si Si2 0.384091 0.717044 0.481267
Si Si3 0.539045 0.217183 0.070916
Si Si4 0.654756 0.215046 0.927627
Si Si5 0.440909 0.285565 0.612330
Si Si6 0.821155 0.284482 0.291145
Si Si7 0.280716 0.207496 0.163162
O O1 0.661283 0.500000 0.319695
O O2 0.793923 0.706172 0.414099
O O3 0.602662 0.787663 0.347606
O O4 0.732875 0.785936 0.300978
O O5 0.500000 0.762171 0.500000
O O6 0.374665 0.500000 0.476134
O O7 0.380372 0.779077 0.540231
O O8 0.453232 0.279065 0.083595
O O9 0.655147 0.285775 0.119517
O O10 0.543304 0.000000 0.073583
O O11 0.500000 0.269788 0.000000
O O12 0.678850 0.286259 0.877855
O O13 0.647789 0.000000 0.921627
O O14 0.750000 0.250000 0.000000
O O15 0.425980 0.500000 0.608462
O O16 0.563563 0.251596 0.647762
O O17 0.807911 0.500000 0.284767
O O18 0.815359 0.212461 0.230264
O O19 0.314904 0.000000 0.175339
#
# Coordination Sequence:
#
# PCOD9183575 Si02
#       7
#     8   8   8   8   8   8   8
#     4  10  21  36  56  80 109 143 182 224 270 321
#     4  10  19  33  55  82 110 138 178 229 274 317
#     4  10  20  35  56  83 111 137 173 220 267 316
#     4  10  20  35  56  81 109 139 173 216 265 317
#     4  10  21  37  56  80 109 143 182 225 271 320
#     4  10  22  39  55  77 110 146 182 222 265 319
#     4  10  22  38  56  80 111 144 180 220 266 320
#
# _framework density 22.969854000000002
#
# number of rings (size 3 to 8) (size 9 to 14) (size 15 to 20)
#    0.000    2.000    2.857    0.429    0.000    4.000 
#    0.000    0.000    0.000    0.000    0.000    0.000 
#    0.000    0.000    0.000    0.000    0.000    0.000 
#
# Total GULP energy -156472.065372 kJ/mol
# GULP energy per Si atom -5588.288049 kJ/mol
# Density = 2.291757 g / cm^3
# Si number density = 22.969854 Si / 1000 Ang^3
#
#
#
# Elastic Constant Matrix: (Units=GPa)
#
#
# Indices 1 2 3 4 5 6 
#
# 1 134.3698 2.5731 15.0505 0.0000 -48.3295 0.0000
# 2 2.5731 71.9383 -4.3170 0.0000 -10.9376 0.0000
# 3 15.0505 -4.3170 87.7799 0.0000 -39.7213 0.0000
# 4 0.0000 0.0000 0.0000 15.5296 0.0000 18.7337
# 5 -48.3295 -10.9376 -39.7213 0.0000 46.3206 0.0000
# 6 0.0000 0.0000 0.0000 18.7337 0.0000 38.8140
#
#
#
# Elastic Compliance Matrix: (Units=1/GPa)
#
#
# Indices 1 2 3 4 5 6 
#
# 1 0.014860 0.003512 0.008197 0.000000 0.023362 0.000000
# 2 0.003512 0.016013 0.005809 0.000000 0.012427 0.000000
# 3 0.008197 0.005809 0.024124 0.000000 0.030611 0.000000
# 4 0.000000 0.000000 0.000000 0.154138 0.000000 -0.074395
# 5 0.023362 0.012427 0.030611 0.000000 0.075148 0.000000
# 6 0.000000 0.000000 0.000000 -0.074395 0.000000 0.061671
#
#
# Mechanical properties :
#
#
# Convention : Reuss Voigt Hill
#
# Bulk Modulus (GPa) = 11.10714 35.63349 23.37031
# Shear Modulus (GPa) = 14.66580 38.85160 26.75870
#
# Velocity S-wave (km/s) = 2.52956 4.11715 3.41684
# Velocity P-wave (km/s) = 3.65754 6.17641 5.07571
#
# Compressibility (1/GPa) = 0.09003218
#
# Stress axis : x y z
#
# Youngs Moduli (GPa) = 67.29644 62.44866 41.45225
#
# Poissons Ratio (x) = -0.21934 -0.33977
# Poissons Ratio (y) = -0.23637 -0.24078
# Poissons Ratio (z) = -0.55160 -0.36274
#
# Static dielectric constant tensor:
#      x y z
#    x 1.860800 0.000000 -0.059970 
#    y 0.000000 1.934770 0.000000 
#    z -0.059970 0.000000 1.832310 
# 
# From -- ./inp_files/308886.got.cif
#   From: 2010.05.17/outbox.cif.g08.bks.cpg/sg12_155_cif.got.tgz:308886.got - 2010.06.03 13:09:07.
