data_PCOD9183818
_publ_section_title
;
Structure prediction by ZEFSAII (Michael W. Deem and Ramdas Pophale) SiO2 
 PCOD9183818
Probable space group: C 2/M
;
_chemical_formula_sum "Si O2"
_cell_formula_units_Z 48
_cell_length_a 20.577870
_cell_length_b 7.510095
_cell_length_c 26.374777
_cell_angle_alpha 90.000000
_cell_angle_beta 149.553683
_cell_angle_gamma 90.000000
_cell_volume 2065.437148
_symmetry_space_group_name_H-M "C 2/M"
_symmetry_group_IT_number 12
_symmetry_cell_setting 'monoclinic'
loop_
_space_group_symop_operation_xyz
x,y,z
-x,y,-z
-x,-y,-z
x,-y,z
1/2+x,1/2+y,z
1/2-x,1/2+y,-z
1/2-x,1/2-y,-z
1/2+x,1/2-y,z
loop_
_atom_site_type_symbol
_atom_site_label
_atom_site_fract_x
_atom_site_fract_y
_atom_site_fract_z
Si Si1 0.461285 0.282388 0.030283
Si Si2 0.792528 0.288545 0.085783
Si Si3 0.202654 0.217565 0.257651
Si Si4 0.979192 0.204266 0.694328
Si Si5 0.235099 0.281602 0.586193
Si Si6 0.453936 0.795398 0.369484
O O1 0.459065 0.500000 0.028919
O O2 0.570333 0.224408 0.143125
O O3 0.500000 0.226273 0.000000
O O4 0.321548 0.223252 0.954344
O O5 0.804010 0.500000 0.099184
O O6 0.927513 0.210958 0.194465
O O7 0.750000 0.250000 0.000000
O O8 0.221314 0.270317 0.328275
O O9 0.325278 0.280128 0.307472
O O10 0.200193 0.000000 0.254681
O O11 0.841210 0.279880 0.617198
O O12 0.046316 0.293786 0.691516
O O13 0.961823 0.000000 0.667596
O O14 0.236070 0.500000 0.584745
O O15 0.091145 0.218853 0.478445
O O16 0.457020 0.000000 0.389364
#
# Coordination Sequence:
#
# PCOD9183818 Si02
#       6
#     8   8   8   8   8   8
#     4   9  17  30  51  79 107 137 175 218 262 309
#     4  11  22  37  58  82 109 140 177 220 264 313
#     4   9  16  29  52  80 106 133 174 226 270 309
#     4  11  22  36  54  77 110 146 177 213 261 319
#     4   9  18  32  52  79 107 139 180 223 265 312
#     4  10  19  33  56  82 105 133 176 227 272 314
#
# _framework density 23.239632
#
# number of rings (size 3 to 8) (size 9 to 14) (size 15 to 20)
#    0.000    2.167    0.000    4.000    0.000    7.333 
#    0.000    0.833    0.000   17.000    0.000    0.000 
#    0.000    0.000    0.000    0.000    0.000    0.000 
#
# Total GULP energy -134211.794760 kJ/mol
# GULP energy per Si atom -5592.158115 kJ/mol
# Density = 2.318674 g / cm^3
# Si number density = 23.239632 Si / 1000 Ang^3
#
#
#
# Elastic Constant Matrix: (Units=GPa)
#
#
# Indices 1 2 3 4 5 6 
#
# 1 61.4145 -3.8719 -17.4322 0.0003 9.1861 0.0009
# 2 -3.8719 66.4748 -4.5110 0.0002 6.4434 0.0013
# 3 -17.4322 -4.5110 89.1570 -0.0002 1.8936 0.0003
# 4 0.0003 0.0002 -0.0002 9.9016 -0.0001 -3.3078
# 5 9.1861 6.4434 1.8936 -0.0001 46.7398 0.0001
# 6 0.0009 0.0013 0.0003 -3.3078 0.0001 6.6476
#
#
#
# Elastic Compliance Matrix: (Units=1/GPa)
#
#
# Indices 1 2 3 4 5 6 
#
# 1 0.018024 0.001681 0.003692 -0.000002 -0.003924 -0.000004
# 2 0.001681 0.015463 0.001164 -0.000002 -0.002509 -0.000004
# 3 0.003692 0.001164 0.012026 0.000000 -0.001373 -0.000001
# 4 -0.000002 -0.000002 0.000000 0.121129 0.000001 0.060273
# 5 -0.003924 -0.002509 -0.001373 0.000001 0.022568 0.000001
# 6 -0.000004 -0.000004 -0.000001 0.060273 0.000001 0.180423
#
#
# Mechanical properties :
#
#
# Convention : Reuss Voigt Hill
#
# Bulk Modulus (GPa) = 17.06830 18.37956 17.72393
# Shear Modulus (GPa) = 13.29479 28.84856 21.07167
#
# Velocity S-wave (km/s) = 2.39440 3.52710 3.01443
# Velocity P-wave (km/s) = 3.87358 4.95108 4.44510
#
# Compressibility (1/GPa) = 0.05858815
#
# Stress axis : x y z
#
# Youngs Moduli (GPa) = 55.48250 64.66877 83.15177
#
# Poissons Ratio (x) = -0.10869 -0.30703
# Poissons Ratio (y) = -0.09325 -0.09681
# Poissons Ratio (z) = -0.20486 -0.07529
#
# Static dielectric constant tensor:
#      x y z
#    x 1.830460 0.000000 0.003030 
#    y 0.000000 1.930670 0.000000 
#    z 0.003030 0.000000 1.836080 
# 
# From -- ./inp_files/365541.got.cif
#   From: 2010.05.17/outbox.cif.g08.bks.cpg/sg12_183_cif.got.tgz:365541.got - 2010.06.03 13:09:07.
