data_PCOD9183984
_publ_section_title
;
Structure prediction by ZEFSAII (Michael W. Deem and Ramdas Pophale) SiO2 
 PCOD9183984
Probable space group: C 2/M
;
_chemical_formula_sum "Si O2"
_cell_formula_units_Z 56
_cell_length_a 12.879721
_cell_length_b 18.107773
_cell_length_c 13.182277
_cell_angle_alpha 90.000000
_cell_angle_beta 54.451389
_cell_angle_gamma 90.000000
_cell_volume 2501.410128
_symmetry_space_group_name_H-M "C 2/M"
_symmetry_group_IT_number 12
_symmetry_cell_setting 'monoclinic'
loop_
_space_group_symop_operation_xyz
x,y,z
-x,y,-z
-x,-y,-z
x,-y,z
1/2+x,1/2+y,z
1/2-x,1/2+y,-z
1/2-x,1/2-y,-z
1/2+x,1/2-y,z
loop_
_atom_site_type_symbol
_atom_site_label
_atom_site_fract_x
_atom_site_fract_y
_atom_site_fract_z
Si Si1 0.800264 0.414354 0.391848
Si Si2 0.118767 0.812945 0.368163
Si Si3 0.934724 0.583581 0.731880
Si Si4 0.347970 0.767884 0.090352
Si Si5 0.219415 0.871899 0.994889
Si Si6 0.732289 0.913012 0.350622
Si Si7 0.002493 0.915490 0.257262
O O1 0.784275 0.500000 0.369067
O O2 0.687974 0.367685 0.407914
O O3 0.804440 0.409111 0.511143
O O4 0.940485 0.382607 0.286374
O O5 0.243908 0.774575 0.242839
O O6 0.050656 0.861641 0.318690
O O7 0.000000 0.776492 0.500000
O O8 0.975489 0.500000 0.682576
O O9 0.823433 0.582276 0.876145
O O10 0.873418 0.618254 0.665608
O O11 0.337834 0.685369 0.052997
O O12 0.500000 0.785393 0.000000
O O13 0.287978 0.823210 0.041683
O O14 0.111977 0.917535 0.111630
O O15 0.876655 0.884411 0.272596
O O16 0.741694 0.000000 0.316255
O O17 0.976045 0.000000 0.309270
#
# Coordination Sequence:
#
# PCOD9183984 Si02
#       7
#     8   8   8   8   8   8   8
#     4  10  19  33  56  86 122 156 184 227 296 361
#     4  11  21  37  62  89 120 156 198 246 294 348
#     4  10  20  34  56  86 117 152 190 233 292 360
#     4  10  23  42  62  81 113 159 204 249 296 343
#     4  10  22  39  60  81 113 152 201 242 298 343
#     4   9  18  31  50  82 121 151 181 223 281 352
#     4  10  20  34  58  92 120 147 189 241 297 358
#
# _framework density 22.387373
#
# number of rings (size 3 to 8) (size 9 to 14) (size 15 to 20)
#    0.000    2.000    1.429    2.143    2.000    2.286 
#    0.000    3.571    0.000   11.143    0.000    0.000 
#    0.000    0.000    0.000    0.000    0.000    0.000 
#
# Total GULP energy -156023.705674 kJ/mol
# GULP energy per Si atom -5572.275203 kJ/mol
# Density = 2.233642 g / cm^3
# Si number density = 22.387373 Si / 1000 Ang^3
#
#
#
# Elastic Constant Matrix: (Units=GPa)
#
#
# Indices 1 2 3 4 5 6 
#
# 1 96.5949 18.3483 41.4081 0.0000 -24.5295 0.0000
# 2 18.3483 43.0825 18.2887 0.0000 -6.6635 0.0000
# 3 41.4081 18.2887 136.2187 0.0000 -27.6354 0.0000
# 4 0.0000 0.0000 0.0000 -0.2468 0.0000 18.0491
# 5 -24.5295 -6.6635 -27.6354 0.0000 31.9842 0.0000
# 6 0.0000 0.0000 0.0000 18.0491 0.0000 -34.4335
#
#
#
# Elastic Compliance Matrix: (Units=1/GPa)
#
#
# Indices 1 2 3 4 5 6 
#
# 1 0.014054 -0.003831 -0.002102 0.000000 0.008165 0.000000
# 2 -0.003831 0.025860 -0.002195 0.000000 0.000553 0.000000
# 3 -0.002102 -0.002195 0.009525 0.000000 0.006160 0.000000
# 4 0.000000 0.000000 0.000000 0.108530 0.000000 0.056888
# 5 0.008165 0.000553 0.006160 0.000000 0.042965 0.000000
# 6 0.000000 0.000000 0.000000 0.056888 0.000000 0.000778
#
#
# Mechanical properties :
#
#
# Convention : Reuss Voigt Hill
#
# Bulk Modulus (GPa) = 30.13500 47.99847 39.06674
# Shear Modulus (GPa) = 21.83133 12.65084 17.24108
#
# Velocity S-wave (km/s) = 3.12615 2.37974 2.77812
# Velocity P-wave (km/s) = 5.14979 5.38864 5.27057
#
# Compressibility (1/GPa) = 0.03318401
#
# Stress axis : x y z
#
# Youngs Moduli (GPa) = 71.15196 38.66953 104.99228
#
# Poissons Ratio (x) = 0.14813 0.22065
# Poissons Ratio (y) = 0.27256 0.23049
# Poissons Ratio (z) = 0.14953 0.08489
#
# Static dielectric constant tensor:
#      x y z
#    x 1.843520 0.000000 -0.047960 
#    y 0.000000 1.831250 0.000000 
#    z -0.047960 0.000000 1.877970 
# 
# From -- ./inp_files/135273.got.cif
#   From: 2010.05.17/outbox.cif.g08.bks.cpg/sg12_68_cif.got.tgz:135273.got - 2010.06.03 13:09:07.
