data_PCOD9183179
_publ_section_title
;
Structure prediction by ZEFSAII (Michael W. Deem and Ramdas Pophale) SiO2 
 PCOD9183179
Probable space group: C 2/M
;
_chemical_formula_sum "Si O2"
_cell_formula_units_Z 64
_cell_length_a 24.886890
_cell_length_b 9.046602
_cell_length_c 30.254351
_cell_angle_alpha 90.000000
_cell_angle_beta 33.411364
_cell_angle_gamma 90.000000
_cell_volume 3750.737656
_symmetry_space_group_name_H-M "C 2/M"
_symmetry_group_IT_number 12
_symmetry_cell_setting 'monoclinic'
loop_
_space_group_symop_operation_xyz
x,y,z
-x,y,-z
-x,-y,-z
x,-y,z
1/2+x,1/2+y,z
1/2-x,1/2+y,-z
1/2-x,1/2-y,-z
1/2+x,1/2-y,z
loop_
_atom_site_type_symbol
_atom_site_label
_atom_site_fract_x
_atom_site_fract_y
_atom_site_fract_z
Si Si1 0.939815 0.824067 0.768420
Si Si2 0.962383 0.322680 0.976549
Si Si3 0.695142 0.175923 0.265891
Si Si4 0.640266 0.177725 0.789822
Si Si5 0.894574 0.322062 0.287958
Si Si6 0.243307 0.823598 0.877214
Si Si7 0.279270 0.322016 0.526299
Si Si8 0.499913 0.676188 0.374327
O O1 0.833394 0.750196 0.840992
O O2 0.985107 0.794759 0.688428
O O3 0.011814 0.755084 0.754883
O O4 0.931973 0.000000 0.779056
O O5 0.947303 0.500000 0.985258
O O6 0.046413 0.282845 0.884044
O O7 0.860663 0.241795 0.037928
O O8 0.000000 0.285606 0.000000
O O9 0.764976 0.247501 0.254192
O O10 0.739179 0.211494 0.186906
O O11 0.586109 0.240738 0.340387
O O12 0.692908 0.000000 0.271978
O O13 0.622429 0.218430 0.751260
O O14 0.651978 0.000000 0.784300
O O15 0.907074 0.500000 0.281782
O O16 0.800073 0.282685 0.382274
O O17 0.245904 0.000000 0.880490
O O18 0.278750 0.500000 0.521440
O O19 0.250000 0.250000 0.500000
O O20 0.390132 0.279203 0.462028
O O21 0.511041 0.500000 0.373261
#
# Coordination Sequence:
#
# PCOD9183179 Si02
#       8
#     8   8   8   8   8   8   8   8
#     4  10  19  33  54  79 108 140 177 217 263 315
#     4  10  19  33  55  80 105 136 179 222 263 313
#     4  10  20  33  52  79 107 138 175 219 266 312
#     4  10  21  37  55  77 108 145 177 213 265 323
#     4  10  21  36  55  79 110 143 176 216 265 318
#     4  10  20  33  53  81 110 136 173 223 270 312
#     4  10  19  33  54  81 108 137 177 220 262 310
#     4   9  18  32  52  78 106 137 174 216 261 312
#
# _framework density 17.063310000000001
#
# number of rings (size 3 to 8) (size 9 to 14) (size 15 to 20)
#    0.000    2.125    2.500    1.125    0.000    3.250 
#    0.000    1.250    0.000    3.750    0.000    0.000 
#    0.000    0.000    0.000    0.000    0.000    0.000 
#
# Total GULP energy -178604.559425 kJ/mol
# GULP energy per Si atom -5581.392482 kJ/mol
# Density = 1.702447 g / cm^3
# Si number density = 17.063310 Si / 1000 Ang^3
#
#
#
# Elastic Constant Matrix: (Units=GPa)
#
#
# Indices 1 2 3 4 5 6 
#
# 1 162.8569 62.6566 95.4934 0.0001 -22.8612 -0.0010
# 2 62.6566 32.3902 45.1958 0.0007 -10.8664 0.0011
# 3 95.4934 45.1958 125.3048 -0.0002 -19.5167 0.0001
# 4 0.0001 0.0007 -0.0002 22.1468 0.0001 -8.8184
# 5 -22.8612 -10.8664 -19.5167 0.0001 33.9817 0.0003
# 6 -0.0010 0.0011 0.0001 -8.8184 0.0003 31.0190
#
#
#
# Elastic Compliance Matrix: (Units=1/GPa)
#
#
# Indices 1 2 3 4 5 6 
#
# 1 0.024659 -0.042994 -0.003122 0.000002 0.001048 0.000003
# 2 -0.042994 0.139000 -0.016421 -0.000008 0.006093 -0.000009
# 3 -0.003122 -0.016421 0.016625 0.000001 0.002197 0.000001
# 4 0.000002 -0.000008 0.000001 0.050917 -0.000001 0.014475
# 5 0.001048 0.006093 0.002197 -0.000001 0.033343 -0.000001
# 6 0.000003 -0.000009 0.000001 0.014475 -0.000001 0.036354
#
#
# Mechanical properties :
#
#
# Convention : Reuss Voigt Hill
#
# Bulk Modulus (GPa) = 18.11276 80.80482 49.45879
# Shear Modulus (GPa) = 11.25177 25.24323 18.24750
#
# Velocity S-wave (km/s) = 2.57069 3.85045 3.27372
# Velocity P-wave (km/s) = 4.41014 8.19919 6.58316
#
# Compressibility (1/GPa) = 0.05520970
#
# Stress axis : x y z
#
# Youngs Moduli (GPa) = 40.55251 7.19426 60.15074
#
# Poissons Ratio (x) = 0.30931 0.18779
# Poissons Ratio (y) = 1.74351 0.98775
# Poissons Ratio (z) = 0.12661 0.11814
#
# Static dielectric constant tensor:
#      x y z
#    x 1.547610 0.000000 0.002810 
#    y 0.000000 1.566890 0.000000 
#    z 0.002810 0.000000 1.571310 
# 
# From -- ./inp_files/287568.got.cif
#   From: 2010.05.17/outbox.cif.g08.bks.cpg/sg12_144_cif.got.tgz:287568.got - 2010.06.03 13:09:07.
