data_PCOD9183797
_publ_section_title
;
Structure prediction by ZEFSAII (Michael W. Deem and Ramdas Pophale) SiO2 
 PCOD9183797
Probable space group: C 2/M
;
_chemical_formula_sum "Si O2"
_cell_formula_units_Z 58
_cell_length_a 14.213307
_cell_length_b 14.141283
_cell_length_c 20.426875
_cell_angle_alpha 90.000000
_cell_angle_beta 56.179958
_cell_angle_gamma 90.000000
_cell_volume 3410.963338
_symmetry_space_group_name_H-M "C 2/M"
_symmetry_group_IT_number 12
_symmetry_cell_setting 'monoclinic'
loop_
_space_group_symop_operation_xyz
x,y,z
-x,y,-z
-x,-y,-z
x,-y,z
1/2+x,1/2+y,z
1/2-x,1/2+y,-z
1/2-x,1/2-y,-z
1/2+x,1/2-y,z
loop_
_atom_site_type_symbol
_atom_site_label
_atom_site_fract_x
_atom_site_fract_y
_atom_site_fract_z
Si Si1 0.975966 0.247194 0.118524
Si Si2 0.653923 0.184230 0.947312
Si Si3 0.071629 0.236994 0.536949
Si Si4 0.410578 0.390474 0.687476
Si Si5 0.000000 0.500000 0.000000
Si Si6 0.204501 0.612540 0.569981
Si Si7 0.099388 0.109603 0.154301
Si Si8 0.347728 0.890707 0.257611
O O1 0.881376 0.246485 0.098311
O O2 0.935246 0.323150 0.187574
O O3 0.002268 0.151354 0.145977
O O4 0.089229 0.280747 0.036947
O O5 0.786108 0.168268 0.902101
O O6 0.596167 0.083579 0.952416
O O7 0.125390 0.329212 0.550590
O O8 0.173935 0.164797 0.479978
O O9 0.000000 0.260261 0.500000
O O10 0.989323 0.181345 0.618191
O O11 0.434287 0.500000 0.659091
O O12 0.428651 0.381525 0.758057
O O13 0.278551 0.373448 0.721726
O O14 0.213266 0.500000 0.552526
O O15 0.158151 0.622515 0.662042
O O16 0.120457 0.000000 0.132011
O O17 0.376513 0.000000 0.232395
#
# Coordination Sequence:
#
# PCOD9183797 Si02
#       8
#     8   8   8   8   2   8   8   8
#     4  10  21  33  54  81 109 137 177 223 268 312
#     4  10  20  33  54  80 108 137 177 225 269 309
#     4  11  21  36  58  81 108 142 174 220 267 310
#     4  10  20  32  56  84 106 134 178 223 264 312
#     4   8  16  28  52  76 102 130 162 228 254 310
#     4  10  22  37  55  81 110 140 179 215 263 322
#     4  11  21  36  55  79 107 142 180 218 263 321
#     4  10  19  33  56  81 106 139 175 222 269 309
#
# _framework density 17.003993999999999
#
# number of rings (size 3 to 8) (size 9 to 14) (size 15 to 20)
#    0.000    1.931    3.448    1.655    3.862    0.828 
#    0.000    1.379    0.000    1.655    0.000    0.000 
#    0.000    0.000    0.000    0.000    0.000    0.000 
#
# Total GULP energy -161506.350357 kJ/mol
# GULP energy per Si atom -5569.184495 kJ/mol
# Density = 1.696529 g / cm^3
# Si number density = 17.003994 Si / 1000 Ang^3
#
#
#
# Elastic Constant Matrix: (Units=GPa)
#
#
# Indices 1 2 3 4 5 6 
#
# 1 98.9525 53.3992 32.1717 0.0000 18.9568 0.0000
# 2 53.3992 66.6252 42.9390 0.0000 19.9684 0.0000
# 3 32.1717 42.9390 72.6408 0.0000 9.6278 0.0000
# 4 0.0000 0.0000 0.0000 13.9786 0.0000 6.1452
# 5 18.9568 19.9684 9.6278 0.0000 18.5214 0.0000
# 6 0.0000 0.0000 0.0000 6.1452 0.0000 17.7980
#
#
#
# Elastic Compliance Matrix: (Units=1/GPa)
#
#
# Indices 1 2 3 4 5 6 
#
# 1 0.018048 -0.013628 0.000605 0.000000 -0.004094 0.000000
# 2 -0.013628 0.044277 -0.016818 0.000000 -0.025046 0.000000
# 3 0.000605 -0.016818 0.022681 0.000000 0.005722 0.000000
# 4 0.000000 0.000000 0.000000 0.084339 0.000000 -0.029120
# 5 -0.004094 -0.025046 0.005722 0.000000 0.082210 0.000000
# 6 0.000000 0.000000 0.000000 -0.029120 0.000000 0.066240
#
#
# Mechanical properties :
#
#
# Convention : Reuss Voigt Hill
#
# Bulk Modulus (GPa) = 39.48650 55.02647 47.25648
# Shear Modulus (GPa) = 12.95611 17.37352 15.16482
#
# Velocity S-wave (km/s) = 2.76333 3.19992 2.98961
# Velocity P-wave (km/s) = 5.78391 6.78851 6.30625
#
# Compressibility (1/GPa) = 0.02532511
#
# Stress axis : x y z
#
# Youngs Moduli (GPa) = 55.40889 22.58490 44.08958
#
# Poissons Ratio (x) = 0.30779 -0.02668
# Poissons Ratio (y) = 0.75512 0.74148
# Poissons Ratio (z) = -0.03354 0.37983
#
# Static dielectric constant tensor:
#      x y z
#    x 1.583410 0.000000 0.010630 
#    y 0.000000 1.544230 0.000000 
#    z 0.010630 0.000000 1.581100 
# 
# From -- ./inp_files/309808.got.cif
#   From: 2010.05.17/outbox.cif.g08.bks.cpg/sg12_155_cif.got.tgz:309808.got - 2010.06.03 13:09:07.
