data_PCOD9183519
_publ_section_title
;
Structure prediction by ZEFSAII (Michael W. Deem and Ramdas Pophale) SiO2 
 PCOD9183519
Probable space group: C 2/M
;
_chemical_formula_sum "Si O2"
_cell_formula_units_Z 56
_cell_length_a 8.177931
_cell_length_b 22.490987
_cell_length_c 19.610248
_cell_angle_alpha 90.000000
_cell_angle_beta 43.583241
_cell_angle_gamma 90.000000
_cell_volume 2486.629998
_symmetry_space_group_name_H-M "C 2/M"
_symmetry_group_IT_number 12
_symmetry_cell_setting 'monoclinic'
loop_
_space_group_symop_operation_xyz
x,y,z
-x,y,-z
-x,-y,-z
x,-y,z
1/2+x,1/2+y,z
1/2-x,1/2+y,-z
1/2-x,1/2-y,-z
1/2+x,1/2-y,z
loop_
_atom_site_type_symbol
_atom_site_label
_atom_site_fract_x
_atom_site_fract_y
_atom_site_fract_z
Si Si1 0.006672 0.066020 0.416160
Si Si2 0.267717 0.934507 0.625520
Si Si3 0.873529 0.648215 0.891829
Si Si4 0.628729 0.184540 0.329654
Si Si5 0.997108 0.141890 0.108706
Si Si6 0.256934 0.567134 0.852324
Si Si7 0.733257 0.811500 0.678552
O O1 0.128354 0.126857 0.355012
O O2 0.000000 0.069222 0.500000
O O3 0.760876 0.065251 0.447796
O O4 0.116722 0.000000 0.367949
O O5 0.365060 0.872789 0.624395
O O6 0.993463 0.933087 0.734652
O O7 0.353452 0.000000 0.623626
O O8 0.704920 0.619068 0.883654
O O9 0.053453 0.605673 0.877897
O O10 0.040873 0.691410 0.797810
O O11 0.689688 0.674444 0.002597
O O12 0.400372 0.181716 0.351812
O O13 0.633147 0.249110 0.362028
O O14 0.853371 0.177306 0.210019
O O15 0.148031 0.093505 0.104930
O O16 0.174386 0.500000 0.884896
#
# Coordination Sequence:
#
# PCOD9183519 Si02
#       7
#     8   8   8   8   8   8   8
#     4  10  21  40  66  93 120 152 195 245 302 372
#     4   9  18  37  61  85 117 156 197 244 300 362
#     4  10  20  35  54  78 118 160 205 253 301 358
#     4  10  22  38  60  87 122 160 202 249 299 356
#     4   9  21  36  50  81 119 159 206 254 298 349
#     4  10  19  33  55  80 113 159 204 247 302 362
#     4  11  22  38  61  87 119 160 201 250 306 362
#
# _framework density 22.520441000000002
#
# number of rings (size 3 to 8) (size 9 to 14) (size 15 to 20)
#    0.000    2.143    1.429    1.286    2.000    2.857 
#    0.000    7.857    0.000    2.571    0.000    0.000 
#    0.000    0.000    0.000    0.000    0.000    0.000 
#
# Total GULP energy -156125.031118 kJ/mol
# GULP energy per Si atom -5575.893969 kJ/mol
# Density = 2.246918 g / cm^3
# Si number density = 22.520441 Si / 1000 Ang^3
#
#
#
# Elastic Constant Matrix: (Units=GPa)
#
#
# Indices 1 2 3 4 5 6 
#
# 1 102.4209 84.6345 -0.9967 0.0000 15.3588 0.0000
# 2 84.6345 173.4796 34.4380 0.0000 -2.7119 0.0000
# 3 -0.9967 34.4380 74.7128 0.0000 8.5468 0.0000
# 4 0.0000 0.0000 0.0000 3.9143 0.0000 1.5950
# 5 15.3588 -2.7119 8.5468 0.0000 29.9494 0.0000
# 6 0.0000 0.0000 0.0000 1.5950 0.0000 29.1128
#
#
#
# Elastic Compliance Matrix: (Units=1/GPa)
#
#
# Indices 1 2 3 4 5 6 
#
# 1 0.022833 -0.012968 0.008018 0.000000 -0.015171 0.000000
# 2 -0.012968 0.013772 -0.007675 0.000000 0.010088 0.000000
# 3 0.008018 -0.007675 0.018172 0.000000 -0.009993 0.000000
# 4 0.000000 0.000000 0.000000 0.261304 0.000000 -0.014316
# 5 -0.015171 0.010088 -0.009993 0.000000 0.044935 0.000000
# 6 0.000000 0.000000 0.000000 -0.014316 0.000000 0.035134
#
#
# Mechanical properties :
#
#
# Convention : Reuss Voigt Hill
#
# Bulk Modulus (GPa) = 33.86819 65.19612 49.53215
# Shear Modulus (GPa) = 11.59438 28.09781 19.84609
#
# Velocity S-wave (km/s) = 2.27147 3.53605 2.97180
# Velocity P-wave (km/s) = 4.68518 6.75901 5.81528
#
# Compressibility (1/GPa) = 0.02952623
#
# Stress axis : x y z
#
# Youngs Moduli (GPa) = 43.79680 72.60940 55.02847
#
# Poissons Ratio (x) = 0.94160 -0.44120
# Poissons Ratio (y) = 0.56796 0.42235
# Poissons Ratio (z) = -0.35114 0.55729
#
# Static dielectric constant tensor:
#      x y z
#    x 1.831890 0.000000 -0.007230 
#    y 0.000000 1.872640 0.000000 
#    z -0.007230 0.000000 1.959440 
# 
# From -- ./inp_files/301653.got.cif
#   From: 2010.05.17/outbox.cif.g08.bks.cpg/sg12_151_cif.got.tgz:301653.got - 2010.06.03 13:09:07.
