data_PCOD9183221
_publ_section_title
;
Structure prediction by ZEFSAII (Michael W. Deem and Ramdas Pophale) SiO2 
 PCOD9183221
Probable space group: C 2/M
;
_chemical_formula_sum "Si O2"
_cell_formula_units_Z 64
_cell_length_a 23.291330
_cell_length_b 13.840674
_cell_length_c 19.098358
_cell_angle_alpha 90.000000
_cell_angle_beta 32.192747
_cell_angle_gamma 90.000000
_cell_volume 3280.096569
_symmetry_space_group_name_H-M "C 2/M"
_symmetry_group_IT_number 12
_symmetry_cell_setting 'monoclinic'
loop_
_space_group_symop_operation_xyz
x,y,z
-x,y,-z
-x,-y,-z
x,-y,z
1/2+x,1/2+y,z
1/2-x,1/2+y,-z
1/2-x,1/2-y,-z
1/2+x,1/2-y,z
loop_
_atom_site_type_symbol
_atom_site_label
_atom_site_fract_x
_atom_site_fract_y
_atom_site_fract_z
Si Si1 0.239659 0.112453 0.549958
Si Si2 0.689935 0.731671 0.739393
Si Si3 0.138480 0.208601 0.087088
Si Si4 0.159631 0.114581 0.481436
Si Si5 0.017882 0.606067 0.752374
Si Si6 0.490789 0.144517 0.934872
Si Si7 0.410385 0.611646 0.725345
Si Si8 0.225388 0.748645 0.856848
O O1 0.211824 0.163640 0.650976
O O2 0.179182 0.148405 0.541925
O O3 0.367184 0.119487 0.402731
O O4 0.211905 0.000000 0.585243
O O5 0.758066 0.828267 0.652075
O O6 0.564302 0.759587 0.868041
O O7 0.726971 0.702057 0.779081
O O8 0.104651 0.125159 0.175169
O O9 0.055041 0.298434 0.180385
O O10 0.250000 0.250000 0.000000
O O11 0.171064 0.185401 0.973564
O O12 0.037179 0.130331 0.582898
O O13 0.180751 0.000000 0.458338
O O14 0.972650 0.500000 0.776988
O O15 0.034745 0.600122 0.818489
O O16 0.500000 0.095608 0.000000
O O17 0.365098 0.165001 0.054458
O O18 0.385236 0.500000 0.731548
O O19 0.334495 0.692763 0.767330
#
# Coordination Sequence:
#
# PCOD9183221 Si02
#       8
#     8   8   8   8   8   8   8   8
#     4  10  21  35  55  85 111 144 194 234 273 331
#     4  11  20  35  59  79 115 150 175 232 295 323
#     4   9  19  35  54  78 108 142 188 226 265 334
#     4  10  21  34  54  85 112 143 189 230 277 335
#     4  10  19  33  54  80 110 142 184 233 277 321
#     4   9  19  32  51  78 107 141 180 222 277 336
#     4  10  21  38  59  82 111 146 184 231 279 332
#     4   9  21  36  52  81 110 146 187 222 269 342
#
# _framework density 19.511621999999999
#
# number of rings (size 3 to 8) (size 9 to 14) (size 15 to 20)
#    0.000    2.250    1.250    1.125    3.500    5.750 
#    0.000    5.625    0.000    4.125    0.000    7.875 
#    0.000    0.000    0.000    0.000    0.000    0.000 
#
# Total GULP energy -178222.490219 kJ/mol
# GULP energy per Si atom -5569.452819 kJ/mol
# Density = 1.946721 g / cm^3
# Si number density = 19.511622 Si / 1000 Ang^3
#
#
#
# Elastic Constant Matrix: (Units=GPa)
#
#
# Indices 1 2 3 4 5 6 
#
# 1 70.6258 4.3953 25.3478 0.0000 4.5884 0.0000
# 2 4.3953 31.2212 15.6256 0.0000 0.3290 0.0000
# 3 25.3478 15.6256 84.4558 0.0000 4.1030 0.0000
# 4 0.0000 0.0000 0.0000 -69.0512 0.0000 -24.6606
# 5 4.5884 0.3290 4.1030 0.0000 36.8950 0.0000
# 6 0.0000 0.0000 0.0000 -24.6606 0.0000 4.1165
#
#
#
# Elastic Compliance Matrix: (Units=1/GPa)
#
#
# Indices 1 2 3 4 5 6 
#
# 1 0.015947 0.000144 -0.004742 0.000000 -0.001457 0.000000
# 2 0.000144 0.035306 -0.006595 0.000000 0.000401 0.000000
# 3 -0.004742 -0.006595 0.014531 0.000000 -0.000967 0.000000
# 4 0.000000 0.000000 0.000000 -0.004613 0.000000 -0.027634
# 5 -0.001457 0.000401 -0.000967 0.000000 0.027389 0.000000
# 6 0.000000 0.000000 0.000000 -0.027634 0.000000 0.077378
#
#
# Mechanical properties :
#
#
# Convention : Reuss Voigt Hill
#
# Bulk Modulus (GPa) = 23.04294 30.78225 26.91260
# Shear Modulus (GPa) = 24.65624 3.78767 14.22195
#
# Velocity S-wave (km/s) = 3.55867 1.39479 2.70274
# Velocity P-wave (km/s) = 5.35920 4.29005 4.85415
#
# Compressibility (1/GPa) = 0.04339724
#
# Stress axis : x y z
#
# Youngs Moduli (GPa) = 62.70874 28.32418 68.81928
#
# Poissons Ratio (x) = -0.00407 0.32633
# Poissons Ratio (y) = -0.00900 0.45384
# Poissons Ratio (z) = 0.29736 0.18679
#
# Static dielectric constant tensor:
#      x y z
#    x 1.736480 0.000000 0.034460 
#    y 0.000000 1.722310 0.000000 
#    z 0.034460 0.000000 1.699090 
# 
# From -- ./inp_files/290095.got.cif
#   From: 2010.05.17/outbox.cif.g08.bks.cpg/sg12_146_cif.got.tgz:290095.got - 2010.06.03 13:09:07.
