data_PCOD9183395
_publ_section_title
;
Structure prediction by ZEFSAII (Michael W. Deem and Ramdas Pophale) SiO2 
 PCOD9183395
Probable space group: C 2/M
;
_chemical_formula_sum "Si O2"
_cell_formula_units_Z 64
_cell_length_a 17.232166
_cell_length_b 7.369019
_cell_length_c 20.183074
_cell_angle_alpha 90.000000
_cell_angle_beta 92.044489
_cell_angle_gamma 90.000000
_cell_volume 2561.299179
_symmetry_space_group_name_H-M "C 2/M"
_symmetry_group_IT_number 12
_symmetry_cell_setting 'monoclinic'
loop_
_space_group_symop_operation_xyz
x,y,z
-x,y,-z
-x,-y,-z
x,-y,z
1/2+x,1/2+y,z
1/2-x,1/2+y,-z
1/2-x,1/2-y,-z
1/2+x,1/2-y,z
loop_
_atom_site_type_symbol
_atom_site_label
_atom_site_fract_x
_atom_site_fract_y
_atom_site_fract_z
Si Si1 0.669067 0.782142 0.099430
Si Si2 0.920945 0.290233 0.779825
Si Si3 0.340940 0.785208 0.157194
Si Si4 0.335913 0.219479 0.410880
Si Si5 0.170612 0.220127 0.347156
Si Si6 0.428286 0.708366 0.537885
Si Si7 0.925171 0.721388 0.287219
Si Si8 0.918390 0.721545 0.029044
O O1 0.606439 0.712352 0.151136
O O2 0.754367 0.740729 0.128255
O O3 0.662343 0.000000 0.098752
O O4 0.648148 0.721057 0.024988
O O5 0.941441 0.500000 0.793339
O O6 0.848679 0.280899 0.727265
O O7 0.993988 0.213655 0.741806
O O8 0.360355 0.720781 0.231466
O O9 0.398969 0.714233 0.102170
O O10 0.354007 0.000000 0.161203
O O11 0.253130 0.276761 0.379145
O O12 0.357056 0.288921 0.483947
O O13 0.401219 0.279554 0.359828
O O14 0.335829 0.000000 0.414417
O O15 0.102732 0.287112 0.394521
O O16 0.170317 0.000000 0.347076
O O17 0.500000 0.793513 0.500000
O O18 0.449677 0.500000 0.552518
O O19 0.927133 0.500000 0.291191
O O20 0.919331 0.500000 0.031623
O O21 0.000000 0.777202 0.000000
#
# Coordination Sequence:
#
# PCOD9183395 Si02
#       8
#     8   8   8   8   8   8   8   8
#     4  10  20  33  50  76 107 132 164 214 258 296
#     4  10  20  34  53  75 100 133 170 209 253 299
#     4  10  19  33  55  77 101 138 175 207 251 305
#     4  10  20  34  53  75 100 131 167 210 252 294
#     4  10  21  36  53  76 105 133 165 208 254 300
#     4  10  21  36  53  75 104 135 166 204 251 302
#     4   9  18  33  52  75 100 128 170 215 249 292
#     4   9  17  31  53  78 102 134 176 215 251 295
#
# _framework density 24.987317999999998
#
# number of rings (size 3 to 8) (size 9 to 14) (size 15 to 20)
#    0.000    2.250    0.000    3.000    0.000    5.750 
#    0.000    1.250    0.000    3.000    0.000    0.000 
#    0.000    0.000    0.000    0.000    0.000    0.000 
#
# Total GULP energy -179007.325531 kJ/mol
# GULP energy per Si atom -5593.978923 kJ/mol
# Density = 2.493045 g / cm^3
# Si number density = 24.987318 Si / 1000 Ang^3
#
#
#
# Elastic Constant Matrix: (Units=GPa)
#
#
# Indices 1 2 3 4 5 6 
#
# 1 62.7650 -4.8910 -19.1726 0.0000 -1.0460 0.0000
# 2 -4.8910 93.5949 -1.9810 0.0000 -6.8395 0.0000
# 3 -19.1726 -1.9810 96.8199 0.0000 -4.0349 0.0000
# 4 0.0000 0.0000 0.0000 -0.0373 0.0000 10.2499
# 5 -1.0460 -6.8395 -4.0349 0.0000 47.5041 0.0000
# 6 0.0000 0.0000 0.0000 10.2499 0.0000 7.9372
#
#
#
# Elastic Compliance Matrix: (Units=1/GPa)
#
#
# Indices 1 2 3 4 5 6 
#
# 1 0.017076 0.001025 0.003436 0.000000 0.000815 0.000000
# 2 0.001025 0.010867 0.000493 0.000000 0.001629 0.000000
# 3 0.003436 0.000493 0.011064 0.000000 0.001086 0.000000
# 4 0.000000 0.000000 0.000000 -0.075337 0.000000 0.097288
# 5 0.000815 0.001629 0.001086 0.000000 0.021396 0.000000
# 6 0.000000 0.000000 0.000000 0.097288 0.000000 0.000354
#
#
# Mechanical properties :
#
#
# Convention : Reuss Voigt Hill
#
# Bulk Modulus (GPa) = 20.44346 22.34339 21.39342
# Shear Modulus (GPa) = -611.00495 29.69577 -290.65459
#
# Velocity S-wave (km/s) = -15.65429 3.45111 -10.79691
# Velocity P-wave (km/s) = 17.84778 4.98412 12.11820
#
# Compressibility (1/GPa) = 0.04891541
#
# Stress axis : x y z
#
# Youngs Moduli (GPa) = 58.56327 92.01855 90.38085
#
# Poissons Ratio (x) = -0.09429 -0.31058
# Poissons Ratio (y) = -0.06001 -0.04457
# Poissons Ratio (z) = -0.20124 -0.04538
#
# Static dielectric constant tensor:
#      x y z
#    x 1.984240 0.000000 -0.002790 
#    y 0.000000 1.972240 0.000000 
#    z -0.002790 0.000000 1.917360 
# 
# From -- ./inp_files/314085.got.cif
#   From: 2010.05.17/outbox.cif.g08.bks.cpg/sg12_158_cif.got.tgz:314085.got - 2010.06.03 13:09:07.
