data_PCOD9183837
_publ_section_title
;
Structure prediction by ZEFSAII (Michael W. Deem and Ramdas Pophale) SiO2 
 PCOD9183837
Probable space group: C 2/M
;
_chemical_formula_sum "Si O2"
_cell_formula_units_Z 64
_cell_length_a 29.199404
_cell_length_b 8.719569
_cell_length_c 20.075419
_cell_angle_alpha 90.000000
_cell_angle_beta 133.564148
_cell_angle_gamma 90.000000
_cell_volume 3703.683741
_symmetry_space_group_name_H-M "C 2/M"
_symmetry_group_IT_number 12
_symmetry_cell_setting 'monoclinic'
loop_
_space_group_symop_operation_xyz
x,y,z
-x,y,-z
-x,-y,-z
x,-y,z
1/2+x,1/2+y,z
1/2-x,1/2+y,-z
1/2-x,1/2-y,-z
1/2+x,1/2-y,z
loop_
_atom_site_type_symbol
_atom_site_label
_atom_site_fract_x
_atom_site_fract_y
_atom_site_fract_z
Si Si1 0.483917 0.816936 0.308697
Si Si2 0.632476 0.816626 0.451094
Si Si3 0.510193 0.183646 0.834969
Si Si4 0.181358 0.184784 0.635822
Si Si5 0.061979 0.183277 0.018467
Si Si6 0.822987 0.682947 0.782581
Si Si7 0.061893 0.184607 0.602929
Si Si8 0.130945 0.182637 0.307249
O O1 0.558413 0.775329 0.388848
O O2 0.464827 0.777642 0.213907
O O3 0.445337 0.739582 0.328868
O O4 0.479597 0.000000 0.311948
O O5 0.670375 0.758998 0.552749
O O6 0.652075 0.739907 0.401179
O O7 0.636363 0.000000 0.448162
O O8 0.442130 0.264823 0.773999
O O9 0.500287 0.000000 0.827537
O O10 0.553874 0.238072 0.938778
O O11 0.251411 0.220559 0.731767
O O12 0.125275 0.235710 0.628788
O O13 0.177006 0.000000 0.623972
O O14 0.123880 0.237857 0.119356
O O15 0.062343 0.000000 0.011392
O O16 0.000000 0.225097 0.000000
O O17 0.831870 0.500000 0.794218
O O18 0.832002 0.739193 0.715894
O O19 0.000000 0.238597 0.500000
O O20 0.061311 0.000000 0.601693
O O21 0.135404 0.000000 0.306958
#
# Coordination Sequence:
#
# PCOD9183837 Si02
#       8
#     8   8   8   8   8   8   8   8
#     4   9  19  33  52  82 112 139 177 222 267 321
#     4  10  20  34  53  78 109 147 186 222 268 322
#     4  10  20  35  56  83 112 142 179 222 273 324
#     4  10  22  38  54  79 110 145 186 225 270 324
#     4  11  22  36  57  85 111 139 180 228 273 320
#     4  11  23  38  56  77 109 148 184 224 270 324
#     4  10  19  33  56  82 109 142 180 224 273 319
#     4  11  21  34  53  78 110 145 184 226 267 318
#
# _framework density 17.280093000000001
#
# number of rings (size 3 to 8) (size 9 to 14) (size 15 to 20)
#    0.000    1.750    2.500    3.375    0.000    5.250 
#    0.000    0.000    0.000    0.750    0.000    0.000 
#    0.000    0.000    0.000    0.000    0.000    0.000 
#
# Total GULP energy -178707.756494 kJ/mol
# GULP energy per Si atom -5584.617390 kJ/mol
# Density = 1.724076 g / cm^3
# Si number density = 17.280093 Si / 1000 Ang^3
#
#
#
# Elastic Constant Matrix: (Units=GPa)
#
#
# Indices 1 2 3 4 5 6 
#
# 1 89.0273 14.4035 46.6815 0.0000 -1.0715 0.0000
# 2 14.4035 25.8560 22.7985 0.0000 2.9556 0.0000
# 3 46.6815 22.7985 96.3653 0.0000 -3.5608 0.0000
# 4 0.0000 0.0000 0.0000 26.6191 0.0000 -11.5322
# 5 -1.0715 2.9556 -3.5608 0.0000 23.3851 0.0000
# 6 0.0000 0.0000 0.0000 -11.5322 0.0000 17.7606
#
#
#
# Elastic Compliance Matrix: (Units=1/GPa)
#
#
# Indices 1 2 3 4 5 6 
#
# 1 0.015183 -0.002489 -0.006767 0.000000 -0.000020 0.000000
# 2 -0.002489 0.050806 -0.011118 0.000000 -0.008228 0.000000
# 3 -0.006767 -0.011118 0.016419 0.000000 0.003595 0.000000
# 4 0.000000 0.000000 0.000000 0.052271 0.000000 0.033940
# 5 -0.000020 -0.008228 0.003595 0.000000 0.044349 0.000000
# 6 0.000000 0.000000 0.000000 0.033940 0.000000 0.078342
#
#
# Mechanical properties :
#
#
# Convention : Reuss Voigt Hill
#
# Bulk Modulus (GPa) = 24.00410 42.11285 33.05848
# Shear Modulus (GPa) = 16.02536 22.04394 19.03465
#
# Velocity S-wave (km/s) = 3.04861 3.57555 3.32254
# Velocity P-wave (km/s) = 5.12966 6.43970 5.82164
#
# Compressibility (1/GPa) = 0.04165955
#
# Stress axis : x y z
#
# Youngs Moduli (GPa) = 65.86213 19.68259 60.90685
#
# Poissons Ratio (x) = 0.04899 0.41216
# Poissons Ratio (y) = 0.16393 0.67718
# Poissons Ratio (z) = 0.44569 0.21884
#
# Static dielectric constant tensor:
#      x y z
#    x 1.584280 0.000000 0.004660 
#    y 0.000000 1.578150 0.000000 
#    z 0.004660 0.000000 1.579320 
# 
# From -- ./inp_files/295812.got.cif
#   From: 2010.05.17/outbox.cif.g08.bks.cpg/sg12_148_cif.got.tgz:295812.got - 2010.06.03 13:09:07.
