data_PCOD9183102
_publ_section_title
;
Structure prediction by ZEFSAII (Michael W. Deem and Ramdas Pophale) SiO2 
 PCOD9183102
Probable space group: C 2/M
;
_chemical_formula_sum "Si O2"
_cell_formula_units_Z 56
_cell_length_a 28.942525
_cell_length_b 8.860445
_cell_length_c 19.262402
_cell_angle_alpha 90.000000
_cell_angle_beta 42.495517
_cell_angle_gamma 90.000000
_cell_volume 3336.941962
_symmetry_space_group_name_H-M "C 2/M"
_symmetry_group_IT_number 12
_symmetry_cell_setting 'monoclinic'
loop_
_space_group_symop_operation_xyz
x,y,z
-x,y,-z
-x,-y,-z
x,-y,z
1/2+x,1/2+y,z
1/2-x,1/2+y,-z
1/2-x,1/2-y,-z
1/2+x,1/2-y,z
loop_
_atom_site_type_symbol
_atom_site_label
_atom_site_fract_x
_atom_site_fract_y
_atom_site_fract_z
Si Si1 0.453738 0.680014 0.483350
Si Si2 0.744906 0.178788 0.618846
Si Si3 0.736441 0.679679 0.126069
Si Si4 0.646683 0.820204 0.605752
Si Si5 0.193787 0.679473 0.319129
Si Si6 0.001168 0.680286 0.286356
Si Si7 0.855660 0.179742 0.906743
O O1 0.500000 0.707212 0.500000
O O2 0.448412 0.500000 0.478904
O O3 0.378999 0.748561 0.579144
O O4 0.487152 0.754442 0.378609
O O5 0.677714 0.211936 0.647205
O O6 0.808004 0.229406 0.499880
O O7 0.752636 0.266854 0.681851
O O8 0.748523 0.000000 0.627559
O O9 0.739951 0.500000 0.132741
O O10 0.715214 0.759971 0.220296
O O11 0.680403 0.709506 0.127918
O O12 0.807637 0.741823 0.016925
O O13 0.567277 0.787400 0.682151
O O14 0.657123 0.000000 0.581084
O O15 0.187841 0.500000 0.325600
O O16 0.009802 0.500000 0.280802
O O17 0.068459 0.755014 0.180214
O O18 0.855985 0.000000 0.916991
#
# Coordination Sequence:
#
# PCOD9183102 Si02
#       7
#     8   8   8   8   8   8   8
#     4  11  23  36  50  74 108 144 180 218 265 320
#     4  10  19  33  54  77 106 142 180 221 268 318
#     4  10  21  38  58  79 105 141 184 225 266 314
#     4   9  19  34  52  78 108 140 179 222 266 320
#     4  12  23  35  53  79 110 142 179 221 270 323
#     4  11  21  34  54  80 110 142 177 218 267 321
#     4  10  21  37  57  81 108 140 181 224 265 316
#
# _framework density 16.781832999999999
#
# number of rings (size 3 to 8) (size 9 to 14) (size 15 to 20)
#    0.000    1.571    1.429    4.286    0.000    7.429 
#    0.000    0.000    0.000    0.857    0.000    6.000 
#    0.000    0.000    0.000    0.000    0.000    0.000 
#
# Total GULP energy -156435.038097 kJ/mol
# GULP energy per Si atom -5586.965646 kJ/mol
# Density = 1.674364 g / cm^3
# Si number density = 16.781833 Si / 1000 Ang^3
#
#
#
# Elastic Constant Matrix: (Units=GPa)
#
#
# Indices 1 2 3 4 5 6 
#
# 1 62.3008 34.2011 14.8823 -0.0049 -17.2348 0.0023
# 2 34.2011 50.9257 10.9628 -0.0095 -8.8622 0.0060
# 3 14.8823 10.9628 46.3786 -0.0071 -18.8643 0.0040
# 4 -0.0049 -0.0095 -0.0071 33.3179 0.0021 1.9478
# 5 -17.2348 -8.8622 -18.8643 0.0021 25.1978 -0.0009
# 6 0.0023 0.0060 0.0040 1.9478 -0.0009 24.7460
#
#
#
# Elastic Compliance Matrix: (Units=1/GPa)
#
#
# Indices 1 2 3 4 5 6 
#
# 1 0.029464 -0.017389 0.000525 -0.000002 0.014430 0.000002
# 2 -0.017389 0.031437 -0.003151 0.000006 -0.003197 -0.000006
# 3 0.000525 -0.003151 0.031393 0.000005 0.022753 -0.000004
# 4 -0.000002 0.000006 0.000005 0.030153 0.000002 -0.002373
# 5 0.014430 -0.003197 0.022753 0.000002 0.065465 -0.000002
# 6 0.000002 -0.000006 -0.000004 -0.002373 -0.000002 0.040597
#
#
# Mechanical properties :
#
#
# Convention : Reuss Voigt Hill
#
# Bulk Modulus (GPa) = 19.13407 31.07750 25.10579
# Shear Modulus (GPa) = 17.48492 23.28961 20.38727
#
# Velocity S-wave (km/s) = 3.23134 3.72934 3.48924
# Velocity P-wave (km/s) = 5.03473 6.09120 5.58799
#
# Compressibility (1/GPa) = 0.05226279
#
# Stress axis : x y z
#
# Youngs Moduli (GPa) = 33.93999 31.80960 31.85453
#
# Poissons Ratio (x) = 0.55315 -0.01673
# Poissons Ratio (y) = 0.59020 0.10038
# Poissons Ratio (z) = -0.01782 0.10023
#
# Static dielectric constant tensor:
#      x y z
#    x 1.577930 0.000000 -0.004810 
#    y 0.000000 1.557640 0.000000 
#    z -0.004810 0.000000 1.524340 
# 
# From -- ./inp_files/292368.got.cif
#   From: 2010.05.17/outbox.cif.g08.bks.cpg/sg12_147_cif.got.tgz:292368.got - 2010.06.03 13:09:07.
