data_PCOD9183183
_publ_section_title
;
Structure prediction by ZEFSAII (Michael W. Deem and Ramdas Pophale) SiO2 
 PCOD9183183
Probable space group: C 2/M
;
_chemical_formula_sum "Si O2"
_cell_formula_units_Z 64
_cell_length_a 17.976230
_cell_length_b 15.787365
_cell_length_c 12.830874
_cell_angle_alpha 90.000000
_cell_angle_beta 79.056639
_cell_angle_gamma 90.000000
_cell_volume 3575.150372
_symmetry_space_group_name_H-M "C 2/M"
_symmetry_group_IT_number 12
_symmetry_cell_setting 'monoclinic'
loop_
_space_group_symop_operation_xyz
x,y,z
-x,y,-z
-x,-y,-z
x,-y,z
1/2+x,1/2+y,z
1/2-x,1/2+y,-z
1/2-x,1/2-y,-z
1/2+x,1/2-y,z
loop_
_atom_site_type_symbol
_atom_site_label
_atom_site_fract_x
_atom_site_fract_y
_atom_site_fract_z
Si Si1 0.386902 0.596341 0.874664
Si Si2 0.838573 0.235614 0.493694
Si Si3 0.698277 0.323645 0.284911
Si Si4 0.194429 0.095182 0.882989
Si Si5 0.640933 0.743184 0.742713
Si Si6 0.983863 0.738943 0.882128
Si Si7 0.360765 0.854247 0.793825
Si Si8 0.087387 0.592598 0.442834
O O1 0.416046 0.500000 0.869959
O O2 0.332254 0.608989 0.789458
O O3 0.451456 0.668468 0.857630
O O4 0.338160 0.611358 0.992954
O O5 0.750000 0.250000 0.500000
O O6 0.841462 0.172271 0.591109
O O7 0.869248 0.210570 0.372839
O O8 0.873325 0.325989 0.516907
O O9 0.788938 0.310080 0.271970
O O10 0.669906 0.234465 0.244604
O O11 0.162807 0.165703 0.812868
O O12 0.285668 0.100590 0.855696
O O13 0.171579 0.000000 0.858185
O O14 0.561784 0.779849 0.802275
O O15 0.920719 0.670947 0.865718
O O16 0.000000 0.739982 0.000000
O O17 0.399848 0.899437 0.684945
O O18 0.118074 0.500000 0.467214
O O19 0.000000 0.595763 0.500000
#
# Coordination Sequence:
#
# PCOD9183183 Si02
#       8
#     8   8   8   8   8   8   8   8
#     4  10  21  36  53  74 104 139 178 215 255 309
#     4   9  18  35  54  81 106 134 174 216 256 300
#     4   8  18  34  55  75  99 137 177 212 249 301
#     4  10  20  34  54  75 100 139 179 216 254 301
#     4  10  19  33  54  79 109 132 167 218 260 308
#     4  11  21  32  51  80 105 136 168 213 268 308
#     4   9  19  32  51  75 102 132 174 213 249 306
#     4  10  19  33  55  79 104 136 171 210 259 310
#
# _framework density 17.901344999999999
#
# number of rings (size 3 to 8) (size 9 to 14) (size 15 to 20)
#    0.000    2.375    1.250    1.875    1.750    2.250 
#    0.000    3.125    0.000    3.750    0.000    0.000 
#    0.000    0.000    0.000    0.000    0.000    0.000 
#
# Total GULP energy -178268.711267 kJ/mol
# GULP energy per Si atom -5570.897227 kJ/mol
# Density = 1.786060 g / cm^3
# Si number density = 17.901345 Si / 1000 Ang^3
#
#
#
# Elastic Constant Matrix: (Units=GPa)
#
#
# Indices 1 2 3 4 5 6 
#
# 1 62.6830 9.7916 14.7080 0.0000 -0.5759 0.0000
# 2 9.7916 45.5792 9.9979 0.0000 5.7889 0.0000
# 3 14.7080 9.9979 90.3820 0.0000 10.8423 0.0000
# 4 0.0000 0.0000 0.0000 4.2514 0.0000 -4.3561
# 5 -0.5759 5.7889 10.8423 0.0000 28.8603 0.0000
# 6 0.0000 0.0000 0.0000 -4.3561 0.0000 15.9667
#
#
#
# Elastic Compliance Matrix: (Units=1/GPa)
#
#
# Indices 1 2 3 4 5 6 
#
# 1 0.017118 -0.003350 -0.002656 0.000000 0.002012 0.000000
# 2 -0.003350 0.023534 -0.001554 0.000000 -0.004204 0.000000
# 3 -0.002656 -0.001554 0.012186 0.000000 -0.004320 0.000000
# 4 0.000000 0.000000 0.000000 0.326477 0.000000 0.089070
# 5 0.002012 -0.004204 -0.004320 0.000000 0.037156 0.000000
# 6 0.000000 0.000000 0.000000 0.089070 0.000000 0.086930
#
#
# Mechanical properties :
#
#
# Convention : Reuss Voigt Hill
#
# Bulk Modulus (GPa) = 26.51242 29.73768 28.12505
# Shear Modulus (GPa) = 9.41450 20.75881 15.08665
#
# Velocity S-wave (km/s) = 2.29576 3.40902 2.90619
# Velocity P-wave (km/s) = 4.67652 5.66950 5.19678
#
# Compressibility (1/GPa) = 0.03771817
#
# Stress axis : x y z
#
# Youngs Moduli (GPa) = 58.41664 42.49115 82.05806
#
# Poissons Ratio (x) = 0.14236 0.21798
# Poissons Ratio (y) = 0.19571 0.12751
# Poissons Ratio (z) = 0.15518 0.06603
#
# Static dielectric constant tensor:
#      x y z
#    x 1.611080 0.000000 0.005370 
#    y 0.000000 1.605050 0.000000 
#    z 0.005370 0.000000 1.640960 
# 
# From -- ./inp_files/157812.got.cif
#   From: 2010.05.17/outbox.cif.g08.bks.cpg/sg12_79_cif.got.tgz:157812.got - 2010.06.03 13:09:07.
