data_PCOD9183755
_publ_section_title
;
Structure prediction by ZEFSAII (Michael W. Deem and Ramdas Pophale) SiO2 
 PCOD9183755
Probable space group: C 2/M
;
_chemical_formula_sum "Si O2"
_cell_formula_units_Z 56
_cell_length_a 20.292994
_cell_length_b 18.613530
_cell_length_c 9.140668
_cell_angle_alpha 90.000000
_cell_angle_beta 115.540670
_cell_angle_gamma 90.000000
_cell_volume 3115.257004
_symmetry_space_group_name_H-M "C 2/M"
_symmetry_group_IT_number 12
_symmetry_cell_setting 'monoclinic'
loop_
_space_group_symop_operation_xyz
x,y,z
-x,y,-z
-x,-y,-z
x,-y,z
1/2+x,1/2+y,z
1/2-x,1/2+y,-z
1/2-x,1/2-y,-z
1/2+x,1/2-y,z
loop_
_atom_site_type_symbol
_atom_site_label
_atom_site_fract_x
_atom_site_fract_y
_atom_site_fract_z
Si Si1 0.216928 0.664660 0.834354
Si Si2 0.401460 0.720770 0.271094
Si Si3 0.688825 0.585017 0.836526
Si Si4 0.057289 0.274605 0.365474
Si Si5 0.311796 0.712997 0.661375
Si Si6 0.229926 0.081193 0.543640
Si Si7 0.624509 0.082901 0.500571
O O1 0.165257 0.728401 0.842073
O O2 0.277301 0.701576 0.786784
O O3 0.166111 0.614181 0.682727
O O4 0.255393 0.615645 0.990686
O O5 0.380766 0.638148 0.225977
O O6 0.476162 0.745857 0.268016
O O7 0.412174 0.737409 0.455370
O O8 0.674327 0.500000 0.842291
O O9 0.723175 0.596160 0.708355
O O10 0.113302 0.254873 0.290344
O O11 0.062065 0.359857 0.401076
O O12 0.250000 0.750000 0.500000
O O13 0.319154 0.634632 0.596858
O O14 0.312689 0.087347 0.564196
O O15 0.206120 0.000000 0.494803
O O16 0.602430 0.000000 0.496175
#
# Coordination Sequence:
#
# PCOD9183755 Si02
#       7
#     8   8   8   8   8   8   8
#     4  10  20  33  57  78 110 138 181 221 268 316
#     4  10  20  35  52  81 108 141 178 224 263 320
#     4  11  21  35  54  80 111 143 178 223 269 315
#     4  10  19  33  56  78 110 139 181 222 267 316
#     4  11  16  33  55  79 102 140 182 221 256 312
#     4   9  17  29  51  79 104 132 176 222 261 304
#     4   9  17  32  54  82 108 135 173 223 270 318
#
# _framework density 17.976046
#
# number of rings (size 3 to 8) (size 9 to 14) (size 15 to 20)
#    0.000    2.000    5.714    0.857    0.000    0.571 
#    0.000    9.286    0.000    0.857    0.000    3.000 
#    0.000    0.000    0.000    0.000    0.000    0.000 
#
# Total GULP energy -156159.194593 kJ/mol
# GULP energy per Si atom -5577.114093 kJ/mol
# Density = 1.793513 g / cm^3
# Si number density = 17.976046 Si / 1000 Ang^3
#
#
#
# Elastic Constant Matrix: (Units=GPa)
#
#
# Indices 1 2 3 4 5 6 
#
# 1 71.4731 48.7328 27.1341 0.0000 9.6970 0.0000
# 2 48.7328 133.4129 46.0316 0.0000 8.6832 0.0000
# 3 27.1341 46.0316 42.5755 0.0000 4.1068 0.0000
# 4 0.0000 0.0000 0.0000 25.0437 0.0000 -2.0653
# 5 9.6970 8.6832 4.1068 0.0000 8.5057 0.0000
# 6 0.0000 0.0000 0.0000 -2.0653 0.0000 23.4982
#
#
#
# Elastic Compliance Matrix: (Units=1/GPa)
#
#
# Indices 1 2 3 4 5 6 
#
# 1 0.022234 -0.004285 -0.007882 0.000000 -0.017168 0.000000
# 2 -0.004285 0.013107 -0.011140 0.000000 -0.003117 0.000000
# 3 -0.007882 -0.011140 0.040476 0.000000 0.000814 0.000000
# 4 0.000000 0.000000 0.000000 0.040222 0.000000 0.003535
# 5 -0.017168 -0.003117 0.000814 0.000000 0.139930 0.000000
# 6 0.000000 0.000000 0.000000 0.003535 0.000000 0.042867
#
#
# Mechanical properties :
#
#
# Convention : Reuss Voigt Hill
#
# Bulk Modulus (GPa) = 34.24019 54.58428 44.41223
# Shear Modulus (GPa) = 14.07725 19.78038 16.92881
#
# Velocity S-wave (km/s) = 2.80145 3.32079 3.07211
# Velocity P-wave (km/s) = 5.43628 6.71822 6.11096
#
# Compressibility (1/GPa) = 0.02920544
#
# Stress axis : x y z
#
# Youngs Moduli (GPa) = 44.97546 76.29471 24.70604
#
# Poissons Ratio (x) = 0.32692 0.19472
# Poissons Ratio (y) = 0.19272 0.27521
# Poissons Ratio (z) = 0.35447 0.84988
#
# Static dielectric constant tensor:
#      x y z
#    x 1.622450 0.000000 -0.015440 
#    y 0.000000 1.662650 0.000000 
#    z -0.015440 0.000000 1.610160 
# 
# From -- ./inp_files/88058.got.cif
#   From: 2010.05.17/outbox.cif.g08.bks.cpg/sg12_45_cif.got.tgz:88058.got - 2010.06.03 13:09:07.
