data_PCOD9183281
_publ_section_title
;
Structure prediction by ZEFSAII (Michael W. Deem and Ramdas Pophale) SiO2 
 PCOD9183281
Probable space group: C 2/M
;
_chemical_formula_sum "Si O2"
_cell_formula_units_Z 48
_cell_length_a 15.448740
_cell_length_b 28.301563
_cell_length_c 10.144026
_cell_angle_alpha 90.000000
_cell_angle_beta 153.364829
_cell_angle_gamma 90.000000
_cell_volume 1988.337993
_symmetry_space_group_name_H-M "C 2/M"
_symmetry_group_IT_number 12
_symmetry_cell_setting 'monoclinic'
loop_
_space_group_symop_operation_xyz
x,y,z
-x,y,-z
-x,-y,-z
x,-y,z
1/2+x,1/2+y,z
1/2-x,1/2+y,-z
1/2-x,1/2-y,-z
1/2+x,1/2-y,z
loop_
_atom_site_type_symbol
_atom_site_label
_atom_site_fract_x
_atom_site_fract_y
_atom_site_fract_z
Si Si1 0.769726 0.054109 0.694027
Si Si2 0.775841 0.137713 0.907686
Si Si3 0.776850 0.448517 0.663831
Si Si4 0.197730 0.820382 0.529078
Si Si5 0.262701 0.282753 0.688810
Si Si6 0.784314 0.874450 0.213737
O O1 0.731501 0.092596 0.755544
O O2 0.718336 0.072362 0.477349
O O3 0.692364 0.000000 0.608872
O O4 0.000000 0.050475 0.000000
O O5 0.714143 0.185530 0.748792
O O6 0.703350 0.127602 0.957090
O O7 0.006518 0.148274 0.237411
O O8 0.682993 0.500000 0.519722
O O9 0.690552 0.423803 0.675279
O O10 0.000000 0.452895 0.000000
O O11 0.160944 0.767642 0.535716
O O12 0.292575 0.811530 0.517408
O O13 0.313797 0.844910 0.804300
O O14 0.500000 0.276437 0.000000
O O15 0.000000 0.852979 0.500000
#
# Coordination Sequence:
#
# PCOD9183281 Si02
#       6
#     8   8   8   8   8   8
#     4  10  19  34  60  89 117 156 200 238 284 351
#     4  10  19  33  54  81 114 149 190 246 295 340
#     4  10  22  40  61  86 119 157 196 244 297 350
#     4   9  18  32  50  76 108 149 196 243 288 340
#     4   9  17  31  53  76 106 150 197 240 292 352
#     4  10  20  34  56  84 117 153 191 242 299 350
#
# _framework density 24.140764000000001
#
# number of rings (size 3 to 8) (size 9 to 14) (size 15 to 20)
#    0.000    2.333    0.000    4.500    0.000    2.333 
#    0.000    2.500    0.000    3.000    0.000    0.000 
#    0.000    0.000    0.000    0.000    0.000    0.000 
#
# Total GULP energy -133799.603227 kJ/mol
# GULP energy per Si atom -5574.983468 kJ/mol
# Density = 2.408582 g / cm^3
# Si number density = 24.140764 Si / 1000 Ang^3
#
#
#
# Elastic Constant Matrix: (Units=GPa)
#
#
# Indices 1 2 3 4 5 6 
#
# 1 118.7462 56.7809 63.9755 0.0002 -45.8878 0.0001
# 2 56.7809 126.8802 37.1339 0.0000 -34.9924 0.0000
# 3 63.9755 37.1339 116.9430 0.0002 -43.2470 0.0001
# 4 0.0002 0.0000 0.0002 14.8947 0.0002 -20.2323
# 5 -45.8878 -34.9924 -43.2470 0.0002 65.4152 0.0001
# 6 0.0001 0.0000 0.0001 -20.2323 0.0001 16.1684
#
#
#
# Elastic Compliance Matrix: (Units=1/GPa)
#
#
# Indices 1 2 3 4 5 6 
#
# 1 0.014944 -0.003795 -0.005088 0.000000 0.005089 0.000000
# 2 -0.003795 0.010403 -0.000204 0.000000 0.002768 0.000000
# 3 -0.005088 -0.000204 0.013288 0.000000 0.005107 0.000000
# 4 0.000000 0.000000 0.000000 -0.095942 0.000001 -0.120057
# 5 0.005089 0.002768 0.005107 0.000001 0.023714 0.000001
# 6 0.000000 0.000000 0.000000 -0.120057 0.000001 -0.088384
#
#
# Mechanical properties :
#
#
# Convention : Reuss Voigt Hill
#
# Bulk Modulus (GPa) = 48.87344 75.37222 62.12283
# Shear Modulus (GPa) = -51.55476 32.94092 -9.30692
#
# Velocity S-wave (km/s) = -4.62626 3.69797 -1.96562
# Velocity P-wave (km/s) = 2.87179 7.03726 4.54290
#
# Compressibility (1/GPa) = 0.02046101
#
# Stress axis : x y z
#
# Youngs Moduli (GPa) = 66.91715 96.12868 75.25637
#
# Poissons Ratio (x) = 0.36480 0.38293
# Poissons Ratio (y) = 0.25395 0.01532
# Poissons Ratio (z) = 0.34049 0.01956
#
# Static dielectric constant tensor:
#      x y z
#    x 1.981050 0.000000 0.011820 
#    y 0.000000 2.044640 0.000000 
#    z 0.011820 0.000000 1.978190 
# 
# From -- ./inp_files/68399.got.cif
#   From: 2010.05.17/outbox.cif.g08.bks.cpg/sg12_35_cif.got.tgz:68399.got - 2010.06.03 13:09:07.
