data_PCOD9183398
_publ_section_title
;
Structure prediction by ZEFSAII (Michael W. Deem and Ramdas Pophale) SiO2 
 PCOD9183398
Probable space group: C 2/M
;
_chemical_formula_sum "Si O2"
_cell_formula_units_Z 56
_cell_length_a 14.761534
_cell_length_b 17.703930
_cell_length_c 12.247622
_cell_angle_alpha 90.000000
_cell_angle_beta 112.275098
_cell_angle_gamma 90.000000
_cell_volume 2961.900744
_symmetry_space_group_name_H-M "C 2/M"
_symmetry_group_IT_number 12
_symmetry_cell_setting 'monoclinic'
loop_
_space_group_symop_operation_xyz
x,y,z
-x,y,-z
-x,-y,-z
x,-y,z
1/2+x,1/2+y,z
1/2-x,1/2+y,-z
1/2-x,1/2-y,-z
1/2+x,1/2-y,z
loop_
_atom_site_type_symbol
_atom_site_label
_atom_site_fract_x
_atom_site_fract_y
_atom_site_fract_z
Si Si1 0.386261 0.268108 0.420890
Si Si2 0.707857 0.581871 0.536641
Si Si3 0.640252 0.780149 0.969289
Si Si4 0.878539 0.355893 0.253936
Si Si5 0.573970 0.262883 0.168098
Si Si6 0.316317 0.584132 0.734937
Si Si7 0.599099 0.154016 0.384024
O O1 0.500000 0.281642 0.500000
O O2 0.332863 0.345741 0.419172
O O3 0.366249 0.230174 0.295070
O O4 0.361468 0.200871 0.493994
O O5 0.672056 0.500000 0.558650
O O6 0.683400 0.588741 0.396736
O O7 0.824454 0.588531 0.601668
O O8 0.628504 0.850417 0.880342
O O9 0.543815 0.730276 0.894638
O O10 0.750000 0.750000 0.000000
O O11 0.619533 0.785725 0.089011
O O12 0.793161 0.404824 0.267669
O O13 0.988065 0.375100 0.343510
O O14 0.622306 0.345153 0.192525
O O15 0.596704 0.216251 0.287384
O O16 0.351547 0.500000 0.781030
#
# Coordination Sequence:
#
# PCOD9183398 Si02
#       7
#     8   8   8   8   8   8   8
#     4  10  19  33  55  77 103 138 181 224 268 320
#     4  11  22  33  50  79 116 148 174 213 271 335
#     4  10  20  34  59  82 105 133 185 237 267 313
#     4  10  20  34  56  82 105 139 184 229 269 314
#     4  10  20  36  57  84 108 141 183 232 273 313
#     4  11  21  34  53  80 117 147 172 217 278 335
#     4  10  19  34  56  80 105 142 183 224 271 314
#
# _framework density 18.906777999999999
#
# number of rings (size 3 to 8) (size 9 to 14) (size 15 to 20)
#    0.000    1.714    4.286    1.286    0.000    0.857 
#    0.000    2.857    0.000    3.429    0.000    4.000 
#    0.000    0.000    0.000    0.000    0.000    0.000 
#
# Total GULP energy -156023.582136 kJ/mol
# GULP energy per Si atom -5572.270791 kJ/mol
# Density = 1.886375 g / cm^3
# Si number density = 18.906778 Si / 1000 Ang^3
#
#
#
# Elastic Constant Matrix: (Units=GPa)
#
#
# Indices 1 2 3 4 5 6 
#
# 1 67.2205 19.3148 5.3308 0.0000 -0.5360 0.0000
# 2 19.3148 47.7789 4.5198 0.0000 0.5308 0.0000
# 3 5.3308 4.5198 54.7883 0.0000 -10.4679 0.0000
# 4 0.0000 0.0000 0.0000 10.6939 0.0000 -1.7127
# 5 -0.5360 0.5308 -10.4679 0.0000 26.3180 0.0000
# 6 0.0000 0.0000 0.0000 -1.7127 0.0000 6.8204
#
#
#
# Elastic Compliance Matrix: (Units=1/GPa)
#
#
# Indices 1 2 3 4 5 6 
#
# 1 0.016896 -0.006729 -0.001079 0.000000 0.000051 0.000000
# 2 -0.006729 0.023810 -0.001545 0.000000 -0.001232 0.000000
# 3 -0.001079 -0.001545 0.020007 0.000000 0.007967 0.000000
# 4 0.000000 0.000000 0.000000 0.097430 0.000000 0.024466
# 5 0.000051 -0.001232 0.007967 0.000000 0.041191 0.000000
# 6 0.000000 0.000000 0.000000 0.024466 0.000000 0.152762
#
#
# Mechanical properties :
#
#
# Convention : Reuss Voigt Hill
#
# Bulk Modulus (GPa) = 23.80572 25.34651 24.57611
# Shear Modulus (GPa) = 12.99367 18.14127 15.56747
#
# Velocity S-wave (km/s) = 2.62439 3.10096 2.87257
# Velocity P-wave (km/s) = 4.66922 5.12410 4.90194
#
# Compressibility (1/GPa) = 0.04200671
#
# Stress axis : x y z
#
# Youngs Moduli (GPa) = 59.18633 41.99975 49.98338
#
# Poissons Ratio (x) = 0.28260 0.05394
# Poissons Ratio (y) = 0.39825 0.07722
# Poissons Ratio (z) = 0.06387 0.06488
#
# Static dielectric constant tensor:
#      x y z
#    x 1.717040 0.000000 -0.012630 
#    y 0.000000 1.619220 0.000000 
#    z -0.012630 0.000000 1.691320 
# 
# From -- ./inp_files/145464.got.cif
#   From: 2010.05.17/outbox.cif.g08.bks.cpg/sg12_73_cif.got.tgz:145464.got - 2010.06.03 13:09:07.
