data_PCOD9183452
_publ_section_title
;
Structure prediction by ZEFSAII (Michael W. Deem and Ramdas Pophale) SiO2 
 PCOD9183452
Probable space group: C 2/M
;
_chemical_formula_sum "Si O2"
_cell_formula_units_Z 56
_cell_length_a 34.300813
_cell_length_b 8.901400
_cell_length_c 12.867038
_cell_angle_alpha 90.000000
_cell_angle_beta 58.988891
_cell_angle_gamma 90.000000
_cell_volume 3367.102238
_symmetry_space_group_name_H-M "C 2/M"
_symmetry_group_IT_number 12
_symmetry_cell_setting 'monoclinic'
loop_
_space_group_symop_operation_xyz
x,y,z
-x,y,-z
-x,-y,-z
x,-y,z
1/2+x,1/2+y,z
1/2-x,1/2+y,-z
1/2-x,1/2-y,-z
1/2+x,1/2-y,z
loop_
_atom_site_type_symbol
_atom_site_label
_atom_site_fract_x
_atom_site_fract_y
_atom_site_fract_z
Si Si1 0.551361 0.819466 0.893278
Si Si2 0.599788 0.321028 0.396413
Si Si3 0.303489 0.679101 0.827189
Si Si4 0.798850 0.678350 0.060272
Si Si5 0.548387 0.179973 0.655940
Si Si6 0.056648 0.320005 0.251383
Si Si7 0.113156 0.178735 0.983614
O O1 0.556393 0.780743 0.765249
O O2 0.556529 0.000000 0.897894
O O3 0.500000 0.782641 0.000000
O O4 0.586948 0.737945 0.918549
O O5 0.593586 0.500000 0.397634
O O6 0.653010 0.287735 0.303125
O O7 0.581418 0.261492 0.530608
O O8 0.572157 0.242617 0.341063
O O9 0.304114 0.500000 0.850675
O O10 0.254243 0.712311 0.845684
O O11 0.307076 0.768367 0.930264
O O12 0.805894 0.500000 0.058222
O O13 0.835242 0.762782 0.080844
O O14 0.496090 0.215306 0.698584
O O15 0.553684 0.000000 0.638164
O O16 0.062109 0.500000 0.240798
O O17 0.087204 0.247319 0.119307
O O18 0.111854 0.000000 0.991206
#
# Coordination Sequence:
#
# PCOD9183452 Si02
#       7
#     8   8   8   8   8   8   8
#     4  10  20  39  60  78 103 142 187 227 266 316
#     4  11  22  35  53  81 116 146 175 221 274 323
#     4   9  19  34  52  79 111 141 177 222 269 321
#     4  10  19  33  55  79 106 144 181 218 269 324
#     4  10  22  38  56  77 106 145 189 224 257 320
#     4  11  21  36  55  78 108 148 188 220 262 318
#     4  12  23  34  53  83 115 141 175 226 280 323
#
# _framework density 16.631512000000001
#
# number of rings (size 3 to 8) (size 9 to 14) (size 15 to 20)
#    0.000    1.571    2.857    3.000    0.000    4.857 
#    0.000    0.000    0.000    0.857    0.000    0.000 
#    0.000    0.000    0.000    0.000    0.000    0.000 
#
# Total GULP energy -156400.649819 kJ/mol
# GULP energy per Si atom -5585.737494 kJ/mol
# Density = 1.659366 g / cm^3
# Si number density = 16.631512 Si / 1000 Ang^3
#
#
#
# Elastic Constant Matrix: (Units=GPa)
#
#
# Indices 1 2 3 4 5 6 
#
# 1 138.8857 66.0168 66.6542 0.0000 3.5551 0.0000
# 2 66.0168 63.0471 52.0071 0.0000 -0.0304 0.0000
# 3 66.6542 52.0071 100.8577 0.0000 11.1868 0.0000
# 4 0.0000 0.0000 0.0000 26.9017 0.0000 0.1254
# 5 3.5551 -0.0304 11.1868 0.0000 16.6573 0.0000
# 6 0.0000 0.0000 0.0000 0.1254 0.0000 24.8631
#
#
#
# Elastic Compliance Matrix: (Units=1/GPa)
#
#
# Indices 1 2 3 4 5 6 
#
# 1 0.014906 -0.013222 -0.002893 0.000000 -0.001263 0.000000
# 2 -0.013222 0.041099 -0.013804 0.000000 0.012167 0.000000
# 3 -0.002893 -0.013804 0.020398 0.000000 -0.013107 0.000000
# 4 0.000000 0.000000 0.000000 0.037173 0.000000 -0.000188
# 5 -0.001263 0.012167 -0.013107 0.000000 0.069128 0.000000
# 6 0.000000 0.000000 0.000000 -0.000188 0.000000 0.040221
#
#
# Mechanical properties :
#
#
# Convention : Reuss Voigt Hill
#
# Bulk Modulus (GPa) = 60.36725 74.68298 67.52512
# Shear Modulus (GPa) = 17.34400 21.55858 19.45129
#
# Velocity S-wave (km/s) = 3.23281 3.60425 3.42357
# Velocity P-wave (km/s) = 7.09298 7.89448 7.50444
#
# Compressibility (1/GPa) = 0.01656527
#
# Stress axis : x y z
#
# Youngs Moduli (GPa) = 67.08835 24.33171 49.02355
#
# Poissons Ratio (x) = 0.32172 0.14181
# Poissons Ratio (y) = 0.88706 0.67671
# Poissons Ratio (z) = 0.19407 0.33587
#
# Static dielectric constant tensor:
#      x y z
#    x 1.561630 0.000000 -0.015450 
#    y 0.000000 1.554530 0.000000 
#    z -0.015450 0.000000 1.531440 
# 
# From -- ./inp_files/186464.got.cif
#   From: 2010.05.17/outbox.cif.g08.bks.cpg/sg12_94_cif.got.tgz:186464.got - 2010.06.03 13:09:07.
