data_PCOD9183488
_publ_section_title
;
Structure prediction by ZEFSAII (Michael W. Deem and Ramdas Pophale) SiO2 
 PCOD9183488
Probable space group: C 2/M
;
_chemical_formula_sum "Si O2"
_cell_formula_units_Z 64
_cell_length_a 19.490948
_cell_length_b 13.849859
_cell_length_c 26.610141
_cell_angle_alpha 90.000000
_cell_angle_beta 154.600425
_cell_angle_gamma 90.000000
_cell_volume 3081.132155
_symmetry_space_group_name_H-M "C 2/M"
_symmetry_group_IT_number 12
_symmetry_cell_setting 'monoclinic'
loop_
_space_group_symop_operation_xyz
x,y,z
-x,y,-z
-x,-y,-z
x,-y,z
1/2+x,1/2+y,z
1/2-x,1/2+y,-z
1/2-x,1/2-y,-z
1/2+x,1/2-y,z
loop_
_atom_site_type_symbol
_atom_site_label
_atom_site_fract_x
_atom_site_fract_y
_atom_site_fract_z
Si Si1 0.886333 0.891803 0.780943
Si Si2 0.762458 0.257145 0.881745
Si Si3 0.056741 0.612936 0.203889
Si Si4 0.127369 0.263110 0.154687
Si Si5 0.070654 0.698142 0.320296
Si Si6 0.303818 0.612044 0.067805
Si Si7 0.091287 0.609418 0.515592
Si Si8 0.741957 0.614086 0.467801
O O1 0.807761 0.829435 0.772653
O O2 0.769858 0.896515 0.656263
O O3 0.053248 0.847853 0.871897
O O4 0.915096 0.000000 0.818370
O O5 0.779198 0.287234 0.834445
O O6 0.617722 0.181149 0.792642
O O7 0.715071 0.337623 0.891311
O O8 0.945202 0.233685 0.018536
O O9 0.099076 0.500000 0.238014
O O10 0.120759 0.654406 0.193112
O O11 0.104404 0.674785 0.284309
O O12 0.864167 0.618949 0.071687
O O13 0.189507 0.632790 0.431804
O O14 0.108152 0.807677 0.364078
O O15 0.342519 0.500000 0.101627
O O16 0.022947 0.500000 0.466385
O O17 0.112905 0.644450 0.473928
O O18 0.000000 0.662421 0.500000
O O19 0.705128 0.500000 0.435812
#
# Coordination Sequence:
#
# PCOD9183488 Si02
#       8
#     8   8   8   8   8   8   8   8
#     4  10  19  33  55  80 106 143 188 232 276 331
#     4  10  21  35  53  83 117 151 186 230 278 330
#     4  10  20  36  58  84 113 149 186 228 282 337
#     4  10  21  36  54  81 120 152 184 225 276 341
#     4  11  22  37  59  85 111 149 188 238 282 330
#     4   9  18  33  57  83 109 145 191 234 276 328
#     4   9  18  31  50  75 101 134 177 224 271 322
#     4  10  22  39  57  82 111 144 190 238 282 330
#
# _framework density 20.771585999999999
#
# number of rings (size 3 to 8) (size 9 to 14) (size 15 to 20)
#    0.000    2.125    0.000    3.375    1.750    4.000 
#    0.000    5.000    0.000    0.000    0.000    2.625 
#    0.000    0.000    0.000    0.000    0.000    0.000 
#
# Total GULP energy -178352.909254 kJ/mol
# GULP energy per Si atom -5573.528414 kJ/mol
# Density = 2.072431 g / cm^3
# Si number density = 20.771586 Si / 1000 Ang^3
#
#
#
# Elastic Constant Matrix: (Units=GPa)
#
#
# Indices 1 2 3 4 5 6 
#
# 1 117.3343 12.7754 28.6156 0.0005 -27.0981 -0.0005
# 2 12.7754 83.3965 24.1078 0.0055 -15.3434 0.0003
# 3 28.6156 24.1078 41.4083 0.0136 -23.8253 -0.0018
# 4 0.0005 0.0055 0.0136 11.8838 0.0008 -2.5137
# 5 -27.0981 -15.3434 -23.8253 0.0008 36.3013 -0.0009
# 6 -0.0005 0.0003 -0.0018 -2.5137 -0.0009 11.6931
#
#
#
# Elastic Compliance Matrix: (Units=1/GPa)
#
#
# Indices 1 2 3 4 5 6 
#
# 1 0.010840 0.000716 -0.004946 0.000005 0.005149 0.000001
# 2 0.000716 0.014485 -0.008191 0.000002 0.001281 -0.000001
# 3 -0.004946 -0.008191 0.045343 -0.000050 0.022606 -0.000002
# 4 0.000005 0.000002 -0.000050 0.088157 -0.000030 0.018952
# 5 0.005149 0.001281 0.022606 -0.000030 0.046769 0.000001
# 6 0.000001 -0.000001 -0.000002 0.018952 0.000001 0.089595
#
#
# Mechanical properties :
#
#
# Convention : Reuss Voigt Hill
#
# Bulk Modulus (GPa) = 21.82112 41.45965 31.64039
# Shear Modulus (GPa) = 14.91184 23.75165 19.33174
#
# Velocity S-wave (km/s) = 2.68226 3.38519 3.05402
# Velocity P-wave (km/s) = 4.48562 5.93990 5.26323
#
# Compressibility (1/GPa) = 0.04582716
#
# Stress axis : x y z
#
# Youngs Moduli (GPa) = 92.25195 69.03869 22.05406
#
# Poissons Ratio (x) = -0.04946 0.10907
# Poissons Ratio (y) = -0.06609 0.18064
# Poissons Ratio (z) = 0.45625 0.56549
#
# Static dielectric constant tensor:
#      x y z
#    x 1.757850 0.000000 0.021980 
#    y 0.000000 1.771170 0.000000 
#    z 0.021980 0.000000 1.783830 
# 
# From -- ./inp_files/344094.got.cif
#   From: 2010.05.17/outbox.cif.g08.bks.cpg/sg12_173_cif.got.tgz:344094.got - 2010.06.03 13:09:07.
