data_PCOD9183538
_publ_section_title
;
Structure prediction by ZEFSAII (Michael W. Deem and Ramdas Pophale) SiO2 
 PCOD9183538
Probable space group: C 2/M
;
_chemical_formula_sum "Si O2"
_cell_formula_units_Z 56
_cell_length_a 30.473839
_cell_length_b 7.520680
_cell_length_c 11.730511
_cell_angle_alpha 90.000000
_cell_angle_beta 112.508800
_cell_angle_gamma 90.000000
_cell_volume 2483.641572
_symmetry_space_group_name_H-M "C 2/M"
_symmetry_group_IT_number 12
_symmetry_cell_setting 'monoclinic'
loop_
_space_group_symop_operation_xyz
x,y,z
-x,y,-z
-x,-y,-z
x,-y,z
1/2+x,1/2+y,z
1/2-x,1/2+y,-z
1/2-x,1/2-y,-z
1/2+x,1/2-y,z
loop_
_atom_site_type_symbol
_atom_site_label
_atom_site_fract_x
_atom_site_fract_y
_atom_site_fract_z
Si Si1 0.578316 0.785412 0.811226
Si Si2 0.946110 0.791348 0.464514
Si Si3 0.487038 0.217936 0.859300
Si Si4 0.320739 0.214948 0.015861
Si Si5 0.104188 0.703023 0.355106
Si Si6 0.270985 0.790500 0.197796
Si Si7 0.703831 0.785942 0.528441
O O1 0.580802 0.732015 0.681725
O O2 0.528920 0.722861 0.816277
O O3 0.577825 0.000000 0.813386
O O4 0.624655 0.726645 0.927468
O O5 0.919690 0.701599 0.543246
O O6 0.000000 0.723419 0.500000
O O7 0.949151 0.000000 0.495066
O O8 0.435781 0.282690 0.766697
O O9 0.486208 0.000000 0.853935
O O10 0.500000 0.268920 0.000000
O O11 0.285287 0.269674 0.880109
O O12 0.320377 0.000000 0.015889
O O13 0.297116 0.281314 0.111019
O O14 0.111279 0.500000 0.322377
O O15 0.155965 0.785265 0.422527
O O16 0.288310 0.716737 0.335319
O O17 0.281545 0.000000 0.209361
O O18 0.750000 0.750000 0.500000
O O19 0.698245 0.000000 0.531355
#
# Coordination Sequence:
#
# PCOD9183538 Si02
#       7
#     8   8   8   8   8   8   8
#     4  10  19  33  55  81 108 142 183 225 270 324
#     4  11  22  34  53  83 117 146 179 224 273 330
#     4   9  18  32  52  79 107 137 178 225 269 317
#     4   9  18  32  54  81 105 134 177 226 273 323
#     4  10  20  37  60  82 108 145 186 229 276 325
#     4   9  18  34  51  73 108 141 175 221 276 330
#     4  10  22  38  57  81 109 146 190 233 275 325
#
# _framework density 22.547536999999998
#
# number of rings (size 3 to 8) (size 9 to 14) (size 15 to 20)
#    0.000    2.286    1.429    1.286    0.000    5.714 
#    0.000    5.714    0.000    1.714    0.000    0.000 
#    0.000    0.000    0.000    0.000    0.000    0.000 
#
# Total GULP energy -156439.153372 kJ/mol
# GULP energy per Si atom -5587.112620 kJ/mol
# Density = 2.249622 g / cm^3
# Si number density = 22.547537 Si / 1000 Ang^3
#
#
#
# Elastic Constant Matrix: (Units=GPa)
#
#
# Indices 1 2 3 4 5 6 
#
# 1 98.9214 -2.2821 60.5589 0.0000 38.2094 0.0000
# 2 -2.2821 62.7434 -2.1729 0.0000 3.0259 0.0000
# 3 60.5589 -2.1729 161.6037 0.0000 30.1822 0.0000
# 4 0.0000 0.0000 0.0000 6.3726 0.0000 9.2512
# 5 38.2094 3.0259 30.1822 0.0000 40.1001 0.0000
# 6 0.0000 0.0000 0.0000 9.2512 0.0000 -7.2995
#
#
#
# Elastic Compliance Matrix: (Units=1/GPa)
#
#
# Indices 1 2 3 4 5 6 
#
# 1 0.018196 0.001210 -0.004127 0.000000 -0.014323 0.000000
# 2 0.001210 0.016113 0.000239 0.000000 -0.002549 0.000000
# 3 -0.004127 0.000239 0.008153 0.000000 -0.002222 0.000000
# 4 0.000000 0.000000 0.000000 0.055257 0.000000 0.070031
# 5 -0.014323 -0.002549 -0.002222 0.000000 0.040450 0.000000
# 6 0.000000 0.000000 0.000000 0.070031 0.000000 -0.048240
#
#
# Mechanical properties :
#
#
# Convention : Reuss Voigt Hill
#
# Bulk Modulus (GPa) = 26.95047 48.38624 37.66835
# Shear Modulus (GPa) = 46.44537 25.64561 36.04549
#
# Velocity S-wave (km/s) = 4.54352 3.37620 4.00264
# Velocity P-wave (km/s) = 6.28518 6.05843 6.17284
#
# Compressibility (1/GPa) = 0.03710511
#
# Stress axis : x y z
#
# Youngs Moduli (GPa) = 54.95690 62.06116 122.65685
#
# Poissons Ratio (x) = -0.07507 0.50626
# Poissons Ratio (y) = -0.06648 -0.02936
# Poissons Ratio (z) = 0.22683 -0.01485
#
# Static dielectric constant tensor:
#      x y z
#    x 1.815530 0.000000 0.034500 
#    y 0.000000 1.895890 0.000000 
#    z 0.034500 0.000000 1.820450 
# 
# From -- ./inp_files/186853.got.cif
#   From: 2010.05.17/outbox.cif.g08.bks.cpg/sg12_94_cif.got.tgz:186853.got - 2010.06.03 13:09:07.
