data_PCOD9183586
_publ_section_title
;
Structure prediction by ZEFSAII (Michael W. Deem and Ramdas Pophale) SiO2 
 PCOD9183586
Probable space group: C 2/M
;
_chemical_formula_sum "Si O2"
_cell_formula_units_Z 64
_cell_length_a 21.140911
_cell_length_b 8.589859
_cell_length_c 25.149174
_cell_angle_alpha 90.000000
_cell_angle_beta 127.482256
_cell_angle_gamma 90.000000
_cell_volume 3624.125959
_symmetry_space_group_name_H-M "C 2/M"
_symmetry_group_IT_number 12
_symmetry_cell_setting 'monoclinic'
loop_
_space_group_symop_operation_xyz
x,y,z
-x,y,-z
-x,-y,-z
x,-y,z
1/2+x,1/2+y,z
1/2-x,1/2+y,-z
1/2-x,1/2-y,-z
1/2+x,1/2-y,z
loop_
_atom_site_type_symbol
_atom_site_label
_atom_site_fract_x
_atom_site_fract_y
_atom_site_fract_z
Si Si1 0.119727 0.813790 0.678527
Si Si2 0.793039 0.813291 0.469911
Si Si3 0.230725 0.687761 0.822383
Si Si4 0.469894 0.186311 0.543320
Si Si5 0.263365 0.812785 0.673333
Si Si6 0.790004 0.188329 0.967296
Si Si7 0.125564 0.187182 0.183797
Si Si8 0.028172 0.190028 0.955597
O O1 0.156235 0.760427 0.753324
O O2 0.185893 0.763948 0.668314
O O3 0.036354 0.739361 0.619406
O O4 0.113220 0.000000 0.673619
O O5 0.750000 0.750000 0.500000
O O6 0.884044 0.757332 0.511997
O O7 0.748333 0.760349 0.393040
O O8 0.791934 0.000000 0.470291
O O9 0.224054 0.500000 0.817263
O O10 0.244149 0.736684 0.889983
O O11 0.309937 0.730136 0.828894
O O12 0.500000 0.237333 0.500000
O O13 0.463694 0.000000 0.539949
O O14 0.340176 0.751176 0.743684
O O15 0.265316 0.000000 0.675204
O O16 0.789936 0.000000 0.967943
O O17 0.750000 0.250000 0.000000
O O18 0.882068 0.240472 0.010128
O O19 0.038524 0.240831 0.120777
O O20 0.124777 0.000000 0.186012
O O21 0.028359 0.000000 0.955758
O O22 0.000000 0.237822 0.000000
#
# Coordination Sequence:
#
# PCOD9183586 Si02
#       8
#     8   8   8   8   8   8   8   8
#     4  10  19  33  55  82 111 143 179 225 277 327
#     4  11  23  40  59  81 113 151 188 228 279 335
#     4   9  17  31  51  77 105 137 178 226 274 319
#     4  11  22  36  58  87 114 143 185 232 276 329
#     4   9  19  34  52  77 112 146 174 215 276 327
#     4  10  20  34  53  76 108 144 178 219 272 328
#     4   9  16  28  53  81 101 128 177 231 269 309
#     4   9  15  29  53  79 102 131 176 224 263 305
#
# _framework density 17.659431000000001
#
# number of rings (size 3 to 8) (size 9 to 14) (size 15 to 20)
#    0.000    2.250    2.500    1.125    0.000    2.500 
#    0.000    1.875    0.000    6.750    0.000    0.000 
#    0.000    0.000    0.000    0.000    0.000    0.000 
#
# Total GULP energy -178540.374504 kJ/mol
# GULP energy per Si atom -5579.386703 kJ/mol
# Density = 1.761924 g / cm^3
# Si number density = 17.659431 Si / 1000 Ang^3
#
#
#
# Elastic Constant Matrix: (Units=GPa)
#
#
# Indices 1 2 3 4 5 6 
#
# 1 118.3890 26.2120 89.9592 0.0000 -4.6172 0.0000
# 2 26.2120 20.7702 33.1675 0.0000 -1.8541 0.0000
# 3 89.9592 33.1675 196.6899 0.0000 -3.4440 0.0000
# 4 0.0000 0.0000 0.0000 24.6014 0.0000 -2.7000
# 5 -4.6172 -1.8541 -3.4440 0.0000 25.4961 0.0000
# 6 0.0000 0.0000 0.0000 -2.7000 0.0000 23.5176
#
#
#
# Elastic Compliance Matrix: (Units=1/GPa)
#
#
# Indices 1 2 3 4 5 6 
#
# 1 0.014486 -0.010438 -0.004844 0.000000 0.001210 0.000000
# 2 -0.010438 0.073687 -0.007609 0.000000 0.002440 0.000000
# 3 -0.004844 -0.007609 0.008578 0.000000 -0.000272 0.000000
# 4 0.000000 0.000000 0.000000 0.041167 0.000000 0.004726
# 5 0.001210 0.002440 -0.000272 0.000000 0.039581 0.000000
# 6 0.000000 0.000000 0.000000 0.004726 0.000000 0.043064
#
#
# Mechanical properties :
#
#
# Convention : Reuss Voigt Hill
#
# Bulk Modulus (GPa) = 19.61979 70.50295 45.06137
# Shear Modulus (GPa) = 17.64704 27.15707 22.40205
#
# Velocity S-wave (km/s) = 3.16460 3.92576 3.56555
# Velocity P-wave (km/s) = 4.94845 7.78198 6.52098
#
# Compressibility (1/GPa) = 0.05096895
#
# Stress axis : x y z
#
# Youngs Moduli (GPa) = 69.03415 13.57094 116.57780
#
# Poissons Ratio (x) = 0.14165 0.56470
# Poissons Ratio (y) = 0.72055 0.88706
# Poissons Ratio (z) = 0.33440 0.10326
#
# Static dielectric constant tensor:
#      x y z
#    x 1.574340 0.000000 -0.000880 
#    y 0.000000 1.602740 0.000000 
#    z -0.000880 0.000000 1.607910 
# 
# From -- ./inp_files/346221.got.cif
#   From: 2010.05.17/outbox.cif.g08.bks.cpg/sg12_174_cif.got.tgz:346221.got - 2010.06.03 13:09:07.
