data_PCOD9183529
_publ_section_title
;
Structure prediction by ZEFSAII (Michael W. Deem and Ramdas Pophale) SiO2 
 PCOD9183529
Probable space group: C 2/M
;
_chemical_formula_sum "Si O2"
_cell_formula_units_Z 48
_cell_length_a 30.340589
_cell_length_b 8.663239
_cell_length_c 10.447317
_cell_angle_alpha 90.000000
_cell_angle_beta 80.282032
_cell_angle_gamma 90.000000
_cell_volume 2706.649740
_symmetry_space_group_name_H-M "C 2/M"
_symmetry_group_IT_number 12
_symmetry_cell_setting 'monoclinic'
loop_
_space_group_symop_operation_xyz
x,y,z
-x,y,-z
-x,-y,-z
x,-y,z
1/2+x,1/2+y,z
1/2-x,1/2+y,-z
1/2-x,1/2-y,-z
1/2+x,1/2-y,z
loop_
_atom_site_type_symbol
_atom_site_label
_atom_site_fract_x
_atom_site_fract_y
_atom_site_fract_z
Si Si1 0.885443 0.184759 0.830149
Si Si2 0.881320 0.815294 0.536120
Si Si3 0.282894 0.685911 0.875889
Si Si4 0.029484 0.686302 0.608946
Si Si5 0.783311 0.684336 0.590593
Si Si6 0.474601 0.813973 0.885909
O O1 0.893493 0.227358 0.677239
O O2 0.834300 0.230190 0.883602
O O3 0.923964 0.257400 0.896711
O O4 0.888234 0.000000 0.838408
O O5 0.921632 0.758822 0.428343
O O6 0.833701 0.737939 0.532408
O O7 0.876263 0.000000 0.532932
O O8 0.280612 0.500000 0.872255
O O9 0.273344 0.749925 0.737967
O O10 0.250000 0.750000 0.000000
O O11 0.033707 0.500000 0.607575
O O12 0.000000 0.730194 0.500000
O O13 0.002833 0.735708 0.748006
O O14 0.780720 0.500000 0.595336
O O15 0.750000 0.750000 0.500000
O O16 0.473949 0.000000 0.887005
O O17 0.500000 0.759768 0.000000
#
# Coordination Sequence:
#
# PCOD9183529 Si02
#       6
#     8   8   8   8   8   8
#     4   9  19  35  56  80 109 143 185 230 274 331
#     4  10  20  35  57  85 112 144 188 233 281 337
#     4  10  21  39  61  88 116 151 195 239 287 346
#     4  10  19  33  55  81 107 141 188 232 273 333
#     4  11  22  39  62  87 118 152 188 238 293 347
#     4  10  21  36  53  77 110 145 182 227 280 332
#
# _framework density 17.734102
#
# number of rings (size 3 to 8) (size 9 to 14) (size 15 to 20)
#    0.000    2.000    1.667    3.500    0.000    4.667 
#    3.000    0.000    0.000    0.000    0.000    0.000 
#    0.000    0.000    0.000    0.000    0.000    0.000 
#
# Total GULP energy -133976.682183 kJ/mol
# GULP energy per Si atom -5582.361758 kJ/mol
# Density = 1.769374 g / cm^3
# Si number density = 17.734102 Si / 1000 Ang^3
#
#
#
# Elastic Constant Matrix: (Units=GPa)
#
#
# Indices 1 2 3 4 5 6 
#
# 1 161.8605 51.4470 97.0075 0.0000 9.6037 0.0000
# 2 51.4470 59.6311 42.5869 0.0000 2.6246 0.0000
# 3 97.0075 42.5869 126.6471 0.0000 -0.6723 0.0000
# 4 0.0000 0.0000 0.0000 22.0173 0.0000 -2.1637
# 5 9.6037 2.6246 -0.6723 0.0000 34.9186 0.0000
# 6 0.0000 0.0000 0.0000 -2.1637 0.0000 33.3612
#
#
#
# Elastic Compliance Matrix: (Units=1/GPa)
#
#
# Indices 1 2 3 4 5 6 
#
# 1 0.012914 -0.005157 -0.008175 0.000000 -0.003322 0.000000
# 2 -0.005157 0.024243 -0.004205 0.000000 -0.000485 0.000000
# 3 -0.008175 -0.004205 0.015587 0.000000 0.002865 0.000000
# 4 0.000000 0.000000 0.000000 0.045710 0.000000 0.002965
# 5 -0.003322 -0.000485 0.002865 0.000000 0.029643 0.000000
# 6 0.000000 0.000000 0.000000 0.002965 0.000000 0.030167
#
#
# Mechanical properties :
#
#
# Convention : Reuss Voigt Hill
#
# Bulk Modulus (GPa) = 56.59143 81.13572 68.86357
# Shear Modulus (GPa) = 25.09682 28.53257 26.81469
#
# Velocity S-wave (km/s) = 3.76596 4.01547 3.89272
# Velocity P-wave (km/s) = 7.13374 8.20666 7.68894
#
# Compressibility (1/GPa) = 0.01767052
#
# Stress axis : x y z
#
# Youngs Moduli (GPa) = 77.43537 41.24889 64.15593
#
# Poissons Ratio (x) = 0.21271 0.52449
# Poissons Ratio (y) = 0.39932 0.26975
# Poissons Ratio (z) = 0.63305 0.17344
#
# Static dielectric constant tensor:
#      x y z
#    x 1.589390 0.000000 -0.002380 
#    y 0.000000 1.596850 0.000000 
#    z -0.002380 0.000000 1.591600 
# 
# From -- ./inp_files/172082.got.cif
#   From: 2010.05.17/outbox.cif.g08.bks.cpg/sg12_87_cif.got.tgz:172082.got - 2010.06.03 13:09:07.
