data_PCOD9183628
_publ_section_title
;
Structure prediction by ZEFSAII (Michael W. Deem and Ramdas Pophale) SiO2 
 PCOD9183628
Probable space group: C 2/M
;
_chemical_formula_sum "Si O2"
_cell_formula_units_Z 64
_cell_length_a 14.205154
_cell_length_b 18.052024
_cell_length_c 28.271347
_cell_angle_alpha 90.000000
_cell_angle_beta 147.568017
_cell_angle_gamma 90.000000
_cell_volume 3887.984684
_symmetry_space_group_name_H-M "C 2/M"
_symmetry_group_IT_number 12
_symmetry_cell_setting 'monoclinic'
loop_
_space_group_symop_operation_xyz
x,y,z
-x,y,-z
-x,-y,-z
x,-y,z
1/2+x,1/2+y,z
1/2-x,1/2+y,-z
1/2-x,1/2-y,-z
1/2+x,1/2-y,z
loop_
_atom_site_type_symbol
_atom_site_label
_atom_site_fract_x
_atom_site_fract_y
_atom_site_fract_z
Si Si1 0.762386 0.198894 0.217683
Si Si2 0.846711 0.305813 0.473574
Si Si3 0.959296 0.913960 0.691898
Si Si4 0.182023 0.584047 0.766120
Si Si5 0.395961 0.253343 0.102821
Si Si6 0.692639 0.300586 0.103586
Si Si7 0.480986 0.584911 0.814810
Si Si8 0.064990 0.690263 0.380888
O O1 0.578885 0.215215 0.165416
O O2 0.723256 0.228150 0.148388
O O3 0.861360 0.120979 0.253429
O O4 0.906697 0.251967 0.303597
O O5 0.703578 0.366270 0.396590
O O6 0.917313 0.324185 0.555922
O O7 0.739857 0.229055 0.435317
O O8 0.000000 0.300860 0.500000
O O9 0.957983 0.907745 0.748606
O O10 0.942668 0.000000 0.672629
O O11 0.170041 0.500000 0.776318
O O12 0.270517 0.632763 0.844669
O O13 0.302103 0.587849 0.769755
O O14 0.995251 0.618511 0.673249
O O15 0.326707 0.207073 0.117798
O O16 0.419814 0.340648 0.125853
O O17 0.250000 0.250000 0.000000
O O18 0.500000 0.304294 0.000000
O O19 0.552640 0.500000 0.853530
#
# Coordination Sequence:
#
# PCOD9183628 Si02
#       8
#     8   8   8   8   8   8   8   8
#     4  10  20  35  56  79 110 147 185 223 278 331
#     4  10  20  32  55  82 111 140 186 233 272 325
#     4  10  21  36  55  83 117 149 178 226 288 339
#     4  10  20  35  54  78 110 146 183 228 283 329
#     4  12  21  35  60  83 108 146 191 230 269 333
#     4  11  20  34  55  81 107 141 191 232 270 323
#     4  10  19  33  55  83 111 141 180 233 284 323
#     4   9  19  34  51  80 107 142 184 225 275 328
#
# _framework density 16.460971000000001
#
# number of rings (size 3 to 8) (size 9 to 14) (size 15 to 20)
#    0.000    1.750    5.000    0.750    0.000    1.000 
#    0.000    1.875    0.000    2.625    0.000    0.000 
#    0.000    0.000    0.000    0.000    0.000    0.000 
#
# Total GULP energy -178243.599845 kJ/mol
# GULP energy per Si atom -5570.112495 kJ/mol
# Density = 1.642351 g / cm^3
# Si number density = 16.460971 Si / 1000 Ang^3
#
#
#
# Elastic Constant Matrix: (Units=GPa)
#
#
# Indices 1 2 3 4 5 6 
#
# 1 110.3117 31.1131 42.1009 0.0000 11.1112 0.0000
# 2 31.1131 88.4529 35.4376 0.0000 -2.5433 0.0000
# 3 42.1009 35.4376 99.1053 -0.0002 -1.9247 0.0000
# 4 0.0000 0.0000 -0.0002 10.9713 0.0000 -1.8475
# 5 11.1112 -2.5433 -1.9247 0.0000 26.4746 0.0000
# 6 0.0000 0.0000 0.0000 -1.8475 0.0000 19.8153
#
#
#
# Elastic Compliance Matrix: (Units=1/GPa)
#
#
# Indices 1 2 3 4 5 6 
#
# 1 0.012009 -0.002682 -0.004251 0.000000 -0.005607 0.000000
# 2 -0.002682 0.013818 -0.003759 0.000000 0.002180 0.000000
# 3 -0.004251 -0.003759 0.013287 0.000000 0.002389 0.000000
# 4 0.000000 0.000000 0.000000 0.092601 0.000000 0.008633
# 5 -0.005607 0.002180 0.002389 0.000000 0.040508 0.000000
# 6 0.000000 0.000000 0.000000 0.008633 0.000000 0.051271
#
#
# Mechanical properties :
#
#
# Convention : Reuss Voigt Hill
#
# Bulk Modulus (GPa) = 56.40701 57.24145 56.82423
# Shear Modulus (GPa) = 19.93716 24.06680 22.00198
#
# Velocity S-wave (km/s) = 3.48397 3.82783 3.65994
# Velocity P-wave (km/s) = 7.10814 7.37468 7.24263
#
# Compressibility (1/GPa) = 0.01772829
#
# Stress axis : x y z
#
# Youngs Moduli (GPa) = 83.27095 72.37155 75.26229
#
# Poissons Ratio (x) = 0.19411 0.31997
# Poissons Ratio (y) = 0.22334 0.28292
# Poissons Ratio (z) = 0.35402 0.27205
#
# Static dielectric constant tensor:
#      x y z
#    x 1.754190 0.000000 0.117330 
#    y 0.000000 1.560280 0.000000 
#    z 0.117330 0.000000 1.609680 
# 
# From -- ./inp_files/376806.got.cif
#   From: 2010.05.17/outbox.cif.g08.bks.cpg/sg12_189_cif.got.tgz:376806.got - 2010.06.03 13:09:07.
