data_PCOD9183740
_publ_section_title
;
Structure prediction by ZEFSAII (Michael W. Deem and Ramdas Pophale) SiO2 
 PCOD9183740
Probable space group: C 2/M
;
_chemical_formula_sum "Si O2"
_cell_formula_units_Z 56
_cell_length_a 26.587019
_cell_length_b 17.661968
_cell_length_c 17.984163
_cell_angle_alpha 90.000000
_cell_angle_beta 160.310968
_cell_angle_gamma 90.000000
_cell_volume 2845.242934
_symmetry_space_group_name_H-M "C 2/M"
_symmetry_group_IT_number 12
_symmetry_cell_setting 'monoclinic'
loop_
_space_group_symop_operation_xyz
x,y,z
-x,y,-z
-x,-y,-z
x,-y,z
1/2+x,1/2+y,z
1/2-x,1/2+y,-z
1/2-x,1/2-y,-z
1/2+x,1/2-y,z
loop_
_atom_site_type_symbol
_atom_site_label
_atom_site_fract_x
_atom_site_fract_y
_atom_site_fract_z
Si Si1 0.594833 0.083547 0.463598
Si Si2 0.217437 0.416118 0.801222
Si Si3 0.860031 0.167674 0.750690
Si Si4 0.165002 0.239775 0.709270
Si Si5 0.823606 0.204149 0.448959
Si Si6 0.071814 0.914105 0.306426
Si Si7 0.872640 0.708064 0.120592
O O1 0.675282 0.079372 0.655362
O O2 0.716691 0.121062 0.579680
O O3 0.446345 0.134238 0.259720
O O4 0.557435 0.000000 0.386023
O O5 0.161428 0.500000 0.753834
O O6 0.169655 0.327632 0.744940
O O7 0.392212 0.415504 0.063586
O O8 0.807056 0.254058 0.687581
O O9 0.896485 0.141162 0.718844
O O10 0.000000 0.152673 0.000000
O O11 0.193285 0.227994 0.661005
O O12 0.000000 0.211938 0.500000
O O13 0.289350 0.194424 0.927579
O O14 0.844061 0.118367 0.504082
O O15 0.985221 0.238719 0.694786
O O16 0.118209 0.000000 0.353408
O O17 0.750000 0.750000 0.000000
#
# Coordination Sequence:
#
# PCOD9183740 Si02
#       7
#     8   8   8   8   8   8   8
#     4  10  20  36  58  89 120 149 194 250 302 355
#     4  10  19  33  55  88 121 148 187 245 308 360
#     4  11  20  36  62  91 119 157 196 248 305 365
#     4  12  21  38  62  84 118 160 200 246 301 356
#     4  11  23  38  59  89 119 157 208 245 288 367
#     4  11  22  37  58  84 123 161 193 246 305 351
#     4  11  21  38  61  85 117 158 202 245 299 360
#
# _framework density 19.681975000000001
#
# number of rings (size 3 to 8) (size 9 to 14) (size 15 to 20)
#    0.000    1.143    7.143    0.857    0.000    0.857 
#    0.000    2.143    0.000    1.286    0.000    0.000 
#    0.000    0.000    0.000    0.000    0.000    0.000 
#
# Total GULP energy -156066.276363 kJ/mol
# GULP energy per Si atom -5573.795584 kJ/mol
# Density = 1.963718 g / cm^3
# Si number density = 19.681975 Si / 1000 Ang^3
#
#
#
# Elastic Constant Matrix: (Units=GPa)
#
#
# Indices 1 2 3 4 5 6 
#
# 1 48.7518 19.4554 33.5079 0.0000 -9.5298 0.0000
# 2 19.4554 77.6768 39.2517 0.0000 -7.1345 0.0000
# 3 33.5079 39.2517 78.6384 0.0000 -5.8102 0.0000
# 4 0.0000 0.0000 0.0000 47.9920 0.0000 -14.6787
# 5 -9.5298 -7.1345 -5.8102 0.0000 31.2812 0.0000
# 6 0.0000 0.0000 0.0000 -14.6787 0.0000 19.6725
#
#
#
# Elastic Compliance Matrix: (Units=1/GPa)
#
#
# Indices 1 2 3 4 5 6 
#
# 1 0.030481 -0.000934 -0.012016 0.000000 0.006841 0.000000
# 2 -0.000934 0.017419 -0.008136 0.000000 0.002177 0.000000
# 3 -0.012016 -0.008136 0.021789 0.000000 -0.001469 0.000000
# 4 0.000000 0.000000 0.000000 0.026998 0.000000 0.020145
# 5 0.006841 0.002177 -0.001469 0.000000 0.034276 0.000000
# 6 0.000000 0.000000 0.000000 0.020145 0.000000 0.065863
#
#
# Mechanical properties :
#
#
# Convention : Reuss Voigt Hill
#
# Bulk Modulus (GPa) = 36.34137 43.27743 39.80940
# Shear Modulus (GPa) = 20.14742 27.31261 23.73002
#
# Velocity S-wave (km/s) = 3.20292 3.72922 3.47605
# Velocity P-wave (km/s) = 5.67298 6.37016 6.03165
#
# Compressibility (1/GPa) = 0.02751685
#
# Stress axis : x y z
#
# Youngs Moduli (GPa) = 32.80720 57.40893 45.89488
#
# Poissons Ratio (x) = 0.05362 0.55149
# Poissons Ratio (y) = 0.03064 0.37339
# Poissons Ratio (z) = 0.39422 0.46706
#
# Static dielectric constant tensor:
#      x y z
#    x 1.716670 0.000000 -0.006300 
#    y 0.000000 1.753210 0.000000 
#    z -0.006300 0.000000 1.682240 
# 
# From -- ./inp_files/293864.got.cif
#   From: 2010.05.17/outbox.cif.g08.bks.cpg/sg12_147_cif.got.tgz:293864.got - 2010.06.03 13:09:07.
