data_PCOD9183602
_publ_section_title
;
Structure prediction by ZEFSAII (Michael W. Deem and Ramdas Pophale) SiO2 
 PCOD9183602
Probable space group: C 2/M
;
_chemical_formula_sum "Si O2"
_cell_formula_units_Z 64
_cell_length_a 15.372111
_cell_length_b 7.658121
_cell_length_c 24.849677
_cell_angle_alpha 90.000000
_cell_angle_beta 73.600955
_cell_angle_gamma 90.000000
_cell_volume 2806.334176
_symmetry_space_group_name_H-M "C 2/M"
_symmetry_group_IT_number 12
_symmetry_cell_setting 'monoclinic'
loop_
_space_group_symop_operation_xyz
x,y,z
-x,y,-z
-x,-y,-z
x,-y,z
1/2+x,1/2+y,z
1/2-x,1/2+y,-z
1/2-x,1/2-y,-z
1/2+x,1/2-y,z
loop_
_atom_site_type_symbol
_atom_site_label
_atom_site_fract_x
_atom_site_fract_y
_atom_site_fract_z
Si Si1 0.666218 0.797886 0.830147
Si Si2 0.653335 0.201524 0.247543
Si Si3 0.634637 0.790589 0.068842
Si Si4 0.304365 0.798326 0.644909
Si Si5 0.659027 0.706990 0.947993
Si Si6 0.495927 0.288727 0.563828
Si Si7 0.011790 0.714739 0.189696
Si Si8 0.307243 0.710346 0.436173
O O1 0.762470 0.704468 0.808344
O O2 0.626693 0.784219 0.897297
O O3 0.591334 0.729515 0.801533
O O4 0.683715 0.000000 0.815836
O O5 0.689183 0.282501 0.296776
O O6 0.565519 0.276417 0.232989
O O7 0.630634 0.000000 0.263717
O O8 0.737524 0.725475 0.060915
O O9 0.569196 0.728345 0.127438
O O10 0.637430 0.000000 0.071419
O O11 0.607965 0.744108 0.012566
O O12 0.406440 0.791220 0.604789
O O13 0.241284 0.720222 0.609130
O O14 0.274696 0.000000 0.656538
O O15 0.661817 0.500000 0.940227
O O16 0.500000 0.246310 0.500000
O O17 0.489159 0.500000 0.569619
O O18 0.589617 0.229721 0.574438
O O19 0.011892 0.500000 0.189956
O O20 0.309182 0.500000 0.432442
O O21 0.250000 0.750000 0.500000
#
# Coordination Sequence:
#
# PCOD9183602 Si02
#       8
#     8   8   8   8   8   8   8   8
#     4  11  22  36  58  85 109 143 191 234 273 334
#     4  10  21  42  61  78 111 150 187 231 284 332
#     4   9  17  33  56  79 106 147 189 226 275 339
#     4  10  22  37  59  86 112 146 189 235 277 327
#     4  10  19  33  55  82 113 147 181 229 287 336
#     4  10  20  35  56  82 116 153 183 221 276 332
#     4   9  19  37  59  79 107 149 188 224 278 342
#     4  10  20  35  55  84 116 150 185 224 274 329
#
# _framework density 22.805553
#
# number of rings (size 3 to 8) (size 9 to 14) (size 15 to 20)
#    0.000    2.125    2.500    0.750    0.000    3.250 
#    0.000    5.000    0.000    0.000    0.000    0.000 
#    0.000    0.000    0.000    0.000    0.000    0.000 
#
# Total GULP energy -178757.992079 kJ/mol
# GULP energy per Si atom -5586.187252 kJ/mol
# Density = 2.275365 g / cm^3
# Si number density = 22.805553 Si / 1000 Ang^3
#
#
#
# Elastic Constant Matrix: (Units=GPa)
#
#
# Indices 1 2 3 4 5 6 
#
# 1 96.3313 0.5890 19.4340 0.0000 44.2653 0.0000
# 2 0.5890 47.7153 -0.0380 -0.0001 3.8568 0.0000
# 3 19.4340 -0.0380 103.2137 0.0000 38.0401 0.0000
# 4 0.0000 -0.0001 0.0000 14.3852 0.0000 -6.4066
# 5 44.2653 3.8568 38.0401 0.0000 41.6446 0.0000
# 6 0.0000 0.0000 0.0000 -6.4066 0.0000 2.9010
#
#
#
# Elastic Compliance Matrix: (Units=1/GPa)
#
#
# Indices 1 2 3 4 5 6 
#
# 1 0.023590 0.002302 0.007355 -0.000005 -0.032007 -0.000012
# 2 0.002302 0.021423 0.001820 0.000004 -0.006093 0.000010
# 3 0.007355 0.001820 0.016957 -0.000001 -0.023476 -0.000001
# 4 -0.000005 0.000004 -0.000001 4.219711 0.000010 9.318712
# 5 -0.032007 -0.006093 -0.023476 0.000010 0.080042 0.000023
# 6 -0.000012 0.000010 -0.000001 9.318712 0.000023 20.923930
#
#
# Mechanical properties :
#
#
# Convention : Reuss Voigt Hill
#
# Bulk Modulus (GPa) = 11.77512 31.91449 21.84480
# Shear Modulus (GPa) = 0.19770 26.93785 13.56777
#
# Velocity S-wave (km/s) = 0.29475 3.44058 2.44177
# Velocity P-wave (km/s) = 2.30007 5.45967 4.18917
#
# Compressibility (1/GPa) = 0.08492482
#
# Stress axis : x y z
#
# Youngs Moduli (GPa) = 42.39012 46.67835 58.97439
#
# Poissons Ratio (x) = -0.10744 -0.43378
# Poissons Ratio (y) = -0.09757 -0.10735
# Poissons Ratio (z) = -0.31180 -0.08496
#
# Static dielectric constant tensor:
#      x y z
#    x 1.846110 0.000000 0.032360 
#    y 0.000000 1.863900 0.000000 
#    z 0.032360 0.000000 1.871430 
# 
# From -- ./inp_files/338844.got.cif
#   From: 2010.05.17/outbox.cif.g08.bks.cpg/sg12_170_cif.got.tgz:338844.got - 2010.06.03 13:09:07.
