data_PCOD9183132
_publ_section_title
;
Structure prediction by ZEFSAII (Michael W. Deem and Ramdas Pophale) SiO2 
 PCOD9183132
Probable space group: C 2/M
;
_chemical_formula_sum "Si O2"
_cell_formula_units_Z 48
_cell_length_a 24.006992
_cell_length_b 13.661270
_cell_length_c 13.235369
_cell_angle_alpha 90.000000
_cell_angle_beta 141.889064
_cell_angle_gamma 90.000000
_cell_volume 2679.051046
_symmetry_space_group_name_H-M "C 2/M"
_symmetry_group_IT_number 12
_symmetry_cell_setting 'monoclinic'
loop_
_space_group_symop_operation_xyz
x,y,z
-x,y,-z
-x,-y,-z
x,-y,z
1/2+x,1/2+y,z
1/2-x,1/2+y,-z
1/2-x,1/2-y,-z
1/2+x,1/2-y,z
loop_
_atom_site_type_symbol
_atom_site_label
_atom_site_fract_x
_atom_site_fract_y
_atom_site_fract_z
Si Si1 0.159564 0.387545 0.980474
Si Si2 0.898336 0.382451 0.328583
Si Si3 0.605746 0.387219 0.159699
Si Si4 0.476844 0.110723 0.849328
Si Si5 0.240179 0.735826 0.738246
Si Si6 0.343938 0.720154 0.584720
O O1 0.193786 0.500000 0.025227
O O2 0.225705 0.313144 0.130666
O O3 0.131773 0.355960 0.828047
O O4 0.069069 0.388723 0.918482
O O5 0.899737 0.500000 0.335575
O O6 0.824995 0.341888 0.301515
O O7 0.000000 0.348067 0.500000
O O8 0.618558 0.500000 0.147390
O O9 0.673538 0.317961 0.192030
O O10 0.625982 0.372790 0.307522
O O11 0.500000 0.361522 0.000000
O O12 0.412378 0.191972 0.709331
O O13 0.437615 0.000000 0.786991
O O14 0.500000 0.129250 0.000000
O O15 0.179560 0.788180 0.565880
O O16 0.250000 0.750000 0.500000
#
# Coordination Sequence:
#
# PCOD9183132 Si02
#       6
#     8   8   8   8   8   8
#     4  10  21  36  55  79 108 140 177 225 271 317
#     4  10  21  37  57  82 109 139 180 226 269 316
#     4  10  21  36  53  76 108 143 179 220 265 317
#     4  10  19  33  54  78 106 140 178 223 274 324
#     4  11  21  35  57  80 107 144 179 219 271 324
#     4  10  20  31  48  75 104 135 172 215 262 315
#
# _framework density 17.916792999999998
#
# number of rings (size 3 to 8) (size 9 to 14) (size 15 to 20)
#    0.000    1.833    0.000    5.500    0.000    5.333 
#    0.000    0.000    0.000    0.500    0.000    0.000 
#    0.000    0.000    0.000    0.000    0.000    0.000 
#
# Total GULP energy -133843.527235 kJ/mol
# GULP energy per Si atom -5576.813635 kJ/mol
# Density = 1.787601 g / cm^3
# Si number density = 17.916793 Si / 1000 Ang^3
#
#
#
# Elastic Constant Matrix: (Units=GPa)
#
#
# Indices 1 2 3 4 5 6 
#
# 1 83.3399 6.2340 43.7504 0.0000 -12.0276 0.0000
# 2 6.2340 52.4587 35.5228 0.0000 0.7501 0.0000
# 3 43.7504 35.5228 126.2659 0.0000 -13.4863 0.0000
# 4 0.0000 0.0000 0.0000 4.9718 0.0000 -14.1951
# 5 -12.0276 0.7501 -13.4863 0.0000 33.7269 0.0000
# 6 0.0000 0.0000 0.0000 -14.1951 0.0000 3.0462
#
#
#
# Elastic Compliance Matrix: (Units=1/GPa)
#
#
# Indices 1 2 3 4 5 6 
#
# 1 0.015175 0.001828 -0.005431 0.000000 0.003199 0.000000
# 2 0.001828 0.024129 -0.007740 0.000000 -0.002980 0.000000
# 3 -0.005431 -0.007740 0.012317 0.000000 0.003160 0.000000
# 4 0.000000 0.000000 0.000000 -0.016346 0.000000 -0.076172
# 5 0.003199 -0.002980 0.003160 0.000000 0.032121 0.000000
# 6 0.000000 0.000000 0.000000 -0.076172 0.000000 -0.026679
#
#
# Mechanical properties :
#
#
# Convention : Reuss Voigt Hill
#
# Bulk Modulus (GPa) = 34.55915 48.11985 41.33950
# Shear Modulus (GPa) = 68.44938 20.11947 44.28442
#
# Velocity S-wave (km/s) = 6.18765 3.35466 4.97698
# Velocity P-wave (km/s) = 8.38927 6.47462 7.49335
#
# Compressibility (1/GPa) = 0.02893589
#
# Stress axis : x y z
#
# Youngs Moduli (GPa) = 65.89806 41.44352 81.19116
#
# Poissons Ratio (x) = -0.07577 0.44092
# Poissons Ratio (y) = -0.12048 0.62843
# Poissons Ratio (z) = 0.35787 0.32078
#
# Static dielectric constant tensor:
#      x y z
#    x 1.596430 0.000000 -0.030300 
#    y 0.000000 1.637220 0.000000 
#    z -0.030300 0.000000 1.641020 
# 
# From -- ./inp_files/142688.got.cif
#   From: 2010.05.17/outbox.cif.g08.bks.cpg/sg12_72_cif.got.tgz:142688.got - 2010.06.03 13:09:07.
