data_PCOD9183289
_publ_section_title
;
Structure prediction by ZEFSAII (Michael W. Deem and Ramdas Pophale) SiO2 
 PCOD9183289
Probable space group: C 2/M
;
_chemical_formula_sum "Si O2"
_cell_formula_units_Z 56
_cell_length_a 20.525492
_cell_length_b 25.979975
_cell_length_c 5.069147
_cell_angle_alpha 90.000000
_cell_angle_beta 90.041137
_cell_angle_gamma 90.000000
_cell_volume 2703.130908
_symmetry_space_group_name_H-M "C 2/M"
_symmetry_group_IT_number 12
_symmetry_cell_setting 'monoclinic'
loop_
_space_group_symop_operation_xyz
x,y,z
-x,y,-z
-x,-y,-z
x,-y,z
1/2+x,1/2+y,z
1/2-x,1/2+y,-z
1/2-x,1/2-y,-z
1/2+x,1/2-y,z
loop_
_atom_site_type_symbol
_atom_site_label
_atom_site_fract_x
_atom_site_fract_y
_atom_site_fract_z
Si Si1 0.224797 0.500000 0.740431
Si Si2 0.954825 0.748024 0.742794
Si Si3 0.291322 0.690188 0.286890
Si Si4 0.957191 0.133336 0.734779
Si Si5 0.714925 0.885328 0.699574
Si Si6 0.656964 0.601196 0.977531
Si Si7 0.188937 0.000000 0.741483
Si Si8 0.664774 0.207735 0.926460
O O1 0.193340 0.444792 0.649764
O O2 0.289022 0.500000 0.558567
O O3 0.249123 0.500000 0.047558
O O4 0.938572 0.807354 0.674736
O O5 0.000000 0.727767 0.500000
O O6 0.889883 0.721233 0.858085
O O7 0.000000 0.748805 0.000000
O O8 0.256561 0.652380 0.501091
O O9 0.323710 0.747426 0.295318
O O10 0.349423 0.655003 0.173862
O O11 0.232568 0.701207 0.083746
O O12 0.892417 0.101749 0.784851
O O13 0.000000 0.112705 0.500000
O O14 0.000000 0.132195 0.000000
O O15 0.769090 0.896170 0.922415
O O16 0.656972 0.847963 0.791127
O O17 0.650116 0.551283 0.804243
#
# Coordination Sequence:
#
# PCOD9183289 Si02
#       8
#     4   8   8   8   8   8   4   8
#     4  10  20  36  54  83 112 144 185 216 277 338
#     4  10  22  37  55  77 109 152 186 223 265 327
#     4  10  19  33  54  81 117 145 173 229 283 337
#     4  10  22  36  53  74 103 147 193 233 271 323
#     4  10  21  33  57  82 113 149 177 231 278 337
#     4  10  20  35  53  78 107 148 190 229 283 326
#     4  10  20  34  56  77 106 145 191 235 271 326
#     4  10  21  34  51  88 114 144 184 224 282 332
#
# _framework density 20.716719000000001
#
# number of rings (size 3 to 8) (size 9 to 14) (size 15 to 20)
#    0.000    2.000    2.857    0.429    4.000    1.143 
#    0.000    0.714    0.000    0.000    0.000    1.000 
#    0.000    0.000    0.000    0.000    0.000    0.000 
#
# Total GULP energy -155871.012082 kJ/mol
# GULP energy per Si atom -5566.821860 kJ/mol
# Density = 2.066957 g / cm^3
# Si number density = 20.716719 Si / 1000 Ang^3
#
#
#
# Elastic Constant Matrix: (Units=GPa)
#
#
# Indices 1 2 3 4 5 6 
#
# 1 32.2587 17.4405 9.5318 0.0000 -6.0217 0.0000
# 2 17.4405 145.6661 16.7713 0.0000 -1.4035 0.0000
# 3 9.5318 16.7713 76.7456 0.0000 -1.6639 0.0000
# 4 0.0000 0.0000 0.0000 21.1453 0.0000 -1.5986
# 5 -6.0217 -1.4035 -1.6639 0.0000 20.6877 0.0000
# 6 0.0000 0.0000 0.0000 -1.5986 0.0000 4.7374
#
#
#
# Elastic Compliance Matrix: (Units=1/GPa)
#
#
# Indices 1 2 3 4 5 6 
#
# 1 0.035921 -0.003812 -0.003413 0.000000 0.009923 0.000000
# 2 -0.003812 0.007449 -0.001170 0.000000 -0.000698 0.000000
# 3 -0.003413 -0.001170 0.013710 0.000000 0.000030 0.000000
# 4 0.000000 0.000000 0.000000 0.048530 0.000000 0.016376
# 5 0.009923 -0.000698 0.000030 0.000000 0.051181 0.000000
# 6 0.000000 0.000000 0.000000 0.016376 0.000000 0.216614
#
#
# Mechanical properties :
#
#
# Convention : Reuss Voigt Hill
#
# Bulk Modulus (GPa) = 24.81958 38.01751 31.41855
# Shear Modulus (GPa) = 12.38772 23.37588 17.88180
#
# Velocity S-wave (km/s) = 2.44797 3.36275 2.94114
# Velocity P-wave (km/s) = 4.47175 5.78519 5.17035
#
# Compressibility (1/GPa) = 0.04029077
#
# Stress axis : x y z
#
# Youngs Moduli (GPa) = 27.83874 134.23932 72.93835
#
# Poissons Ratio (x) = 0.51175 0.24895
# Poissons Ratio (y) = 0.10613 0.08531
# Poissons Ratio (z) = 0.09502 0.15700
#
# Static dielectric constant tensor:
#      x y z
#    x 1.750310 0.000000 -0.012220 
#    y 0.000000 1.855800 0.000000 
#    z -0.012220 0.000000 1.914750 
# 
# From -- ./inp_files/21862.got.cif
#   From: 2010.05.17/outbox.cif.g08.bks.cpg/sg12_11_cif.got.tgz:21862.got - 2010.06.03 13:09:07.
