data_PCOD9183989
_publ_section_title
;
Structure prediction by ZEFSAII (Michael W. Deem and Ramdas Pophale) SiO2 
 PCOD9183989
Probable space group: C 2/M
;
_chemical_formula_sum "Si O2"
_cell_formula_units_Z 40
_cell_length_a 23.273725
_cell_length_b 13.405659
_cell_length_c 7.069536
_cell_angle_alpha 90.000000
_cell_angle_beta 109.721922
_cell_angle_gamma 90.000000
_cell_volume 2076.309935
_symmetry_space_group_name_H-M "C 2/M"
_symmetry_group_IT_number 12
_symmetry_cell_setting 'monoclinic'
loop_
_space_group_symop_operation_xyz
x,y,z
-x,y,-z
-x,-y,-z
x,-y,z
1/2+x,1/2+y,z
1/2-x,1/2+y,-z
1/2-x,1/2-y,-z
1/2+x,1/2-y,z
loop_
_atom_site_type_symbol
_atom_site_label
_atom_site_fract_x
_atom_site_fract_y
_atom_site_fract_z
Si Si1 0.382535 0.113180 0.184022
Si Si2 0.480522 0.886484 0.757956
Si Si3 0.307596 0.381887 0.176443
Si Si4 0.690430 0.244577 0.169554
Si Si5 0.370071 0.244054 0.502750
O O1 0.455544 0.119914 0.283068
O O2 0.365743 0.340031 0.360216
O O3 0.365252 0.000000 0.132204
O O4 0.362452 0.178209 0.984753
O O5 0.434054 0.798753 0.652581
O O6 0.454897 0.000000 0.699747
O O7 0.500000 0.881137 0.000000
O O8 0.301631 0.500000 0.182253
O O9 0.250797 0.321600 0.204640
O O10 0.326777 0.260572 0.633477
O O11 0.308074 0.342776 0.960466
O O12 0.649375 0.156534 0.664897
#
# Coordination Sequence:
#
# PCOD9183989 Si02
#       5
#     8   8   8   8   8
#     4  10  20  33  55  89 121 148 180 224 280 338
#     4  10  19  33  56  87 120 150 179 222 281 338
#     4  10  23  40  58  81 111 147 190 234 277 329
#     4  10  21  39  59  83 113 147 186 230 281 327
#     4  11  21  35  57  85 116 149 184 226 277 334
#
# _framework density 19.264946999999999
#
# number of rings (size 3 to 8) (size 9 to 14) (size 15 to 20)
#    0.000    1.800    2.000    2.400    0.000    4.800 
#    0.000    1.000    0.000   10.200    0.000    0.000 
#    0.000    0.000    0.000    0.000    0.000    0.000 
#
# Total GULP energy -111548.034277 kJ/mol
# GULP energy per Si atom -5577.401714 kJ/mol
# Density = 1.922110 g / cm^3
# Si number density = 19.264947 Si / 1000 Ang^3
#
#
#
# Elastic Constant Matrix: (Units=GPa)
#
#
# Indices 1 2 3 4 5 6 
#
# 1 67.6089 28.4695 31.6907 0.0000 -20.7311 0.0000
# 2 28.4695 119.3672 50.3494 0.0000 2.8944 0.0000
# 3 31.6907 50.3494 92.6218 0.0000 -12.4577 0.0000
# 4 0.0000 0.0000 0.0000 18.2421 0.0000 6.4381
# 5 -20.7311 2.8944 -12.4577 0.0000 45.9502 0.0000
# 6 0.0000 0.0000 0.0000 6.4381 0.0000 16.5862
#
#
#
# Elastic Compliance Matrix: (Units=1/GPa)
#
#
# Indices 1 2 3 4 5 6 
#
# 1 0.020751 -0.003425 -0.004099 0.000000 0.008467 0.000000
# 2 -0.003425 0.011691 -0.005698 0.000000 -0.003827 0.000000
# 3 -0.004099 -0.005698 0.015667 0.000000 0.002757 0.000000
# 4 0.000000 0.000000 0.000000 0.063520 0.000000 -0.024656
# 5 0.008467 -0.003827 0.002757 0.000000 0.026571 0.000000
# 6 0.000000 0.000000 0.000000 -0.024656 0.000000 0.069861
#
#
# Mechanical properties :
#
#
# Convention : Reuss Voigt Hill
#
# Bulk Modulus (GPa) = 46.15908 55.62412 50.89160
# Shear Modulus (GPa) = 20.68452 27.42827 24.05639
#
# Velocity S-wave (km/s) = 3.28027 3.77734 3.53755
# Velocity P-wave (km/s) = 6.19347 6.92534 6.56960
#
# Compressibility (1/GPa) = 0.02166421
#
# Stress axis : x y z
#
# Youngs Moduli (GPa) = 48.19064 85.53912 63.82759
#
# Poissons Ratio (x) = 0.29301 0.26164
# Poissons Ratio (y) = 0.16507 0.36367
# Poissons Ratio (z) = 0.19754 0.48737
#
# Static dielectric constant tensor:
#      x y z
#    x 1.725520 0.000000 0.018920 
#    y 0.000000 1.635110 0.000000 
#    z 0.018920 0.000000 1.760610 
# 
# From -- ./inp_files/102860.got.cif
#   From: 2010.05.17/outbox.cif.g08.bks.cpg/sg12_52_cif.got.tgz:102860.got - 2010.06.03 13:09:07.
