data_PCOD9183568
_publ_section_title
;
Structure prediction by ZEFSAII (Michael W. Deem and Ramdas Pophale) SiO2 
 PCOD9183568
Probable space group: C 2/M
;
_chemical_formula_sum "Si O2"
_cell_formula_units_Z 48
_cell_length_a 23.921210
_cell_length_b 7.673029
_cell_length_c 12.567942
_cell_angle_alpha 90.000000
_cell_angle_beta 70.394882
_cell_angle_gamma 90.000000
_cell_volume 2173.090059
_symmetry_space_group_name_H-M "C 2/M"
_symmetry_group_IT_number 12
_symmetry_cell_setting 'monoclinic'
loop_
_space_group_symop_operation_xyz
x,y,z
-x,y,-z
-x,-y,-z
x,-y,z
1/2+x,1/2+y,z
1/2-x,1/2+y,-z
1/2-x,1/2-y,-z
1/2+x,1/2-y,z
loop_
_atom_site_type_symbol
_atom_site_label
_atom_site_fract_x
_atom_site_fract_y
_atom_site_fract_z
Si Si1 0.696173 0.789672 0.784777
Si Si2 0.483803 0.288711 0.889745
Si Si3 0.175935 0.796912 0.259007
Si Si4 0.848251 0.702361 0.957828
Si Si5 0.431800 0.713490 0.536369
Si Si6 0.095268 0.208576 0.681741
O O1 0.763383 0.722474 0.731421
O O2 0.652360 0.747447 0.716623
O O3 0.697923 0.000000 0.790206
O O4 0.670470 0.725666 0.914844
O O5 0.481071 0.500000 0.886172
O O6 0.419062 0.220788 0.903623
O O7 0.536202 0.226449 0.779477
O O8 0.500000 0.239846 0.000000
O O9 0.179425 0.786125 0.129352
O O10 0.113828 0.725444 0.343477
O O11 0.175273 0.000000 0.289194
O O12 0.831642 0.500000 0.965119
O O13 0.500000 0.772982 0.500000
O O14 0.434697 0.500000 0.539276
O O15 0.404819 0.767397 0.439863
O O16 0.089795 0.000000 0.681646
#
# Coordination Sequence:
#
# PCOD9183568 Si02
#       6
#     8   8   8   8   8   8
#     4  10  22  37  53  79 114 148 179 222 278 326
#     4  10  19  33  55  82 108 140 181 221 267 323
#     4  10  21  38  58  78 107 148 188 223 268 325
#     4  11  22  35  54  81 113 146 182 227 277 320
#     4   9  18  35  59  83 106 136 180 231 273 316
#     4  10  20  35  58  85 110 141 183 227 269 321
#
# _framework density 22.088363000000001
#
# number of rings (size 3 to 8) (size 9 to 14) (size 15 to 20)
#    0.000    2.000    1.667    2.000    0.000    5.667 
#    0.000    0.833    0.000    2.000    0.000    0.000 
#    0.000    0.000    0.000    0.000    0.000    0.000 
#
# Total GULP energy -134088.442426 kJ/mol
# GULP energy per Si atom -5587.018434 kJ/mol
# Density = 2.203809 g / cm^3
# Si number density = 22.088363 Si / 1000 Ang^3
#
#
#
# Elastic Constant Matrix: (Units=GPa)
#
#
# Indices 1 2 3 4 5 6 
#
# 1 153.2087 -1.6480 53.2740 0.0000 -4.0428 0.0000
# 2 -1.6480 31.7985 5.0419 0.0000 -7.0294 0.0000
# 3 53.2740 5.0419 100.7396 0.0000 13.1778 0.0000
# 4 0.0000 0.0000 0.0000 -14.8506 0.0000 12.7615
# 5 -4.0428 -7.0294 13.1778 0.0000 20.5327 0.0000
# 6 0.0000 0.0000 0.0000 12.7615 0.0000 14.2066
#
#
#
# Elastic Compliance Matrix: (Units=1/GPa)
#
#
# Indices 1 2 3 4 5 6 
#
# 1 0.008632 0.002679 -0.005503 0.000000 0.006149 0.000000
# 2 0.002679 0.036039 -0.005353 0.000000 0.016301 0.000000
# 3 -0.005503 -0.005353 0.014722 0.000000 -0.012365 0.000000
# 4 0.000000 0.000000 0.000000 -0.038003 0.000000 0.034137
# 5 0.006149 0.016301 -0.012365 0.000000 0.063430 0.000000
# 6 0.000000 0.000000 0.000000 0.034137 0.000000 0.039725
#
#
# Mechanical properties :
#
#
# Convention : Reuss Voigt Hill
#
# Bulk Modulus (GPa) = 23.23455 44.34249 33.78852
# Shear Modulus (GPa) = 32.20714 19.24968 25.72841
#
# Velocity S-wave (km/s) = 3.82266 2.95530 3.41661
# Velocity P-wave (km/s) = 5.47954 5.63593 5.55828
#
# Compressibility (1/GPa) = 0.04303935
#
# Stress axis : x y z
#
# Youngs Moduli (GPa) = 115.85296 27.74757 67.92527
#
# Poissons Ratio (x) = -0.07434 0.37379
# Poissons Ratio (y) = -0.31038 0.36359
# Poissons Ratio (z) = 0.63754 0.14853
#
# Static dielectric constant tensor:
#      x y z
#    x 1.792800 0.000000 -0.022760 
#    y 0.000000 1.831780 0.000000 
#    z -0.022760 0.000000 1.805760 
# 
# From -- ./inp_files/172857.got.cif
#   From: 2010.05.17/outbox.cif.g08.bks.cpg/sg12_87_cif.got.tgz:172857.got - 2010.06.03 13:09:07.
