data_PCOD9183059
_publ_section_title
;
Structure prediction by ZEFSAII (Michael W. Deem and Ramdas Pophale) SiO2 
 PCOD9183059
Probable space group: C 2/M
;
_chemical_formula_sum "Si O2"
_cell_formula_units_Z 56
_cell_length_a 10.348980
_cell_length_b 13.055955
_cell_length_c 22.198228
_cell_angle_alpha 90.000000
_cell_angle_beta 124.482772
_cell_angle_gamma 90.000000
_cell_volume 2472.338520
_symmetry_space_group_name_H-M "C 2/M"
_symmetry_group_IT_number 12
_symmetry_cell_setting 'monoclinic'
loop_
_space_group_symop_operation_xyz
x,y,z
-x,y,-z
-x,-y,-z
x,-y,z
1/2+x,1/2+y,z
1/2-x,1/2+y,-z
1/2-x,1/2-y,-z
1/2+x,1/2-y,z
loop_
_atom_site_type_symbol
_atom_site_label
_atom_site_fract_x
_atom_site_fract_y
_atom_site_fract_z
Si Si1 0.278699 0.658786 0.590288
Si Si2 0.395634 0.112045 0.204715
Si Si3 0.692762 0.160536 0.691926
Si Si4 0.134683 0.885580 0.717921
Si Si5 0.690009 0.385778 0.539809
Si Si6 0.469927 0.620497 0.926167
Si Si7 0.464115 0.673888 0.183465
O O1 0.163636 0.629918 0.615267
O O2 0.449207 0.620638 0.655117
O O3 0.262555 0.618955 0.518388
O O4 0.268845 0.782723 0.585719
O O5 0.412098 0.119778 0.281332
O O6 0.213245 0.130978 0.139204
O O7 0.483305 0.205445 0.198380
O O8 0.439681 0.000000 0.195132
O O9 0.690245 0.284187 0.697768
O O10 0.867445 0.124756 0.756663
O O11 0.151020 0.865475 0.794312
O O12 0.189692 0.000000 0.716505
O O13 0.500000 0.374040 0.500000
O O14 0.729043 0.500000 0.573399
O O15 0.503495 0.500000 0.938725
O O16 0.569527 0.657822 0.895285
O O17 0.500000 0.666734 0.000000
#
# Coordination Sequence:
#
# PCOD9183059 Si02
#       7
#     8   8   8   8   8   8   8
#     4  10  20  33  53  77 100 124 162 204 241 286
#     4   9  18  32  49  71 100 131 163 203 250 294
#     4   9  19  33  50  74  99 125 161 203 244 293
#     4  10  19  33  54  76  98 128 164 202 246 294
#     4  10  21  37  56  75  99 132 165 199 241 291
#     4   9  17  30  49  72  99 134 172 205 242 293
#     4   9  18  32  50  74 102 129 163 208 251 288
#
# _framework density 22.65062
#
# number of rings (size 3 to 8) (size 9 to 14) (size 15 to 20)
#    0.000    2.571    0.000    1.714    0.000    6.857 
#    0.000    5.714    0.000   25.714    0.000    0.000 
#    0.000    0.000    0.000    0.000    0.000    0.000 
#
# Total GULP energy -156114.467582 kJ/mol
# GULP energy per Si atom -5575.516699 kJ/mol
# Density = 2.259907 g / cm^3
# Si number density = 22.650620 Si / 1000 Ang^3
#
#
#
# Elastic Constant Matrix: (Units=GPa)
#
#
# Indices 1 2 3 4 5 6 
#
# 1 43.1006 9.9218 29.0074 0.0000 -12.6015 0.0000
# 2 9.9218 120.6079 1.8152 0.0000 11.1729 0.0000
# 3 29.0074 1.8152 97.9943 0.0000 -34.9999 0.0000
# 4 0.0000 0.0000 0.0000 6.8728 0.0000 15.4214
# 5 -12.6015 11.1729 -34.9999 0.0000 22.8939 0.0000
# 6 0.0000 0.0000 0.0000 15.4214 0.0000 2.7886
#
#
#
# Elastic Compliance Matrix: (Units=1/GPa)
#
#
# Indices 1 2 3 4 5 6 
#
# 1 0.030580 -0.003406 -0.005250 0.000000 0.010468 0.000000
# 2 -0.003406 0.009714 -0.003380 0.000000 -0.011783 0.000000
# 3 -0.005250 -0.003380 0.025064 0.000000 0.037077 0.000000
# 4 0.000000 0.000000 0.000000 -0.012753 0.000000 0.070528
# 5 0.010468 -0.011783 0.037077 0.000000 0.111876 0.000000
# 6 0.000000 0.000000 0.000000 0.070528 0.000000 -0.031432
#
#
# Mechanical properties :
#
#
# Convention : Reuss Voigt Hill
#
# Bulk Modulus (GPa) = 24.22198 38.13242 31.17720
# Shear Modulus (GPa) = 29.25983 21.24161 25.25072
#
# Velocity S-wave (km/s) = 3.59805 3.06566 3.34247
# Velocity P-wave (km/s) = 5.28944 5.42242 5.35634
#
# Compressibility (1/GPa) = 0.04128482
#
# Stress axis : x y z
#
# Youngs Moduli (GPa) = 32.70146 102.94411 39.89789
#
# Poissons Ratio (x) = 0.35067 0.20946
# Poissons Ratio (y) = 0.11139 0.13486
# Poissons Ratio (z) = 0.17168 0.34797
#
# Static dielectric constant tensor:
#      x y z
#    x 1.899920 0.000000 -0.013890 
#    y 0.000000 1.843690 0.000000 
#    z -0.013890 0.000000 1.883060 
# 
# From -- ./inp_files/304175.got.cif
#   From: 2010.05.17/outbox.cif.g08.bks.cpg/sg12_153_cif.got.tgz:304175.got - 2010.06.03 13:09:07.
