data_PCOD9183760
_publ_section_title
;
Structure prediction by ZEFSAII (Michael W. Deem and Ramdas Pophale) SiO2 
 PCOD9183760
Probable space group: C 2/M
;
_chemical_formula_sum "Si O2"
_cell_formula_units_Z 64
_cell_length_a 13.695104
_cell_length_b 11.823082
_cell_length_c 17.326363
_cell_angle_alpha 90.000000
_cell_angle_beta 96.652915
_cell_angle_gamma 90.000000
_cell_volume 2786.564494
_symmetry_space_group_name_H-M "C 2/M"
_symmetry_group_IT_number 12
_symmetry_cell_setting 'monoclinic'
loop_
_space_group_symop_operation_xyz
x,y,z
-x,y,-z
-x,-y,-z
x,-y,z
1/2+x,1/2+y,z
1/2-x,1/2+y,-z
1/2-x,1/2-y,-z
1/2+x,1/2-y,z
loop_
_atom_site_type_symbol
_atom_site_label
_atom_site_fract_x
_atom_site_fract_y
_atom_site_fract_z
Si Si1 0.873205 0.628498 0.958140
Si Si2 0.188584 0.876324 0.822219
Si Si3 0.514794 0.868877 0.179293
Si Si4 0.682498 0.740709 0.279522
Si Si5 0.399119 0.256018 0.448289
Si Si6 0.102439 0.869516 0.966032
Si Si7 0.702131 0.125423 0.430798
Si Si8 0.637207 0.124809 0.705808
O O1 0.874721 0.500000 0.993577
O O2 0.781228 0.625359 0.889963
O O3 0.969935 0.639796 0.911645
O O4 0.857183 0.748102 0.999929
O O5 0.227213 0.806552 0.754342
O O6 0.171374 0.000000 0.788896
O O7 0.099896 0.854064 0.873294
O O8 0.586992 0.775591 0.223212
O O9 0.410532 0.859742 0.213031
O O10 0.549393 0.000000 0.198750
O O11 0.666697 0.785492 0.363696
O O12 0.743106 0.625138 0.285644
O O13 0.500000 0.283313 0.500000
O O14 0.347200 0.156215 0.493021
O O15 0.319163 0.355754 0.445459
O O16 0.406949 0.210352 0.361900
O O17 0.145754 0.000000 0.982118
O O18 0.000000 0.877460 0.000000
O O19 0.676962 0.000000 0.403295
O O20 0.603455 0.000000 0.678608
#
# Coordination Sequence:
#
# PCOD9183760 Si02
#       8
#     8   8   8   8   8   8   8   8
#     4   9  18  34  56  77 100 134 182 226 261 310
#     4   9  18  34  54  75 100 137 175 214 262 317
#     4   9  18  34  56  79 105 141 181 225 268 315
#     4  10  19  33  56  79 104 136 178 221 262 317
#     4  10  21  35  53  78 107 140 175 213 262 317
#     4  10  21  34  50  75 109 141 170 212 271 326
#     4  10  20  34  54  80 106 135 175 219 259 308
#     4  10  21  35  53  78 109 141 175 221 270 315
#
# _framework density 22.967351000000001
#
# number of rings (size 3 to 8) (size 9 to 14) (size 15 to 20)
#    0.000    2.375    0.000    3.375    1.750    2.500 
#    0.000    3.125    0.000    9.000    0.000    0.000 
#    0.000    0.000    0.000    0.000    0.000    0.000 
#
# Total GULP energy -178137.431365 kJ/mol
# GULP energy per Si atom -5566.794730 kJ/mol
# Density = 2.291508 g / cm^3
# Si number density = 22.967351 Si / 1000 Ang^3
#
#
#
# Elastic Constant Matrix: (Units=GPa)
#
#
# Indices 1 2 3 4 5 6 
#
# 1 70.1243 12.0835 2.8350 0.0000 -6.9926 0.0000
# 2 12.0835 100.8031 45.6648 0.0000 -1.3763 0.0000
# 3 2.8350 45.6648 59.2470 0.0000 -13.0640 0.0000
# 4 0.0000 0.0000 0.0000 9.8698 0.0000 -3.4701
# 5 -6.9926 -1.3763 -13.0640 0.0000 41.2489 0.0000
# 6 0.0000 0.0000 0.0000 -3.4701 0.0000 12.7047
#
#
#
# Elastic Compliance Matrix: (Units=1/GPa)
#
#
# Indices 1 2 3 4 5 6 
#
# 1 0.014945 -0.002663 0.002018 0.000000 0.003084 0.000000
# 2 -0.002663 0.016189 -0.013256 0.000000 -0.004110 0.000000
# 3 0.002018 -0.013256 0.029003 0.000000 0.009085 0.000000
# 4 0.000000 0.000000 0.000000 0.112082 0.000000 0.030613
# 5 0.003084 -0.004110 0.009085 0.000000 0.027506 0.000000
# 6 0.000000 0.000000 0.000000 0.030613 0.000000 0.087072
#
#
# Mechanical properties :
#
#
# Convention : Reuss Voigt Hill
#
# Bulk Modulus (GPa) = 30.92865 39.03788 34.98326
# Shear Modulus (GPa) = 15.36670 24.07076 19.71873
#
# Velocity S-wave (km/s) = 2.58944 3.24086 2.93329
# Velocity P-wave (km/s) = 4.73665 5.57120 5.17079
#
# Compressibility (1/GPa) = 0.03233249
#
# Stress axis : x y z
#
# Youngs Moduli (GPa) = 66.91081 61.77148 34.47974
#
# Poissons Ratio (x) = 0.16453 -0.06957
# Poissons Ratio (y) = 0.17821 0.45707
# Poissons Ratio (z) = -0.13501 0.81886
#
# Static dielectric constant tensor:
#      x y z
#    x 1.945180 0.000000 0.018230 
#    y 0.000000 2.055800 0.000000 
#    z 0.018230 0.000000 1.843220 
# 
# From -- ./inp_files/269320.got.cif
#   From: 2010.05.17/outbox.cif.g08.bks.cpg/sg12_135_cif.got.tgz:269320.got - 2010.06.03 13:09:07.
