data_PCOD9183975
_publ_section_title
;
Structure prediction by ZEFSAII (Michael W. Deem and Ramdas Pophale) SiO2 
 PCOD9183975
Probable space group: C 2/M
;
_chemical_formula_sum "Si O2"
_cell_formula_units_Z 40
_cell_length_a 14.489346
_cell_length_b 14.236906
_cell_length_c 12.228249
_cell_angle_alpha 90.000000
_cell_angle_beta 134.054367
_cell_angle_gamma 90.000000
_cell_volume 1812.860687
_symmetry_space_group_name_H-M "C 2/M"
_symmetry_group_IT_number 12
_symmetry_cell_setting 'monoclinic'
loop_
_space_group_symop_operation_xyz
x,y,z
-x,y,-z
-x,-y,-z
x,-y,z
1/2+x,1/2+y,z
1/2-x,1/2+y,-z
1/2-x,1/2-y,-z
1/2+x,1/2-y,z
loop_
_atom_site_type_symbol
_atom_site_label
_atom_site_fract_x
_atom_site_fract_y
_atom_site_fract_z
Si Si1 0.574979 0.112320 0.810059
Si Si2 0.751945 0.887256 0.160156
Si Si3 0.208738 0.386509 0.481162
Si Si4 0.028763 0.893928 0.393080
Si Si5 0.345921 0.211367 0.342946
O O1 0.426366 0.142983 0.684191
O O2 0.647727 0.160393 0.768990
O O3 0.579426 0.000000 0.795963
O O4 0.642893 0.128945 0.981806
O O5 0.758963 0.805343 0.256293
O O6 0.894371 0.867026 0.227808
O O7 0.748278 0.000000 0.191071
O O8 0.205680 0.500000 0.471533
O O9 0.339299 0.347014 0.534264
O O10 0.205505 0.354573 0.604021
O O11 0.000000 0.899891 0.500000
O O12 0.046799 0.000000 0.372183
O O13 0.500000 0.225553 0.500000
#
# Coordination Sequence:
#
# PCOD9183975 Si02
#       5
#     8   8   8   8   8
#     4   9  18  34  57  85 117 150 187 236 287 334
#     4  10  20  35  56  82 116 155 190 229 279 333
#     4   9  18  35  61  89 112 142 188 236 285 340
#     4   9  18  35  58  82 112 150 189 231 281 339
#     4  10  19  33  56  86 118 152 189 232 282 338
#
# _framework density 22.064577
#
# number of rings (size 3 to 8) (size 9 to 14) (size 15 to 20)
#    0.000    2.600    0.000    1.800    0.000    3.600 
#    0.000   11.000    0.000   18.000    0.000    1.400 
#    0.000    0.800    0.000    0.000    0.000    0.800 
#
# Total GULP energy -111421.760129 kJ/mol
# GULP energy per Si atom -5571.088006 kJ/mol
# Density = 2.201436 g / cm^3
# Si number density = 22.064577 Si / 1000 Ang^3
#
#
#
# Elastic Constant Matrix: (Units=GPa)
#
#
# Indices 1 2 3 4 5 6 
#
# 1 104.3123 9.3705 32.4182 0.0000 18.5310 0.0000
# 2 9.3705 53.8174 45.6907 0.0000 6.5149 0.0000
# 3 32.4182 45.6907 110.7050 0.0000 11.3795 0.0000
# 4 0.0000 0.0000 0.0000 30.9524 0.0000 0.3712
# 5 18.5310 6.5149 11.3795 0.0000 18.1660 0.0000
# 6 0.0000 0.0000 0.0000 0.3712 0.0000 16.5489
#
#
#
# Elastic Compliance Matrix: (Units=1/GPa)
#
#
# Indices 1 2 3 4 5 6 
#
# 1 0.012451 0.002018 -0.003312 0.000000 -0.011350 0.000000
# 2 0.002018 0.029092 -0.012092 0.000000 -0.004917 0.000000
# 3 -0.003312 -0.012092 0.015178 0.000000 -0.001792 0.000000
# 4 0.000000 0.000000 0.000000 0.032316 0.000000 -0.000725
# 5 -0.011350 -0.004917 -0.001792 0.000000 0.069512 0.000000
# 6 0.000000 0.000000 0.000000 -0.000725 0.000000 0.060443
#
#
# Mechanical properties :
#
#
# Convention : Reuss Voigt Hill
#
# Bulk Modulus (GPa) = 33.39161 49.31038 41.35100
# Shear Modulus (GPa) = 19.55048 25.22380 22.38714
#
# Velocity S-wave (km/s) = 2.97990 3.38476 3.18876
# Velocity P-wave (km/s) = 5.19675 6.13777 5.68676
#
# Compressibility (1/GPa) = 0.02994764
#
# Stress axis : x y z
#
# Youngs Moduli (GPa) = 80.31433 34.37418 65.88455
#
# Poissons Ratio (x) = -0.06938 0.21824
# Poissons Ratio (y) = -0.16210 0.79670
# Poissons Ratio (z) = 0.26603 0.41567
#
# Static dielectric constant tensor:
#      x y z
#    x 1.880360 0.000000 0.030710 
#    y 0.000000 1.916600 0.000000 
#    z 0.030710 0.000000 1.823220 
# 
# From -- ./inp_files/143351.got.cif
#   From: 2010.05.17/outbox.cif.g08.bks.cpg/sg12_72_cif.got.tgz:143351.got - 2010.06.03 13:09:07.
