data_PCOD9183070
_publ_section_title
;
Structure prediction by ZEFSAII (Michael W. Deem and Ramdas Pophale) SiO2 
 PCOD9183070
Probable space group: C 2/M
;
_chemical_formula_sum "Si O2"
_cell_formula_units_Z 56
_cell_length_a 22.945808
_cell_length_b 7.646245
_cell_length_c 17.180999
_cell_angle_alpha 90.000000
_cell_angle_beta 120.879974
_cell_angle_gamma 90.000000
_cell_volume 2587.086373
_symmetry_space_group_name_H-M "C 2/M"
_symmetry_group_IT_number 12
_symmetry_cell_setting 'monoclinic'
loop_
_space_group_symop_operation_xyz
x,y,z
-x,y,-z
-x,-y,-z
x,-y,z
1/2+x,1/2+y,z
1/2-x,1/2+y,-z
1/2-x,1/2-y,-z
1/2+x,1/2-y,z
loop_
_atom_site_type_symbol
_atom_site_label
_atom_site_fract_x
_atom_site_fract_y
_atom_site_fract_z
Si Si1 0.209782 0.202772 0.860574
Si Si2 0.340115 0.296106 0.740629
Si Si3 0.359217 0.792307 0.924108
Si Si4 0.691004 0.207847 0.677004
Si Si5 0.952459 0.215042 0.699723
Si Si6 0.939044 0.210809 0.512880
Si Si7 0.911591 0.210569 0.120207
O O1 0.285210 0.279465 0.901436
O O2 0.176502 0.212327 0.751958
O O3 0.157445 0.280366 0.886637
O O4 0.219672 0.000000 0.888755
O O5 0.331039 0.500000 0.715265
O O6 0.373837 0.282746 0.849108
O O7 0.264157 0.222021 0.698245
O O8 0.389252 0.222830 0.708550
O O9 0.352987 0.000000 0.909378
O O10 0.410816 0.755457 0.028845
O O11 0.632029 0.242404 0.575502
O O12 0.697170 0.000000 0.693541
O O13 0.946472 0.272244 0.606503
O O14 0.022380 0.271804 0.788175
O O15 0.952452 0.000000 0.700579
O O16 0.000000 0.275830 0.500000
O O17 0.943267 0.000000 0.517742
O O18 0.910250 0.000000 0.126158
#
# Coordination Sequence:
#
# PCOD9183070 Si02
#       7
#     8   8   8   8   8   8   8
#     4   9  18  33  53  77 105 137 174 212 253 309
#     4   9  19  37  55  73 101 137 177 213 249 300
#     4  10  20  33  51  77 107 137 170 212 262 309
#     4  10  20  33  53  79 106 136 169 211 259 303
#     4   9  19  35  55  76  99 134 178 216 249 299
#     4  10  20  36  58  81 105 134 169 209 255 308
#     4  10  19  33  54  77 101 134 176 217 257 302
#
# _framework density 21.645972
#
# number of rings (size 3 to 8) (size 9 to 14) (size 15 to 20)
#    0.000    2.429    0.000    2.143    0.000    5.429 
#    0.000    5.000    0.000    0.000    0.000    0.000 
#    0.000    0.000    0.000    0.000    0.000    0.000 
#
# Total GULP energy -156386.808383 kJ/mol
# GULP energy per Si atom -5585.243157 kJ/mol
# Density = 2.159670 g / cm^3
# Si number density = 21.645972 Si / 1000 Ang^3
#
#
#
# Elastic Constant Matrix: (Units=GPa)
#
#
# Indices 1 2 3 4 5 6 
#
# 1 82.4730 3.9734 50.1052 0.0000 -34.0067 0.0000
# 2 3.9734 43.4524 -15.1210 0.0000 0.7540 0.0000
# 3 50.1052 -15.1210 155.6047 0.0000 -7.2215 0.0000
# 4 0.0000 0.0000 0.0000 17.7726 0.0000 -2.9932
# 5 -34.0067 0.7540 -7.2215 0.0000 26.1952 0.0000
# 6 0.0000 0.0000 0.0000 -2.9932 0.0000 -1.4827
#
#
#
# Elastic Compliance Matrix: (Units=1/GPa)
#
#
# Indices 1 2 3 4 5 6 
#
# 1 0.039007 -0.008275 -0.011146 0.000000 0.047805 0.000000
# 2 -0.008275 0.025575 0.004677 0.000000 -0.010190 0.000000
# 3 -0.011146 0.004677 0.009919 0.000000 -0.011870 0.000000
# 4 0.000000 0.000000 0.000000 0.041990 0.000000 -0.084766
# 5 0.047805 -0.010190 -0.011870 0.000000 0.097256 0.000000
# 6 0.000000 0.000000 0.000000 -0.084766 0.000000 -0.503310
#
#
# Mechanical properties :
#
#
# Convention : Reuss Voigt Hill
#
# Bulk Modulus (GPa) = 22.21592 39.93835 31.07714
# Shear Modulus (GPa) = -20.40237 24.66851 2.13307
#
# Velocity S-wave (km/s) = -3.07343 3.37951 0.99377
# Velocity P-wave (km/s) = 1.51954 5.80680 3.96295
#
# Compressibility (1/GPa) = 0.04501276
#
# Stress axis : x y z
#
# Youngs Moduli (GPa) = 25.63636 39.10100 100.81468
#
# Poissons Ratio (x) = 0.32357 1.12368
# Poissons Ratio (y) = 0.21215 -0.47151
# Poissons Ratio (z) = 0.28574 -0.18287
#
# Static dielectric constant tensor:
#      x y z
#    x 1.797200 0.000000 0.004210 
#    y 0.000000 1.808090 0.000000 
#    z 0.004210 0.000000 1.750600 
# 
# From -- ./inp_files/239001.got.cif
#   From: 2010.05.17/outbox.cif.g08.bks.cpg/sg12_120_cif.got.tgz:239001.got - 2010.06.03 13:09:07.
