data_PCOD9183632
_publ_section_title
;
Structure prediction by ZEFSAII (Michael W. Deem and Ramdas Pophale) SiO2 
 PCOD9183632
Probable space group: C 2/M
;
_chemical_formula_sum "Si O2"
_cell_formula_units_Z 56
_cell_length_a 8.743632
_cell_length_b 15.380484
_cell_length_c 29.355310
_cell_angle_alpha 90.000000
_cell_angle_beta 143.882762
_cell_angle_gamma 90.000000
_cell_volume 2326.953596
_symmetry_space_group_name_H-M "C 2/M"
_symmetry_group_IT_number 12
_symmetry_cell_setting 'monoclinic'
loop_
_space_group_symop_operation_xyz
x,y,z
-x,y,-z
-x,-y,-z
x,-y,z
1/2+x,1/2+y,z
1/2-x,1/2+y,-z
1/2-x,1/2-y,-z
1/2+x,1/2-y,z
loop_
_atom_site_type_symbol
_atom_site_label
_atom_site_fract_x
_atom_site_fract_y
_atom_site_fract_z
Si Si1 0.099455 0.407331 0.873402
Si Si2 0.989320 0.599105 0.656010
Si Si3 0.789859 0.603627 0.515890
Si Si4 0.231515 0.222869 0.943296
Si Si5 0.041837 0.145386 0.752077
Si Si6 0.655273 0.164325 0.792472
Si Si7 0.875386 0.103825 0.617634
O O1 0.216967 0.500000 0.914835
O O2 0.231058 0.316048 0.917547
O O3 0.084346 0.401642 0.815095
O O4 0.812467 0.401683 0.825792
O O5 0.903493 0.500000 0.641885
O O6 0.281211 0.599351 0.705449
O O7 0.023568 0.640796 0.713200
O O8 0.810031 0.638839 0.572378
O O9 0.740498 0.500000 0.508040
O O10 0.607500 0.635714 0.430674
O O11 0.078160 0.611362 0.563767
O O12 0.969068 0.173198 0.866672
O O13 0.500000 0.172833 0.000000
O O14 0.250000 0.250000 0.000000
O O15 0.057654 0.238564 0.779508
O O16 0.029941 0.153419 0.694024
O O17 0.937639 0.000000 0.634034
#
# Coordination Sequence:
#
# PCOD9183632 Si02
#       7
#     8   8   8   8   8   8   8
#     4  11  23  39  60  87 115 148 184 222 270 333
#     4  10  19  34  56  82 108 143 193 238 268 318
#     4   7  12  23  44  73 105 139 181 233 281 313
#     4  11  23  44  65  86 112 148 180 219 275 334
#     4  10  19  33  55  83 111 145 189 234 275 322
#     4  11  23  38  58  81 116 150 177 217 284 337
#     4   8  12  23  45  75 106 140 185 235 276 317
#
# _framework density 24.065799999999999
#
# number of rings (size 3 to 8) (size 9 to 14) (size 15 to 20)
#    0.000    2.286    1.429    5.143    2.000    0.286 
#    0.000    0.714    0.000    4.714    0.000    4.000 
#    0.000    0.000    0.000    0.000    0.000    0.000 
#
# Total GULP energy -156317.848630 kJ/mol
# GULP energy per Si atom -5582.780308 kJ/mol
# Density = 2.401103 g / cm^3
# Si number density = 24.065800 Si / 1000 Ang^3
#
#
#
# Elastic Constant Matrix: (Units=GPa)
#
#
# Indices 1 2 3 4 5 6 
#
# 1 63.2094 6.1116 31.0935 0.0000 -7.0671 0.0000
# 2 6.1116 72.8732 12.2544 0.0000 -3.4911 0.0000
# 3 31.0935 12.2544 93.6812 -0.0001 -3.0612 0.0000
# 4 0.0000 0.0000 -0.0001 26.9059 -0.0001 -17.2319
# 5 -7.0671 -3.4911 -3.0612 -0.0001 58.0275 0.0000
# 6 0.0000 0.0000 0.0000 -17.2319 0.0000 12.3549
#
#
#
# Elastic Compliance Matrix: (Units=1/GPa)
#
#
# Indices 1 2 3 4 5 6 
#
# 1 0.019151 -0.000464 -0.006231 -0.000001 0.001976 -0.000001
# 2 -0.000464 0.014075 -0.001664 0.000000 0.000703 0.000000
# 3 -0.006231 -0.001664 0.012955 0.000001 -0.000176 0.000001
# 4 -0.000001 0.000000 0.000001 0.348211 0.000000 0.485666
# 5 0.001976 0.000703 -0.000176 0.000000 0.017507 0.000000
# 6 -0.000001 0.000000 0.000001 0.485666 0.000000 0.758319
#
#
# Mechanical properties :
#
#
# Convention : Reuss Voigt Hill
#
# Bulk Modulus (GPa) = 33.94142 36.52030 35.23086
# Shear Modulus (GPa) = 4.17796 31.47795 17.82795
#
# Velocity S-wave (km/s) = 1.31902 3.62054 2.72472
# Velocity P-wave (km/s) = 4.05635 5.71716 4.95681
#
# Compressibility (1/GPa) = 0.02946253
#
# Stress axis : x y z
#
# Youngs Moduli (GPa) = 52.21551 71.04855 77.19221
#
# Poissons Ratio (x) = 0.03294 0.48101
# Poissons Ratio (y) = 0.02421 0.12847
# Poissons Ratio (z) = 0.32537 0.11824
#
# Static dielectric constant tensor:
#      x y z
#    x 1.964620 0.000000 -0.026810 
#    y 0.000000 1.866800 0.000000 
#    z -0.026810 0.000000 1.940820 
# 
# From -- ./inp_files/372796.got.cif
#   From: 2010.05.17/outbox.cif.g08.bks.cpg/sg12_187_cif.got.tgz:372796.got - 2010.06.03 13:09:07.
