data_PCOD9183913
_publ_section_title
;
Structure prediction by ZEFSAII (Michael W. Deem and Ramdas Pophale) SiO2 
 PCOD9183913
Probable space group: C 2/M
;
_chemical_formula_sum "Si O2"
_cell_formula_units_Z 48
_cell_length_a 18.601652
_cell_length_b 8.476651
_cell_length_c 32.280612
_cell_angle_alpha 90.000000
_cell_angle_beta 149.888078
_cell_angle_gamma 90.000000
_cell_volume 2553.604692
_symmetry_space_group_name_H-M "C 2/M"
_symmetry_group_IT_number 12
_symmetry_cell_setting 'monoclinic'
loop_
_space_group_symop_operation_xyz
x,y,z
-x,y,-z
-x,-y,-z
x,-y,z
1/2+x,1/2+y,z
1/2-x,1/2+y,-z
1/2-x,1/2-y,-z
1/2+x,1/2-y,z
loop_
_atom_site_type_symbol
_atom_site_label
_atom_site_fract_x
_atom_site_fract_y
_atom_site_fract_z
Si Si1 0.426712 0.188779 0.340155
Si Si2 0.437457 0.310387 0.179582
Si Si3 0.582608 0.690673 0.499950
Si Si4 0.604502 0.810350 0.181485
Si Si5 0.586959 0.809217 0.336712
Si Si6 0.333260 0.809955 0.000893
O O1 0.501432 0.253569 0.418589
O O2 0.262473 0.242574 0.256198
O O3 0.512264 0.243364 0.342002
O O4 0.431934 0.000000 0.343988
O O5 0.444133 0.500000 0.181762
O O6 0.531769 0.245287 0.188265
O O7 0.500837 0.250240 0.254028
O O8 0.271334 0.260789 0.088610
O O9 0.500000 0.744803 0.500000
O O10 0.582359 0.500000 0.500004
O O11 0.747740 0.743800 0.582558
O O12 0.612095 0.000000 0.185849
O O13 0.496843 0.759495 0.090500
O O14 0.586548 0.000000 0.335719
O O15 0.334594 0.000000 0.001668
O O16 0.250000 0.750000 0.000000
#
# Coordination Sequence:
#
# PCOD9183913 Si02
#       6
#     8   8   8   8   8   8
#     4  11  23  37  54  79 111 144 181 223 264 313
#     4  10  19  33  56  84 110 138 179 226 269 318
#     4  10  21  38  60  82 104 136 178 221 269 326
#     4  10  19  34  56  79 108 145 182 222 270 319
#     4  10  22  38  54  78 113 147 177 215 268 325
#     4   8  16  30  50  78 107 137 176 222 268 314
#
# _framework density 18.796956999999999
#
# number of rings (size 3 to 8) (size 9 to 14) (size 15 to 20)
#    0.000    2.167    0.000    3.000    0.000    5.000 
#    0.000    0.833    0.000    5.000    0.000    0.000 
#    0.000    0.000    0.000    0.000    0.000    0.000 
#
# Total GULP energy -133906.084815 kJ/mol
# GULP energy per Si atom -5579.420201 kJ/mol
# Density = 1.875417 g / cm^3
# Si number density = 18.796957 Si / 1000 Ang^3
#
#
#
# Elastic Constant Matrix: (Units=GPa)
#
#
# Indices 1 2 3 4 5 6 
#
# 1 130.2402 19.7557 104.3091 0.0000 -9.4780 0.0000
# 2 19.7557 10.3741 21.7430 0.0001 -4.3005 -0.0002
# 3 104.3091 21.7430 229.0247 -0.0001 -3.6114 0.0000
# 4 0.0000 0.0001 -0.0001 27.2472 0.0000 -3.9945
# 5 -9.4780 -4.3005 -3.6114 0.0000 -19.6027 0.0000
# 6 0.0000 -0.0002 0.0000 -3.9945 0.0000 19.0412
#
#
#
# Elastic Compliance Matrix: (Units=1/GPa)
#
#
# Indices 1 2 3 4 5 6 
#
# 1 0.013984 -0.017552 -0.004735 0.000000 -0.002039 0.000000
# 2 -0.017552 0.131840 -0.004831 0.000000 -0.019547 0.000001
# 3 -0.004735 -0.004831 0.007014 0.000000 0.002057 0.000000
# 4 0.000000 0.000000 0.000000 0.037865 0.000000 0.007944
# 5 -0.002039 -0.019547 0.002057 0.000000 -0.046118 0.000000
# 6 0.000000 0.000001 0.000000 0.007944 0.000000 0.054184
#
#
# Mechanical properties :
#
#
# Convention : Reuss Voigt Hill
#
# Bulk Modulus (GPa) = 10.14169 73.47274 41.80721
# Shear Modulus (GPa) = 17.49032 20.25922 18.87477
#
# Velocity S-wave (km/s) = 3.05370 3.28654 3.17225
# Velocity P-wave (km/s) = 4.22380 7.31944 5.97556
#
# Compressibility (1/GPa) = 0.09860292
#
# Stress axis : x y z
#
# Youngs Moduli (GPa) = 71.50819 7.58496 142.57296
#
# Poissons Ratio (x) = 0.13313 0.67508
# Poissons Ratio (y) = 1.25510 0.68874
# Poissons Ratio (z) = 0.33859 0.03664
#
# Static dielectric constant tensor:
#      x y z
#    x 1.614380 0.000000 0.011450 
#    y 0.000000 1.651640 0.000000 
#    z 0.011450 0.000000 1.666380 
# 
# From -- ./inp_files/274010.got.cif
#   From: 2010.05.17/outbox.cif.g08.bks.cpg/sg12_138_cif.got.tgz:274010.got - 2010.06.03 13:09:07.
