data_PCOD9183486
_publ_section_title
;
Structure prediction by ZEFSAII (Michael W. Deem and Ramdas Pophale) SiO2 
 PCOD9183486
Probable space group: C 2/M
;
_chemical_formula_sum "Si O2"
_cell_formula_units_Z 56
_cell_length_a 20.884778
_cell_length_b 7.618533
_cell_length_c 28.100015
_cell_angle_alpha 90.000000
_cell_angle_beta 34.863974
_cell_angle_gamma 90.000000
_cell_volume 2555.776282
_symmetry_space_group_name_H-M "C 2/M"
_symmetry_group_IT_number 12
_symmetry_cell_setting 'monoclinic'
loop_
_space_group_symop_operation_xyz
x,y,z
-x,y,-z
-x,-y,-z
x,-y,z
1/2+x,1/2+y,z
1/2-x,1/2+y,-z
1/2-x,1/2-y,-z
1/2+x,1/2-y,z
loop_
_atom_site_type_symbol
_atom_site_label
_atom_site_fract_x
_atom_site_fract_y
_atom_site_fract_z
Si Si1 0.798924 0.212251 0.846516
Si Si2 0.543149 0.715030 0.525664
Si Si3 0.226867 0.708784 0.568948
Si Si4 0.619038 0.713083 0.795490
Si Si5 0.156309 0.206986 0.287357
Si Si6 0.547602 0.709362 0.020804
Si Si7 0.524057 0.704317 0.754575
O O1 0.810655 0.278083 0.784796
O O2 0.904676 0.279636 0.812012
O O3 0.804213 0.000000 0.841788
O O4 0.679497 0.257919 0.941469
O O5 0.500000 0.769918 0.500000
O O6 0.543051 0.500000 0.525855
O O7 0.668146 0.771956 0.463240
O O8 0.455466 0.776781 0.619340
O O9 0.219430 0.500000 0.578916
O O10 0.250000 0.750000 0.500000
O O11 0.110586 0.785288 0.658384
O O12 0.622330 0.500000 0.793071
O O13 0.739841 0.771372 0.740296
O O14 0.525590 0.773852 0.890398
O O15 0.584369 0.778514 0.764516
O O16 0.136674 0.000000 0.292629
O O17 0.531077 0.500000 0.030196
O O18 0.500000 0.781490 0.000000
O O19 0.503195 0.500000 0.778223
#
# Coordination Sequence:
#
# PCOD9183486 Si02
#       7
#     8   8   8   8   8   8   8
#     4  10  21  36  56  81 110 146 188 234 278 329
#     4   9  18  33  54  80 109 142 183 230 275 321
#     4  11  22  38  61  85 114 151 190 231 279 333
#     4  10  21  37  57  81 113 150 182 229 289 336
#     4  10  19  33  55  80 106 140 185 231 274 328
#     4  10  20  36  57  82 114 147 184 230 283 340
#     4  10  22  40  58  81 115 149 186 231 283 335
#
# _framework density 21.911149999999999
#
# number of rings (size 3 to 8) (size 9 to 14) (size 15 to 20)
#    0.000    2.000    1.429    2.143    0.000    6.000 
#    0.000    2.857    0.000    3.857    0.000    0.000 
#    0.000    0.000    0.000    0.000    0.000    0.000 
#
# Total GULP energy -156490.833452 kJ/mol
# GULP energy per Si atom -5588.958338 kJ/mol
# Density = 2.186128 g / cm^3
# Si number density = 21.911150 Si / 1000 Ang^3
#
#
#
# Elastic Constant Matrix: (Units=GPa)
#
#
# Indices 1 2 3 4 5 6 
#
# 1 51.0952 -8.9347 -23.0158 -0.0013 -12.4937 -0.0011
# 2 -8.9347 41.9457 -14.3946 0.0064 3.4712 -0.0107
# 3 -23.0158 -14.3946 72.8527 0.0041 -17.2911 -0.0052
# 4 -0.0013 0.0064 0.0041 9.4025 -0.0001 -3.4752
# 5 -12.4937 3.4712 -17.2911 -0.0001 41.6203 -0.0004
# 6 -0.0011 -0.0107 -0.0052 -3.4752 -0.0004 16.3502
#
#
#
# Elastic Compliance Matrix: (Units=1/GPa)
#
#
# Indices 1 2 3 4 5 6 
#
# 1 0.032681 0.011247 0.016255 -0.000005 0.015626 0.000014
# 2 0.011247 0.029445 0.010638 -0.000016 0.005340 0.000020
# 3 0.016255 0.010638 0.024308 -0.000010 0.014091 0.000014
# 4 -0.000005 -0.000016 -0.000010 0.115422 -0.000004 0.024532
# 5 0.015626 0.005340 0.014091 -0.000004 0.034126 0.000009
# 6 0.000014 0.000020 0.000014 0.024532 0.000009 0.066375
#
#
# Mechanical properties :
#
#
# Convention : Reuss Voigt Hill
#
# Bulk Modulus (GPa) = 6.14572 8.13371 7.13971
# Shear Modulus (GPa) = 17.83706 27.62384 22.73045
#
# Velocity S-wave (km/s) = 2.85627 3.55451 3.22435
# Velocity P-wave (km/s) = 3.69982 4.53501 4.13854
#
# Compressibility (1/GPa) = 0.16271476
#
# Stress axis : x y z
#
# Youngs Moduli (GPa) = 30.59885 33.96182 41.13839
#
# Poissons Ratio (x) = -0.38196 -0.66872
# Poissons Ratio (y) = -0.34413 -0.43764
# Poissons Ratio (z) = -0.49740 -0.36130
#
# Static dielectric constant tensor:
#      x y z
#    x 1.791040 0.000000 0.011810 
#    y 0.000000 1.829340 0.000010 
#    z 0.011810 0.000010 1.757860 
# 
# From -- ./inp_files/329711.got.cif
#   From: 2010.05.17/outbox.cif.g08.bks.cpg/sg12_165_cif.got.tgz:329711.got - 2010.06.03 13:09:07.
