data_PCOD9183883
_publ_section_title
;
Structure prediction by ZEFSAII (Michael W. Deem and Ramdas Pophale) SiO2 
 PCOD9183883
Probable space group: C 2/M
;
_chemical_formula_sum "Si O2"
_cell_formula_units_Z 48
_cell_length_a 28.952341
_cell_length_b 8.762334
_cell_length_c 10.508098
_cell_angle_alpha 90.000000
_cell_angle_beta 89.843763
_cell_angle_gamma 90.000000
_cell_volume 2665.790331
_symmetry_space_group_name_H-M "C 2/M"
_symmetry_group_IT_number 12
_symmetry_cell_setting 'monoclinic'
loop_
_space_group_symop_operation_xyz
x,y,z
-x,y,-z
-x,-y,-z
x,-y,z
1/2+x,1/2+y,z
1/2-x,1/2+y,-z
1/2-x,1/2-y,-z
1/2+x,1/2-y,z
loop_
_atom_site_type_symbol
_atom_site_label
_atom_site_fract_x
_atom_site_fract_y
_atom_site_fract_z
Si Si1 0.053711 0.315416 0.485704
Si Si2 0.801307 0.317857 0.850069
Si Si3 0.202075 0.683768 0.851573
Si Si4 0.605953 0.317220 0.242323
Si Si5 0.394562 0.184059 0.257716
Si Si6 0.946708 0.183868 0.015176
O O1 0.054793 0.500000 0.478442
O O2 0.077541 0.248766 0.360469
O O3 0.082706 0.266998 0.609896
O O4 0.000000 0.269381 0.500000
O O5 0.803641 0.500000 0.840347
O O6 0.750441 0.259461 0.814587
O O7 0.841960 0.244049 0.767958
O O8 0.807782 0.275977 0.999985
O O9 0.206905 0.500000 0.845931
O O10 0.158437 0.731291 0.766926
O O11 0.606096 0.500000 0.248897
O O12 0.580998 0.270185 0.110953
O O13 0.424365 0.244744 0.140051
O O14 0.395342 0.000000 0.254533
O O15 0.944581 0.000000 0.025592
O O16 0.000000 0.228739 0.000000
#
# Coordination Sequence:
#
# PCOD9183883 Si02
#       6
#     8   8   8   8   8   8
#     4  10  22  39  58  81 112 150 189 228 274 329
#     4  10  19  33  56  83 112 144 180 226 279 331
#     4   9  18  33  54  82 113 142 178 226 279 331
#     4  11  22  36  56  82 113 148 186 228 275 328
#     4  10  20  36  57  82 110 144 184 228 276 326
#     4  10  21  35  53  80 111 142 182 231 276 323
#
# _framework density 18.005915999999999
#
# number of rings (size 3 to 8) (size 9 to 14) (size 15 to 20)
#    0.000    2.000    1.667    2.000    0.000    3.333 
#    0.000    0.833    0.000    0.000    0.000    0.000 
#    0.000    0.000    0.000    0.000    0.000    0.000 
#
# Total GULP energy -134014.699637 kJ/mol
# GULP energy per Si atom -5583.945818 kJ/mol
# Density = 1.796493 g / cm^3
# Si number density = 18.005916 Si / 1000 Ang^3
#
#
#
# Elastic Constant Matrix: (Units=GPa)
#
#
# Indices 1 2 3 4 5 6 
#
# 1 141.8144 28.8673 43.8279 0.0000 -9.9302 0.0000
# 2 28.8673 13.0440 22.7649 0.0000 -3.9008 0.0000
# 3 43.8279 22.7649 83.2069 0.0000 -10.6410 0.0000
# 4 0.0000 0.0000 0.0000 21.2282 0.0000 3.5388
# 5 -9.9302 -3.9008 -10.6410 0.0000 34.2241 0.0000
# 6 0.0000 0.0000 0.0000 3.5388 0.0000 -18.4831
#
#
#
# Elastic Compliance Matrix: (Units=1/GPa)
#
#
# Indices 1 2 3 4 5 6 
#
# 1 0.013015 -0.032118 0.002027 0.000000 0.000746 0.000000
# 2 -0.032118 0.226624 -0.044753 0.000000 0.002596 0.000000
# 3 0.002027 -0.044753 0.023554 0.000000 0.002811 0.000000
# 4 0.000000 0.000000 0.000000 0.045650 0.000000 0.008740
# 5 0.000746 0.002596 0.002811 0.000000 0.030605 0.000000
# 6 0.000000 0.000000 0.000000 0.008740 0.000000 -0.052430
#
#
# Mechanical properties :
#
#
# Convention : Reuss Voigt Hill
#
# Bulk Modulus (GPa) = 8.81016 47.66505 28.23760
# Shear Modulus (GPa) = 10.53647 16.90087 13.71867
#
# Velocity S-wave (km/s) = 2.42165 3.06703 2.76324
# Velocity P-wave (km/s) = 3.56689 6.25073 5.08892
#
# Compressibility (1/GPa) = 0.11350532
#
# Stress axis : x y z
#
# Youngs Moduli (GPa) = 76.83428 4.41259 42.45545
#
# Poissons Ratio (x) = 0.14172 -0.08607
# Poissons Ratio (y) = 2.46777 1.90002
# Poissons Ratio (z) = -0.15576 0.19748
#
# Static dielectric constant tensor:
#      x y z
#    x 1.610740 0.000000 0.025660 
#    y 0.000000 1.599200 0.000000 
#    z 0.025660 0.000000 1.589410 
# 
# From -- ./inp_files/108677.got.cif
#   From: 2010.05.17/outbox.cif.g08.bks.cpg/sg12_55_cif.got.tgz:108677.got - 2010.06.03 13:09:07.
