data_PCOD9183750
_publ_section_title
;
Structure prediction by ZEFSAII (Michael W. Deem and Ramdas Pophale) SiO2 
 PCOD9183750
Probable space group: C 2/M
;
_chemical_formula_sum "Si O2"
_cell_formula_units_Z 38
_cell_length_a 14.609019
_cell_length_b 18.321884
_cell_length_c 12.013773
_cell_angle_alpha 90.000000
_cell_angle_beta 35.404868
_cell_angle_gamma 90.000000
_cell_volume 1862.996055
_symmetry_space_group_name_H-M "C 2/M"
_symmetry_group_IT_number 12
_symmetry_cell_setting 'monoclinic'
loop_
_space_group_symop_operation_xyz
x,y,z
-x,y,-z
-x,-y,-z
x,-y,z
1/2+x,1/2+y,z
1/2-x,1/2+y,-z
1/2-x,1/2-y,-z
1/2+x,1/2-y,z
loop_
_atom_site_type_symbol
_atom_site_label
_atom_site_fract_x
_atom_site_fract_y
_atom_site_fract_z
Si Si1 0.341242 0.110751 0.587101
Si Si2 0.000000 0.500000 0.000000
Si Si3 0.620675 0.759320 0.031876
Si Si4 0.627655 0.116131 0.689513
Si Si5 0.500000 0.632779 0.000000
Si Si6 0.665724 0.285562 0.387110
O O1 0.500000 0.092300 0.500000
O O2 0.356586 0.081782 0.447352
O O3 0.339934 0.199775 0.578778
O O4 0.168059 0.093056 0.810526
O O5 0.069572 0.562941 0.844192
O O6 0.496951 0.817938 0.195742
O O7 0.538437 0.685444 0.068263
O O8 0.750000 0.750000 0.000000
O O9 0.705028 0.790525 0.838342
O O10 0.787521 0.158467 0.564080
O O11 0.500000 0.306383 0.500000
#
# Coordination Sequence:
#
# PCOD9183750 Si02
#       6
#     8   2   8   8   4   8
#     4  10  21  36  61  96 124 156 209 273 334 367
#     4  12  26  44  64  86 128 196 212 228 302 404
#     4  11  19  32  57  90 125 160 203 266 328 376
#     4  12  21  41  60  85 132 170 218 248 304 394
#     4  10  19  34  52  92 126 151 198 266 346 364
#     4  10  19  33  55  94 124 159 206 270 330 368
#
# _framework density 20.397251000000001
#
# number of rings (size 3 to 8) (size 9 to 14) (size 15 to 20)
#    0.000    1.263    6.316    4.421    2.947    0.000 
#    0.000    1.053    0.000    0.632    0.000    0.000 
#    0.000    0.000    0.000    0.000    0.000    0.000 
#
# Total GULP energy -105784.837423 kJ/mol
# GULP energy per Si atom -5567.623022 kJ/mol
# Density = 2.035083 g / cm^3
# Si number density = 20.397251 Si / 1000 Ang^3
#
#
#
# Elastic Constant Matrix: (Units=GPa)
#
#
# Indices 1 2 3 4 5 6 
#
# 1 140.6166 35.8230 41.1687 0.0009 -13.7893 -0.0017
# 2 35.8230 69.9833 19.0867 0.0005 0.0534 -0.0015
# 3 41.1687 19.0867 135.0399 0.0009 -5.0984 -0.0021
# 4 0.0009 0.0005 0.0009 0.4640 -0.0009 8.5565
# 5 -13.7893 0.0534 -5.0984 -0.0009 43.0923 0.0018
# 6 -0.0017 -0.0015 -0.0021 8.5565 0.0018 -9.1413
#
#
#
# Elastic Compliance Matrix: (Units=1/GPa)
#
#
# Indices 1 2 3 4 5 6 
#
# 1 0.009009 -0.004048 -0.002075 0.000000 0.002642 0.000000
# 2 -0.004048 0.016684 -0.001179 0.000001 -0.001455 -0.000001
# 3 -0.002075 -0.001179 0.008216 0.000001 0.000310 -0.000001
# 4 0.000000 0.000001 0.000001 0.118020 -0.000002 0.110470
# 5 0.002642 -0.001455 0.000310 -0.000002 0.024090 0.000003
# 6 0.000000 -0.000001 -0.000001 0.110470 0.000003 -0.005991
#
#
# Mechanical properties :
#
#
# Convention : Reuss Voigt Hill
#
# Bulk Modulus (GPa) = 51.79737 59.75517 55.77627
# Shear Modulus (GPa) = 26.16882 23.52046 24.84464
#
# Velocity S-wave (km/s) = 3.58573 3.39944 3.49383
# Velocity P-wave (km/s) = 6.52631 6.69086 6.60909
#
# Compressibility (1/GPa) = 0.01930600
#
# Stress axis : x y z
#
# Youngs Moduli (GPa) = 110.99645 59.93847 121.71294
#
# Poissons Ratio (x) = 0.24262 0.25252
# Poissons Ratio (y) = 0.44930 0.14350
# Poissons Ratio (z) = 0.23029 0.07067
#
# Static dielectric constant tensor:
#      x y z
#    x 1.762690 0.000000 -0.008110 
#    y 0.000000 1.704250 0.000000 
#    z -0.008110 0.000000 1.752340 
# 
# From -- ./inp_files/146876.got.cif
#   From: 2010.05.17/outbox.cif.g08.bks.cpg/sg12_74_cif.got.tgz:146876.got - 2010.06.03 13:09:07.
