data_PCOD9183986
_publ_section_title
;
Structure prediction by ZEFSAII (Michael W. Deem and Ramdas Pophale) SiO2 
 PCOD9183986
Probable space group: C 2/M
;
_chemical_formula_sum "Si O2"
_cell_formula_units_Z 32
_cell_length_a 25.346662
_cell_length_b 14.630195
_cell_length_c 8.222697
_cell_angle_alpha 90.000000
_cell_angle_beta 146.565532
_cell_angle_gamma 90.000000
_cell_volume 1680.054116
_symmetry_space_group_name_H-M "C 2/M"
_symmetry_group_IT_number 12
_symmetry_cell_setting 'monoclinic'
loop_
_space_group_symop_operation_xyz
x,y,z
-x,y,-z
-x,-y,-z
x,-y,z
1/2+x,1/2+y,z
1/2-x,1/2+y,-z
1/2-x,1/2-y,-z
1/2+x,1/2-y,z
loop_
_atom_site_type_symbol
_atom_site_label
_atom_site_fract_x
_atom_site_fract_y
_atom_site_fract_z
Si Si1 0.087493 0.245044 0.628242
Si Si2 0.267376 0.395983 0.512957
Si Si3 0.513982 0.603039 0.856966
Si Si4 0.220305 0.274507 0.679742
O O1 0.141268 0.292531 0.614631
O O2 0.000000 0.293198 0.500000
O O3 0.035552 0.159124 0.410729
O O4 0.174889 0.216514 0.969382
O O5 0.236246 0.500000 0.397617
O O6 0.206183 0.340325 0.488562
O O7 0.279075 0.329909 0.387092
O O8 0.372231 0.401893 0.863964
O O9 0.473870 0.500000 0.759659
O O10 0.500000 0.645970 0.000000
#
# Coordination Sequence:
#
# PCOD9183986 Si02
#       4
#     8   8   8   8
#     4  11  21  35  53  84 121 150 182 230 279 347
#     4  10  20  38  60  85 115 145 190 241 285 336
#     4  10  19  33  56  87 116 143 180 241 304 342
#     4  10  22  36  57  87 114 156 187 224 292 337
#
# _framework density 19.047004999999999
#
# number of rings (size 3 to 8) (size 9 to 14) (size 15 to 20)
#    0.000    1.750    5.000    0.000    0.000    1.500 
#    0.000    3.750    0.000    4.500    0.000    0.000 
#    0.000    0.000    0.000    0.000    0.000    0.000 
#
# Total GULP energy -89094.996496 kJ/mol
# GULP energy per Si atom -5568.437281 kJ/mol
# Density = 1.900365 g / cm^3
# Si number density = 19.047005 Si / 1000 Ang^3
#
#
#
# Elastic Constant Matrix: (Units=GPa)
#
#
# Indices 1 2 3 4 5 6 
#
# 1 141.3190 21.0769 8.5558 0.0000 16.5696 0.0000
# 2 21.0769 77.9038 18.1030 0.0000 -11.4132 0.0000
# 3 8.5558 18.1030 79.7756 0.0000 -4.5765 0.0000
# 4 0.0000 0.0000 0.0000 20.2123 0.0000 -0.4258
# 5 16.5696 -11.4132 -4.5765 0.0000 30.9251 0.0000
# 6 0.0000 0.0000 0.0000 -0.4258 0.0000 11.3310
#
#
#
# Elastic Compliance Matrix: (Units=1/GPa)
#
#
# Indices 1 2 3 4 5 6 
#
# 1 0.008191 -0.002903 -0.000538 0.000000 -0.005540 0.000000
# 2 -0.002903 0.015256 -0.002762 0.000000 0.006777 0.000000
# 3 -0.000538 -0.002762 0.013290 0.000000 0.001236 0.000000
# 4 0.000000 0.000000 0.000000 0.049514 0.000000 0.001861
# 5 -0.005540 0.006777 0.001236 0.000000 0.037988 0.000000
# 6 0.000000 0.000000 0.000000 0.001861 0.000000 0.088324
#
#
# Mechanical properties :
#
#
# Convention : Reuss Voigt Hill
#
# Bulk Modulus (GPa) = 41.09579 43.83000 42.46290
# Shear Modulus (GPa) = 21.45189 29.24453 25.34821
#
# Velocity S-wave (km/s) = 3.35962 3.92265 3.65200
# Velocity P-wave (km/s) = 6.05576 6.60134 6.33443
#
# Compressibility (1/GPa) = 0.02433339
#
# Stress axis : x y z
#
# Youngs Moduli (GPa) = 122.08231 65.54641 75.24206
#
# Poissons Ratio (x) = 0.19027 0.04045
# Poissons Ratio (y) = 0.35438 0.20781
# Poissons Ratio (z) = 0.06563 0.18103
#
# Static dielectric constant tensor:
#      x y z
#    x 1.762770 0.000000 0.019660 
#    y 0.000000 1.675020 0.000000 
#    z 0.019660 0.000000 1.658900 
# 
# From -- ./inp_files/57685.got.cif
#   From: 2010.05.17/outbox.cif.g08.bks.cpg/sg12_29_cif.got.tgz:57685.got - 2010.06.03 13:09:07.
