data_PCOD9183327
_publ_section_title
;
Structure prediction by ZEFSAII (Michael W. Deem and Ramdas Pophale) SiO2 
 PCOD9183327
Probable space group: C 2/M
;
_chemical_formula_sum "Si O2"
_cell_formula_units_Z 58
_cell_length_a 29.318942
_cell_length_b 7.552170
_cell_length_c 24.587392
_cell_angle_alpha 90.000000
_cell_angle_beta 148.923936
_cell_angle_gamma 90.000000
_cell_volume 2810.152971
_symmetry_space_group_name_H-M "C 2/M"
_symmetry_group_IT_number 12
_symmetry_cell_setting 'monoclinic'
loop_
_space_group_symop_operation_xyz
x,y,z
-x,y,-z
-x,-y,-z
x,-y,z
1/2+x,1/2+y,z
1/2-x,1/2+y,-z
1/2-x,1/2-y,-z
1/2+x,1/2-y,z
loop_
_atom_site_type_symbol
_atom_site_label
_atom_site_fract_x
_atom_site_fract_y
_atom_site_fract_z
Si Si1 0.265703 0.211301 0.174094
Si Si2 0.346659 0.792386 0.577385
Si Si3 0.416698 0.708501 0.533742
Si Si4 0.596364 0.287737 0.772591
Si Si5 0.500000 0.000000 0.000000
Si Si6 0.060817 0.218507 0.971160
Si Si7 0.597771 0.795203 0.598759
Si Si8 0.027494 0.201166 0.814748
O O1 0.312006 0.251533 0.163799
O O2 0.330903 0.284309 0.287567
O O3 0.263511 0.000000 0.176638
O O4 0.165249 0.265587 0.079749
O O5 0.250000 0.750000 0.500000
O O6 0.356822 0.739589 0.525017
O O7 0.426362 0.701023 0.691131
O O8 0.363024 0.000000 0.599016
O O9 0.424138 0.500000 0.531453
O O10 0.514562 0.777236 0.651044
O O11 0.377651 0.790264 0.439358
O O12 0.584920 0.500000 0.763929
O O13 0.581399 0.218052 0.818602
O O14 0.486814 0.158478 0.033458
O O15 0.032413 0.270361 0.880712
O O16 0.049688 0.000000 0.967112
O O17 0.500000 0.712585 0.500000
O O18 0.587649 0.000000 0.605348
O O19 0.061043 0.000000 0.854271
#
# Coordination Sequence:
#
# PCOD9183327 Si02
#       8
#     8   8   8   8   2   8   8   8
#     4  10  21  37  58  89 125 165 208 260 317 375
#     4  11  22  38  61  88 120 155 203 260 312 373
#     4  10  20  35  53  82 120 162 204 245 306 368
#     4   9  18  32  57  88 123 160 199 248 309 376
#     4  12  26  48  76  94 118 164 226 266 328 388
#     4  10  24  47  69  93 129 165 211 274 325 377
#     4  10  19  33  54  82 122 166 207 244 298 367
#     4   9  20  41  64  89 126 166 202 255 325 378
#
# _framework density 20.639447000000001
#
# number of rings (size 3 to 8) (size 9 to 14) (size 15 to 20)
#    0.000    2.069    1.379    2.690    1.931    3.586 
#    2.483    0.000    0.000    0.000    0.000    0.000 
#    0.000    0.000    0.000    0.000    0.000    0.000 
#
# Total GULP energy -161489.537406 kJ/mol
# GULP energy per Si atom -5568.604738 kJ/mol
# Density = 2.059247 g / cm^3
# Si number density = 20.639447 Si / 1000 Ang^3
#
#
#
# Elastic Constant Matrix: (Units=GPa)
#
#
# Indices 1 2 3 4 5 6 
#
# 1 106.2734 11.8759 51.6946 0.0000 -42.3232 0.0000
# 2 11.8759 79.6405 5.7942 0.0000 -9.0832 -0.0001
# 3 51.6946 5.7942 63.0342 0.0000 -28.1477 0.0000
# 4 0.0000 0.0000 0.0000 5.9680 0.0000 -6.2085
# 5 -42.3232 -9.0832 -28.1477 0.0000 27.9212 0.0000
# 6 0.0000 -0.0001 0.0000 -6.2085 0.0000 21.6104
#
#
#
# Elastic Compliance Matrix: (Units=1/GPa)
#
#
# Indices 1 2 3 4 5 6 
#
# 1 0.025154 0.000335 -0.006520 0.000000 0.031665 0.000000
# 2 0.000335 0.013100 0.001184 0.000000 0.005963 0.000000
# 3 -0.006520 0.001184 0.030667 0.000000 0.021417 0.000000
# 4 0.000000 0.000000 0.000000 0.238986 0.000000 0.068659
# 5 0.031665 0.005963 0.021417 0.000000 0.107345 0.000000
# 6 0.000000 0.000000 0.000000 0.068659 0.000000 0.065999
#
#
# Mechanical properties :
#
#
# Convention : Reuss Voigt Hill
#
# Bulk Modulus (GPa) = 16.97249 43.07527 30.02388
# Shear Modulus (GPa) = 9.78678 23.07214 16.42946
#
# Velocity S-wave (km/s) = 2.17993 3.34708 2.82445
# Velocity P-wave (km/s) = 3.81802 5.98773 5.02146
#
# Compressibility (1/GPa) = 0.05891887
#
# Stress axis : x y z
#
# Youngs Moduli (GPa) = 39.75441 76.33332 32.60885
#
# Poissons Ratio (x) = -0.02556 0.21261
# Poissons Ratio (y) = -0.01331 -0.03860
# Poissons Ratio (z) = 0.25920 -0.09037
#
# Static dielectric constant tensor:
#      x y z
#    x 1.739830 0.000000 -0.013800 
#    y 0.000000 1.787000 0.000000 
#    z -0.013800 0.000000 1.755030 
# 
# From -- ./inp_files/353105.got.cif
#   From: 2010.05.17/outbox.cif.g08.bks.cpg/sg12_177_cif.got.tgz:353105.got - 2010.06.03 13:09:07.
