data_PCOD9183582
_publ_section_title
;
Structure prediction by ZEFSAII (Michael W. Deem and Ramdas Pophale) SiO2 
 PCOD9183582
Probable space group: C 2/M
;
_chemical_formula_sum "Si O2"
_cell_formula_units_Z 64
_cell_length_a 14.618782
_cell_length_b 9.084715
_cell_length_c 30.408694
_cell_angle_alpha 90.000000
_cell_angle_beta 127.437735
_cell_angle_gamma 90.000000
_cell_volume 3206.628595
_symmetry_space_group_name_H-M "C 2/M"
_symmetry_group_IT_number 12
_symmetry_cell_setting 'monoclinic'
loop_
_space_group_symop_operation_xyz
x,y,z
-x,y,-z
-x,-y,-z
x,-y,z
1/2+x,1/2+y,z
1/2-x,1/2+y,-z
1/2-x,1/2-y,-z
1/2+x,1/2-y,z
loop_
_atom_site_type_symbol
_atom_site_label
_atom_site_fract_x
_atom_site_fract_y
_atom_site_fract_z
Si Si1 0.177352 0.673041 0.302762
Si Si2 0.074246 0.323839 0.760557
Si Si3 0.644281 0.177387 0.494430
Si Si4 0.529416 0.330017 0.104923
Si Si5 0.834215 0.828446 0.124550
Si Si6 0.114592 0.676503 0.588526
Si Si7 0.282254 0.171529 0.785731
Si Si8 0.830634 0.822702 0.986016
O O1 0.193430 0.500000 0.316388
O O2 0.288353 0.756583 0.352322
O O3 0.161927 0.689935 0.245826
O O4 0.056324 0.721782 0.288237
O O5 0.076691 0.500000 0.765507
O O6 0.115349 0.250363 0.818055
O O7 0.166603 0.266506 0.752926
O O8 0.750000 0.250000 0.500000
O O9 0.643608 0.214253 0.546219
O O10 0.517072 0.223230 0.440255
O O11 0.651996 0.000000 0.493013
O O12 0.568873 0.500000 0.113153
O O13 0.432050 0.323317 0.114974
O O14 0.632133 0.228512 0.151495
O O15 0.460431 0.291095 0.040275
O O16 0.721114 0.745316 0.073361
O O17 0.809504 0.000000 0.125573
O O18 0.116765 0.500000 0.592304
O O19 0.256262 0.000000 0.784491
O O20 0.817879 0.000000 0.982321
O O21 0.750000 0.750000 0.000000
#
# Coordination Sequence:
#
# PCOD9183582 Si02
#       8
#     8   8   8   8   8   8   8   8
#     4  10  23  41  60  85 118 154 196 242 288 339
#     4  11  23  40  59  82 113 151 192 240 294 349
#     4   9  19  37  60  90 124 159 197 236 283 333
#     4   9  18  33  54  80 109 144 185 230 286 351
#     4  10  19  33  55  82 110 144 187 234 291 354
#     4   9  20  38  60  86 120 159 197 236 282 338
#     4  11  23  39  58  83 113 148 192 242 291 345
#     4   9  17  29  49  79 110 142 184 232 287 352
#
# _framework density 19.958656999999999
#
# number of rings (size 3 to 8) (size 9 to 14) (size 15 to 20)
#    0.000    2.250    1.250    3.000    0.000    6.500 
#    0.000    6.875    0.000    3.750    0.000    0.000 
#    0.000    0.000    0.000    0.000    0.000    0.000 
#
# Total GULP energy -178683.740045 kJ/mol
# GULP energy per Si atom -5583.866876 kJ/mol
# Density = 1.991323 g / cm^3
# Si number density = 19.958657 Si / 1000 Ang^3
#
#
#
# Elastic Constant Matrix: (Units=GPa)
#
#
# Indices 1 2 3 4 5 6 
#
# 1 86.2287 32.8363 22.3693 0.0000 27.3930 0.0000
# 2 32.8363 67.6829 42.6958 0.0000 19.9801 0.0000
# 3 22.3693 42.6958 93.5973 0.0000 33.8883 0.0000
# 4 0.0000 0.0000 0.0000 34.4670 0.0000 2.0863
# 5 27.3930 19.9801 33.8883 0.0000 25.9638 0.0000
# 6 0.0000 0.0000 0.0000 2.0863 0.0000 28.3350
#
#
#
# Elastic Compliance Matrix: (Units=1/GPa)
#
#
# Indices 1 2 3 4 5 6 
#
# 1 0.020817 -0.007247 0.008083 0.000000 -0.026937 0.000000
# 2 -0.007247 0.023930 -0.010020 0.000000 0.002309 0.000000
# 3 0.008083 -0.010020 0.025822 0.000000 -0.034520 0.000000
# 4 0.000000 0.000000 0.000000 0.029143 0.000000 -0.002146
# 5 -0.026937 0.002309 -0.034520 0.000000 0.110214 0.000000
# 6 0.000000 0.000000 0.000000 -0.002146 0.000000 0.035450
#
#
# Mechanical properties :
#
#
# Convention : Reuss Voigt Hill
#
# Bulk Modulus (GPa) = 19.15650 49.25686 34.20668
# Shear Modulus (GPa) = 17.78457 27.72699 22.75578
#
# Velocity S-wave (km/s) = 2.98832 3.73127 3.38027
# Velocity P-wave (km/s) = 4.63958 6.57998 5.69306
#
# Compressibility (1/GPa) = 0.05220161
#
# Stress axis : x y z
#
# Youngs Moduli (GPa) = 48.03787 41.78907 38.72740
#
# Poissons Ratio (x) = 0.30283 -0.31305
# Poissons Ratio (y) = 0.34812 0.38805
# Poissons Ratio (z) = -0.38831 0.41873
#
# Static dielectric constant tensor:
#      x y z
#    x 1.750040 0.000000 -0.015140 
#    y 0.000000 1.661750 0.000000 
#    z -0.015140 0.000000 1.698420 
# 
# From -- ./inp_files/375677.got.cif
#   From: 2010.05.17/outbox.cif.g08.bks.cpg/sg12_188_cif.got.tgz:375677.got - 2010.06.03 13:09:07.
