data_PCOD9183950
_publ_section_title
;
Structure prediction by ZEFSAII (Michael W. Deem and Ramdas Pophale) SiO2 
 PCOD9183950
Probable space group: C 2/M
;
_chemical_formula_sum "Si O2"
_cell_formula_units_Z 56
_cell_length_a 29.062927
_cell_length_b 9.056730
_cell_length_c 17.753533
_cell_angle_alpha 90.000000
_cell_angle_beta 138.809918
_cell_angle_gamma 90.000000
_cell_volume 3077.445628
_symmetry_space_group_name_H-M "C 2/M"
_symmetry_group_IT_number 12
_symmetry_cell_setting 'monoclinic'
loop_
_space_group_symop_operation_xyz
x,y,z
-x,y,-z
-x,-y,-z
x,-y,z
1/2+x,1/2+y,z
1/2-x,1/2+y,-z
1/2-x,1/2-y,-z
1/2+x,1/2-y,z
loop_
_atom_site_type_symbol
_atom_site_label
_atom_site_fract_x
_atom_site_fract_y
_atom_site_fract_z
Si Si1 0.541453 0.825898 0.912491
Si Si2 0.305410 0.176396 0.314623
Si Si3 0.625893 0.173600 0.276768
Si Si4 0.027632 0.823200 0.739859
Si Si5 0.348116 0.323642 0.845065
Si Si6 0.572466 0.677485 0.629587
Si Si7 0.123497 0.676851 0.441291
O O1 0.458516 0.807502 0.824825
O O2 0.557331 0.750586 0.851817
O O3 0.555334 0.000000 0.926402
O O4 0.587220 0.752093 0.033639
O O5 0.224852 0.219394 0.205182
O O6 0.361196 0.253483 0.329740
O O7 0.326511 0.208110 0.427306
O O8 0.310903 0.000000 0.311323
O O9 0.654452 0.270333 0.244254
O O10 0.651127 0.214145 0.391936
O O11 0.640253 0.000000 0.280884
O O12 0.067208 0.784928 0.711395
O O13 0.948675 0.762970 0.634862
O O14 0.026612 0.000000 0.746586
O O15 0.354960 0.500000 0.856215
O O16 0.500000 0.725464 0.500000
O O17 0.575803 0.500000 0.626979
O O18 0.108485 0.500000 0.421347
#
# Coordination Sequence:
#
# PCOD9183950 Si02
#       7
#     8   8   8   8   8   8   8
#     4  10  21  38  59  81 107 142 186 226 268 325
#     4  10  22  37  54  79 113 149 184 222 266 323
#     4   9  19  35  56  80 106 140 184 227 270 323
#     4  10  19  33  56  85 113 137 173 227 275 315
#     4  11  23  37  53  79 112 145 185 229 271 316
#     4  10  20  35  56  85 114 140 176 222 271 324
#     4   9  18  34  54  79 111 145 181 220 266 322
#
# _framework density 18.196909999999999
#
# number of rings (size 3 to 8) (size 9 to 14) (size 15 to 20)
#    0.000    2.143    1.429    2.571    0.000    7.714 
#    0.000    0.714    0.000    0.000    0.000    0.000 
#    0.000    0.000    0.000    0.000    0.000    0.000 
#
# Total GULP energy -156296.297567 kJ/mol
# GULP energy per Si atom -5582.010627 kJ/mol
# Density = 1.815549 g / cm^3
# Si number density = 18.196910 Si / 1000 Ang^3
#
#
#
# Elastic Constant Matrix: (Units=GPa)
#
#
# Indices 1 2 3 4 5 6 
#
# 1 87.0744 33.4454 10.7896 0.0000 -11.6337 0.0000
# 2 33.4454 37.2175 12.1012 0.0000 -2.7527 0.0000
# 3 10.7896 12.1012 8.0473 0.0000 -4.1997 0.0000
# 4 0.0000 0.0000 0.0000 19.5310 0.0000 -5.2165
# 5 -11.6337 -2.7527 -4.1997 0.0000 19.0581 0.0000
# 6 0.0000 0.0000 0.0000 -5.2165 0.0000 33.6205
#
#
#
# Elastic Compliance Matrix: (Units=1/GPa)
#
#
# Indices 1 2 3 4 5 6 
#
# 1 0.019320 -0.019553 0.009244 0.000000 0.011006 0.000000
# 2 -0.019553 0.074531 -0.097709 0.000000 -0.022702 0.000000
# 3 0.009244 -0.097709 0.287439 0.000000 0.054870 0.000000
# 4 0.000000 0.000000 0.000000 0.053414 0.000000 0.008288
# 5 0.011006 -0.022702 0.054870 0.000000 0.068002 0.000000
# 6 0.000000 0.000000 0.000000 0.008288 0.000000 0.031030
#
#
# Mechanical properties :
#
#
# Convention : Reuss Voigt Hill
#
# Bulk Modulus (GPa) = 6.05132 27.22353 16.63743
# Shear Modulus (GPa) = 6.21228 19.50879 12.86054
#
# Velocity S-wave (km/s) = 1.84968 3.27784 2.66135
# Velocity P-wave (km/s) = 2.80971 5.41467 4.31353
#
# Compressibility (1/GPa) = 0.16525322
#
# Stress axis : x y z
#
# Youngs Moduli (GPa) = 51.75970 13.41715 3.47900
#
# Poissons Ratio (x) = 0.26235 -0.03216
# Poissons Ratio (y) = 1.01208 0.33993
# Poissons Ratio (z) = -0.47845 1.31097
#
# Static dielectric constant tensor:
#      x y z
#    x 1.613360 0.000000 -0.015130 
#    y 0.000000 1.602680 0.000000 
#    z -0.015130 0.000000 1.621870 
# 
# From -- ./inp_files/288244.got.cif
#   From: 2010.05.17/outbox.cif.g08.bks.cpg/sg12_145_cif.got.tgz:288244.got - 2010.06.03 13:09:07.
