data_PCOD9183803
_publ_section_title
;
Structure prediction by ZEFSAII (Michael W. Deem and Ramdas Pophale) SiO2 
 PCOD9183803
Probable space group: C 2/M
;
_chemical_formula_sum "Si O2"
_cell_formula_units_Z 64
_cell_length_a 20.122972
_cell_length_b 9.590524
_cell_length_c 23.028116
_cell_angle_alpha 90.000000
_cell_angle_beta 43.449549
_cell_angle_gamma 90.000000
_cell_volume 3056.340510
_symmetry_space_group_name_H-M "C 2/M"
_symmetry_group_IT_number 12
_symmetry_cell_setting 'monoclinic'
loop_
_space_group_symop_operation_xyz
x,y,z
-x,y,-z
-x,-y,-z
x,-y,z
1/2+x,1/2+y,z
1/2-x,1/2+y,-z
1/2-x,1/2-y,-z
1/2+x,1/2-y,z
loop_
_atom_site_type_symbol
_atom_site_label
_atom_site_fract_x
_atom_site_fract_y
_atom_site_fract_z
Si Si1 0.555739 0.344981 0.025023
Si Si2 0.745172 0.839072 0.164567
Si Si3 0.007057 0.659357 0.160082
Si Si4 0.695421 0.163627 0.320307
Si Si5 0.989850 0.840249 0.575868
Si Si6 0.914145 0.841408 0.791844
Si Si7 0.878009 0.840126 0.404750
Si Si8 0.703102 0.161934 0.644839
O O1 0.547090 0.500000 0.057406
O O2 0.512127 0.230671 0.094684
O O3 0.500000 0.346941 0.000000
O O4 0.665587 0.320868 0.935360
O O5 0.767157 0.821912 0.219363
O O6 0.664598 0.729727 0.198334
O O7 0.710483 0.000000 0.181033
O O8 0.038189 0.500000 0.137822
O O9 0.076128 0.749428 0.157120
O O10 0.901152 0.663302 0.256544
O O11 0.594029 0.227151 0.362355
O O12 0.729943 0.250280 0.354049
O O13 0.687041 0.000000 0.339632
O O14 0.086378 0.806900 0.552022
O O15 0.000000 0.843171 0.500000
O O16 0.962260 0.000000 0.611093
O O17 0.018213 0.839124 0.694267
O O18 0.889531 0.000000 0.820725
O O19 0.813132 0.734834 0.407670
O O20 0.840979 0.000000 0.425703
O O21 0.733658 0.000000 0.620263
#
# Coordination Sequence:
#
# PCOD9183803 Si02
#       8
#     8   8   8   8   8   8   8   8
#     4  10  21  37  54  73 104 145 188 232 284 341
#     4  10  21  35  54  80 109 144 185 234 284 332
#     4  10  21  36  54  79 111 145 186 236 287 336
#     4  11  22  37  60  88 118 150 191 239 283 339
#     4  10  21  39  63  90 121 153 185 229 285 342
#     4  10  19  33  56  81 106 143 186 231 279 334
#     4   9  18  35  58  85 115 149 189 229 278 339
#     4  10  21  36  58  85 115 152 193 239 285 334
#
# _framework density 20.940076000000001
#
# number of rings (size 3 to 8) (size 9 to 14) (size 15 to 20)
#    0.000    2.000    1.250    2.250    0.000    5.500 
#    0.000    0.625    0.000    0.000    0.000    0.000 
#    0.000    0.000    0.000    0.000    0.000    0.000 
#
# Total GULP energy -178715.112866 kJ/mol
# GULP energy per Si atom -5584.847277 kJ/mol
# Density = 2.089242 g / cm^3
# Si number density = 20.940076 Si / 1000 Ang^3
#
#
#
# Elastic Constant Matrix: (Units=GPa)
#
#
# Indices 1 2 3 4 5 6 
#
# 1 119.4978 78.7987 12.8462 0.0000 18.7461 0.0000
# 2 78.7987 150.4966 51.7782 0.0001 10.2607 -0.0001
# 3 12.8462 51.7782 58.4323 0.0000 20.7328 0.0000
# 4 0.0000 0.0001 0.0000 37.4913 0.0000 0.1976
# 5 18.7461 10.2607 20.7328 0.0000 29.3750 0.0000
# 6 0.0000 -0.0001 0.0000 0.1976 0.0000 39.2018
#
#
#
# Elastic Compliance Matrix: (Units=1/GPa)
#
#
# Indices 1 2 3 4 5 6 
#
# 1 0.017983 -0.012854 0.013228 0.000000 -0.016323 0.000000
# 2 -0.012854 0.019028 -0.019461 0.000000 0.015292 0.000000
# 3 0.013228 -0.019461 0.042736 0.000000 -0.031807 0.000000
# 4 0.000000 0.000000 0.000000 0.026674 0.000000 -0.000134
# 5 -0.016323 0.015292 -0.031807 0.000000 0.061567 0.000000
# 6 0.000000 0.000000 0.000000 -0.000134 0.000000 0.025510
#
#
# Mechanical properties :
#
#
# Convention : Reuss Voigt Hill
#
# Bulk Modulus (GPa) = 24.05361 68.36363 46.20862
# Shear Modulus (GPa) = 20.36416 33.54717 26.95567
#
# Velocity S-wave (km/s) = 3.12187 4.00691 3.59176
# Velocity P-wave (km/s) = 4.95041 7.35699 6.27024
#
# Compressibility (1/GPa) = 0.04157380
#
# Stress axis : x y z
#
# Youngs Moduli (GPa) = 55.60761 52.55426 23.39933
#
# Poissons Ratio (x) = 0.67554 -0.30954
# Poissons Ratio (y) = 0.71479 0.45538
# Poissons Ratio (z) = -0.73560 1.02276
#
# Static dielectric constant tensor:
#      x y z
#    x 1.747700 0.000000 0.000020 
#    y 0.000000 1.714000 0.000000 
#    z 0.000020 0.000000 1.817050 
# 
# From -- ./inp_files/346100.got.cif
#   From: 2010.05.17/outbox.cif.g08.bks.cpg/sg12_174_cif.got.tgz:346100.got - 2010.06.03 13:09:07.
