data_PCOD9183589
_publ_section_title
;
Structure prediction by ZEFSAII (Michael W. Deem and Ramdas Pophale) SiO2 
 PCOD9183589
Probable space group: C 2/M
;
_chemical_formula_sum "Si O2"
_cell_formula_units_Z 32
_cell_length_a 15.068724
_cell_length_b 7.386992
_cell_length_c 11.127131
_cell_angle_alpha 90.000000
_cell_angle_beta 75.856608
_cell_angle_gamma 90.000000
_cell_volume 1201.044195
_symmetry_space_group_name_H-M "C 2/M"
_symmetry_group_IT_number 12
_symmetry_cell_setting 'monoclinic'
loop_
_space_group_symop_operation_xyz
x,y,z
-x,y,-z
-x,-y,-z
x,-y,z
1/2+x,1/2+y,z
1/2-x,1/2+y,-z
1/2-x,1/2-y,-z
1/2+x,1/2-y,z
loop_
_atom_site_type_symbol
_atom_site_label
_atom_site_fract_x
_atom_site_fract_y
_atom_site_fract_z
Si Si1 0.720281 0.708052 0.184138
Si Si2 0.381158 0.218506 0.282411
Si Si3 0.892705 0.718905 0.540768
Si Si4 0.557766 0.712619 0.090917
O O1 0.736957 0.500000 0.145651
O O2 0.816126 0.789080 0.197058
O O3 0.660642 0.708890 0.326775
O O4 0.654754 0.788946 0.103194
O O5 0.353028 0.278356 0.424687
O O6 0.485349 0.270192 0.223021
O O7 0.375977 0.000000 0.282929
O O8 0.888113 0.500000 0.550238
O O9 0.000000 0.767521 0.500000
O O10 0.571580 0.500000 0.062302
O O11 0.500000 0.794054 0.000000
#
# Coordination Sequence:
#
# PCOD9183589 Si02
#       4
#     8   8   8   8
#     4  10  21  36  56  81 109 141 178 218 263 318
#     4  10  21  37  56  81 110 140 176 219 266 317
#     4  10  19  33  55  82 112 140 171 216 267 318
#     4  10  22  39  56  77 107 142 181 224 266 310
#
# _framework density 26.643481999999999
#
# number of rings (size 3 to 8) (size 9 to 14) (size 15 to 20)
#    0.000    2.000    2.500    0.750    0.000    4.000 
#    0.000    0.000    0.000    0.000    0.000    0.000 
#    0.000    0.000    0.000    0.000    0.000    0.000 
#
# Total GULP energy -89549.934025 kJ/mol
# GULP energy per Si atom -5596.870877 kJ/mol
# Density = 2.658284 g / cm^3
# Si number density = 26.643482 Si / 1000 Ang^3
#
#
#
# Elastic Constant Matrix: (Units=GPa)
#
#
# Indices 1 2 3 4 5 6 
#
# 1 167.0699 16.5038 30.6487 0.0000 36.3316 0.0000
# 2 16.5038 109.8464 16.1640 0.0000 8.6432 0.0000
# 3 30.6487 16.1640 115.6091 0.0000 25.2754 0.0000
# 4 0.0000 0.0000 0.0000 16.6754 0.0000 -13.5920
# 5 36.3316 8.6432 25.2754 0.0000 67.6302 0.0000
# 6 0.0000 0.0000 0.0000 -13.5920 0.0000 1.2596
#
#
#
# Elastic Compliance Matrix: (Units=1/GPa)
#
#
# Indices 1 2 3 4 5 6 
#
# 1 0.006949 -0.000634 -0.001040 0.000000 -0.003263 0.000000
# 2 -0.000634 0.009389 -0.001042 0.000000 -0.000470 0.000000
# 3 -0.001040 -0.001042 0.009714 0.000000 -0.002938 0.000000
# 4 0.000000 0.000000 0.000000 -0.007692 0.000000 -0.083010
# 5 -0.003263 -0.000470 -0.002938 0.000000 0.017697 0.000000
# 6 0.000000 0.000000 0.000000 -0.083010 0.000000 -0.101841
#
#
# Mechanical properties :
#
#
# Convention : Reuss Voigt Hill
#
# Bulk Modulus (GPa) = 48.49858 57.68425 53.09142
# Shear Modulus (GPa) = -93.49450 39.06028 -27.21711
#
# Velocity S-wave (km/s) = -5.93019 3.83304 -3.19961
# Velocity P-wave (km/s) = 5.35231 6.42550 2.51394
#
# Compressibility (1/GPa) = 0.02061916
#
# Stress axis : x y z
#
# Youngs Moduli (GPa) = 143.91468 106.50539 102.94786
#
# Poissons Ratio (x) = 0.06754 0.10707
# Poissons Ratio (y) = 0.09127 0.10726
# Poissons Ratio (z) = 0.14968 0.11097
#
# Static dielectric constant tensor:
#      x y z
#    x 2.073910 0.000000 0.055000 
#    y 0.000000 1.973330 0.000000 
#    z 0.055000 0.000000 2.113970 
# 
# From -- ./inp_files/138727.got.cif
#   From: 2010.05.17/outbox.cif.g08.bks.cpg/sg12_70_cif.got.tgz:138727.got - 2010.06.03 13:09:07.
