data_PCOD9183667
_publ_section_title
;
Structure prediction by ZEFSAII (Michael W. Deem and Ramdas Pophale) SiO2 
 PCOD9183667
Probable space group: C 2/M
;
_chemical_formula_sum "Si O2"
_cell_formula_units_Z 56
_cell_length_a 25.004772
_cell_length_b 13.704318
_cell_length_c 9.127927
_cell_angle_alpha 90.000000
_cell_angle_beta 115.948845
_cell_angle_gamma 90.000000
_cell_volume 2812.558568
_symmetry_space_group_name_H-M "C 2/M"
_symmetry_group_IT_number 12
_symmetry_cell_setting 'monoclinic'
loop_
_space_group_symop_operation_xyz
x,y,z
-x,y,-z
-x,-y,-z
x,-y,z
1/2+x,1/2+y,z
1/2-x,1/2+y,-z
1/2-x,1/2-y,-z
1/2+x,1/2-y,z
loop_
_atom_site_type_symbol
_atom_site_label
_atom_site_fract_x
_atom_site_fract_y
_atom_site_fract_z
Si Si1 0.340407 0.886572 0.896711
Si Si2 0.949567 0.387586 0.815312
Si Si3 0.012133 0.785428 0.344138
Si Si4 0.680652 0.275876 0.909506
Si Si5 0.908539 0.885504 0.035610
Si Si6 0.614232 0.614535 0.315342
Si Si7 0.797106 0.117201 0.349782
O O1 0.387456 0.868754 0.824114
O O2 0.273521 0.870871 0.755941
O O3 0.346064 0.000000 0.946536
O O4 0.349902 0.817490 0.049395
O O5 0.949468 0.500000 0.764107
O O6 0.964674 0.312915 0.705106
O O7 0.000000 0.378035 0.000000
O O8 0.064202 0.863059 0.374640
O O9 0.000000 0.773523 0.500000
O O10 0.954480 0.826324 0.190279
O O11 0.657436 0.364625 0.982197
O O12 0.671227 0.314820 0.734004
O O13 0.750000 0.250000 0.000000
O O14 0.923511 0.000000 0.059492
O O15 0.908418 0.848204 0.868378
O O16 0.620177 0.500000 0.297487
O O17 0.676479 0.646687 0.460811
O O18 0.809452 0.000000 0.342005
#
# Coordination Sequence:
#
# PCOD9183667 Si02
#       7
#     8   8   8   8   8   8   8
#     4   9  18  34  58  85 114 153 197 241 289 343
#     4  10  21  39  62  83 110 152 197 239 285 339
#     4  12  24  37  58  88 119 149 186 237 293 349
#     4  10  19  33  55  84 114 148 186 227 281 338
#     4  11  23  40  61  85 117 153 190 234 285 345
#     4  10  21  37  58  84 114 153 196 236 284 345
#     4   9  18  34  56  84 118 152 191 239 291 345
#
# _framework density 19.910696999999999
#
# number of rings (size 3 to 8) (size 9 to 14) (size 15 to 20)
#    0.000    1.857    0.000    4.714    0.000    4.286 
#    0.000    7.857    0.000    2.571    0.000    0.000 
#    0.000    0.000    0.000    0.000    0.000    0.000 
#
# Total GULP energy -156177.377758 kJ/mol
# GULP energy per Si atom -5577.763491 kJ/mol
# Density = 1.986538 g / cm^3
# Si number density = 19.910697 Si / 1000 Ang^3
#
#
#
# Elastic Constant Matrix: (Units=GPa)
#
#
# Indices 1 2 3 4 5 6 
#
# 1 93.2555 25.8850 56.5426 0.0000 -12.8428 0.0000
# 2 25.8850 83.8642 58.7444 0.0000 -7.9069 0.0000
# 3 56.5426 58.7444 133.7410 0.0000 -14.3847 0.0000
# 4 0.0000 0.0000 0.0000 16.1815 0.0000 -0.3471
# 5 -12.8428 -7.9069 -14.3847 0.0000 30.1626 0.0000
# 6 0.0000 0.0000 0.0000 -0.3471 0.0000 31.8221
#
#
#
# Elastic Compliance Matrix: (Units=1/GPa)
#
#
# Indices 1 2 3 4 5 6 
#
# 1 0.014761 -0.000172 -0.005791 0.000000 0.003478 0.000000
# 2 -0.000172 0.017251 -0.007406 0.000000 0.000917 0.000000
# 3 -0.005791 -0.007406 0.013392 0.000000 0.001979 0.000000
# 4 0.000000 0.000000 0.000000 0.061814 0.000000 0.000674
# 5 0.003478 0.000917 0.001979 0.000000 0.035819 0.000000
# 6 0.000000 0.000000 0.000000 0.000674 0.000000 0.031432
#
#
# Mechanical properties :
#
#
# Convention : Reuss Voigt Hill
#
# Bulk Modulus (GPa) = 53.57364 65.91162 59.74263
# Shear Modulus (GPa) = 24.10466 26.94582 25.52524
#
# Velocity S-wave (km/s) = 3.48320 3.68276 3.58437
# Velocity P-wave (km/s) = 6.56828 7.15955 6.87028
#
# Compressibility (1/GPa) = 0.01866590
#
# Stress axis : x y z
#
# Youngs Moduli (GPa) = 67.74520 57.96645 74.67395
#
# Poissons Ratio (x) = 0.00995 0.43245
# Poissons Ratio (y) = 0.01162 0.55306
# Poissons Ratio (z) = 0.39233 0.42932
#
# Static dielectric constant tensor:
#      x y z
#    x 1.729070 0.000000 0.008650 
#    y 0.000000 1.724310 0.000000 
#    z 0.008650 0.000000 1.712560 
# 
# From -- ./inp_files/96978.got.cif
#   From: 2010.05.17/outbox.cif.g08.bks.cpg/sg12_49_cif.got.tgz:96978.got - 2010.06.03 13:09:07.
