data_PCOD9183298
_publ_section_title
;
Structure prediction by ZEFSAII (Michael W. Deem and Ramdas Pophale) SiO2 
 PCOD9183298
Probable space group: C 2/M
;
_chemical_formula_sum "Si O2"
_cell_formula_units_Z 58
_cell_length_a 20.618859
_cell_length_b 8.450773
_cell_length_c 22.213314
_cell_angle_alpha 90.000000
_cell_angle_beta 50.474105
_cell_angle_gamma 90.000000
_cell_volume 2985.510481
_symmetry_space_group_name_H-M "C 2/M"
_symmetry_group_IT_number 12
_symmetry_cell_setting 'monoclinic'
loop_
_space_group_symop_operation_xyz
x,y,z
-x,y,-z
-x,-y,-z
x,-y,z
1/2+x,1/2+y,z
1/2-x,1/2+y,-z
1/2-x,1/2-y,-z
1/2+x,1/2-y,z
loop_
_atom_site_type_symbol
_atom_site_label
_atom_site_fract_x
_atom_site_fract_y
_atom_site_fract_z
Si Si1 0.499463 0.686550 0.834565
Si Si2 0.824623 0.690285 0.233166
Si Si3 0.254990 0.190862 0.402120
Si Si4 0.000000 0.500000 0.000000
Si Si5 0.731831 0.694265 0.167726
Si Si6 0.881828 0.311075 0.433315
Si Si7 0.538533 0.691034 0.277289
Si Si8 0.866870 0.675101 0.997381
O O1 0.514607 0.500000 0.824808
O O2 0.577298 0.768762 0.821672
O O3 0.494330 0.744865 0.768813
O O4 0.413354 0.723956 0.919739
O O5 0.818851 0.500000 0.235689
O O6 0.781030 0.747529 0.320574
O O7 0.779021 0.748296 0.200233
O O8 0.165475 0.247709 0.479849
O O9 0.324333 0.244238 0.410382
O O10 0.255601 0.000000 0.401268
O O11 0.935733 0.634782 0.008933
O O12 0.734503 0.500000 0.165009
O O13 0.634974 0.742160 0.226356
O O14 0.785128 0.744536 0.078027
O O15 0.880539 0.500000 0.434998
O O16 0.975337 0.251885 0.365365
O O17 0.537236 0.500000 0.278727
O O18 0.846294 0.500000 0.983789
#
# Coordination Sequence:
#
# PCOD9183298 Si02
#       8
#     8   8   8   2   8   8   8   8
#     4  11  22  33  52  82 115 141 176 225 277 328
#     4  10  19  35  60  83 104 137 189 232 263 315
#     4   9  18  32  54  84 108 133 176 231 278 316
#     4   8  16  32  58  80 100 128 184 234 270 304
#     4   9  19  36  58  78 104 144 187 227 268 315
#     4  10  19  33  54  82 110 141 178 223 273 327
#     4  10  21  37  54  78 112 148 179 218 273 330
#     4   9  18  33  56  79 102 142 186 227 265 313
#
# _framework density 19.427164000000001
#
# number of rings (size 3 to 8) (size 9 to 14) (size 15 to 20)
#    0.414    1.931    1.379    1.655    1.931    2.207 
#    0.000    5.172    0.000    4.138    0.000    0.000 
#    0.000    0.000    0.000    0.000    0.000    0.000 
#
# Total GULP energy -161500.115269 kJ/mol
# GULP energy per Si atom -5568.969492 kJ/mol
# Density = 1.938295 g / cm^3
# Si number density = 19.427164 Si / 1000 Ang^3
#
#
#
# Elastic Constant Matrix: (Units=GPa)
#
#
# Indices 1 2 3 4 5 6 
#
# 1 39.0335 -3.6041 17.6397 0.0000 -14.6631 0.0000
# 2 -3.6041 -7.3452 -3.8880 0.0000 -0.3966 0.0000
# 3 17.6397 -3.8880 144.2980 0.0000 -21.7479 0.0000
# 4 0.0000 0.0000 0.0000 27.3441 0.0000 -3.7537
# 5 -14.6631 -0.3966 -21.7479 0.0000 23.4939 0.0000
# 6 0.0000 0.0000 0.0000 -3.7537 0.0000 7.0163
#
#
#
# Elastic Compliance Matrix: (Units=1/GPa)
#
#
# Indices 1 2 3 4 5 6 
#
# 1 0.031659 -0.015675 -0.001574 0.000000 0.018037 0.000000
# 2 -0.015675 -0.125613 -0.003791 0.000000 -0.015413 0.000000
# 3 -0.001574 -0.003791 0.007975 0.000000 0.006336 0.000000
# 4 0.000000 0.000000 0.000000 0.039470 0.000000 0.021116
# 5 0.018037 -0.015413 0.006336 0.000000 0.059427 0.000000
# 6 0.000000 0.000000 0.000000 0.021116 0.000000 0.153822
#
#
# Mechanical properties :
#
#
# Convention : Reuss Voigt Hill
#
# Bulk Modulus (GPa) = -7.80894 21.80906 7.00006
# Shear Modulus (GPa) = 30.09623 22.62679 26.36151
#
# Velocity S-wave (km/s) = 3.94024 3.41647 3.68766
# Velocity P-wave (km/s) = 4.08317 5.17817 4.66293
#
# Compressibility (1/GPa) = -0.12805840
#
# Stress axis : x y z
#
# Youngs Moduli (GPa) = 31.58681 -7.96099 125.38666
#
# Poissons Ratio (x) = -0.12479 0.19735
# Poissons Ratio (y) = 0.49512 0.47537
# Poissons Ratio (z) = 0.04972 -0.03018
#
# Static dielectric constant tensor:
#      x y z
#    x 1.677480 0.000000 0.010230 
#    y 0.000000 1.661790 0.000000 
#    z 0.010230 0.000000 1.693880 
# 
# From -- ./inp_files/346495.got.cif
#   From: 2010.05.17/outbox.cif.g08.bks.cpg/sg12_174_cif.got.tgz:346495.got - 2010.06.03 13:09:07.
