data_PCOD9183627
_publ_section_title
;
Structure prediction by ZEFSAII (Michael W. Deem and Ramdas Pophale) SiO2 
 PCOD9183627
Probable space group: C 2/M
;
_chemical_formula_sum "Si O2"
_cell_formula_units_Z 64
_cell_length_a 16.532265
_cell_length_b 7.634220
_cell_length_c 19.875532
_cell_angle_alpha 90.000000
_cell_angle_beta 100.090970
_cell_angle_gamma 90.000000
_cell_volume 2469.705114
_symmetry_space_group_name_H-M "C 2/M"
_symmetry_group_IT_number 12
_symmetry_cell_setting 'monoclinic'
loop_
_space_group_symop_operation_xyz
x,y,z
-x,y,-z
-x,-y,-z
x,-y,z
1/2+x,1/2+y,z
1/2-x,1/2+y,-z
1/2-x,1/2-y,-z
1/2+x,1/2-y,z
loop_
_atom_site_type_symbol
_atom_site_label
_atom_site_fract_x
_atom_site_fract_y
_atom_site_fract_z
Si Si1 0.683501 0.702511 0.082486
Si Si2 0.882324 0.293784 0.789988
Si Si3 0.356379 0.784899 0.163469
Si Si4 0.415642 0.298009 0.419741
Si Si5 0.235835 0.210843 0.338300
Si Si6 0.158259 0.789336 0.458704
Si Si7 0.978124 0.709109 0.289639
Si Si8 0.936644 0.700747 0.042434
O O1 0.694752 0.500000 0.065801
O O2 0.621351 0.714102 0.136681
O O3 0.767854 0.775943 0.125469
O O4 0.647743 0.797613 0.012390
O O5 0.896215 0.500000 0.800602
O O6 0.796246 0.264653 0.738944
O O7 0.949207 0.220744 0.747082
O O8 0.394304 0.730938 0.240140
O O9 0.419213 0.729419 0.113669
O O10 0.352152 0.000000 0.163585
O O11 0.433460 0.500000 0.433079
O O12 0.324665 0.277354 0.373975
O O13 0.404081 0.218880 0.493245
O O14 0.476266 0.243769 0.368761
O O15 0.168356 0.274881 0.383761
O O16 0.240456 0.000000 0.341022
O O17 0.250000 0.750000 0.500000
O O18 0.147957 0.000000 0.454238
O O19 0.980566 0.500000 0.284306
O O20 0.964161 0.500000 0.056822
O O21 0.000000 0.788066 0.000000
#
# Coordination Sequence:
#
# PCOD9183627 Si02
#       8
#     8   8   8   8   8   8   8   8
#     4  11  22  36  57  84 112 141 177 226 279 330
#     4  11  23  38  56  79 108 145 189 232 275 329
#     4   9  19  36  57  80 106 140 181 222 269 325
#     4  10  19  33  55  83 111 140 181 228 273 330
#     4  10  19  34  56  80 109 145 183 226 277 327
#     4   8  16  30  50  77 107 140 178 222 272 325
#     4  10  21  38  57  77 106 145 186 229 279 331
#     4  10  20  37  60  82 109 147 183 217 264 323
#
# _framework density 25.914024999999999
#
# number of rings (size 3 to 8) (size 9 to 14) (size 15 to 20)
#    0.000    2.125    0.000    3.375    0.000    5.250 
#    0.000    2.500    0.000    3.750    0.000    0.000 
#    0.000    0.000    0.000    0.000    0.000    0.000 
#
# Total GULP energy -178934.922172 kJ/mol
# GULP energy per Si atom -5591.716318 kJ/mol
# Density = 2.585504 g / cm^3
# Si number density = 25.914025 Si / 1000 Ang^3
#
#
#
# Elastic Constant Matrix: (Units=GPa)
#
#
# Indices 1 2 3 4 5 6 
#
# 1 84.8114 -2.1506 18.5371 0.0000 -12.8949 0.0000
# 2 -2.1506 66.7487 -4.0317 0.0000 -0.0322 0.0000
# 3 18.5371 -4.0317 163.1450 0.0000 -6.3003 0.0000
# 4 0.0000 0.0000 0.0000 15.0971 0.0000 -10.1105
# 5 -12.8949 -0.0322 -6.3003 0.0000 52.3680 0.0000
# 6 0.0000 0.0000 0.0000 -10.1105 0.0000 5.8889
#
#
#
# Elastic Compliance Matrix: (Units=1/GPa)
#
#
# Indices 1 2 3 4 5 6 
#
# 1 0.012529 0.000326 -0.001302 0.000000 0.002929 0.000000
# 2 0.000326 0.015013 0.000339 0.000000 0.000130 0.000000
# 3 -0.001302 0.000339 0.006303 0.000000 0.000438 0.000000
# 4 0.000000 0.000000 0.000000 -0.442211 0.000000 -0.759221
# 5 0.002929 0.000130 0.000438 0.000000 0.019870 0.000000
# 6 0.000000 0.000000 0.000000 -0.759221 0.000000 -1.133677
#
#
# Mechanical properties :
#
#
# Convention : Reuss Voigt Hill
#
# Bulk Modulus (GPa) = 30.70277 37.71275 34.20776
# Shear Modulus (GPa) = -3.31116 34.82748 15.75816
#
# Velocity S-wave (km/s) = -1.13160 3.66999 2.46863
# Velocity P-wave (km/s) = 3.18846 5.70465 4.62111
#
# Compressibility (1/GPa) = 0.03257035
#
# Stress axis : x y z
#
# Youngs Moduli (GPa) = 79.81422 66.61065 158.66005
#
# Poissons Ratio (x) = -0.02174 0.20664
# Poissons Ratio (y) = -0.02605 -0.05378
# Poissons Ratio (z) = 0.10395 -0.02258
#
# Static dielectric constant tensor:
#      x y z
#    x 2.131100 0.000000 -0.030190 
#    y 0.000000 1.972360 0.000000 
#    z -0.030190 0.000000 1.989550 
# 
# From -- ./inp_files/314084.got.cif
#   From: 2010.05.17/outbox.cif.g08.bks.cpg/sg12_158_cif.got.tgz:314084.got - 2010.06.03 13:09:07.
