data_PCOD9183637
_publ_section_title
;
Structure prediction by ZEFSAII (Michael W. Deem and Ramdas Pophale) SiO2 
 PCOD9183637
Probable space group: C 2/M
;
_chemical_formula_sum "Si O2"
_cell_formula_units_Z 48
_cell_length_a 10.592534
_cell_length_b 13.738524
_cell_length_c 18.032814
_cell_angle_alpha 90.000000
_cell_angle_beta 55.837622
_cell_angle_gamma 90.000000
_cell_volume 2171.425490
_symmetry_space_group_name_H-M "C 2/M"
_symmetry_group_IT_number 12
_symmetry_cell_setting 'monoclinic'
loop_
_space_group_symop_operation_xyz
x,y,z
-x,y,-z
-x,-y,-z
x,-y,z
1/2+x,1/2+y,z
1/2-x,1/2+y,-z
1/2-x,1/2-y,-z
1/2+x,1/2-y,z
loop_
_atom_site_type_symbol
_atom_site_label
_atom_site_fract_x
_atom_site_fract_y
_atom_site_fract_z
Si Si1 0.947696 0.897248 0.832950
Si Si2 0.118488 0.892543 0.319871
Si Si3 0.539264 0.182812 0.798804
Si Si4 0.143900 0.661843 0.006969
Si Si5 0.825029 0.389753 0.532908
Si Si6 0.091760 0.265764 0.626611
O O1 0.935406 0.897123 0.748113
O O2 0.030764 0.796635 0.827834
O O3 0.020131 0.000000 0.833137
O O4 0.773170 0.896388 0.920138
O O5 0.293180 0.860993 0.258430
O O6 0.015946 0.805723 0.386054
O O7 0.101944 0.000000 0.358733
O O8 0.433068 0.125323 0.891277
O O9 0.496836 0.189512 0.726000
O O10 0.250000 0.750000 0.000000
O O11 0.000000 0.682748 0.000000
O O12 0.764720 0.500000 0.559332
O O13 0.832021 0.349941 0.446610
O O14 0.723985 0.309595 0.608556
O O15 0.000000 0.390862 0.500000
#
# Coordination Sequence:
#
# PCOD9183637 Si02
#       6
#     8   8   8   8   8   8
#     4   9  19  34  54  81 112 155 205 243 282 345
#     4  10  19  33  55  83 112 146 194 240 284 343
#     4  10  20  34  55  84 118 151 189 247 299 341
#     4  10  19  34  56  86 120 164 205 253 298 349
#     4  10  21  39  61  82 111 150 189 231 293 372
#     4  10  21  37  57  86 114 146 188 242 295 349
#
# _framework density 22.105295000000002
#
# number of rings (size 3 to 8) (size 9 to 14) (size 15 to 20)
#    0.000    2.167    1.667    1.500    0.000    2.333 
#    0.000    0.833    0.000   14.500    0.000    0.000 
#    0.000    0.000    0.000    0.000    0.000    0.000 
#
# Total GULP energy -133651.505514 kJ/mol
# GULP energy per Si atom -5568.812730 kJ/mol
# Density = 2.205498 g / cm^3
# Si number density = 22.105295 Si / 1000 Ang^3
#
#
#
# Elastic Constant Matrix: (Units=GPa)
#
#
# Indices 1 2 3 4 5 6 
#
# 1 46.8831 29.5265 4.7606 0.0000 -16.5524 0.0000
# 2 29.5265 72.2184 -0.1569 0.0000 6.6796 0.0000
# 3 4.7606 -0.1569 78.6463 0.0000 3.1367 0.0000
# 4 0.0000 0.0000 0.0000 -4.1266 0.0000 -0.1243
# 5 -16.5524 6.6796 3.1367 0.0000 28.4887 0.0000
# 6 0.0000 0.0000 0.0000 -0.1243 0.0000 20.8514
#
#
#
# Elastic Compliance Matrix: (Units=1/GPa)
#
#
# Indices 1 2 3 4 5 6 
#
# 1 0.047979 -0.022741 -0.004293 0.000000 0.033681 0.000000
# 2 -0.022741 0.024934 0.002196 0.000000 -0.019301 0.000000
# 3 -0.004293 0.002196 0.013157 0.000000 -0.004458 0.000000
# 4 0.000000 0.000000 0.000000 -0.242288 0.000000 -0.001445
# 5 0.033681 -0.019301 -0.004458 0.000000 0.059687 0.000000
# 6 0.000000 0.000000 0.000000 -0.001445 0.000000 0.047950
#
#
# Mechanical properties :
#
#
# Convention : Reuss Voigt Hill
#
# Bulk Modulus (GPa) = 27.47615 29.55648 28.51632
# Shear Modulus (GPa) = 378.02956 19.95054 198.99005
#
# Velocity S-wave (km/s) = 13.09139 3.00746 9.49814
# Velocity P-wave (km/s) = 15.52318 5.04575 11.54185
#
# Compressibility (1/GPa) = 0.03639519
#
# Stress axis : x y z
#
# Youngs Moduli (GPa) = 20.84254 40.10526 76.00405
#
# Poissons Ratio (x) = 0.91202 0.32628
# Poissons Ratio (y) = 0.47397 -0.16691
# Poissons Ratio (z) = 0.08948 -0.08807
#
# Static dielectric constant tensor:
#      x y z
#    x 1.825470 0.000000 0.002680 
#    y 0.000000 1.891220 0.000000 
#    z 0.002680 0.000000 1.855730 
# 
# From -- ./inp_files/251503.got.cif
#   From: 2010.05.17/outbox.cif.g08.bks.cpg/sg12_126_cif.got.tgz:251503.got - 2010.06.03 13:09:07.
