data_PCOD9183666
_publ_section_title
;
Structure prediction by ZEFSAII (Michael W. Deem and Ramdas Pophale) SiO2 
 PCOD9183666
Probable space group: C 2/M
;
_chemical_formula_sum "Si O2"
_cell_formula_units_Z 64
_cell_length_a 20.890631
_cell_length_b 8.837026
_cell_length_c 22.442811
_cell_angle_alpha 90.000000
_cell_angle_beta 117.866264
_cell_angle_gamma 90.000000
_cell_volume 3662.750599
_symmetry_space_group_name_H-M "C 2/M"
_symmetry_group_IT_number 12
_symmetry_cell_setting 'monoclinic'
loop_
_space_group_symop_operation_xyz
x,y,z
-x,y,-z
-x,-y,-z
x,-y,z
1/2+x,1/2+y,z
1/2-x,1/2+y,-z
1/2-x,1/2-y,-z
1/2+x,1/2-y,z
loop_
_atom_site_type_symbol
_atom_site_label
_atom_site_fract_x
_atom_site_fract_y
_atom_site_fract_z
Si Si1 0.646444 0.318982 0.316045
Si Si2 0.544377 0.680349 0.958904
Si Si3 0.169892 0.181410 0.460903
Si Si4 0.924961 0.319406 0.826022
Si Si5 0.203930 0.318202 0.033704
Si Si6 0.226763 0.318292 0.177548
Si Si7 0.200862 0.681041 0.679840
Si Si8 0.415883 0.182973 0.465765
O O1 0.636950 0.500000 0.304683
O O2 0.639166 0.280152 0.382075
O O3 0.593106 0.232350 0.248644
O O4 0.728446 0.283039 0.329945
O O5 0.554578 0.500000 0.959939
O O6 0.494506 0.738641 0.883518
O O7 0.500000 0.715403 0.000000
O O8 0.621520 0.761429 0.993688
O O9 0.250000 0.250000 0.500000
O O10 0.121925 0.246825 0.493028
O O11 0.174449 0.000000 0.466891
O O12 0.932870 0.500000 0.833311
O O13 0.853459 0.274448 0.833403
O O14 0.205572 0.500000 0.031761
O O15 0.233758 0.270954 0.111964
O O16 0.250000 0.250000 0.000000
O O17 0.230401 0.500000 0.181746
O O18 0.284006 0.252281 0.249239
O O19 0.198460 0.500000 0.685469
O O20 0.129971 0.730029 0.612614
O O21 0.500000 0.224865 0.500000
O O22 0.410693 0.000000 0.467351
#
# Coordination Sequence:
#
# PCOD9183666 Si02
#       8
#     8   8   8   8   8   8   8   8
#     4   9  18  33  52  79 112 144 185 235 285 334
#     4  11  22  36  58  86 114 147 187 229 281 336
#     4  11  21  35  57  83 113 146 187 233 281 334
#     4  10  19  33  55  84 114 146 186 232 284 334
#     4  11  23  40  59  83 116 151 191 236 284 338
#     4   9  19  34  54  81 111 144 184 231 279 330
#     4   9  17  32  54  79 107 143 187 231 278 334
#     4  10  21  38  57  81 115 152 190 234 283 336
#
# _framework density 17.473208
#
# number of rings (size 3 to 8) (size 9 to 14) (size 15 to 20)
#    0.000    2.000    2.500    1.500    0.000    3.750 
#    0.000    1.250    0.000    6.000    0.000    0.000 
#    0.000    0.000    0.000    0.000    0.000    0.000 
#
# Total GULP energy -178618.525134 kJ/mol
# GULP energy per Si atom -5581.828910 kJ/mol
# Density = 1.743344 g / cm^3
# Si number density = 17.473208 Si / 1000 Ang^3
#
#
#
# Elastic Constant Matrix: (Units=GPa)
#
#
# Indices 1 2 3 4 5 6 
#
# 1 105.7438 42.9254 83.0417 0.0000 -5.0716 0.0000
# 2 42.9254 33.0170 48.3907 0.0000 -1.9688 0.0000
# 3 83.0417 48.3907 181.1793 0.0000 -3.1787 0.0000
# 4 0.0000 0.0000 0.0000 31.7746 0.0000 -1.3917
# 5 -5.0716 -1.9688 -3.1787 0.0000 26.4584 0.0000
# 6 0.0000 0.0000 0.0000 -1.3917 0.0000 25.4384
#
#
#
# Elastic Compliance Matrix: (Units=1/GPa)
#
#
# Indices 1 2 3 4 5 6 
#
# 1 0.021724 -0.022317 -0.003961 0.000000 0.002028 0.000000
# 2 -0.022317 0.072815 -0.009218 0.000000 0.000033 0.000000
# 3 -0.003961 -0.009218 0.009792 0.000000 -0.000269 0.000000
# 4 0.000000 0.000000 0.000000 0.031547 0.000000 0.001726
# 5 0.002028 0.000033 -0.000269 0.000000 0.038154 0.000000
# 6 0.000000 0.000000 0.000000 0.001726 0.000000 0.039405
#
#
# Mechanical properties :
#
#
# Convention : Reuss Voigt Hill
#
# Bulk Modulus (GPa) = 29.99575 74.29508 52.14541
# Shear Modulus (GPa) = 16.91800 26.43977 21.67889
#
# Velocity S-wave (km/s) = 3.11501 3.89416 3.52617
# Velocity P-wave (km/s) = 5.49014 7.92660 6.81809
#
# Compressibility (1/GPa) = 0.03333806
#
# Stress axis : x y z
#
# Youngs Moduli (GPa) = 46.03228 13.73340 102.12289
#
# Poissons Ratio (x) = 0.30649 0.40447
# Poissons Ratio (y) = 1.02732 0.94141
# Poissons Ratio (z) = 0.18232 0.12660
#
# Static dielectric constant tensor:
#      x y z
#    x 1.566050 0.000000 -0.003070 
#    y 0.000000 1.583060 0.000000 
#    z -0.003070 0.000000 1.595730 
# 
# From -- ./inp_files/320189.got.cif
#   From: 2010.05.17/outbox.cif.g08.bks.cpg/sg12_161_cif.got.tgz:320189.got - 2010.06.03 13:09:07.
