data_PCOD9183551
_publ_section_title
;
Structure prediction by ZEFSAII (Michael W. Deem and Ramdas Pophale) SiO2 
 PCOD9183551
Probable space group: C 2/M
;
_chemical_formula_sum "Si O2"
_cell_formula_units_Z 52
_cell_length_a 15.313833
_cell_length_b 18.975581
_cell_length_c 18.370112
_cell_angle_alpha 90.000000
_cell_angle_beta 31.762968
_cell_angle_gamma 90.000000
_cell_volume 2810.036314
_symmetry_space_group_name_H-M "C 2/M"
_symmetry_group_IT_number 12
_symmetry_cell_setting 'monoclinic'
loop_
_space_group_symop_operation_xyz
x,y,z
-x,y,-z
-x,-y,-z
x,-y,z
1/2+x,1/2+y,z
1/2-x,1/2+y,-z
1/2-x,1/2-y,-z
1/2+x,1/2-y,z
loop_
_atom_site_type_symbol
_atom_site_label
_atom_site_fract_x
_atom_site_fract_y
_atom_site_fract_z
Si Si1 0.609764 0.651288 0.204703
Si Si2 0.481550 0.000000 0.924760
Si Si3 0.387782 0.500000 0.150691
Si Si4 0.347134 0.260999 0.308070
Si Si5 0.000483 0.228170 0.413179
Si Si6 0.006442 0.654530 0.082793
Si Si7 0.657458 0.130087 0.344057
Si Si8 0.590305 0.500000 0.160465
O O1 0.498858 0.711823 0.247580
O O2 0.597737 0.670333 0.298355
O O3 0.543005 0.573420 0.233256
O O4 0.796051 0.656974 0.043024
O O5 0.554620 0.075842 0.853229
O O6 0.500000 0.000000 0.000000
O O7 0.292553 0.000000 0.027164
O O8 0.269136 0.568629 0.232873
O O9 0.504614 0.500000 0.141032
O O10 0.500000 0.500000 0.000000
O O11 0.196378 0.229110 0.461786
O O12 0.410143 0.209888 0.199807
O O13 0.269427 0.328562 0.322960
O O14 0.000000 0.214632 0.500000
O O15 0.084562 0.306081 0.345397
O O16 0.000000 0.665724 0.000000
O O17 0.500000 0.100433 0.500000
#
# Coordination Sequence:
#
# PCOD9183551 Si02
#       8
#     8   4   4   8   8   8   8   4
#     4  11  20  37  58  80 115 153 192 245 294 355
#     4   8  18  36  56  79 116 157 191 243 309 359
#     4  12  23  39  62  89 127 161 205 251 286 350
#     4  10  19  34  56  85 113 146 194 243 291 345
#     4   9  20  37  58  84 114 148 193 242 295 352
#     4  10  19  33  55  81 110 151 193 239 300 356
#     4   9  20  39  60  84 116 159 197 240 297 364
#     4  10  22  39  59  88 121 162 199 236 309 361
#
# _framework density 18.505099000000001
#
# number of rings (size 3 to 8) (size 9 to 14) (size 15 to 20)
#    0.000    2.462    1.538    3.000    0.000    1.846 
#    5.538    1.154    0.000    0.000    0.000    0.538 
#    0.000    0.000    0.000    0.000    0.000    0.000 
#
# Total GULP energy -144737.823877 kJ/mol
# GULP energy per Si atom -5566.839380 kJ/mol
# Density = 1.846298 g / cm^3
# Si number density = 18.505099 Si / 1000 Ang^3
#
#
#
# Elastic Constant Matrix: (Units=GPa)
#
#
# Indices 1 2 3 4 5 6 
#
# 1 69.8386 29.8484 24.4432 -0.0014 -2.4963 0.0009
# 2 29.8484 78.7364 51.0918 -0.0042 17.6590 0.0011
# 3 24.4432 51.0918 96.8158 -0.0029 4.8357 -0.0009
# 4 -0.0014 -0.0042 -0.0029 16.3834 0.0015 1.7702
# 5 -2.4963 17.6590 4.8357 0.0015 26.3425 -0.0009
# 6 0.0009 0.0011 -0.0009 1.7702 -0.0009 22.6743
#
#
#
# Elastic Compliance Matrix: (Units=1/GPa)
#
#
# Indices 1 2 3 4 5 6 
#
# 1 0.018295 -0.008121 -0.000698 -0.000001 0.007306 0.000000
# 2 -0.008121 0.026844 -0.011282 0.000006 -0.016694 -0.000003
# 3 -0.000698 -0.011282 0.016233 -0.000001 0.004517 0.000001
# 4 -0.000001 0.000006 -0.000001 0.061557 -0.000008 -0.004806
# 5 0.007306 -0.016694 0.004517 -0.000008 0.049016 0.000003
# 6 0.000000 -0.000003 0.000001 -0.004806 0.000003 0.044478
#
#
# Mechanical properties :
#
#
# Convention : Reuss Voigt Hill
#
# Bulk Modulus (GPa) = 47.23682 50.68418 48.96050
# Shear Modulus (GPa) = 18.96220 22.41389 20.68804
#
# Velocity S-wave (km/s) = 3.20457 3.48405 3.34722
# Velocity P-wave (km/s) = 6.26691 6.60557 6.43847
#
# Compressibility (1/GPa) = 0.02116993
#
# Stress axis : x y z
#
# Youngs Moduli (GPa) = 54.65945 37.25179 61.60121
#
# Poissons Ratio (x) = 0.30252 0.04301
# Poissons Ratio (y) = 0.44389 0.69500
# Poissons Ratio (z) = 0.03817 0.42028
#
# Static dielectric constant tensor:
#      x y z
#    x 1.711600 0.000000 -0.042260 
#    y 0.000000 1.649870 0.000000 
#    z -0.042260 0.000000 1.657180 
# 
# From -- ./inp_files/272217.got.cif
#   From: 2010.05.17/outbox.cif.g08.bks.cpg/sg12_137_cif.got.tgz:272217.got - 2010.06.03 13:09:07.
