data_PCOD9183685
_publ_section_title
;
Structure prediction by ZEFSAII (Michael W. Deem and Ramdas Pophale) SiO2 
 PCOD9183685
Probable space group: C 2/M
;
_chemical_formula_sum "Si O2"
_cell_formula_units_Z 64
_cell_length_a 27.054168
_cell_length_b 19.574484
_cell_length_c 9.148660
_cell_angle_alpha 90.000000
_cell_angle_beta 50.547572
_cell_angle_gamma 90.000000
_cell_volume 3740.977052
_symmetry_space_group_name_H-M "C 2/M"
_symmetry_group_IT_number 12
_symmetry_cell_setting 'monoclinic'
loop_
_space_group_symop_operation_xyz
x,y,z
-x,y,-z
-x,-y,-z
x,-y,z
1/2+x,1/2+y,z
1/2-x,1/2+y,-z
1/2-x,1/2-y,-z
1/2+x,1/2-y,z
loop_
_atom_site_type_symbol
_atom_site_label
_atom_site_fract_x
_atom_site_fract_y
_atom_site_fract_z
Si Si1 0.252346 0.364010 0.412753
Si Si2 0.107130 0.078793 0.861580
Si Si3 0.432836 0.707005 0.550220
Si Si4 0.063507 0.214349 0.803930
Si Si5 0.771123 0.578804 0.848663
Si Si6 0.817457 0.710779 0.906335
Si Si7 0.882125 0.920954 0.817554
Si Si8 0.180821 0.721625 0.758834
O O1 0.317728 0.406183 0.311722
O O2 0.218677 0.400372 0.340012
O O3 0.212803 0.346536 0.632218
O O4 0.271457 0.286991 0.327838
O O5 0.070928 0.135464 0.838390
O O6 0.092129 0.000000 0.859132
O O7 0.096003 0.092088 0.055762
O O8 0.500000 0.725189 0.500000
O O9 0.438972 0.714237 0.365278
O O10 0.373942 0.753729 0.711306
O O11 0.413392 0.631543 0.646372
O O12 0.123744 0.254401 0.759869
O O13 0.000000 0.242060 0.000000
O O14 0.787351 0.500000 0.841447
O O15 0.807801 0.633049 0.876826
O O16 0.695019 0.587252 0.026827
O O17 0.750000 0.750000 0.000000
O O18 0.836405 0.713787 0.040421
O O19 0.895789 0.000000 0.756164
#
# Coordination Sequence:
#
# PCOD9183685 Si02
#       8
#     8   8   8   8   8   8   8   8
#     4   9  16  30  51  77 108 142 182 229 281 327
#     4   9  18  32  51  74 108 149 189 227 271 326
#     4  12  24  38  58  82 111 151 195 239 291 344
#     4  11  23  37  53  75 110 147 188 234 278 336
#     4  10  19  33  55  84 119 153 189 233 291 341
#     4  12  21  36  60  86 114 149 189 242 284 337
#     4   9  18  34  54  80 114 153 191 235 282 337
#     4  10  20  32  54  80 109 141 185 232 280 331
#
# _framework density 17.107828999999999
#
# number of rings (size 3 to 8) (size 9 to 14) (size 15 to 20)
#    0.000    1.750    2.500    4.875    3.500    1.000 
#    0.000    2.500    0.000    0.375    0.000    0.000 
#    0.000    6.000    0.000    0.000    0.000    0.000 
#
# Total GULP energy -178523.995949 kJ/mol
# GULP energy per Si atom -5578.874873 kJ/mol
# Density = 1.706889 g / cm^3
# Si number density = 17.107829 Si / 1000 Ang^3
#
#
#
# Elastic Constant Matrix: (Units=GPa)
#
#
# Indices 1 2 3 4 5 6 
#
# 1 94.4912 37.4374 49.1319 0.0000 16.2986 0.0000
# 2 37.4374 75.1336 32.2429 0.0000 3.8254 0.0000
# 3 49.1319 32.2429 104.7396 0.0000 14.9302 0.0000
# 4 0.0000 0.0000 0.0000 24.8983 0.0000 6.5110
# 5 16.2986 3.8254 14.9302 0.0000 23.3621 0.0000
# 6 0.0000 0.0000 0.0000 6.5110 0.0000 14.2021
#
#
#
# Elastic Compliance Matrix: (Units=1/GPa)
#
#
# Indices 1 2 3 4 5 6 
#
# 1 0.016805 -0.005840 -0.005007 0.000000 -0.007568 0.000000
# 2 -0.005840 0.017371 -0.003062 0.000000 0.003187 0.000000
# 3 -0.005007 -0.003062 0.013499 0.000000 -0.004633 0.000000
# 4 0.000000 0.000000 0.000000 0.045634 0.000000 -0.020921
# 5 -0.007568 0.003187 -0.004633 0.000000 0.050523 0.000000
# 6 0.000000 0.000000 0.000000 -0.020921 0.000000 0.080004
#
#
# Mechanical properties :
#
#
# Convention : Reuss Voigt Hill
#
# Bulk Modulus (GPa) = 50.35728 56.88765 53.62247
# Shear Modulus (GPa) = 19.35921 22.86266 21.11093
#
# Velocity S-wave (km/s) = 3.36757 3.65963 3.51663
# Velocity P-wave (km/s) = 6.67981 7.15414 6.92104
#
# Compressibility (1/GPa) = 0.01985810
#
# Stress axis : x y z
#
# Youngs Moduli (GPa) = 59.50439 57.56559 74.07885
#
# Poissons Ratio (x) = 0.33618 0.37088
# Poissons Ratio (y) = 0.34750 0.22687
# Poissons Ratio (z) = 0.29792 0.17629
#
# Static dielectric constant tensor:
#      x y z
#    x 1.596600 0.000000 -0.005810 
#    y 0.000000 1.570350 0.000000 
#    z -0.005810 0.000000 1.612640 
# 
# From -- ./inp_files/99099.got.cif
#   From: 2010.05.17/outbox.cif.g08.bks.cpg/sg12_50_cif.got.tgz:99099.got - 2010.06.03 13:09:07.
