data_PCOD9183367
_publ_section_title
;
Structure prediction by ZEFSAII (Michael W. Deem and Ramdas Pophale) SiO2 
 PCOD9183367
Probable space group: C 2/M
;
_chemical_formula_sum "Si O2"
_cell_formula_units_Z 56
_cell_length_a 28.910364
_cell_length_b 11.667437
_cell_length_c 26.314640
_cell_angle_alpha 90.000000
_cell_angle_beta 19.508921
_cell_angle_gamma 90.000000
_cell_volume 2964.234923
_symmetry_space_group_name_H-M "C 2/M"
_symmetry_group_IT_number 12
_symmetry_cell_setting 'monoclinic'
loop_
_space_group_symop_operation_xyz
x,y,z
-x,y,-z
-x,-y,-z
x,-y,z
1/2+x,1/2+y,z
1/2-x,1/2+y,-z
1/2-x,1/2-y,-z
1/2+x,1/2-y,z
loop_
_atom_site_type_symbol
_atom_site_label
_atom_site_fract_x
_atom_site_fract_y
_atom_site_fract_z
Si Si1 0.945068 0.778936 0.253855
Si Si2 0.266869 0.632508 0.673222
Si Si3 0.316625 0.365723 0.731279
Si Si4 0.169979 0.127034 0.089660
Si Si5 0.487182 0.299734 0.648198
Si Si6 0.859719 0.366151 0.440709
Si Si7 0.010075 0.366122 0.090671
O O1 0.904605 0.694271 0.341874
O O2 0.801086 0.833349 0.384189
O O3 0.051801 0.866729 0.168815
O O4 0.015343 0.707686 0.136184
O O5 0.242015 0.500000 0.711988
O O6 0.332811 0.678821 0.657035
O O7 0.372869 0.640468 0.516905
O O8 0.118376 0.678571 0.809946
O O9 0.364927 0.500000 0.685702
O O10 0.391994 0.295158 0.697167
O O11 0.153473 0.363335 0.912284
O O12 0.095630 0.135261 0.221643
O O13 0.240398 0.000000 0.013768
O O14 0.250000 0.250000 0.000000
O O15 0.541981 0.183922 0.617194
O O16 0.873662 0.500000 0.421701
O O17 0.981878 0.500000 0.132887
#
# Coordination Sequence:
#
# PCOD9183367 Si02
#       7
#     8   8   8   8   8   8   8
#     4  10  20  36  56  82 110 150 189 230 286 340
#     4  10  19  33  55  83 114 146 188 235 288 349
#     4  10  20  33  53  83 118 149 180 232 294 352
#     4  11  24  39  59  86 123 158 194 236 287 351
#     4  11  21  36  57  83 112 151 190 233 290 341
#     4  10  21  36  55  82 112 144 190 241 285 336
#     4  10  19  33  54  84 118 151 187 232 293 353
#
# _framework density 18.891888999999999
#
# number of rings (size 3 to 8) (size 9 to 14) (size 15 to 20)
#    0.000    1.714    1.429    3.857    0.000    6.857 
#    0.000    0.000    0.000    1.714    0.000    1.000 
#    0.000    0.000    0.000    0.000    0.000    0.000 
#
# Total GULP energy -156176.019955 kJ/mol
# GULP energy per Si atom -5577.714998 kJ/mol
# Density = 1.884889 g / cm^3
# Si number density = 18.891889 Si / 1000 Ang^3
#
#
#
# Elastic Constant Matrix: (Units=GPa)
#
#
# Indices 1 2 3 4 5 6 
#
# 1 97.7752 26.0633 20.3002 0.0000 -6.9351 0.0002
# 2 26.0633 94.8695 22.1792 0.0000 -6.1466 -0.0005
# 3 20.3002 22.1792 68.7823 -0.0002 -3.7201 -0.0004
# 4 0.0000 0.0000 -0.0002 16.9781 0.0003 3.9045
# 5 -6.9351 -6.1466 -3.7201 0.0003 27.5294 0.0002
# 6 0.0002 -0.0005 -0.0004 3.9045 0.0002 -21.6506
#
#
#
# Elastic Compliance Matrix: (Units=1/GPa)
#
#
# Indices 1 2 3 4 5 6 
#
# 1 0.011546 -0.002455 -0.002507 0.000000 0.002022 0.000000
# 2 -0.002455 0.012040 -0.003068 0.000000 0.001655 0.000000
# 3 -0.002507 -0.003068 0.016316 0.000000 0.000888 0.000000
# 4 0.000000 0.000000 0.000000 0.056554 -0.000001 0.010199
# 5 0.002022 0.001655 0.000888 -0.000001 0.037324 0.000000
# 6 0.000000 0.000000 0.000000 0.010199 0.000000 -0.044349
#
#
# Mechanical properties :
#
#
# Convention : Reuss Voigt Hill
#
# Bulk Modulus (GPa) = 41.94316 44.27915 43.11116
# Shear Modulus (GPa) = 44.07734 17.43035 30.75385
#
# Velocity S-wave (km/s) = 4.83549 3.04079 4.03908
# Velocity P-wave (km/s) = 7.30930 5.98478 6.67995
#
# Compressibility (1/GPa) = 0.02384179
#
# Stress axis : x y z
#
# Youngs Moduli (GPa) = 86.61181 83.05801 61.29023
#
# Poissons Ratio (x) = 0.20390 0.15363
# Poissons Ratio (y) = 0.21263 0.18805
# Poissons Ratio (z) = 0.21710 0.25484
#
# Static dielectric constant tensor:
#      x y z
#    x 1.675130 0.000000 -0.027720 
#    y 0.000000 1.636620 0.000000 
#    z -0.027720 0.000000 1.712050 
# 
# From -- ./inp_files/369348.got.cif
#   From: 2010.05.17/outbox.cif.g08.bks.cpg/sg12_185_cif.got.tgz:369348.got - 2010.06.03 13:09:07.
