data_PCOD9183558
_publ_section_title
;
Structure prediction by ZEFSAII (Michael W. Deem and Ramdas Pophale) SiO2 
 PCOD9183558
Probable space group: C 2/M
;
_chemical_formula_sum "Si O2"
_cell_formula_units_Z 64
_cell_length_a 22.246550
_cell_length_b 20.742335
_cell_length_c 12.337449
_cell_angle_alpha 90.000000
_cell_angle_beta 39.100158
_cell_angle_gamma 90.000000
_cell_volume 3590.486764
_symmetry_space_group_name_H-M "C 2/M"
_symmetry_group_IT_number 12
_symmetry_cell_setting 'monoclinic'
loop_
_space_group_symop_operation_xyz
x,y,z
-x,y,-z
-x,-y,-z
x,-y,z
1/2+x,1/2+y,z
1/2-x,1/2+y,-z
1/2-x,1/2-y,-z
1/2+x,1/2-y,z
loop_
_atom_site_type_symbol
_atom_site_label
_atom_site_fract_x
_atom_site_fract_y
_atom_site_fract_z
Si Si1 0.508448 0.426696 0.859994
Si Si2 0.142663 0.308623 0.545703
Si Si3 0.331198 0.209373 0.745091
Si Si4 0.756891 0.148832 0.789554
Si Si5 0.904010 0.070165 0.701976
Si Si6 0.930521 0.309895 0.831927
Si Si7 0.121133 0.164730 0.074504
Si Si8 0.811968 0.839530 0.464560
O O1 0.510699 0.500000 0.813050
O O2 0.415064 0.385059 0.962940
O O3 0.600469 0.386966 0.687324
O O4 0.500000 0.431107 0.000000
O O5 0.151385 0.311771 0.402840
O O6 0.149464 0.233978 0.576496
O O7 0.230044 0.341678 0.486942
O O8 0.035637 0.333447 0.714687
O O9 0.308936 0.285750 0.761832
O O10 0.406463 0.194236 0.735693
O O11 0.233657 0.175793 0.920347
O O12 0.815205 0.088379 0.751717
O O13 0.764674 0.148196 0.648682
O O14 0.652092 0.153042 0.987732
O O15 0.914938 0.128799 0.768718
O O16 0.000000 0.067685 0.500000
O O17 0.888152 0.000000 0.775562
O O18 0.922564 0.235116 0.878854
#
# Coordination Sequence:
#
# PCOD9183558 Si02
#       8
#     8   8   8   8   8   8   8   8
#     4  11  23  38  58  82 112 154 193 229 279 337
#     4  10  21  34  55  82 108 149 189 232 283 329
#     4  10  19  33  55  81 114 146 184 228 285 335
#     4  10  20  34  53  78 117 146 183 228 282 337
#     4  11  22  33  52  81 112 149 187 224 276 336
#     4  11  19  34  56  84 113 152 182 230 284 337
#     4  11  19  35  53  80 114 144 183 228 279 338
#     4  10  21  38  52  80 115 146 187 235 277 332
#
# _framework density 17.824881000000001
#
# number of rings (size 3 to 8) (size 9 to 14) (size 15 to 20)
#    0.000    1.500    3.750    3.000    1.750    3.000 
#    0.000    0.000    0.000    0.750    0.000    2.625 
#    0.000    0.000    0.000    0.000    0.000    0.000 
#
# Total GULP energy -178322.795051 kJ/mol
# GULP energy per Si atom -5572.587345 kJ/mol
# Density = 1.778431 g / cm^3
# Si number density = 17.824881 Si / 1000 Ang^3
#
#
#
# Elastic Constant Matrix: (Units=GPa)
#
#
# Indices 1 2 3 4 5 6 
#
# 1 80.1359 8.2044 18.6228 0.0000 0.4804 0.0000
# 2 8.2044 61.2266 17.6313 0.0000 -1.5032 0.0000
# 3 18.6228 17.6313 72.5870 0.0000 2.5114 0.0000
# 4 0.0000 0.0000 0.0000 -0.5665 0.0000 73.3612
# 5 0.4804 -1.5032 2.5114 0.0000 26.8735 0.0000
# 6 0.0000 0.0000 0.0000 73.3612 0.0000 -44.0409
#
#
#
# Elastic Compliance Matrix: (Units=1/GPa)
#
#
# Indices 1 2 3 4 5 6 
#
# 1 0.013312 -0.000860 -0.003207 0.000000 0.000014 0.000000
# 2 -0.000860 0.017668 -0.004119 0.000000 0.001389 0.000000
# 3 -0.003207 -0.004119 0.015656 0.000000 -0.001636 0.000000
# 4 0.000000 0.000000 0.000000 0.008221 0.000000 0.013695
# 5 0.000014 0.001389 -0.001636 0.000000 0.037442 0.000000
# 6 0.000000 0.000000 0.000000 0.013695 0.000000 0.000106
#
#
# Mechanical properties :
#
#
# Convention : Reuss Voigt Hill
#
# Bulk Modulus (GPa) = 33.04157 33.65185 33.34671
# Shear Modulus (GPa) = 42.06430 7.75259 24.90845
#
# Velocity S-wave (km/s) = 4.86311 2.08776 3.74223
# Velocity P-wave (km/s) = 7.07885 4.97311 6.11727
#
# Compressibility (1/GPa) = 0.03026490
#
# Stress axis : x y z
#
# Youngs Moduli (GPa) = 75.12005 56.59876 63.87149
#
# Poissons Ratio (x) = 0.04868 0.20483
# Poissons Ratio (y) = 0.06460 0.26309
# Poissons Ratio (z) = 0.24090 0.23313
#
# Static dielectric constant tensor:
#      x y z
#    x 1.674570 0.000000 0.026180 
#    y 0.000000 1.603570 0.000000 
#    z 0.026180 0.000000 1.622670 
# 
# From -- ./inp_files/169661.got.cif
#   From: 2010.05.17/outbox.cif.g08.bks.cpg/sg12_85_cif.got.tgz:169661.got - 2010.06.03 13:09:07.
