data_PCOD9183021
_publ_section_title
;
Structure prediction by ZEFSAII (Michael W. Deem and Ramdas Pophale) SiO2 
 PCOD9183021
Probable space group: C 2/M
;
_chemical_formula_sum "Si O2"
_cell_formula_units_Z 48
_cell_length_a 10.431599
_cell_length_b 23.278863
_cell_length_c 24.506868
_cell_angle_alpha 90.000000
_cell_angle_beta 154.224172
_cell_angle_gamma 90.000000
_cell_volume 2587.862314
_symmetry_space_group_name_H-M "C 2/M"
_symmetry_group_IT_number 12
_symmetry_cell_setting 'monoclinic'
loop_
_space_group_symop_operation_xyz
x,y,z
-x,y,-z
-x,-y,-z
x,-y,z
1/2+x,1/2+y,z
1/2-x,1/2+y,-z
1/2-x,1/2-y,-z
1/2+x,1/2-y,z
loop_
_atom_site_type_symbol
_atom_site_label
_atom_site_fract_x
_atom_site_fract_y
_atom_site_fract_z
Si Si1 0.018409 0.000000 0.072494
Si Si2 0.102338 0.500000 0.101611
Si Si3 0.654425 0.774116 0.714415
Si Si4 0.271877 0.876838 0.861595
Si Si5 0.236547 0.697184 0.631597
Si Si6 0.762490 0.130061 0.836427
Si Si7 0.603543 0.823150 0.886910
O O1 0.168832 0.937962 0.144184
O O2 0.000000 0.000000 0.000000
O O3 0.691801 0.000000 0.973955
O O4 0.283507 0.442412 0.175437
O O5 0.000000 0.500000 0.000000
O O6 0.435698 0.739045 0.670436
O O7 0.572772 0.773266 0.619537
O O8 0.658508 0.837381 0.742580
O O9 0.975094 0.741390 0.836444
O O10 0.426126 0.851555 0.867645
O O11 0.966376 0.844315 0.750146
O O12 0.500000 0.872118 0.000000
O O13 0.000000 0.669842 0.500000
O O14 0.562452 0.144753 0.812862
O O15 0.060791 0.164886 0.967155
#
# Coordination Sequence:
#
# PCOD9183021 Si02
#       7
#     4   4   8   8   8   8   8
#     4  12  20  34  56  82 127 161 200 240 295 355
#     4  10  20  34  53  86 117 153 187 237 293 346
#     4  11  22  39  57  82 117 154 202 243 303 359
#     4  10  20  36  59  84 120 153 192 238 301 351
#     4  11  24  40  61  85 116 156 200 247 300 359
#     4  11  20  33  56  88 122 157 197 243 299 354
#     4  10  19  33  53  86 116 153 194 240 296 351
#
# _framework density 18.548127999999998
#
# number of rings (size 3 to 8) (size 9 to 14) (size 15 to 20)
#    0.000    1.333    5.000    2.000    2.333    1.333 
#    0.000    0.417    0.000    0.000    0.000    0.583 
#    0.000    0.000    0.000    0.000    0.000    0.000 
#
# Total GULP energy -133622.882882 kJ/mol
# GULP energy per Si atom -5567.620120 kJ/mol
# Density = 1.850591 g / cm^3
# Si number density = 18.548128 Si / 1000 Ang^3
#
#
#
# Elastic Constant Matrix: (Units=GPa)
#
#
# Indices 1 2 3 4 5 6 
#
# 1 132.4122 33.3083 22.6734 0.0701 -5.3550 -0.0422
# 2 33.3083 123.7400 34.6360 0.3444 -3.0229 -0.1770
# 3 22.6734 34.6360 59.9572 0.0552 -6.8312 -0.0344
# 4 0.0701 0.3444 0.0552 -249.7169 0.1799 133.5325
# 5 -5.3550 -3.0229 -6.8312 0.1799 20.4775 -0.1013
# 6 -0.0422 -0.1770 -0.0344 133.5325 -0.1013 -47.0870
#
#
#
# Elastic Compliance Matrix: (Units=1/GPa)
#
#
# Indices 1 2 3 4 5 6 
#
# 1 0.008371 -0.001642 -0.002074 0.000002 0.001255 0.000002
# 2 -0.001642 0.009966 -0.005216 0.000009 -0.000698 -0.000004
# 3 -0.002074 -0.005216 0.021130 0.000005 0.005736 0.000007
# 4 0.000002 0.000009 0.000005 0.007754 0.000044 0.021990
# 5 0.001255 -0.000698 0.005736 0.000044 0.050972 0.000012
# 6 0.000002 -0.000004 0.000007 0.021990 0.000012 0.041123
#
#
# Mechanical properties :
#
#
# Convention : Reuss Voigt Hill
#
# Bulk Modulus (GPa) = 46.29015 55.26052 50.77534
# Shear Modulus (GPa) = 30.41707 -40.23250 -4.90771
#
# Velocity S-wave (km/s) = 4.05396 -4.66240 -1.62840
# Velocity P-wave (km/s) = 6.85009 0.93476 4.88864
#
# Compressibility (1/GPa) = 0.02160287
#
# Stress axis : x y z
#
# Youngs Moduli (GPa) = 119.45796 100.33723 47.32702
#
# Poissons Ratio (x) = 0.16477 0.09816
# Poissons Ratio (y) = 0.19617 0.24685
# Poissons Ratio (z) = 0.24776 0.52335
#
# Static dielectric constant tensor:
#      x y z
#    x 1.699320 0.000000 0.014480 
#    y 0.000000 1.720630 -0.000020 
#    z 0.014480 -0.000020 1.670420 
# 
# From -- ./inp_files/359180.got.cif
#   From: 2010.05.17/outbox.cif.g08.bks.cpg/sg12_180_cif.got.tgz:359180.got - 2010.06.03 13:09:07.
