data_PCOD9183998
_publ_section_title
;
Structure prediction by ZEFSAII (Michael W. Deem and Ramdas Pophale) SiO2 
 PCOD9183998
Probable space group: C 2/M
;
_chemical_formula_sum "Si O2"
_cell_formula_units_Z 56
_cell_length_a 28.417618
_cell_length_b 14.697058
_cell_length_c 11.613008
_cell_angle_alpha 90.000000
_cell_angle_beta 34.580578
_cell_angle_gamma 90.000000
_cell_volume 2752.822264
_symmetry_space_group_name_H-M "C 2/M"
_symmetry_group_IT_number 12
_symmetry_cell_setting 'monoclinic'
loop_
_space_group_symop_operation_xyz
x,y,z
-x,y,-z
-x,-y,-z
x,-y,z
1/2+x,1/2+y,z
1/2-x,1/2+y,-z
1/2-x,1/2-y,-z
1/2+x,1/2-y,z
loop_
_atom_site_type_symbol
_atom_site_label
_atom_site_fract_x
_atom_site_fract_y
_atom_site_fract_z
Si Si1 0.248211 0.099199 0.136485
Si Si2 0.837628 0.105748 0.166252
Si Si3 0.414294 0.644922 0.639354
Si Si4 0.813569 0.709402 0.632566
Si Si5 0.019078 0.898183 0.721199
Si Si6 0.413945 0.715318 0.218508
Si Si7 0.405049 0.154366 0.681769
O O1 0.175175 0.100658 0.186556
O O2 0.229077 0.192884 0.244485
O O3 0.241566 0.000000 0.210044
O O4 0.337526 0.106227 0.897347
O O5 0.759895 0.140804 0.252442
O O6 0.857172 0.175661 0.231315
O O7 0.828925 0.000000 0.221424
O O8 0.920670 0.108841 0.921158
O O9 0.500000 0.596594 0.500000
O O10 0.437223 0.665065 0.459264
O O11 0.408703 0.740022 0.715494
O O12 0.865728 0.725858 0.410232
O O13 0.865484 0.664291 0.633487
O O14 0.051956 0.871742 0.779419
O O15 0.044351 0.000000 0.641127
O O16 0.500000 0.759838 0.000000
O O17 0.500000 0.120209 0.500000
#
# Coordination Sequence:
#
# PCOD9183998 Si02
#       7
#     8   8   8   8   8   8   8
#     4  11  24  39  60  90 125 164 206 250 302 370
#     4  10  23  37  59  90 122 159 202 254 307 361
#     4  10  20  34  58  87 121 157 190 247 310 377
#     4  11  22  40  64  90 123 164 206 255 307 368
#     4  10  19  33  56  88 121 154 190 240 312 380
#     4  10  20  37  60  88 122 160 200 248 307 368
#     4  10  23  40  61  82 119 166 212 255 299 354
#
# _framework density 20.342759000000001
#
# number of rings (size 3 to 8) (size 9 to 14) (size 15 to 20)
#    0.000    1.714    2.857    3.000    6.000    4.286 
#    0.000    0.000    0.000    0.429    0.000    0.000 
#    0.000    0.000    0.000    0.000    0.000    0.000 
#
# Total GULP energy -155971.180053 kJ/mol
# GULP energy per Si atom -5570.399288 kJ/mol
# Density = 2.029646 g / cm^3
# Si number density = 20.342759 Si / 1000 Ang^3
#
#
#
# Elastic Constant Matrix: (Units=GPa)
#
#
# Indices 1 2 3 4 5 6 
#
# 1 90.4159 4.0789 40.3759 0.0000 -26.3187 0.0000
# 2 4.0789 44.0432 20.4870 0.0000 -3.9771 0.0000
# 3 40.3759 20.4870 131.3159 0.0000 -18.0401 0.0000
# 4 0.0000 0.0000 0.0000 -2.9405 0.0000 7.4332
# 5 -26.3187 -3.9771 -18.0401 0.0000 35.8446 0.0000
# 6 0.0000 0.0000 0.0000 7.4332 0.0000 9.4635
#
#
#
# Elastic Compliance Matrix: (Units=1/GPa)
#
#
# Indices 1 2 3 4 5 6 
#
# 1 0.015418 0.001112 -0.003590 0.000000 0.009637 0.000000
# 2 0.001112 0.024586 -0.003965 0.000000 0.001549 0.000000
# 3 -0.003590 -0.003965 0.009577 0.000000 0.001744 0.000000
# 4 0.000000 0.000000 0.000000 -0.113908 0.000000 0.089470
# 5 0.009637 0.001549 0.001744 0.000000 0.036024 0.000000
# 6 0.000000 0.000000 0.000000 0.089470 0.000000 0.035394
#
#
# Mechanical properties :
#
#
# Convention : Reuss Voigt Hill
#
# Bulk Modulus (GPa) = 27.25081 43.96207 35.60644
# Shear Modulus (GPa) = 155.23251 21.86239 88.54745
#
# Velocity S-wave (km/s) = 8.74495 3.28182 6.60471
# Velocity P-wave (km/s) = 10.74199 6.00150 8.70082
#
# Compressibility (1/GPa) = 0.03669616
#
# Stress axis : x y z
#
# Youngs Moduli (GPa) = 64.85760 40.67323 104.41339
#
# Poissons Ratio (x) = -0.04524 0.37487
# Poissons Ratio (y) = -0.07215 0.41400
# Poissons Ratio (z) = 0.23286 0.16127
#
# Static dielectric constant tensor:
#      x y z
#    x 1.804520 0.000000 -0.014100 
#    y 0.000000 1.724450 0.000000 
#    z -0.014100 0.000000 1.746070 
# 
# From -- ./inp_files/189603.got.cif
#   From: 2010.05.17/outbox.cif.g08.bks.cpg/sg12_95_cif.got.tgz:189603.got - 2010.06.03 13:09:07.
