data_PCOD9183351
_publ_section_title
;
Structure prediction by ZEFSAII (Michael W. Deem and Ramdas Pophale) SiO2 
 PCOD9183351
Probable space group: C 2/M
;
_chemical_formula_sum "Si O2"
_cell_formula_units_Z 64
_cell_length_a 30.898347
_cell_length_b 7.658239
_cell_length_c 14.479989
_cell_angle_alpha 90.000000
_cell_angle_beta 129.095756
_cell_angle_gamma 90.000000
_cell_volume 2659.170765
_symmetry_space_group_name_H-M "C 2/M"
_symmetry_group_IT_number 12
_symmetry_cell_setting 'monoclinic'
loop_
_space_group_symop_operation_xyz
x,y,z
-x,y,-z
-x,-y,-z
x,-y,z
1/2+x,1/2+y,z
1/2-x,1/2+y,-z
1/2-x,1/2-y,-z
1/2+x,1/2-y,z
loop_
_atom_site_type_symbol
_atom_site_label
_atom_site_fract_x
_atom_site_fract_y
_atom_site_fract_z
Si Si1 0.897518 0.295157 0.712507
Si Si2 0.553490 0.298107 0.622398
Si Si3 0.589269 0.203895 0.856543
Si Si4 0.674895 0.709986 0.737046
Si Si5 0.683931 0.289463 0.242253
Si Si6 0.984407 0.800833 0.077726
Si Si7 0.793271 0.705055 0.939542
Si Si8 0.303095 0.790616 0.447514
O O1 0.906474 0.500000 0.705645
O O2 0.870221 0.273133 0.776782
O O3 0.957141 0.205076 0.789110
O O4 0.850824 0.222654 0.579577
O O5 0.500000 0.218501 0.500000
O O6 0.556451 0.500000 0.595368
O O7 0.549780 0.290974 0.727740
O O8 0.614418 0.219983 0.683519
O O9 0.562922 0.220811 0.922203
O O10 0.591821 0.000000 0.838126
O O11 0.652009 0.281233 0.937522
O O12 0.675513 0.500000 0.750475
O O13 0.730667 0.779336 0.863671
O O14 0.682331 0.748369 0.638687
O O15 0.683230 0.500000 0.237184
O O16 0.691804 0.221418 0.149345
O O17 0.739239 0.229593 0.373096
O O18 0.966744 0.000000 0.036146
O O19 0.000000 0.717784 0.000000
O O20 0.791023 0.500000 0.958964
O O21 0.302332 0.000000 0.457611
#
# Coordination Sequence:
#
# PCOD9183351 Si02
#       8
#     8   8   8   8   8   8   8   8
#     4  11  22  35  54  81 115 155 198 247 300 356
#     4  10  23  42  63  90 124 161 203 252 302 358
#     4  11  24  41  63  91 121 159 202 251 308 363
#     4   9  19  37  61  87 117 157 199 244 298 354
#     4  10  19  33  54  83 118 157 198 242 296 353
#     4  11  25  43  62  86 117 156 202 250 302 361
#     4   9  19  37  60  86 118 154 197 246 301 361
#     4   9  20  35  53  82 118 153 195 245 296 355
#
# _framework density 24.067651999999999
#
# number of rings (size 3 to 8) (size 9 to 14) (size 15 to 20)
#    0.000    2.000    0.000    2.625    1.750    6.750 
#    0.000    0.000    0.000    0.000    0.000    0.000 
#    0.000    0.000    0.000    0.000    0.000    0.000 
#
# Total GULP energy -178902.404346 kJ/mol
# GULP energy per Si atom -5590.700136 kJ/mol
# Density = 2.401287 g / cm^3
# Si number density = 24.067652 Si / 1000 Ang^3
#
#
#
# Elastic Constant Matrix: (Units=GPa)
#
#
# Indices 1 2 3 4 5 6 
#
# 1 117.8374 -3.0910 44.2082 0.0000 26.8495 0.0000
# 2 -3.0910 55.2348 -1.7078 0.0000 9.1511 0.0000
# 3 44.2082 -1.7078 147.9406 0.0000 30.7043 0.0000
# 4 0.0000 0.0000 0.0000 13.9691 0.0000 -9.1655
# 5 26.8495 9.1511 30.7043 0.0000 37.4659 0.0000
# 6 0.0000 0.0000 0.0000 -9.1655 0.0000 17.2506
#
#
#
# Elastic Compliance Matrix: (Units=1/GPa)
#
#
# Indices 1 2 3 4 5 6 
#
# 1 0.010711 0.001635 -0.001814 0.000000 -0.006588 0.000000
# 2 0.001635 0.019367 0.001157 0.000000 -0.006850 0.000000
# 3 -0.001814 0.001157 0.008560 0.000000 -0.005997 0.000000
# 4 0.000000 0.000000 0.000000 0.109898 0.000000 0.058391
# 5 -0.006588 -0.006850 -0.005997 0.000000 0.038000 0.000000
# 6 0.000000 0.000000 0.000000 0.058391 0.000000 0.088993
#
#
# Mechanical properties :
#
#
# Convention : Reuss Voigt Hill
#
# Bulk Modulus (GPa) = 24.63579 44.42573 34.53076
# Shear Modulus (GPa) = 17.41524 32.51069 24.96296
#
# Velocity S-wave (km/s) = 2.69289 3.67932 3.22405
# Velocity P-wave (km/s) = 4.46398 6.04554 5.31393
#
# Compressibility (1/GPa) = 0.04059135
#
# Stress axis : x y z
#
# Youngs Moduli (GPa) = 93.36189 51.63520 116.82646
#
# Poissons Ratio (x) = -0.08441 0.21198
# Poissons Ratio (y) = -0.15263 -0.13513
# Poissons Ratio (z) = 0.16940 -0.05973
#
# Static dielectric constant tensor:
#      x y z
#    x 1.913600 0.000000 0.008330 
#    y 0.000000 1.876880 0.000000 
#    z 0.008330 0.000000 1.977450 
# 
# From -- ./inp_files/250038.got.cif
#   From: 2010.05.17/outbox.cif.g08.bks.cpg/sg12_126_cif.got.tgz:250038.got - 2010.06.03 13:09:07.
