data_PCOD9183567
_publ_section_title
;
Structure prediction by ZEFSAII (Michael W. Deem and Ramdas Pophale) SiO2 
 PCOD9183567
Probable space group: C 2/M
;
_chemical_formula_sum "Si O2"
_cell_formula_units_Z 48
_cell_length_a 22.328049
_cell_length_b 12.632511
_cell_length_c 11.563766
_cell_angle_alpha 90.000000
_cell_angle_beta 116.661621
_cell_angle_gamma 90.000000
_cell_volume 2914.861911
_symmetry_space_group_name_H-M "C 2/M"
_symmetry_group_IT_number 12
_symmetry_cell_setting 'monoclinic'
loop_
_space_group_symop_operation_xyz
x,y,z
-x,y,-z
-x,-y,-z
x,-y,z
1/2+x,1/2+y,z
1/2-x,1/2+y,-z
1/2-x,1/2-y,-z
1/2+x,1/2-y,z
loop_
_atom_site_type_symbol
_atom_site_label
_atom_site_fract_x
_atom_site_fract_y
_atom_site_fract_z
Si Si1 0.681738 0.876226 0.512424
Si Si2 0.762561 0.625873 0.877336
Si Si3 0.861655 0.246554 0.124865
Si Si4 0.314564 0.261499 0.707745
Si Si5 0.571783 0.124818 0.617401
Si Si6 0.922030 0.874185 0.959787
O O1 0.664691 0.804361 0.387227
O O2 0.754962 0.840707 0.619755
O O3 0.628897 0.860284 0.569783
O O4 0.681544 0.000000 0.481161
O O5 0.762598 0.500000 0.868806
O O6 0.690465 0.670270 0.854036
O O7 0.784258 0.681181 0.776700
O O8 0.815533 0.666609 0.019328
O O9 0.909632 0.304391 0.256902
O O10 0.900655 0.181265 0.060853
O O11 0.375054 0.323685 0.820344
O O12 0.500000 0.150802 0.500000
O O13 0.571089 0.000000 0.648511
O O14 0.910232 0.000000 0.956525
O O15 0.000000 0.855986 0.000000
#
# Coordination Sequence:
#
# PCOD9183567 Si02
#       6
#     8   8   8   8   8   8
#     4  10  20  35  56  80 109 142 180 221 262 316
#     4  10  19  33  55  82 108 134 175 227 269 314
#     4  10  20  35  56  81 105 140 177 221 271 316
#     4  10  20  35  56  82 107 143 177 220 267 314
#     4  10  21  36  56  80 109 145 180 217 266 319
#     4  10  22  38  57  79 107 142 179 220 268 321
#
# _framework density 16.467333
#
# number of rings (size 3 to 8) (size 9 to 14) (size 15 to 20)
#    0.000    2.000    1.667    2.000    2.333    0.000 
#    0.000    0.000    0.000    5.000    0.000    0.000 
#    0.000    0.000    0.000    0.000    0.000    0.000 
#
# Total GULP energy -133967.616798 kJ/mol
# GULP energy per Si atom -5581.984033 kJ/mol
# Density = 1.642985 g / cm^3
# Si number density = 16.467333 Si / 1000 Ang^3
#
#
#
# Elastic Constant Matrix: (Units=GPa)
#
#
# Indices 1 2 3 4 5 6 
#
# 1 67.9096 63.1405 63.4557 0.0000 10.7316 0.0000
# 2 63.1405 109.8296 75.9553 0.0000 7.6071 0.0000
# 3 63.4557 75.9553 137.3642 0.0000 7.7216 0.0000
# 4 0.0000 0.0000 0.0000 18.0844 0.0000 0.1574
# 5 10.7316 7.6071 7.7216 0.0000 18.0161 0.0000
# 6 0.0000 0.0000 0.0000 0.1574 0.0000 25.3146
#
#
#
# Elastic Compliance Matrix: (Units=1/GPa)
#
#
# Indices 1 2 3 4 5 6 
#
# 1 0.039883 -0.015843 -0.008919 0.000000 -0.013245 0.000000
# 2 -0.015843 0.021175 -0.004527 0.000000 0.002436 0.000000
# 3 -0.008919 -0.004527 0.013830 0.000000 0.001297 0.000000
# 4 0.000000 0.000000 0.000000 0.055299 0.000000 -0.000344
# 5 -0.013245 0.002436 0.001297 0.000000 0.061811 0.000000
# 6 0.000000 0.000000 0.000000 -0.000344 0.000000 0.039505
#
#
# Mechanical properties :
#
#
# Convention : Reuss Voigt Hill
#
# Bulk Modulus (GPa) = 61.31096 80.02294 70.66695
# Shear Modulus (GPa) = 16.91940 19.78648 18.35294
#
# Velocity S-wave (km/s) = 3.20887 3.47011 3.34204
# Velocity P-wave (km/s) = 7.14435 8.04711 7.60913
#
# Compressibility (1/GPa) = 0.01631030
#
# Stress axis : x y z
#
# Youngs Moduli (GPa) = 25.07329 47.22548 72.30405
#
# Poissons Ratio (x) = 0.74819 0.64490
# Poissons Ratio (y) = 0.39723 0.32732
# Poissons Ratio (z) = 0.22364 0.21379
#
# Static dielectric constant tensor:
#      x y z
#    x 1.531180 0.000000 -0.003490 
#    y 0.000000 1.524240 0.000000 
#    z -0.003490 0.000000 1.534050 
# 
# From -- ./inp_files/163996.got.cif
#   From: 2010.05.17/outbox.cif.g08.bks.cpg/sg12_82_cif.got.tgz:163996.got - 2010.06.03 13:09:07.
