data_PCOD9183060
_publ_section_title
;
Structure prediction by ZEFSAII (Michael W. Deem and Ramdas Pophale) SiO2 
 PCOD9183060
Probable space group: C 2/M
;
_chemical_formula_sum "Si O2"
_cell_formula_units_Z 56
_cell_length_a 16.171626
_cell_length_b 13.234915
_cell_length_c 11.880776
_cell_angle_alpha 90.000000
_cell_angle_beta 85.991469
_cell_angle_gamma 90.000000
_cell_volume 2536.622944
_symmetry_space_group_name_H-M "C 2/M"
_symmetry_group_IT_number 12
_symmetry_cell_setting 'monoclinic'
loop_
_space_group_symop_operation_xyz
x,y,z
-x,y,-z
-x,-y,-z
x,-y,z
1/2+x,1/2+y,z
1/2-x,1/2+y,-z
1/2-x,1/2-y,-z
1/2+x,1/2-y,z
loop_
_atom_site_type_symbol
_atom_site_label
_atom_site_fract_x
_atom_site_fract_y
_atom_site_fract_z
Si Si1 0.145964 0.613731 0.315565
Si Si2 0.308561 0.610953 0.036660
Si Si3 0.777290 0.175106 0.689129
Si Si4 0.871270 0.381717 0.426441
Si Si5 0.662669 0.163597 0.903411
Si Si6 0.427479 0.610551 0.805615
Si Si7 0.514311 0.818302 0.784857
O O1 0.179564 0.500000 0.309177
O O2 0.209859 0.705140 0.294484
O O3 0.108718 0.631412 0.444472
O O4 0.071142 0.626020 0.235043
O O5 0.319265 0.500000 0.088025
O O6 0.212446 0.623992 0.006415
O O7 0.366265 0.612954 0.919274
O O8 0.332578 0.714365 0.094543
O O9 0.724912 0.149241 0.583927
O O10 0.718731 0.130775 0.792573
O O11 0.867896 0.129318 0.703123
O O12 0.881519 0.500000 0.399368
O O13 0.928595 0.323204 0.332622
O O14 0.569167 0.137265 0.881026
O O15 0.466314 0.500000 0.796927
O O16 0.489511 0.702950 0.810728
#
# Coordination Sequence:
#
# PCOD9183060 Si02
#       7
#     8   8   8   8   8   8   8
#     4  10  20  33  51  76 105 135 166 203 249 298
#     4   9  18  34  55  74  96 129 169 209 245 292
#     4   9  18  33  53  75 102 134 168 209 247 288
#     4  10  19  33  54  76  98 132 175 209 242 291
#     4   9  19  33  50  76 101 128 166 205 248 295
#     4   9  18  33  52  74 100 133 170 206 250 298
#     4  10  20  32  49  74 104 131 162 209 252 294
#
# _framework density 22.076595000000001
#
# number of rings (size 3 to 8) (size 9 to 14) (size 15 to 20)
#    0.000    2.571    0.000    1.714    0.000    6.857 
#    0.000    3.571    0.000    8.571    0.000   16.000 
#    0.000    0.000    0.000    0.000    0.000    0.000 
#
# Total GULP energy -156241.643198 kJ/mol
# GULP energy per Si atom -5580.058686 kJ/mol
# Density = 2.202635 g / cm^3
# Si number density = 22.076595 Si / 1000 Ang^3
#
#
#
# Elastic Constant Matrix: (Units=GPa)
#
#
# Indices 1 2 3 4 5 6 
#
# 1 67.8560 10.8263 22.5865 0.0000 9.2600 0.0000
# 2 10.8263 79.4851 -3.0553 0.0000 -9.9449 0.0000
# 3 22.5865 -3.0553 38.7918 0.0000 10.9259 0.0000
# 4 0.0000 0.0000 0.0000 14.3515 0.0000 -10.5122
# 5 9.2600 -9.9449 10.9259 0.0000 32.6547 0.0000
# 6 0.0000 0.0000 0.0000 -10.5122 0.0000 9.0762
#
#
#
# Elastic Compliance Matrix: (Units=1/GPa)
#
#
# Indices 1 2 3 4 5 6 
#
# 1 0.019216 -0.003392 -0.010632 0.000000 -0.002925 0.000000
# 2 -0.003392 0.013678 0.001775 0.000000 0.004534 0.000000
# 3 -0.010632 0.001775 0.034344 0.000000 -0.007935 0.000000
# 4 0.000000 0.000000 0.000000 0.459521 0.000000 0.532221
# 5 -0.002925 0.004534 -0.007935 0.000000 0.035489 0.000000
# 6 0.000000 0.000000 0.000000 0.532221 0.000000 0.726601
#
#
# Mechanical properties :
#
#
# Convention : Reuss Voigt Hill
#
# Bulk Modulus (GPa) = 23.39640 27.42752 25.41196
# Shear Modulus (GPa) = 3.76621 21.60153 12.68387
#
# Velocity S-wave (km/s) = 1.30755 3.13146 2.39956
# Velocity P-wave (km/s) = 3.59171 5.05228 4.38326
#
# Compressibility (1/GPa) = 0.04274161
#
# Stress axis : x y z
#
# Youngs Moduli (GPa) = 52.03888 73.10768 29.11714
#
# Poissons Ratio (x) = 0.24798 0.30958
# Poissons Ratio (y) = 0.17652 -0.05170
# Poissons Ratio (z) = 0.55328 -0.12980
#
# Static dielectric constant tensor:
#      x y z
#    x 1.827280 0.000000 0.022770 
#    y 0.000000 1.795880 0.000000 
#    z 0.022770 0.000000 1.843770 
# 
# From -- ./inp_files/223367.got.cif
#   From: 2010.05.17/outbox.cif.g08.bks.cpg/sg12_112_cif.got.tgz:223367.got - 2010.06.03 13:09:07.
