data_PCOD9183301
_publ_section_title
;
Structure prediction by ZEFSAII (Michael W. Deem and Ramdas Pophale) SiO2 
 PCOD9183301
Probable space group: C 2/M
;
_chemical_formula_sum "Si O2"
_cell_formula_units_Z 64
_cell_length_a 30.925700
_cell_length_b 7.561621
_cell_length_c 13.566288
_cell_angle_alpha 90.000000
_cell_angle_beta 120.579205
_cell_angle_gamma 90.000000
_cell_volume 2731.251327
_symmetry_space_group_name_H-M "C 2/M"
_symmetry_group_IT_number 12
_symmetry_cell_setting 'monoclinic'
loop_
_space_group_symop_operation_xyz
x,y,z
-x,y,-z
-x,-y,-z
x,-y,z
1/2+x,1/2+y,z
1/2-x,1/2+y,-z
1/2-x,1/2-y,-z
1/2+x,1/2-y,z
loop_
_atom_site_type_symbol
_atom_site_label
_atom_site_fract_x
_atom_site_fract_y
_atom_site_fract_z
Si Si1 0.483590 0.203432 0.167193
Si Si2 0.119038 0.283916 0.033773
Si Si3 0.782320 0.710953 0.942303
Si Si4 0.611759 0.205150 0.577054
Si Si5 0.465737 0.703221 0.369220
Si Si6 0.910895 0.282376 0.659953
Si Si7 0.273334 0.714015 0.320754
Si Si8 0.824559 0.285106 0.697542
O O1 0.436435 0.283251 0.054868
O O2 0.470751 0.205345 0.269463
O O3 0.539815 0.277954 0.224265
O O4 0.487741 0.000000 0.139068
O O5 0.116261 0.500000 0.028511
O O6 0.160281 0.225894 0.000330
O O7 0.143480 0.237908 0.167291
O O8 0.785251 0.500000 0.937498
O O9 0.752532 0.771966 0.811368
O O10 0.750000 0.750000 0.000000
O O11 0.590527 0.291050 0.651067
O O12 0.584820 0.276588 0.447810
O O13 0.670207 0.220690 0.618772
O O14 0.599729 0.000000 0.574155
O O15 0.500000 0.773771 0.500000
O O16 0.479898 0.500000 0.369777
O O17 0.910926 0.500000 0.659357
O O18 0.858285 0.224489 0.645741
O O19 0.275502 0.500000 0.326382
O O20 0.233082 0.774097 0.356585
O O21 0.823084 0.500000 0.693095
#
# Coordination Sequence:
#
# PCOD9183301 Si02
#       8
#     8   8   8   8   8   8   8   8
#     4  10  19  33  54  82 111 137 173 217 263 315
#     4   8  16  30  50  76 105 136 171 211 261 314
#     4   9  18  32  48  71 101 133 174 219 262 309
#     4  11  22  35  53  79 110 139 176 223 266 312
#     4  11  23  38  55  75 105 144 181 215 261 321
#     4   9  18  31  51  79 108 139 174 217 268 312
#     4   9  19  35  53  74 105 142 180 218 263 315
#     4   8  15  32  54  77 109 141 171 218 267 310
#
# _framework density 23.432483000000001
#
# number of rings (size 3 to 8) (size 9 to 14) (size 15 to 20)
#    0.000    2.625    1.250    2.250    1.750    2.000 
#    0.000    2.500    0.000    2.250    0.000    0.875 
#    0.000    0.000    0.000    0.000    0.000    0.000 
#
# Total GULP energy -178614.770407 kJ/mol
# GULP energy per Si atom -5581.711575 kJ/mol
# Density = 2.337915 g / cm^3
# Si number density = 23.432483 Si / 1000 Ang^3
#
#
#
# Elastic Constant Matrix: (Units=GPa)
#
#
# Indices 1 2 3 4 5 6 
#
# 1 118.9065 1.6291 -5.4704 0.0000 6.6404 0.0000
# 2 1.6291 60.9753 -2.8517 0.0000 4.7392 0.0000
# 3 -5.4704 -2.8517 16.7359 0.0000 14.0247 0.0000
# 4 0.0000 0.0000 0.0000 4.2831 0.0000 3.5834
# 5 6.6404 4.7392 14.0247 0.0000 41.5765 0.0000
# 6 0.0000 0.0000 0.0000 3.5834 0.0000 13.1459
#
#
#
# Elastic Compliance Matrix: (Units=1/GPa)
#
#
# Indices 1 2 3 4 5 6 
#
# 1 0.008863 0.000299 0.005803 0.000000 -0.003407 0.000000
# 2 0.000299 0.017021 0.006502 0.000000 -0.004181 0.000000
# 3 0.005803 0.006502 0.089436 0.000000 -0.031837 0.000000
# 4 0.000000 0.000000 0.000000 0.302451 0.000000 -0.082445
# 5 -0.003407 -0.004181 -0.031837 0.000000 0.035812 0.000000
# 6 0.000000 0.000000 0.000000 -0.082445 0.000000 0.098543
#
#
# Mechanical properties :
#
#
# Convention : Reuss Voigt Hill
#
# Bulk Modulus (GPa) = 7.11591 20.35907 13.73749
# Shear Modulus (GPa) = 8.71445 25.35515 17.03480
#
# Velocity S-wave (km/s) = 1.93055 3.29302 2.69917
# Velocity P-wave (km/s) = 2.83068 4.81310 3.94833
#
# Compressibility (1/GPa) = 0.14053023
#
# Stress axis : x y z
#
# Youngs Moduli (GPa) = 112.82680 58.75042 11.18120
#
# Poissons Ratio (x) = -0.01759 -0.06489
# Poissons Ratio (y) = -0.03379 -0.07270
# Poissons Ratio (z) = -0.65478 -0.38201
#
# Static dielectric constant tensor:
#      x y z
#    x 1.925760 0.000000 0.027210 
#    y 0.000000 1.877380 0.000000 
#    z 0.027210 0.000000 1.883800 
# 
# From -- ./inp_files/249238.got.cif
#   From: 2010.05.17/outbox.cif.g08.bks.cpg/sg12_125_cif.got.tgz:249238.got - 2010.06.03 13:09:07.
