data_PCOD9183294
_publ_section_title
;
Structure prediction by ZEFSAII (Michael W. Deem and Ramdas Pophale) SiO2 
 PCOD9183294
Probable space group: C 2/M
;
_chemical_formula_sum "Si O2"
_cell_formula_units_Z 48
_cell_length_a 19.294717
_cell_length_b 10.251671
_cell_length_c 13.606381
_cell_angle_alpha 90.000000
_cell_angle_beta 107.410944
_cell_angle_gamma 90.000000
_cell_volume 2568.073581
_symmetry_space_group_name_H-M "C 2/M"
_symmetry_group_IT_number 12
_symmetry_cell_setting 'monoclinic'
loop_
_space_group_symop_operation_xyz
x,y,z
-x,y,-z
-x,-y,-z
x,-y,z
1/2+x,1/2+y,z
1/2-x,1/2+y,-z
1/2-x,1/2-y,-z
1/2+x,1/2-y,z
loop_
_atom_site_type_symbol
_atom_site_label
_atom_site_fract_x
_atom_site_fract_y
_atom_site_fract_z
Si Si1 0.819843 0.343603 0.517892
Si Si2 0.618664 0.147093 0.658705
Si Si3 0.839865 0.859837 0.060318
Si Si4 0.242105 0.778246 0.164127
Si Si5 0.952307 0.342414 0.175180
Si Si6 0.881631 0.652164 0.759833
O O1 0.801392 0.500000 0.496478
O O2 0.750000 0.250000 0.500000
O O3 0.865577 0.296939 0.442100
O O4 0.865608 0.334860 0.637184
O O5 0.696706 0.148975 0.746853
O O6 0.564456 0.200378 0.718865
O O7 0.593280 0.000000 0.629986
O O8 0.785909 0.838772 0.129465
O O9 0.895465 0.739008 0.086591
O O10 0.877069 0.000000 0.083595
O O11 0.791959 0.854347 0.941871
O O12 0.177301 0.733084 0.205727
O O13 0.940500 0.500000 0.163805
O O14 0.035035 0.313514 0.183596
O O15 0.872047 0.500000 0.781355
#
# Coordination Sequence:
#
# PCOD9183294 Si02
#       6
#     8   8   8   8   8   8
#     4  10  19  33  54  82 109 135 173 216 261 311
#     4   9  17  32  54  78 106 140 173 212 260 311
#     4  10  21  36  55  80 106 139 180 221 266 315
#     4  10  19  33  55  78 107 138 175 221 265 313
#     4   9  20  37  54  76 109 144 177 214 261 315
#     4  10  20  34  54  80 107 139 178 218 261 312
#
# _framework density 18.691051999999999
#
# number of rings (size 3 to 8) (size 9 to 14) (size 15 to 20)
#    0.000    2.333    1.667    1.000    0.000    6.000 
#    0.000    8.333    0.000    0.000    0.000    3.500 
#    0.000    0.000    0.000    0.000    0.000    0.000 
#
# Total GULP energy -133686.423880 kJ/mol
# GULP energy per Si atom -5570.267662 kJ/mol
# Density = 1.864851 g / cm^3
# Si number density = 18.691052 Si / 1000 Ang^3
#
#
#
# Elastic Constant Matrix: (Units=GPa)
#
#
# Indices 1 2 3 4 5 6 
#
# 1 72.6782 14.9918 0.2017 0.0000 3.3778 0.0000
# 2 14.9918 52.1149 7.9213 0.0000 7.2775 0.0000
# 3 0.2017 7.9213 46.5752 0.0000 -8.8173 0.0000
# 4 0.0000 0.0000 0.0000 1.1325 0.0000 14.9815
# 5 3.3778 7.2775 -8.8173 0.0000 21.8930 0.0000
# 6 0.0000 0.0000 0.0000 14.9815 0.0000 10.8983
#
#
#
# Elastic Compliance Matrix: (Units=1/GPa)
#
#
# Indices 1 2 3 4 5 6 
#
# 1 0.014656 -0.004205 0.000529 0.000000 -0.000650 0.000000
# 2 -0.004205 0.022502 -0.005523 0.000000 -0.009056 0.000000
# 3 0.000529 -0.005523 0.024617 0.000000 0.011669 0.000000
# 4 0.000000 0.000000 0.000000 -0.051382 0.000000 0.070633
# 5 -0.000650 -0.009056 0.011669 0.000000 0.053487 0.000000
# 6 0.000000 0.000000 0.000000 0.070633 0.000000 -0.005340
#
#
# Mechanical properties :
#
#
# Convention : Reuss Voigt Hill
#
# Bulk Modulus (GPa) = 23.05504 24.17755 23.61630
# Shear Modulus (GPa) = 54.70620 16.66833 35.68727
#
# Velocity S-wave (km/s) = 5.41592 2.98951 4.37432
# Velocity P-wave (km/s) = 7.17434 4.98795 6.17863
#
# Compressibility (1/GPa) = 0.04337446
#
# Stress axis : x y z
#
# Youngs Moduli (GPa) = 68.23365 44.44012 40.62281
#
# Poissons Ratio (x) = 0.18689 -0.02148
# Poissons Ratio (y) = 0.28695 0.22437
# Poissons Ratio (z) = -0.03607 0.24545
#
# Static dielectric constant tensor:
#      x y z
#    x 1.637120 0.000000 -0.019120 
#    y 0.000000 1.650720 0.000000 
#    z -0.019120 0.000000 1.658680 
# 
# From -- ./inp_files/153651.got.cif
#   From: 2010.05.17/outbox.cif.g08.bks.cpg/sg12_77_cif.got.tgz:153651.got - 2010.06.03 13:09:07.
