data_PCOD9183086
_publ_section_title
;
Structure prediction by ZEFSAII (Michael W. Deem and Ramdas Pophale) SiO2 
 PCOD9183086
Probable space group: C 2/M
;
_chemical_formula_sum "Si O2"
_cell_formula_units_Z 56
_cell_length_a 19.250328
_cell_length_b 8.979240
_cell_length_c 25.125276
_cell_angle_alpha 90.000000
_cell_angle_beta 46.559408
_cell_angle_gamma 90.000000
_cell_volume 3153.389676
_symmetry_space_group_name_H-M "C 2/M"
_symmetry_group_IT_number 12
_symmetry_cell_setting 'monoclinic'
loop_
_space_group_symop_operation_xyz
x,y,z
-x,y,-z
-x,-y,-z
x,-y,z
1/2+x,1/2+y,z
1/2-x,1/2+y,-z
1/2-x,1/2-y,-z
1/2+x,1/2-y,z
loop_
_atom_site_type_symbol
_atom_site_label
_atom_site_fract_x
_atom_site_fract_y
_atom_site_fract_z
Si Si1 0.214266 0.677219 0.852859
Si Si2 0.114168 0.674326 0.602087
Si Si3 0.521659 0.327230 0.925032
Si Si4 0.174376 0.678653 0.998459
Si Si5 0.406745 0.324608 0.584303
Si Si6 0.896678 0.676303 0.703878
Si Si7 0.212303 0.672554 0.437307
O O1 0.209216 0.500000 0.849298
O O2 0.125030 0.749324 0.868054
O O3 0.313252 0.740154 0.778757
O O4 0.205562 0.709869 0.920731
O O5 0.134879 0.500000 0.603137
O O6 0.142276 0.694513 0.525099
O O7 0.183175 0.782498 0.597753
O O8 0.003107 0.703896 0.670150
O O9 0.526324 0.500000 0.906467
O O10 0.433371 0.246116 0.942048
O O11 0.500000 0.322193 0.000000
O O12 0.171419 0.500000 0.007316
O O13 0.250000 0.750000 0.000000
O O14 0.500000 0.286422 0.500000
O O15 0.409446 0.500000 0.594667
O O16 0.400914 0.232890 0.641228
O O17 0.318994 0.279870 0.593214
O O18 0.879163 0.500000 0.714587
O O19 0.206225 0.500000 0.424686
#
# Coordination Sequence:
#
# PCOD9183086 Si02
#       7
#     8   8   8   8   8   8   8
#     4  10  21  37  56  82 115 148 183 225 276 331
#     4   9  19  34  52  76 105 138 177 225 278 331
#     4   9  17  32  56  83 111 145 185 224 265 321
#     4  10  20  35  58  87 117 148 185 230 273 323
#     4  11  22  35  54  79 107 140 182 231 278 328
#     4  11  22  37  57  80 110 146 184 229 280 332
#     4  10  19  33  54  77 103 135 178 230 278 330
#
# _framework density 17.758668
#
# number of rings (size 3 to 8) (size 9 to 14) (size 15 to 20)
#    0.000    2.000    1.429    2.571    0.000    5.714 
#    0.000    1.429    0.000    3.429    0.000    0.000 
#    0.000    0.000    0.000    0.000    0.000    0.000 
#
# Total GULP energy -156235.738794 kJ/mol
# GULP energy per Si atom -5579.847814 kJ/mol
# Density = 1.771825 g / cm^3
# Si number density = 17.758668 Si / 1000 Ang^3
#
#
#
# Elastic Constant Matrix: (Units=GPa)
#
#
# Indices 1 2 3 4 5 6 
#
# 1 105.5701 51.5647 34.6419 0.0000 -16.2048 0.0002
# 2 51.5647 57.3177 40.2496 0.0000 -12.8526 0.0003
# 3 34.6419 40.2496 69.3100 0.0000 -24.6278 0.0000
# 4 0.0000 0.0000 0.0000 28.2990 0.0000 -2.5064
# 5 -16.2048 -12.8526 -24.6278 0.0000 22.2487 0.0000
# 6 0.0002 0.0003 0.0000 -2.5064 0.0000 33.6817
#
#
#
# Elastic Compliance Matrix: (Units=1/GPa)
#
#
# Indices 1 2 3 4 5 6 
#
# 1 0.017520 -0.016523 0.003266 0.000000 0.006830 0.000000
# 2 -0.016523 0.045178 -0.021396 0.000000 -0.009619 0.000000
# 3 0.003266 -0.021396 0.035726 0.000000 0.029565 0.000000
# 4 0.000000 0.000000 0.000000 0.035571 0.000000 0.002647
# 5 0.006830 -0.009619 0.029565 0.000000 0.077091 0.000000
# 6 0.000000 0.000000 0.000000 0.002647 0.000000 0.029887
#
#
# Mechanical properties :
#
#
# Convention : Reuss Voigt Hill
#
# Bulk Modulus (GPa) = 34.34285 53.90112 44.12198
# Shear Modulus (GPa) = 15.62574 23.89532 19.76053
#
# Velocity S-wave (km/s) = 2.96952 3.67216 3.33937
# Velocity P-wave (km/s) = 5.58014 6.95684 6.30617
#
# Compressibility (1/GPa) = 0.02911814
#
# Stress axis : x y z
#
# Youngs Moduli (GPa) = 57.07883 22.13443 27.99086
#
# Poissons Ratio (x) = 0.36572 -0.09141
# Poissons Ratio (y) = 0.94310 0.59889
# Poissons Ratio (z) = -0.18639 0.47358
#
# Static dielectric constant tensor:
#      x y z
#    x 1.604300 0.000000 -0.003870 
#    y 0.000000 1.587930 0.000000 
#    z -0.003870 0.000000 1.596100 
# 
# From -- ./inp_files/342336.got.cif
#   From: 2010.05.17/outbox.cif.g08.bks.cpg/sg12_172_cif.got.tgz:342336.got - 2010.06.03 13:09:07.
