data_PCOD9183005
_publ_section_title
;
Structure prediction by ZEFSAII (Michael W. Deem and Ramdas Pophale) SiO2 
 PCOD9183005
Probable space group: C 2/M
;
_chemical_formula_sum "Si O2"
_cell_formula_units_Z 56
_cell_length_a 29.389115
_cell_length_b 15.632954
_cell_length_c 12.242409
_cell_angle_alpha 90.000000
_cell_angle_beta 29.399632
_cell_angle_gamma 90.000000
_cell_volume 2761.123582
_symmetry_space_group_name_H-M "C 2/M"
_symmetry_group_IT_number 12
_symmetry_cell_setting 'monoclinic'
loop_
_space_group_symop_operation_xyz
x,y,z
-x,y,-z
-x,-y,-z
x,-y,z
1/2+x,1/2+y,z
1/2-x,1/2+y,-z
1/2-x,1/2-y,-z
1/2+x,1/2-y,z
loop_
_atom_site_type_symbol
_atom_site_label
_atom_site_fract_x
_atom_site_fract_y
_atom_site_fract_z
Si Si1 0.400249 0.101131 0.259453
Si Si2 0.662340 0.626077 0.368082
Si Si3 0.962671 0.095490 0.702365
Si Si4 0.370350 0.178785 0.557437
Si Si5 0.185559 0.403731 0.784663
Si Si6 0.582633 0.784712 0.168609
Si Si7 0.816730 0.405952 0.877131
O O1 0.377021 0.148365 0.419402
O O2 0.324599 0.113353 0.322099
O O3 0.407006 0.000000 0.269076
O O4 0.500000 0.127506 0.000000
O O5 0.555831 0.600728 0.581091
O O6 0.673326 0.727913 0.344447
O O7 0.714204 0.595171 0.368414
O O8 0.718207 0.594386 0.144680
O O9 0.906771 0.182174 0.846239
O O10 0.000000 0.104087 0.500000
O O11 0.920826 0.000000 0.801600
O O12 0.474636 0.192022 0.384275
O O13 0.316817 0.115079 0.749725
O O14 0.144922 0.500000 0.887579
O O15 0.130260 0.331646 0.966534
O O16 0.625643 0.831863 0.183301
O O17 0.858469 0.500000 0.808772
#
# Coordination Sequence:
#
# PCOD9183005 Si02
#       7
#     8   8   8   8   8   8   8
#     4  10  20  35  56  82 113 146 187 234 281 333
#     4  10  21  37  55  79 114 150 188 228 275 337
#     4  10  20  35  55  78 108 148 191 230 272 327
#     4  11  21  33  53  82 115 148 185 233 274 328
#     4  10  20  36  59  83 113 149 185 228 279 336
#     4  10  19  33  53  83 113 145 185 227 279 334
#     4  11  22  35  56  85 120 151 180 224 283 342
#
# _framework density 20.281597999999999
#
# number of rings (size 3 to 8) (size 9 to 14) (size 15 to 20)
#    0.000    1.714    1.429    5.571    0.000    4.000 
#    0.000    0.000    0.000    3.429    0.000   10.000 
#    0.000    0.000    0.000    0.000    0.000    0.000 
#
# Total GULP energy -156370.903857 kJ/mol
# GULP energy per Si atom -5584.675138 kJ/mol
# Density = 2.023544 g / cm^3
# Si number density = 20.281598 Si / 1000 Ang^3
#
#
#
# Elastic Constant Matrix: (Units=GPa)
#
#
# Indices 1 2 3 4 5 6 
#
# 1 74.6786 41.0163 39.9870 0.0000 17.4926 0.0000
# 2 41.0163 169.5858 40.6543 0.0000 15.4011 0.0000
# 3 39.9870 40.6543 40.2594 0.0000 14.8793 0.0000
# 4 0.0000 0.0000 0.0000 -0.4075 0.0000 -8.5207
# 5 17.4926 15.4011 14.8793 0.0000 35.2363 0.0000
# 6 0.0000 0.0000 0.0000 -8.5207 0.0000 22.3368
#
#
#
# Elastic Compliance Matrix: (Units=1/GPa)
#
#
# Indices 1 2 3 4 5 6 
#
# 1 0.028809 -0.000135 -0.027506 0.000000 -0.002628 0.000000
# 2 -0.000135 0.007781 -0.007691 0.000000 -0.000086 0.000000
# 3 -0.027506 -0.007691 0.063556 0.000000 -0.009821 0.000000
# 4 0.000000 0.000000 0.000000 -0.273383 0.000000 -0.104286
# 5 -0.002628 -0.000086 -0.009821 0.000000 0.033869 0.000000
# 6 0.000000 0.000000 0.000000 -0.104286 0.000000 0.004987
#
#
# Mechanical properties :
#
#
# Convention : Reuss Voigt Hill
#
# Bulk Modulus (GPa) = 33.92160 58.64878 46.28519
# Shear Modulus (GPa) = -92.78359 22.29087 -35.24636
#
# Velocity S-wave (km/s) = -6.77104 3.31882 -4.17327
# Velocity P-wave (km/s) = 6.66091 6.60803 0.59229
#
# Compressibility (1/GPa) = 0.02947974
#
# Stress axis : x y z
#
# Youngs Moduli (GPa) = 34.71158 128.51759 15.73426
#
# Poissons Ratio (x) = 0.01736 0.43279
# Poissons Ratio (y) = 0.00469 0.12102
# Poissons Ratio (z) = 0.95479 0.98848
#
# Static dielectric constant tensor:
#      x y z
#    x 1.744110 0.000000 -0.042400 
#    y 0.000000 1.732260 0.000000 
#    z -0.042400 0.000000 1.714950 
# 
# From -- ./inp_files/189610.got.cif
#   From: 2010.05.17/outbox.cif.g08.bks.cpg/sg12_95_cif.got.tgz:189610.got - 2010.06.03 13:09:07.
