data_PCOD9183725
_publ_section_title
;
Structure prediction by ZEFSAII (Michael W. Deem and Ramdas Pophale) SiO2 
 PCOD9183725
Probable space group: C 2/M
;
_chemical_formula_sum "Si O2"
_cell_formula_units_Z 48
_cell_length_a 10.197995
_cell_length_b 28.018790
_cell_length_c 10.299990
_cell_angle_alpha 90.000000
_cell_angle_beta 136.686481
_cell_angle_gamma 90.000000
_cell_volume 2018.918521
_symmetry_space_group_name_H-M "C 2/M"
_symmetry_group_IT_number 12
_symmetry_cell_setting 'monoclinic'
loop_
_space_group_symop_operation_xyz
x,y,z
-x,y,-z
-x,-y,-z
x,-y,z
1/2+x,1/2+y,z
1/2-x,1/2+y,-z
1/2-x,1/2-y,-z
1/2+x,1/2-y,z
loop_
_atom_site_type_symbol
_atom_site_label
_atom_site_fract_x
_atom_site_fract_y
_atom_site_fract_z
Si Si1 0.411350 0.554880 0.241636
Si Si2 0.631583 0.774951 0.299344
Si Si3 0.824853 0.905589 0.776341
Si Si4 0.566626 0.051334 0.780604
Si Si5 0.322633 0.798932 0.273590
Si Si6 0.662966 0.876460 0.229292
O O1 0.451827 0.500000 0.308334
O O2 0.590203 0.580333 0.301026
O O3 0.323899 0.589146 0.287390
O O4 0.238593 0.551933 0.010757
O O5 0.750000 0.750000 0.500000
O O6 0.420632 0.787910 0.204371
O O7 0.663149 0.738606 0.203912
O O8 0.724214 0.824898 0.322657
O O9 0.661414 0.940397 0.710198
O O10 0.756362 0.851869 0.756033
O O11 0.000000 0.913597 0.000000
O O12 0.436565 0.095326 0.725609
O O13 0.469473 0.000000 0.721963
O O14 0.500000 0.793868 0.500000
O O15 0.500000 0.869507 0.000000
#
# Coordination Sequence:
#
# PCOD9183725 Si02
#       6
#     8   8   8   8   8   8
#     4   9  18  30  51  87 124 154 187 229 287 348
#     4  10  22  40  59  81 108 152 201 240 294 356
#     4  10  19  33  55  86 119 152 191 238 290 342
#     4   9  16  30  53  81 119 160 190 227 284 354
#     4  10  22  40  59  80 107 152 201 240 293 357
#     4  10  19  33  55  87 121 151 192 244 292 339
#
# _framework density 23.775106999999998
#
# number of rings (size 3 to 8) (size 9 to 14) (size 15 to 20)
#    0.000    2.333    1.667    1.000    2.333    4.667 
#    0.000    1.667    0.000    2.000    0.000    4.667 
#    0.000    0.000    0.000    0.000    0.000    0.667 
#
# Total GULP energy -134150.078750 kJ/mol
# GULP energy per Si atom -5589.586615 kJ/mol
# Density = 2.372099 g / cm^3
# Si number density = 23.775107 Si / 1000 Ang^3
#
#
#
# Elastic Constant Matrix: (Units=GPa)
#
#
# Indices 1 2 3 4 5 6 
#
# 1 147.5577 59.6605 13.7537 0.0000 -25.7748 0.0000
# 2 59.6605 182.2807 16.8105 0.0000 -12.2095 0.0000
# 3 13.7537 16.8105 81.8528 0.0000 25.6604 0.0000
# 4 0.0000 0.0000 0.0000 26.8417 0.0000 0.5258
# 5 -25.7748 -12.2095 25.6604 0.0000 -19.4716 0.0000
# 6 0.0000 0.0000 0.0000 0.5258 0.0000 45.0162
#
#
#
# Elastic Compliance Matrix: (Units=1/GPa)
#
#
# Indices 1 2 3 4 5 6 
#
# 1 0.006767 -0.002706 0.001199 0.000000 -0.005680 0.000000
# 2 -0.002706 0.006347 -0.000512 0.000000 -0.001073 0.000000
# 3 0.001199 -0.000512 0.008858 0.000000 0.010407 0.000000
# 4 0.000000 0.000000 0.000000 0.037264 0.000000 -0.000435
# 5 -0.005680 -0.001073 0.010407 0.000000 -0.029450 0.000000
# 6 0.000000 0.000000 0.000000 -0.000435 0.000000 0.022219
#
#
# Mechanical properties :
#
#
# Convention : Reuss Voigt Hill
#
# Bulk Modulus (GPa) = 55.75877 65.79343 60.77610
# Shear Modulus (GPa) = 80.61676 31.90836 56.26256
#
# Velocity S-wave (km/s) = 5.82938 3.66743 4.86989
# Velocity P-wave (km/s) = 8.29532 6.75772 7.56568
#
# Compressibility (1/GPa) = 0.01793440
#
# Stress axis : x y z
#
# Youngs Moduli (GPa) = 147.77445 157.55295 112.89038
#
# Poissons Ratio (x) = 0.42633 -0.13540
# Poissons Ratio (y) = 0.39987 0.05785
# Poissons Ratio (z) = -0.17724 0.08073
#
# Static dielectric constant tensor:
#      x y z
#    x 1.915940 0.000000 -0.004990 
#    y 0.000000 2.030070 0.000000 
#    z -0.004990 0.000000 1.949160 
# 
# From -- ./inp_files/123905.got.cif
#   From: 2010.05.17/outbox.cif.g08.bks.cpg/sg12_62_cif.got.tgz:123905.got - 2010.06.03 13:09:07.
