data_PCOD9183492
_publ_section_title
;
Structure prediction by ZEFSAII (Michael W. Deem and Ramdas Pophale) SiO2 
 PCOD9183492
Probable space group: C 2/M
;
_chemical_formula_sum "Si O2"
_cell_formula_units_Z 56
_cell_length_a 16.357314
_cell_length_b 7.862141
_cell_length_c 20.577317
_cell_angle_alpha 90.000000
_cell_angle_beta 123.936050
_cell_angle_gamma 90.000000
_cell_volume 2195.545002
_symmetry_space_group_name_H-M "C 2/M"
_symmetry_group_IT_number 12
_symmetry_cell_setting 'monoclinic'
loop_
_space_group_symop_operation_xyz
x,y,z
-x,y,-z
-x,-y,-z
x,-y,z
1/2+x,1/2+y,z
1/2-x,1/2+y,-z
1/2-x,1/2-y,-z
1/2+x,1/2-y,z
loop_
_atom_site_type_symbol
_atom_site_label
_atom_site_fract_x
_atom_site_fract_y
_atom_site_fract_z
Si Si1 0.300042 0.792771 0.613602
Si Si2 0.500934 0.802472 0.092615
Si Si3 0.403047 0.696044 0.526060
Si Si4 0.691791 0.206171 0.238927
Si Si5 0.800932 0.704215 0.953915
Si Si6 0.417163 0.805824 0.324058
Si Si7 0.097684 0.803341 0.820280
O O1 0.356912 0.716659 0.577968
O O2 0.185817 0.733647 0.557161
O O3 0.341221 0.749421 0.702404
O O4 0.301875 0.000000 0.607850
O O5 0.610430 0.729454 0.151497
O O6 0.455324 0.796910 0.145602
O O7 0.514058 0.000000 0.080393
O O8 0.413122 0.729196 0.008642
O O9 0.413804 0.500000 0.513809
O O10 0.512077 0.768489 0.583669
O O11 0.803188 0.267972 0.284998
O O12 0.694805 0.000000 0.234741
O O13 0.810589 0.500000 0.952625
O O14 0.712871 0.755335 0.866627
O O15 0.750000 0.750000 0.000000
O O16 0.444954 0.706917 0.270594
O O17 0.431861 0.000000 0.312991
O O18 0.097511 0.000000 0.841473
#
# Coordination Sequence:
#
# PCOD9183492 Si02
#       7
#     8   8   8   8   8   8   8
#     4   9  19  36  59  86 112 139 172 212 259 312
#     4   9  17  32  56  83 110 139 172 214 263 315
#     4  10  20  36  59  84 110 139 174 215 259 312
#     4  10  21  37  55  76 106 142 177 213 259 315
#     4   8  15  28  49  79 108 135 170 212 259 311
#     4  12  25  38  52  73 105 142 182 225 268 314
#     4  10  19  33  55  80 107 139 177 219 263 315
#
# _framework density 25.506195000000002
#
# number of rings (size 3 to 8) (size 9 to 14) (size 15 to 20)
#    0.000    2.286    0.000    3.000    0.000    4.000 
#    0.000    3.571    0.000    4.286    0.000    0.000 
#    0.000    0.000    0.000    0.000    0.000    0.000 
#
# Total GULP energy -156474.520770 kJ/mol
# GULP energy per Si atom -5588.375742 kJ/mol
# Density = 2.544814 g / cm^3
# Si number density = 25.506195 Si / 1000 Ang^3
#
#
#
# Elastic Constant Matrix: (Units=GPa)
#
#
# Indices 1 2 3 4 5 6 
#
# 1 96.6080 -0.7949 27.7544 0.0000 29.7661 0.0000
# 2 -0.7949 37.7375 1.1061 0.0000 0.1324 0.0000
# 3 27.7544 1.1061 181.5114 0.0000 37.2356 0.0000
# 4 0.0000 0.0000 0.0000 9.7507 0.0000 6.3359
# 5 29.7661 0.1324 37.2356 0.0000 56.5633 0.0000
# 6 0.0000 0.0000 0.0000 6.3359 0.0000 16.9009
#
#
#
# Elastic Compliance Matrix: (Units=1/GPa)
#
#
# Indices 1 2 3 4 5 6 
#
# 1 0.012423 0.000302 -0.000648 0.000000 -0.006112 0.000000
# 2 0.000302 0.026511 -0.000188 0.000000 -0.000097 0.000000
# 3 -0.000648 -0.000188 0.006404 0.000000 -0.003875 0.000000
# 4 0.000000 0.000000 0.000000 0.135584 0.000000 -0.050829
# 5 -0.006112 -0.000097 -0.003875 0.000000 0.023447 0.000000
# 6 0.000000 0.000000 0.000000 -0.050829 0.000000 0.078223
#
#
# Mechanical properties :
#
#
# Convention : Reuss Voigt Hill
#
# Bulk Modulus (GPa) = 22.58782 41.33199 31.95990
# Shear Modulus (GPa) = 16.75513 35.82908 26.29210
#
# Velocity S-wave (km/s) = 2.56579 3.75203 3.21411
# Velocity P-wave (km/s) = 4.20152 5.91694 5.13142
#
# Compressibility (1/GPa) = 0.04427165
#
# Stress axis : x y z
#
# Youngs Moduli (GPa) = 80.49739 37.72017 156.14432
#
# Poissons Ratio (x) = -0.01140 0.10112
# Poissons Ratio (y) = -0.02432 0.02932
# Poissons Ratio (z) = 0.05213 0.00708
#
# Static dielectric constant tensor:
#      x y z
#    x 2.070770 0.000000 0.056220 
#    y 0.000000 1.963090 0.000000 
#    z 0.056220 0.000000 2.051450 
# 
# From -- ./inp_files/342234.got.cif
#   From: 2010.05.17/outbox.cif.g08.bks.cpg/sg12_172_cif.got.tgz:342234.got - 2010.06.03 13:09:07.
