data_PCOD9183727
_publ_section_title
;
Structure prediction by ZEFSAII (Michael W. Deem and Ramdas Pophale) SiO2 
 PCOD9183727
Probable space group: C 2/M
;
_chemical_formula_sum "Si O2"
_cell_formula_units_Z 64
_cell_length_a 16.876668
_cell_length_b 21.810518
_cell_length_c 12.403388
_cell_angle_alpha 90.000000
_cell_angle_beta 48.683736
_cell_angle_gamma 90.000000
_cell_volume 3429.077793
_symmetry_space_group_name_H-M "C 2/M"
_symmetry_group_IT_number 12
_symmetry_cell_setting 'monoclinic'
loop_
_space_group_symop_operation_xyz
x,y,z
-x,y,-z
-x,-y,-z
x,-y,z
1/2+x,1/2+y,z
1/2-x,1/2+y,-z
1/2-x,1/2-y,-z
1/2+x,1/2-y,z
loop_
_atom_site_type_symbol
_atom_site_label
_atom_site_fract_x
_atom_site_fract_y
_atom_site_fract_z
Si Si1 0.970126 0.726491 0.824193
Si Si2 0.667891 0.298378 0.627161
Si Si3 0.390633 0.071396 0.640357
Si Si4 0.209902 0.352356 0.085333
Si Si5 0.388982 0.307225 0.076790
Si Si6 0.924190 0.599081 0.219694
Si Si7 0.657307 0.930102 0.937268
Si Si8 0.241340 0.568715 0.455608
O O1 0.865569 0.707152 0.854391
O O2 0.047968 0.777912 0.707010
O O3 0.044461 0.667715 0.774560
O O4 0.927150 0.746911 0.979135
O O5 0.750000 0.250000 0.500000
O O6 0.668068 0.294779 0.758616
O O7 0.693751 0.369294 0.576424
O O8 0.500000 0.099411 0.500000
O O9 0.354663 0.101407 0.781961
O O10 0.303417 0.076748 0.625275
O O11 0.408597 0.000000 0.644840
O O12 0.315761 0.339632 0.055129
O O13 0.219178 0.383803 0.960242
O O14 0.500000 0.341591 0.000000
O O15 0.854592 0.594070 0.173984
O O16 0.859586 0.569822 0.374796
O O17 0.036932 0.569471 0.090441
O O18 0.697315 0.000000 0.902380
O O19 0.289950 0.500000 0.420014
#
# Coordination Sequence:
#
# PCOD9183727 Si02
#       8
#     8   8   8   8   8   8   8   8
#     4  10  22  36  59  85 122 156 203 253 309 357
#     4  11  22  37  59  86 120 161 202 253 294 356
#     4  10  20  33  52  82 123 162 197 248 312 366
#     4  11  21  35  58  85 117 157 199 249 307 367
#     4  10  23  40  59  83 120 157 198 255 309 364
#     4  10  19  33  55  86 120 160 197 245 305 362
#     4  10  20  31  52  84 122 156 198 247 296 363
#     4  11  21  36  58  84 121 164 203 245 298 362
#
# _framework density 18.663910000000001
#
# number of rings (size 3 to 8) (size 9 to 14) (size 15 to 20)
#    0.000    1.625    2.500    3.750   10.500    1.000 
#    0.000    0.000    0.000   12.375    0.000    0.000 
#    0.000    9.000    0.000    0.000    0.000    0.000 
#
# Total GULP energy -178382.329159 kJ/mol
# GULP energy per Si atom -5574.447786 kJ/mol
# Density = 1.862143 g / cm^3
# Si number density = 18.663910 Si / 1000 Ang^3
#
#
#
# Elastic Constant Matrix: (Units=GPa)
#
#
# Indices 1 2 3 4 5 6 
#
# 1 105.5250 21.5103 8.1196 0.0000 1.9848 0.0000
# 2 21.5103 90.5929 12.0581 0.0000 -13.7093 0.0000
# 3 8.1196 12.0581 61.8771 0.0000 8.7624 0.0000
# 4 0.0000 0.0000 0.0000 21.7776 0.0000 0.1715
# 5 1.9848 -13.7093 8.7624 0.0000 21.8955 0.0000
# 6 0.0000 0.0000 0.0000 0.1715 0.0000 16.6952
#
#
#
# Elastic Compliance Matrix: (Units=1/GPa)
#
#
# Indices 1 2 3 4 5 6 
#
# 1 0.010109 -0.002707 -0.000455 0.000000 -0.002429 0.000000
# 2 -0.002707 0.013757 -0.003795 0.000000 0.010378 0.000000
# 3 -0.000455 -0.003795 0.018330 0.000000 -0.009670 0.000000
# 4 0.000000 0.000000 0.000000 0.045922 0.000000 -0.000472
# 5 -0.002429 0.010378 -0.009670 0.000000 0.056260 0.000000
# 6 0.000000 0.000000 0.000000 -0.000472 0.000000 0.059902
#
#
# Mechanical properties :
#
#
# Convention : Reuss Voigt Hill
#
# Bulk Modulus (GPa) = 35.35973 37.93012 36.64492
# Shear Modulus (GPa) = 21.96629 26.49412 24.23021
#
# Velocity S-wave (km/s) = 3.43438 3.77176 3.60702
# Velocity P-wave (km/s) = 5.89179 6.27177 6.08475
#
# Compressibility (1/GPa) = 0.02828076
#
# Stress axis : x y z
#
# Youngs Moduli (GPa) = 98.92174 72.69124 54.55613
#
# Poissons Ratio (x) = 0.19680 0.02482
# Poissons Ratio (y) = 0.26782 0.20705
# Poissons Ratio (z) = 0.04500 0.27587
#
# Static dielectric constant tensor:
#      x y z
#    x 1.687110 0.000000 -0.008280 
#    y 0.000000 1.702710 0.000000 
#    z -0.008280 0.000000 1.653180 
# 
# From -- ./inp_files/159514.got.cif
#   From: 2010.05.17/outbox.cif.g08.bks.cpg/sg12_80_cif.got.tgz:159514.got - 2010.06.03 13:09:07.
