data_PCOD9183717
_publ_section_title
;
Structure prediction by ZEFSAII (Michael W. Deem and Ramdas Pophale) SiO2 
 PCOD9183717
Probable space group: C 2/M
;
_chemical_formula_sum "Si O2"
_cell_formula_units_Z 64
_cell_length_a 30.468099
_cell_length_b 8.732582
_cell_length_c 18.843291
_cell_angle_alpha 90.000000
_cell_angle_beta 39.878126
_cell_angle_gamma 90.000000
_cell_volume 3214.467000
_symmetry_space_group_name_H-M "C 2/M"
_symmetry_group_IT_number 12
_symmetry_cell_setting 'monoclinic'
loop_
_space_group_symop_operation_xyz
x,y,z
-x,y,-z
-x,-y,-z
x,-y,z
1/2+x,1/2+y,z
1/2-x,1/2+y,-z
1/2-x,1/2-y,-z
1/2+x,1/2-y,z
loop_
_atom_site_type_symbol
_atom_site_label
_atom_site_fract_x
_atom_site_fract_y
_atom_site_fract_z
Si Si1 0.566315 0.815091 0.706331
Si Si2 0.708861 0.681509 0.753915
Si Si3 0.430397 0.819820 0.547972
Si Si4 0.578760 0.814321 0.170187
Si Si5 0.651761 0.318122 0.479883
Si Si6 0.335697 0.180195 0.801577
Si Si7 0.432861 0.184872 0.128330
Si Si8 0.202651 0.681593 0.916632
O O1 0.496631 0.760221 0.754794
O O2 0.628255 0.744056 0.585406
O O3 0.561622 0.776586 0.795210
O O4 0.570358 0.000000 0.696209
O O5 0.712639 0.500000 0.742111
O O6 0.774051 0.754432 0.633846
O O7 0.636745 0.743456 0.814681
O O8 0.712418 0.729169 0.831705
O O9 0.500000 0.764217 0.500000
O O10 0.402943 0.738723 0.511659
O O11 0.371793 0.808246 0.680411
O O12 0.441503 0.000000 0.516709
O O13 0.610685 0.766827 0.205424
O O14 0.575443 0.000000 0.176023
O O15 0.632575 0.773685 0.042216
O O16 0.653512 0.500000 0.477486
O O17 0.266564 0.276447 0.887038
O O18 0.320301 0.000000 0.833400
O O19 0.428139 0.000000 0.128074
O O20 0.500000 0.232222 0.000000
O O21 0.201346 0.500000 0.904337
#
# Coordination Sequence:
#
# PCOD9183717 Si02
#       8
#     8   8   8   8   8   8   8   8
#     4  10  21  41  67  92 122 161 204 249 305 374
#     4  12  25  42  65  91 124 167 213 259 314 376
#     4  10  20  36  60  86 119 166 214 257 308 371
#     4   9  19  36  60  89 121 163 207 248 303 372
#     4  12  25  41  62  90 126 163 208 263 314 366
#     4  10  19  33  55  85 121 161 207 251 302 367
#     4  10  22  43  72 102 129 160 202 252 311 374
#     4  11  21  36  59  88 124 162 206 258 311 366
#
# _framework density 19.909987999999998
#
# number of rings (size 3 to 8) (size 9 to 14) (size 15 to 20)
#    0.000    1.500    1.250    4.500    0.000    5.500 
#    0.000    5.000    0.000    0.000    0.000    0.000 
#    0.000    0.000    0.000    0.000    0.000    0.000 
#
# Total GULP energy -178890.827097 kJ/mol
# GULP energy per Si atom -5590.338347 kJ/mol
# Density = 1.986467 g / cm^3
# Si number density = 19.909988 Si / 1000 Ang^3
#
#
#
# Elastic Constant Matrix: (Units=GPa)
#
#
# Indices 1 2 3 4 5 6 
#
# 1 118.3899 40.6518 59.9573 0.0044 0.8089 -0.0008
# 2 40.6518 49.9978 42.9344 0.0114 4.8694 -0.0061
# 3 59.9573 42.9344 105.2320 0.0018 16.9271 -0.0025
# 4 0.0044 0.0114 0.0018 25.6324 -0.0022 -2.1951
# 5 0.8089 4.8694 16.9271 -0.0022 29.6233 0.0006
# 6 -0.0008 -0.0061 -0.0025 -2.1951 0.0006 30.6198
#
#
#
# Elastic Compliance Matrix: (Units=1/GPa)
#
#
# Indices 1 2 3 4 5 6 
#
# 1 0.013536 -0.006499 -0.005697 0.000001 0.003954 -0.000001
# 2 -0.006499 0.034055 -0.010263 -0.000013 0.000444 0.000005
# 3 -0.005697 -0.010263 0.018324 0.000004 -0.008628 0.000000
# 4 0.000001 -0.000013 0.000004 0.039254 0.000003 0.002814
# 5 0.003954 0.000444 -0.008628 0.000003 0.038506 -0.000001
# 6 -0.000001 0.000005 0.000000 0.002814 -0.000001 0.032860
#
#
# Mechanical properties :
#
#
# Convention : Reuss Voigt Hill
#
# Bulk Modulus (GPa) = 47.62494 62.30071 54.96283
# Shear Modulus (GPa) = 21.88642 25.84685 23.86663
#
# Velocity S-wave (km/s) = 3.31912 3.60694 3.46602
# Velocity P-wave (km/s) = 6.21778 6.97896 6.60933
#
# Compressibility (1/GPa) = 0.02099740
#
# Stress axis : x y z
#
# Youngs Moduli (GPa) = 73.87480 29.36455 54.57403
#
# Poissons Ratio (x) = 0.19084 0.31091
# Poissons Ratio (y) = 0.48011 0.56008
# Poissons Ratio (z) = 0.42086 0.30136
#
# Static dielectric constant tensor:
#      x y z
#    x 1.704830 0.000000 -0.001770 
#    y 0.000000 1.673440 0.000000 
#    z -0.001770 0.000000 1.691950 
# 
# From -- ./inp_files/295622.got.cif
#   From: 2010.05.17/outbox.cif.g08.bks.cpg/sg12_148_cif.got.tgz:295622.got - 2010.06.03 13:09:07.
