data_PCOD9183612
_publ_section_title
;
Structure prediction by ZEFSAII (Michael W. Deem and Ramdas Pophale) SiO2 
 PCOD9183612
Probable space group: C 2/M
;
_chemical_formula_sum "Si O2"
_cell_formula_units_Z 56
_cell_length_a 29.206917
_cell_length_b 8.866652
_cell_length_c 14.528360
_cell_angle_alpha 90.000000
_cell_angle_beta 120.259117
_cell_angle_gamma 90.000000
_cell_volume 3249.770668
_symmetry_space_group_name_H-M "C 2/M"
_symmetry_group_IT_number 12
_symmetry_cell_setting 'monoclinic'
loop_
_space_group_symop_operation_xyz
x,y,z
-x,y,-z
-x,-y,-z
x,-y,z
1/2+x,1/2+y,z
1/2-x,1/2+y,-z
1/2-x,1/2-y,-z
1/2+x,1/2-y,z
loop_
_atom_site_type_symbol
_atom_site_label
_atom_site_fract_x
_atom_site_fract_y
_atom_site_fract_z
Si Si1 0.057698 0.179836 0.517069
Si Si2 0.255456 0.179573 0.902917
Si Si3 0.414170 0.831082 0.149579
Si Si4 0.862461 0.823842 0.934832
Si Si5 0.946553 0.681983 0.889283
Si Si6 0.848893 0.325974 0.269490
Si Si7 0.463431 0.176735 0.694231
O O1 0.105795 0.257929 0.619676
O O2 0.059748 0.227330 0.412423
O O3 0.000000 0.226889 0.500000
O O4 0.061598 0.000000 0.531511
O O5 0.308278 0.240325 0.907201
O O6 0.204754 0.231157 0.792216
O O7 0.257626 0.000000 0.914396
O O8 0.250000 0.250000 0.000000
O O9 0.373422 0.824918 0.191668
O O10 0.472897 0.812941 0.247472
O O11 0.411545 0.000000 0.103691
O O12 0.400243 0.707359 0.060785
O O13 0.895011 0.753627 0.883534
O O14 0.852751 0.000000 0.912005
O O15 0.943843 0.500000 0.891692
O O16 0.950259 0.723074 0.785380
O O17 0.000000 0.726395 0.000000
O O18 0.837900 0.500000 0.282936
O O19 0.448986 0.000000 0.668100
#
# Coordination Sequence:
#
# PCOD9183612 Si02
#       7
#     8   8   8   8   8   8   8
#     4  11  23  36  54  83 120 155 190 236 286 338
#     4  12  24  39  59  84 116 152 192 236 288 343
#     4  10  19  33  55  82 115 153 191 235 279 336
#     4  12  24  36  55  84 119 155 192 235 285 344
#     4  10  20  37  59  83 114 153 195 239 288 343
#     4  11  22  37  59  84 115 153 194 235 284 342
#     4  10  20  36  58  82 112 154 197 235 282 339
#
# _framework density 17.231985999999999
#
# number of rings (size 3 to 8) (size 9 to 14) (size 15 to 20)
#    0.000    1.143    4.286    3.429    0.000    2.571 
#    0.000    0.000    0.000    0.857    0.000    0.000 
#    0.000    0.000    0.000    0.000    0.000    0.000 
#
# Total GULP energy -156395.085037 kJ/mol
# GULP energy per Si atom -5585.538751 kJ/mol
# Density = 1.719277 g / cm^3
# Si number density = 17.231986 Si / 1000 Ang^3
#
#
#
# Elastic Constant Matrix: (Units=GPa)
#
#
# Indices 1 2 3 4 5 6 
#
# 1 98.3223 45.4301 32.1625 0.0000 3.4900 0.0000
# 2 45.4301 90.6252 38.6436 0.0000 4.1637 0.0000
# 3 32.1625 38.6436 85.1710 0.0000 0.6643 0.0000
# 4 0.0000 0.0000 0.0000 29.5990 0.0000 2.5466
# 5 3.4900 4.1637 0.6643 0.0000 26.3168 0.0000
# 6 0.0000 0.0000 0.0000 2.5466 0.0000 25.5970
#
#
#
# Elastic Compliance Matrix: (Units=1/GPa)
#
#
# Indices 1 2 3 4 5 6 
#
# 1 0.013686 -0.005730 -0.002562 0.000000 -0.000844 0.000000
# 2 -0.005730 0.016187 -0.005168 0.000000 -0.001671 0.000000
# 3 -0.002562 -0.005168 0.015047 0.000000 0.000778 0.000000
# 4 0.000000 0.000000 0.000000 0.034077 0.000000 -0.003390
# 5 -0.000844 -0.001671 0.000778 0.000000 0.038355 0.000000
# 6 0.000000 0.000000 0.000000 -0.003390 0.000000 0.039404
#
#
# Mechanical properties :
#
#
# Convention : Reuss Voigt Hill
#
# Bulk Modulus (GPa) = 55.55014 56.28785 55.91900
# Shear Modulus (GPa) = 26.36086 26.82804 26.59445
#
# Velocity S-wave (km/s) = 3.91546 3.95001 3.93277
# Velocity P-wave (km/s) = 7.26276 7.31704 7.28995
#
# Compressibility (1/GPa) = 0.01800175
#
# Stress axis : x y z
#
# Youngs Moduli (GPa) = 73.06748 61.77811 66.45775
#
# Poissons Ratio (x) = 0.35396 0.17026
# Poissons Ratio (y) = 0.41864 0.34343
# Poissons Ratio (z) = 0.18720 0.31925
#
# Static dielectric constant tensor:
#      x y z
#    x 1.578820 0.000000 -0.002130 
#    y 0.000000 1.593920 0.000000 
#    z -0.002130 0.000000 1.573440 
# 
# From -- ./inp_files/243621.got.cif
#   From: 2010.05.17/outbox.cif.g08.bks.cpg/sg12_122_cif.got.tgz:243621.got - 2010.06.03 13:09:07.
