data_PCOD9183470
_publ_section_title
;
Structure prediction by ZEFSAII (Michael W. Deem and Ramdas Pophale) SiO2 
 PCOD9183470
Probable space group: C 2/M
;
_chemical_formula_sum "Si O2"
_cell_formula_units_Z 48
_cell_length_a 13.101647
_cell_length_b 26.756689
_cell_length_c 14.814710
_cell_angle_alpha 90.000000
_cell_angle_beta 27.923550
_cell_angle_gamma 90.000000
_cell_volume 2432.031009
_symmetry_space_group_name_H-M "C 2/M"
_symmetry_group_IT_number 12
_symmetry_cell_setting 'monoclinic'
loop_
_space_group_symop_operation_xyz
x,y,z
-x,y,-z
-x,-y,-z
x,-y,z
1/2+x,1/2+y,z
1/2-x,1/2+y,-z
1/2-x,1/2-y,-z
1/2+x,1/2-y,z
loop_
_atom_site_type_symbol
_atom_site_label
_atom_site_fract_x
_atom_site_fract_y
_atom_site_fract_z
Si Si1 0.558840 0.722627 0.051803
Si Si2 0.079201 0.196234 0.229020
Si Si3 0.822400 0.060103 0.002470
Si Si4 0.216254 0.438993 0.286006
Si Si5 0.270509 0.690002 0.626952
Si Si6 0.575969 0.112914 0.034334
O O1 0.562885 0.686844 0.134593
O O2 0.379184 0.764483 0.220501
O O3 0.500000 0.701669 0.000000
O O4 0.791987 0.751056 0.862816
O O5 0.853414 0.195097 0.459094
O O6 0.249528 0.155312 0.132265
O O7 0.729071 0.077498 0.172212
O O8 0.697330 0.080113 0.013678
O O9 0.809999 0.000000 0.010182
O O10 0.076029 0.073833 0.815438
O O11 0.212285 0.500000 0.286173
O O12 0.000000 0.419589 0.500000
O O13 0.500000 0.689729 0.500000
O O14 0.125498 0.641283 0.760184
O O15 0.500000 0.087973 0.000000
#
# Coordination Sequence:
#
# PCOD9183470 Si02
#       6
#     8   8   8   8   8   8
#     4  10  19  33  55  80 104 135 181 232 273 322
#     4  10  20  35  53  76 106 143 182 226 272 327
#     4   9  19  35  57  83 109 142 186 230 274 330
#     4   8  15  33  59  82 104 134 173 221 280 337
#     4  11  18  35  57  75 104 152 192 218 267 330
#     4  11  22  36  54  77 111 152 187 227 276 324
#
# _framework density 19.73659
#
# number of rings (size 3 to 8) (size 9 to 14) (size 15 to 20)
#    0.000    2.167    3.333    2.500    0.000    1.667 
#    3.000    0.000    0.000    1.500    0.000    0.000 
#    0.000    0.000    0.000    0.000    0.000    0.000 
#
# Total GULP energy -133876.621436 kJ/mol
# GULP energy per Si atom -5578.192560 kJ/mol
# Density = 1.969167 g / cm^3
# Si number density = 19.736590 Si / 1000 Ang^3
#
#
#
# Elastic Constant Matrix: (Units=GPa)
#
#
# Indices 1 2 3 4 5 6 
#
# 1 177.6286 23.9913 51.2091 -0.0044 2.3033 0.0048
# 2 23.9913 22.0233 16.5988 -0.0002 -0.5455 0.0006
# 3 51.2091 16.5988 144.3199 -0.0046 6.1541 0.0094
# 4 -0.0044 -0.0002 -0.0046 9.6849 0.0028 -5.2010
# 5 2.3033 -0.5455 6.1541 0.0028 19.7906 -0.0065
# 6 0.0048 0.0006 0.0094 -5.2010 -0.0065 33.7678
#
#
#
# Elastic Compliance Matrix: (Units=1/GPa)
#
#
# Indices 1 2 3 4 5 6 
#
# 1 0.006989 -0.006317 -0.001734 0.000002 -0.000448 0.000000
# 2 -0.006317 0.055626 -0.004310 -0.000004 0.003609 0.000001
# 3 -0.001734 -0.004310 0.008145 0.000003 -0.002450 -0.000002
# 4 0.000002 -0.000004 0.000003 0.112564 -0.000011 0.017338
# 5 -0.000448 0.003609 -0.002450 -0.000011 0.051442 0.000009
# 6 0.000000 0.000001 -0.000002 0.017338 0.000009 0.032284
#
#
# Mechanical properties :
#
#
# Convention : Reuss Voigt Hill
#
# Bulk Modulus (GPa) = 21.72195 58.61891 40.17043
# Shear Modulus (GPa) = 16.28031 29.46016 22.87023
#
# Velocity S-wave (km/s) = 2.87519 3.86770 3.40777
# Velocity P-wave (km/s) = 4.69597 7.05057 5.99010
#
# Compressibility (1/GPa) = 0.04603638
#
# Stress axis : x y z
#
# Youngs Moduli (GPa) = 143.08783 17.97712 122.78151
#
# Poissons Ratio (x) = 0.11357 0.21292
# Poissons Ratio (y) = 0.90394 0.52920
# Poissons Ratio (z) = 0.24813 0.07748
#
# Static dielectric constant tensor:
#      x y z
#    x 1.745800 0.000000 0.017480 
#    y 0.000000 1.706010 0.000000 
#    z 0.017480 0.000000 1.688870 
# 
# From -- ./inp_files/209292.got.cif
#   From: 2010.05.17/outbox.cif.g08.bks.cpg/sg12_105_cif.got.tgz:209292.got - 2010.06.03 13:09:07.
