data_PCOD9183421
_publ_section_title
;
Structure prediction by ZEFSAII (Michael W. Deem and Ramdas Pophale) SiO2 
 PCOD9183421
Probable space group: C 2/M
;
_chemical_formula_sum "Si O2"
_cell_formula_units_Z 58
_cell_length_a 22.784819
_cell_length_b 9.685268
_cell_length_c 20.568004
_cell_angle_alpha 90.000000
_cell_angle_beta 136.133019
_cell_angle_gamma 90.000000
_cell_volume 3145.387285
_symmetry_space_group_name_H-M "C 2/M"
_symmetry_group_IT_number 12
_symmetry_cell_setting 'monoclinic'
loop_
_space_group_symop_operation_xyz
x,y,z
-x,y,-z
-x,-y,-z
x,-y,z
1/2+x,1/2+y,z
1/2-x,1/2+y,-z
1/2-x,1/2-y,-z
1/2+x,1/2-y,z
loop_
_atom_site_type_symbol
_atom_site_label
_atom_site_fract_x
_atom_site_fract_y
_atom_site_fract_z
Si Si1 0.000000 0.000000 0.500000
Si Si2 0.181478 0.342403 0.585408
Si Si3 0.111559 0.764159 0.658811
Si Si4 0.179920 0.661789 0.980595
Si Si5 0.985456 0.335079 0.792219
Si Si6 0.860468 0.168030 0.780199
Si Si7 0.299712 0.838570 0.851378
Si Si8 0.040755 0.665708 0.376358
O O1 0.939634 0.117772 0.418617
O O2 0.194012 0.500000 0.575135
O O3 0.136990 0.338435 0.620484
O O4 0.275492 0.285893 0.672371
O O5 0.118070 0.276447 0.482145
O O6 0.199408 0.815762 0.759684
O O7 0.048050 0.705718 0.661842
O O8 0.200537 0.500000 0.989537
O O9 0.179326 0.691317 0.057103
O O10 0.250000 0.750000 0.000000
O O11 0.086222 0.684237 0.877665
O O12 0.968428 0.500000 0.788994
O O13 0.938639 0.239443 0.806829
O O14 0.955653 0.294411 0.695986
O O15 0.847556 0.235619 0.840686
O O16 0.864218 0.000000 0.785511
O O17 0.319961 0.000000 0.853734
O O18 0.044982 0.500000 0.381972
#
# Coordination Sequence:
#
# PCOD9183421 Si02
#       8
#     2   8   8   8   8   8   8   8
#     4  12  20  28  46  80 124 138 176 220 272 322
#     4   9  18  33  54  77 107 139 181 224 268 322
#     4  11  19  32  50  82 114 142 178 222 270 328
#     4  10  22  40  61  87 114 143 179 222 271 327
#     4  10  22  40  58  80 110 144 185 228 272 322
#     4  10  22  39  57  82 109 143 185 231 272 321
#     4  10  21  37  59  81 110 149 184 221 274 325
#     4  10  19  33  55  78 106 146 183 222 273 326
#
# _framework density 18.439700999999999
#
# number of rings (size 3 to 8) (size 9 to 14) (size 15 to 20)
#    0.000    1.931    2.069    1.655    0.000    3.862 
#    1.241    2.759    0.000    0.000    0.000    0.000 
#    0.000    0.000    0.000    0.000    0.000    0.000 
#
# Total GULP energy -161441.051875 kJ/mol
# GULP energy per Si atom -5566.932823 kJ/mol
# Density = 1.839773 g / cm^3
# Si number density = 18.439701 Si / 1000 Ang^3
#
#
#
# Elastic Constant Matrix: (Units=GPa)
#
#
# Indices 1 2 3 4 5 6 
#
# 1 102.2125 55.3986 30.6704 0.0000 -1.1389 0.0000
# 2 55.3986 64.7904 34.1996 0.0000 -4.0858 0.0000
# 3 30.6704 34.1996 59.9953 0.0000 -16.9972 0.0000
# 4 0.0000 0.0000 0.0000 23.6053 0.0000 2.4027
# 5 -1.1389 -4.0858 -16.9972 0.0000 18.3201 0.0000
# 6 0.0000 0.0000 0.0000 2.4027 0.0000 34.1993
#
#
#
# Elastic Compliance Matrix: (Units=1/GPa)
#
#
# Indices 1 2 3 4 5 6 
#
# 1 0.018465 -0.014946 -0.002087 0.000000 -0.004122 0.000000
# 2 -0.014946 0.035370 -0.014312 0.000000 -0.006319 0.000000
# 3 -0.002087 -0.014312 0.033850 0.000000 0.028084 0.000000
# 4 0.000000 0.000000 0.000000 0.042669 0.000000 -0.002998
# 5 -0.004122 -0.006319 0.028084 0.000000 0.078975 0.000000
# 6 0.000000 0.000000 0.000000 -0.002998 0.000000 0.029451
#
#
# Mechanical properties :
#
#
# Convention : Reuss Voigt Hill
#
# Bulk Modulus (GPa) = 40.01015 51.94837 45.97926
# Shear Modulus (GPa) = 16.13940 22.34025 19.23983
#
# Velocity S-wave (km/s) = 2.96168 3.48448 3.23366
# Velocity P-wave (km/s) = 5.78276 6.66498 6.23948
#
# Compressibility (1/GPa) = 0.02499366
#
# Stress axis : x y z
#
# Youngs Moduli (GPa) = 54.15730 28.27242 29.54250
#
# Poissons Ratio (x) = 0.42257 0.06166
# Poissons Ratio (y) = 0.80945 0.42281
# Poissons Ratio (z) = 0.11304 0.40463
#
# Static dielectric constant tensor:
#      x y z
#    x 1.619620 0.000000 -0.002880 
#    y 0.000000 1.630840 0.000000 
#    z -0.002880 0.000000 1.663010 
# 
# From -- ./inp_files/324629.got.cif
#   From: 2010.05.17/outbox.cif.g08.bks.cpg/sg12_163_cif.got.tgz:324629.got - 2010.06.03 13:09:07.
