data_PCOD9183212
_publ_section_title
;
Structure prediction by ZEFSAII (Michael W. Deem and Ramdas Pophale) SiO2 
 PCOD9183212
Probable space group: C 2/M
;
_chemical_formula_sum "Si O2"
_cell_formula_units_Z 56
_cell_length_a 26.273749
_cell_length_b 11.369084
_cell_length_c 32.149392
_cell_angle_alpha 90.000000
_cell_angle_beta 162.080490
_cell_angle_gamma 90.000000
_cell_volume 2954.747974
_symmetry_space_group_name_H-M "C 2/M"
_symmetry_group_IT_number 12
_symmetry_cell_setting 'monoclinic'
loop_
_space_group_symop_operation_xyz
x,y,z
-x,y,-z
-x,-y,-z
x,-y,z
1/2+x,1/2+y,z
1/2-x,1/2+y,-z
1/2-x,1/2-y,-z
1/2+x,1/2-y,z
loop_
_atom_site_type_symbol
_atom_site_label
_atom_site_fract_x
_atom_site_fract_y
_atom_site_fract_z
Si Si1 0.417087 0.630807 0.032352
Si Si2 0.459488 0.862048 0.244848
Si Si3 0.399016 0.131439 0.964436
Si Si4 0.253125 0.303935 0.675133
Si Si5 0.090334 0.368249 0.628869
Si Si6 0.454390 0.724184 0.325515
Si Si7 0.712066 0.862641 0.372386
O O1 0.414184 0.500000 0.009097
O O2 0.572870 0.632292 0.184116
O O3 0.238335 0.643510 0.914957
O O4 0.436004 0.748821 0.019074
O O5 0.496226 0.788089 0.314857
O O6 0.565102 0.817425 0.287932
O O7 0.501937 0.000000 0.284802
O O8 0.202322 0.140364 0.803039
O O9 0.434433 0.000000 0.010259
O O10 0.500000 0.138460 0.000000
O O11 0.183218 0.286930 0.667506
O O12 0.283653 0.193161 0.669758
O O13 0.101899 0.369289 0.534403
O O14 0.157733 0.500000 0.677056
O O15 0.103162 0.320478 0.685136
O O16 0.614986 0.664024 0.470029
O O17 0.689167 0.000000 0.350285
#
# Coordination Sequence:
#
# PCOD9183212 Si02
#       7
#     8   8   8   8   8   8   8
#     4  10  20  35  56  79 106 141 182 227 270 318
#     4   9  19  35  55  80 107 136 176 227 275 317
#     4  10  21  35  52  78 112 146 178 218 271 327
#     4  10  20  33  51  76 106 142 178 214 264 320
#     4  10  19  33  54  80 109 136 171 225 276 317
#     4  10  19  34  57  81 104 138 179 219 269 327
#     4  10  21  36  53  75 107 144 181 223 267 318
#
# _framework density 18.952546999999999
#
# number of rings (size 3 to 8) (size 9 to 14) (size 15 to 20)
#    0.000    2.143    0.000    3.857    0.000    2.000 
#    0.000    6.429    0.000   16.286    0.000    0.000 
#    0.000    0.000    0.000    0.000    0.000    0.000 
#
# Total GULP energy -155996.489413 kJ/mol
# GULP energy per Si atom -5571.303193 kJ/mol
# Density = 1.890941 g / cm^3
# Si number density = 18.952547 Si / 1000 Ang^3
#
#
#
# Elastic Constant Matrix: (Units=GPa)
#
#
# Indices 1 2 3 4 5 6 
#
# 1 115.2290 60.2806 20.3824 0.0221 15.8930 0.0348
# 2 60.2806 104.4235 31.9364 -0.0683 6.9416 -0.0999
# 3 20.3824 31.9364 65.3420 -0.7788 1.1524 -1.1516
# 4 0.0221 -0.0683 -0.7788 358.1088 0.0894 535.5402
# 5 15.8930 6.9416 1.1524 0.0894 16.9985 0.1448
# 6 0.0348 -0.0999 -1.1516 535.5402 0.1448 828.4176
#
#
#
# Elastic Compliance Matrix: (Units=1/GPa)
#
#
# Indices 1 2 3 4 5 6 
#
# 1 0.013935 -0.007173 -0.000664 -0.000007 -0.010055 0.000004
# 2 -0.007173 0.015264 -0.005238 -0.000010 0.000828 0.000001
# 3 -0.000664 -0.005238 0.018044 0.000051 0.001536 -0.000009
# 4 -0.000007 -0.000010 0.000051 0.084016 0.000028 -0.054313
# 5 -0.010055 0.000828 0.001536 0.000028 0.067787 -0.000027
# 6 0.000004 0.000001 -0.000009 -0.054313 -0.000027 0.036318
#
#
# Mechanical properties :
#
#
# Convention : Reuss Voigt Hill
#
# Bulk Modulus (GPa) = 47.40474 56.68816 52.04645
# Shear Modulus (GPa) = 18.61892 252.19798 135.40845
#
# Velocity S-wave (km/s) = 3.13772 11.54803 8.46175
# Velocity P-wave (km/s) = 6.18010 14.41474 11.09005
#
# Compressibility (1/GPa) = 0.02109494
#
# Stress axis : x y z
#
# Youngs Moduli (GPa) = 71.76198 65.51427 55.41889
#
# Poissons Ratio (x) = 0.46993 0.03678
# Poissons Ratio (y) = 0.51474 0.29026
# Poissons Ratio (z) = 0.04763 0.34314
#
# Static dielectric constant tensor:
#      x y z
#    x 1.640900 0.000000 0.010580 
#    y 0.000000 1.672400 0.000000 
#    z 0.010580 0.000000 1.671170 
# 
# From -- ./inp_files/181947.got.cif
#   From: 2010.05.17/outbox.cif.g08.bks.cpg/sg12_91_cif.got.tgz:181947.got - 2010.06.03 13:09:07.
