data_PCOD9183806
_publ_section_title
;
Structure prediction by ZEFSAII (Michael W. Deem and Ramdas Pophale) SiO2 
 PCOD9183806
Probable space group: C 2/M
;
_chemical_formula_sum "Si O2"
_cell_formula_units_Z 56
_cell_length_a 10.445109
_cell_length_b 22.301555
_cell_length_c 17.738734
_cell_angle_alpha 90.000000
_cell_angle_beta 36.937979
_cell_angle_gamma 90.000000
_cell_volume 2483.185747
_symmetry_space_group_name_H-M "C 2/M"
_symmetry_group_IT_number 12
_symmetry_cell_setting 'monoclinic'
loop_
_space_group_symop_operation_xyz
x,y,z
-x,y,-z
-x,-y,-z
x,-y,z
1/2+x,1/2+y,z
1/2-x,1/2+y,-z
1/2-x,1/2-y,-z
1/2+x,1/2-y,z
loop_
_atom_site_type_symbol
_atom_site_label
_atom_site_fract_x
_atom_site_fract_y
_atom_site_fract_z
Si Si1 0.269322 0.197303 0.584860
Si Si2 0.891405 0.338965 0.969293
Si Si3 0.631620 0.065028 0.640026
Si Si4 0.290548 0.932887 0.235315
Si Si5 0.488719 0.194225 0.327632
Si Si6 0.154962 0.067973 0.625539
Si Si7 0.022966 0.796149 0.897885
O O1 0.500000 0.221732 0.500000
O O2 0.306001 0.190445 0.477531
O O3 0.241177 0.128181 0.625128
O O4 0.085111 0.246583 0.684016
O O5 0.956713 0.272296 0.914515
O O6 0.014255 0.388794 0.865065
O O7 0.638317 0.338769 0.072517
O O8 0.000000 0.345897 0.000000
O O9 0.781251 0.067231 0.643577
O O10 0.506296 0.127131 0.706589
O O11 0.737657 0.064195 0.507890
O O12 0.517117 0.000000 0.700657
O O13 0.092597 0.918848 0.274808
O O14 0.359525 0.000000 0.183728
O O15 0.729865 0.202454 0.240921
O O16 0.180827 0.000000 0.646498
O O17 0.000000 0.806677 0.000000
#
# Coordination Sequence:
#
# PCOD9183806 Si02
#       7
#     8   8   8   8   8   8   8
#     4  10  22  35  53  82 112 145 181 229 291 344
#     4  10  22  37  55  81 111 145 189 237 285 336
#     4   9  18  33  54  81 109 140 182 230 282 339
#     4  10  19  33  56  81 108 145 186 230 280 334
#     4  10  21  36  55  80 111 143 184 235 287 341
#     4   9  18  33  53  79 110 143 182 225 275 340
#     4  10  21  38  59  81 108 150 194 236 286 342
#
# _framework density 22.551677000000002
#
# number of rings (size 3 to 8) (size 9 to 14) (size 15 to 20)
#    0.000    2.286    0.000    2.143    0.000   11.429 
#    0.000    0.714    0.000    2.571    0.000    0.000 
#    0.000    0.000    0.000    0.000    0.000    0.000 
#
# Total GULP energy -155934.030638 kJ/mol
# GULP energy per Si atom -5569.072523 kJ/mol
# Density = 2.250035 g / cm^3
# Si number density = 22.551677 Si / 1000 Ang^3
#
#
#
# Elastic Constant Matrix: (Units=GPa)
#
#
# Indices 1 2 3 4 5 6 
#
# 1 58.2836 38.4943 29.0481 0.0003 -18.7137 0.0000
# 2 38.4943 130.2925 47.3202 0.0027 -25.2339 0.0001
# 3 29.0481 47.3202 82.5986 0.0033 -20.6605 0.0000
# 4 0.0003 0.0027 0.0033 13.2839 -0.0001 -11.3038
# 5 -18.7137 -25.2339 -20.6605 -0.0001 36.8505 0.0001
# 6 0.0000 0.0001 0.0000 -11.3038 0.0001 16.7137
#
#
#
# Elastic Compliance Matrix: (Units=1/GPa)
#
#
# Indices 1 2 3 4 5 6 
#
# 1 0.024412 -0.004259 -0.004389 0.000003 0.007020 0.000002
# 2 -0.004259 0.010997 -0.004024 -0.000003 0.003112 -0.000002
# 3 -0.004389 -0.004024 0.017108 -0.000008 0.004607 -0.000005
# 4 0.000003 -0.000003 -0.000008 0.177337 -0.000004 0.119936
# 5 0.007020 0.003112 0.004607 -0.000004 0.035415 -0.000003
# 6 0.000002 -0.000002 -0.000005 0.119936 -0.000003 0.140946
#
#
# Mechanical properties :
#
#
# Convention : Reuss Voigt Hill
#
# Bulk Modulus (GPa) = 36.80172 55.65555 46.22864
# Shear Modulus (GPa) = 11.34768 23.79044 17.56906
#
# Velocity S-wave (km/s) = 2.24561 3.25149 2.79419
# Velocity P-wave (km/s) = 4.80395 6.23129 5.56358
#
# Compressibility (1/GPa) = 0.02717264
#
# Stress axis : x y z
#
# Youngs Moduli (GPa) = 40.96389 90.93010 58.45097
#
# Poissons Ratio (x) = 0.38724 0.25657
# Poissons Ratio (y) = 0.17445 0.23523
# Poissons Ratio (z) = 0.17981 0.36594
#
# Static dielectric constant tensor:
#      x y z
#    x 1.971540 0.000000 0.034270 
#    y 0.000000 1.852380 0.000000 
#    z 0.034270 0.000000 1.865730 
# 
# From -- ./inp_files/336732.got.cif
#   From: 2010.05.17/outbox.cif.g08.bks.cpg/sg12_169_cif.got.tgz:336732.got - 2010.06.03 13:09:07.
