data_PCOD9183137
_publ_section_title
;
Structure prediction by ZEFSAII (Michael W. Deem and Ramdas Pophale) SiO2 
 PCOD9183137
Probable space group: C 2/M
;
_chemical_formula_sum "Si O2"
_cell_formula_units_Z 48
_cell_length_a 14.330510
_cell_length_b 13.929304
_cell_length_c 13.132891
_cell_angle_alpha 90.000000
_cell_angle_beta 82.909827
_cell_angle_gamma 90.000000
_cell_volume 2601.462941
_symmetry_space_group_name_H-M "C 2/M"
_symmetry_group_IT_number 12
_symmetry_cell_setting 'monoclinic'
loop_
_space_group_symop_operation_xyz
x,y,z
-x,y,-z
-x,-y,-z
x,-y,z
1/2+x,1/2+y,z
1/2-x,1/2+y,-z
1/2-x,1/2-y,-z
1/2+x,1/2-y,z
loop_
_atom_site_type_symbol
_atom_site_label
_atom_site_fract_x
_atom_site_fract_y
_atom_site_fract_z
Si Si1 0.755257 0.394772 0.536300
Si Si2 0.647775 0.259217 0.141663
Si Si3 0.556781 0.284223 0.796828
Si Si4 0.688749 0.614873 0.939888
Si Si5 0.746546 0.787825 0.671863
Si Si6 0.967409 0.106253 0.401300
O O1 0.797437 0.500000 0.550391
O O2 0.783145 0.308474 0.607955
O O3 0.764154 0.363989 0.417501
O O4 0.644240 0.401480 0.572273
O O5 0.537420 0.232424 0.152029
O O6 0.716098 0.168188 0.111353
O O7 0.682470 0.302282 0.244838
O O8 0.666710 0.338446 0.052218
O O9 0.605326 0.351106 0.875233
O O10 0.644042 0.225401 0.737581
O O11 0.518033 0.345350 0.707623
O O12 0.696508 0.500000 0.940215
O O13 0.000000 0.158340 0.500000
O O14 0.011451 0.000000 0.394978
#
# Coordination Sequence:
#
# PCOD9183137 Si02
#       6
#     8   8   8   8   8   8
#     4   9  17  31  49  71 105 143 178 219 264 314
#     4  10  21  36  56  81 110 141 181 231 280 327
#     4  10  19  33  54  78 107 140 181 226 269 316
#     4  10  22  39  58  81 109 143 184 229 278 331
#     4   9  19  33  51  76 106 142 178 218 271 324
#     4   9  16  25  43  73 103 133 172 217 264 310
#
# _framework density 18.451156000000001
#
# number of rings (size 3 to 8) (size 9 to 14) (size 15 to 20)
#    0.000    2.500    0.000    2.000    0.000    6.667 
#    0.000    0.833    0.000   14.000    0.000    0.000 
#    0.000    0.000    0.000    0.000    0.000    0.000 
#
# Total GULP energy -133620.619782 kJ/mol
# GULP energy per Si atom -5567.525824 kJ/mol
# Density = 1.840916 g / cm^3
# Si number density = 18.451156 Si / 1000 Ang^3
#
#
#
# Elastic Constant Matrix: (Units=GPa)
#
#
# Indices 1 2 3 4 5 6 
#
# 1 104.2021 33.6273 44.9287 0.0000 -6.7063 0.0000
# 2 33.6273 49.5196 28.9943 0.0000 3.3617 0.0000
# 3 44.9287 28.9943 112.0264 0.0000 18.1452 0.0000
# 4 0.0000 0.0000 0.0000 -9.1733 0.0000 13.8567
# 5 -6.7063 3.3617 18.1452 0.0000 30.6456 0.0000
# 6 0.0000 0.0000 0.0000 13.8567 0.0000 7.2685
#
#
#
# Elastic Compliance Matrix: (Units=1/GPa)
#
#
# Indices 1 2 3 4 5 6 
#
# 1 0.014644 -0.007444 -0.005086 0.000000 0.007032 0.000000
# 2 -0.007444 0.027622 -0.003770 0.000000 -0.002427 0.000000
# 3 -0.005086 -0.003770 0.013334 0.000000 -0.008594 0.000000
# 4 0.000000 0.000000 0.000000 -0.028098 0.000000 0.053566
# 5 0.007032 -0.002427 -0.008594 0.000000 0.039525 0.000000
# 6 0.000000 0.000000 0.000000 0.053566 0.000000 0.035462
#
#
# Mechanical properties :
#
#
# Convention : Reuss Voigt Hill
#
# Bulk Modulus (GPa) = 43.47917 53.42762 48.45339
# Shear Modulus (GPa) = 35.02495 16.29468 25.65981
#
# Velocity S-wave (km/s) = 4.36162 2.97497 3.73324
# Velocity P-wave (km/s) = 6.99861 6.38903 6.70076
#
# Compressibility (1/GPa) = 0.02299952
#
# Stress axis : x y z
#
# Youngs Moduli (GPa) = 68.28519 36.20359 74.99677
#
# Poissons Ratio (x) = 0.26951 0.38140
# Poissons Ratio (y) = 0.50834 0.28276
# Poissons Ratio (z) = 0.34727 0.13650
#
# Static dielectric constant tensor:
#      x y z
#    x 1.655070 0.000000 -0.014780 
#    y 0.000000 1.674770 0.000000 
#    z -0.014780 0.000000 1.668840 
# 
# From -- ./inp_files/142880.got.cif
#   From: 2010.05.17/outbox.cif.g08.bks.cpg/sg12_72_cif.got.tgz:142880.got - 2010.06.03 13:09:07.
