data_PCOD9183332
_publ_section_title
;
Structure prediction by ZEFSAII (Michael W. Deem and Ramdas Pophale) SiO2 
 PCOD9183332
Probable space group: C 2/M
;
_chemical_formula_sum "Si O2"
_cell_formula_units_Z 56
_cell_length_a 11.548679
_cell_length_b 16.544406
_cell_length_c 29.262539
_cell_angle_alpha 90.000000
_cell_angle_beta 25.098751
_cell_angle_gamma 90.000000
_cell_volume 2371.621381
_symmetry_space_group_name_H-M "C 2/M"
_symmetry_group_IT_number 12
_symmetry_cell_setting 'monoclinic'
loop_
_space_group_symop_operation_xyz
x,y,z
-x,y,-z
-x,-y,-z
x,-y,z
1/2+x,1/2+y,z
1/2-x,1/2+y,-z
1/2-x,1/2-y,-z
1/2+x,1/2-y,z
loop_
_atom_site_type_symbol
_atom_site_label
_atom_site_fract_x
_atom_site_fract_y
_atom_site_fract_z
Si Si1 0.941073 0.759180 0.888133
Si Si2 0.494743 0.823648 0.272302
Si Si3 0.354112 0.342272 0.331697
Si Si4 0.330864 0.091380 0.877970
Si Si5 0.736173 0.665870 0.533425
Si Si6 0.995746 0.089998 0.808254
Si Si7 0.843304 0.411423 0.409505
O O1 0.937770 0.671163 0.865837
O O2 0.227692 0.787654 0.806213
O O3 0.864541 0.834365 0.881996
O O4 0.750000 0.750000 0.000000
O O5 0.360377 0.742722 0.301426
O O6 0.569965 0.891703 0.209334
O O7 0.307430 0.850397 0.381087
O O8 0.418146 0.333696 0.362866
O O9 0.536032 0.399549 0.235143
O O10 0.037320 0.363444 0.440457
O O11 0.412014 0.000000 0.863226
O O12 0.000000 0.095051 0.000000
O O13 0.750000 0.750000 0.500000
O O14 0.665060 0.604776 0.518151
O O15 0.327436 0.093671 0.697684
O O16 0.907032 0.000000 0.854726
O O17 0.794701 0.500000 0.409331
#
# Coordination Sequence:
#
# PCOD9183332 Si02
#       7
#     8   8   8   8   8   8   8
#     4  11  22  37  60  88 118 150 194 249 299 347
#     4  11  20  36  61  84 116 154 195 240 295 353
#     4  10  20  33  57  84 110 153 193 232 290 352
#     4  11  23  39  61  90 119 155 204 249 294 356
#     4  10  19  33  54  83 112 148 189 240 284 344
#     4   9  19  35  56  83 113 148 194 239 286 348
#     4   9  18  32  53  83 110 142 189 240 284 336
#
# _framework density 23.612537
#
# number of rings (size 3 to 8) (size 9 to 14) (size 15 to 20)
#    0.000    1.857    4.286    0.429    0.000    1.714 
#    0.000    3.571    0.000    5.571    0.000    0.000 
#    0.000    0.000    0.000    0.000    0.000    0.000 
#
# Total GULP energy -156098.157953 kJ/mol
# GULP energy per Si atom -5574.934213 kJ/mol
# Density = 2.355879 g / cm^3
# Si number density = 23.612537 Si / 1000 Ang^3
#
#
#
# Elastic Constant Matrix: (Units=GPa)
#
#
# Indices 1 2 3 4 5 6 
#
# 1 84.5856 41.7818 46.8909 0.0046 25.6172 -0.0149
# 2 41.7818 167.1520 35.0151 -0.0689 27.9272 0.0222
# 3 46.8909 35.0151 100.2934 0.0041 32.9926 -0.0626
# 4 0.0046 -0.0689 0.0041 21.2434 -0.0101 3.2080
# 5 25.6172 27.9272 32.9926 -0.0101 37.4374 0.0290
# 6 -0.0149 0.0222 -0.0626 3.2080 0.0290 12.2292
#
#
#
# Elastic Compliance Matrix: (Units=1/GPa)
#
#
# Indices 1 2 3 4 5 6 
#
# 1 0.017784 -0.002348 -0.005729 -0.000015 -0.005369 0.000013
# 2 -0.002348 0.007216 -0.000252 0.000025 -0.003554 -0.000015
# 3 -0.005729 -0.000252 0.016034 -0.000023 -0.010022 0.000105
# 4 -0.000015 0.000025 -0.000023 0.049015 0.000036 -0.012858
# 5 -0.005369 -0.003554 -0.010022 0.000036 0.041868 -0.000160
# 6 0.000013 -0.000015 0.000105 -0.012858 -0.000160 0.085145
#
#
# Mechanical properties :
#
#
# Convention : Reuss Voigt Hill
#
# Bulk Modulus (GPa) = 41.02460 66.60071 53.81266
# Shear Modulus (GPa) = 20.67417 29.40488 25.03953
#
# Velocity S-wave (km/s) = 2.96220 3.53272 3.25996
# Velocity P-wave (km/s) = 5.39549 6.70127 6.08351
#
# Compressibility (1/GPa) = 0.02437562
#
# Stress axis : x y z
#
# Youngs Moduli (GPa) = 56.23018 138.57698 62.36615
#
# Poissons Ratio (x) = 0.32542 0.35728
# Poissons Ratio (y) = 0.13205 0.01574
# Poissons Ratio (z) = 0.32213 0.03498
#
# Static dielectric constant tensor:
#      x y z
#    x 2.021010 0.000020 -0.070230 
#    y 0.000020 1.934860 -0.000040 
#    z -0.070230 -0.000040 1.967810 
# 
# From -- ./inp_files/374191.got.cif
#   From: 2010.05.17/outbox.cif.g08.bks.cpg/sg12_188_cif.got.tgz:374191.got - 2010.06.03 13:09:07.
