data_PCOD9183370
_publ_section_title
;
Structure prediction by ZEFSAII (Michael W. Deem and Ramdas Pophale) SiO2 
 PCOD9183370
Probable space group: C 2/M
;
_chemical_formula_sum "Si O2"
_cell_formula_units_Z 64
_cell_length_a 26.128148
_cell_length_b 14.640216
_cell_length_c 17.592072
_cell_angle_alpha 90.000000
_cell_angle_beta 151.332981
_cell_angle_gamma 90.000000
_cell_volume 3228.193663
_symmetry_space_group_name_H-M "C 2/M"
_symmetry_group_IT_number 12
_symmetry_cell_setting 'monoclinic'
loop_
_space_group_symop_operation_xyz
x,y,z
-x,y,-z
-x,-y,-z
x,-y,z
1/2+x,1/2+y,z
1/2-x,1/2+y,-z
1/2-x,1/2-y,-z
1/2+x,1/2-y,z
loop_
_atom_site_type_symbol
_atom_site_label
_atom_site_fract_x
_atom_site_fract_y
_atom_site_fract_z
Si Si1 0.634964 0.395307 0.920666
Si Si2 0.695792 0.803227 0.599426
Si Si3 0.935023 0.219317 0.700399
Si Si4 0.816686 0.098129 0.193899
Si Si5 0.427022 0.896870 0.137841
Si Si6 0.476740 0.105690 0.371700
Si Si7 0.190165 0.715082 0.757764
Si Si8 0.905146 0.893043 0.815195
O O1 0.638212 0.500000 0.955573
O O2 0.518014 0.351033 0.770276
O O3 0.670531 0.400091 0.879996
O O4 0.710487 0.326658 0.066098
O O5 0.662717 0.740087 0.484894
O O6 0.585250 0.847674 0.484352
O O7 0.730534 0.762633 0.725697
O O8 0.788349 0.873484 0.697773
O O9 0.911273 0.173096 0.750236
O O10 0.995674 0.316716 0.788993
O O11 0.864032 0.191658 0.284760
O O12 0.857495 0.000000 0.274873
O O13 0.691109 0.105596 0.050329
O O14 0.409074 0.884099 0.205056
O O15 0.471173 0.000000 0.184969
O O16 0.402203 0.142046 0.342199
O O17 0.497764 0.000000 0.410550
O O18 0.915038 0.000000 0.806797
O O19 0.000000 0.874126 0.000000
#
# Coordination Sequence:
#
# PCOD9183370 Si02
#       8
#     8   8   8   8   8   8   8   8
#     4  11  21  34  60  94 127 165 209 256 303 352
#     4  11  25  39  59  88 125 164 200 245 308 368
#     4  11  22  41  62  87 122 161 199 247 305 370
#     4  10  19  33  54  84 121 163 209 250 288 340
#     4   9  17  32  56  86 118 155 199 244 290 343
#     4  10  20  34  55  88 127 162 200 245 302 364
#     4  12  21  35  58  90 128 168 204 251 296 358
#     4  11  25  46  70  94 118 149 199 259 317 371
#
# _framework density 19.825329
#
# number of rings (size 3 to 8) (size 9 to 14) (size 15 to 20)
#    0.000    1.375    2.500    4.500    0.000    4.000 
#    0.000    1.250    0.000    4.125    0.000    0.000 
#    0.000    0.000    0.000    0.000    0.000    0.000 
#
# Total GULP energy -178325.431586 kJ/mol
# GULP energy per Si atom -5572.669737 kJ/mol
# Density = 1.978021 g / cm^3
# Si number density = 19.825329 Si / 1000 Ang^3
#
#
#
# Elastic Constant Matrix: (Units=GPa)
#
#
# Indices 1 2 3 4 5 6 
#
# 1 87.6826 37.6466 12.2821 0.0000 -12.8527 0.0000
# 2 37.6466 105.9609 2.7441 0.0000 -12.8180 0.0000
# 3 12.2821 2.7441 11.0142 0.0000 -1.2734 0.0000
# 4 0.0000 0.0000 0.0000 14.9615 0.0000 8.0513
# 5 -12.8527 -12.8180 -1.2734 0.0000 23.2740 0.0000
# 6 0.0000 0.0000 0.0000 8.0513 0.0000 24.5517
#
#
#
# Elastic Compliance Matrix: (Units=1/GPa)
#
#
# Indices 1 2 3 4 5 6 
#
# 1 0.016627 -0.004794 -0.016696 0.000000 0.005628 0.000000
# 2 -0.004794 0.011533 0.002919 0.000000 0.003864 0.000000
# 3 -0.016696 0.002919 0.108488 0.000000 -0.001676 0.000000
# 4 0.000000 0.000000 0.000000 0.081161 0.000000 -0.026615
# 5 0.005628 0.003864 -0.001676 0.000000 0.048111 0.000000
# 6 0.000000 0.000000 0.000000 -0.026615 0.000000 0.049459
#
#
# Mechanical properties :
#
#
# Convention : Reuss Voigt Hill
#
# Bulk Modulus (GPa) = 10.04954 34.44480 22.24717
# Shear Modulus (GPa) = 12.96386 22.68976 17.82681
#
# Velocity S-wave (km/s) = 2.55993 3.38669 3.00191
# Velocity P-wave (km/s) = 3.71722 5.71881 4.82299
#
# Compressibility (1/GPa) = 0.09950704
#
# Stress axis : x y z
#
# Youngs Moduli (GPa) = 60.14410 86.71135 9.21758
#
# Poissons Ratio (x) = 0.41570 0.15389
# Poissons Ratio (y) = 0.28834 -0.02691
# Poissons Ratio (z) = 1.00415 -0.25315
#
# Static dielectric constant tensor:
#      x y z
#    x 1.717880 0.000000 -0.074230 
#    y 0.000000 1.727090 0.000000 
#    z -0.074230 0.000000 1.833810 
# 
# From -- ./inp_files/290124.got.cif
#   From: 2010.05.17/outbox.cif.g08.bks.cpg/sg12_146_cif.got.tgz:290124.got - 2010.06.03 13:09:07.
