data_PCOD9183505
_publ_section_title
;
Structure prediction by ZEFSAII (Michael W. Deem and Ramdas Pophale) SiO2 
 PCOD9183505
Probable space group: C 2/M
;
_chemical_formula_sum "Si O2"
_cell_formula_units_Z 64
_cell_length_a 32.877707
_cell_length_b 9.086856
_cell_length_c 17.952033
_cell_angle_alpha 90.000000
_cell_angle_beta 43.382751
_cell_angle_gamma 90.000000
_cell_volume 3683.855259
_symmetry_space_group_name_H-M "C 2/M"
_symmetry_group_IT_number 12
_symmetry_cell_setting 'monoclinic'
loop_
_space_group_symop_operation_xyz
x,y,z
-x,y,-z
-x,-y,-z
x,-y,z
1/2+x,1/2+y,z
1/2-x,1/2+y,-z
1/2-x,1/2-y,-z
1/2+x,1/2-y,z
loop_
_atom_site_type_symbol
_atom_site_label
_atom_site_fract_x
_atom_site_fract_y
_atom_site_fract_z
Si Si1 0.368827 0.176290 0.105353
Si Si2 0.013288 0.324652 0.642815
Si Si3 0.874805 0.173624 0.564148
Si Si4 0.557655 0.331779 0.869487
Si Si5 0.255581 0.827324 0.764211
Si Si6 0.294599 0.172433 0.884450
Si Si7 0.480643 0.175470 0.854046
Si Si8 0.086573 0.826505 0.315268
O O1 0.394347 0.237876 0.149227
O O2 0.306354 0.249876 0.170566
O O3 0.363653 0.000000 0.114437
O O4 0.418253 0.214739 0.976484
O O5 0.016912 0.500000 0.628113
O O6 0.078083 0.253574 0.551117
O O7 0.983923 0.293237 0.762182
O O8 0.972067 0.253634 0.634568
O O9 0.810457 0.248281 0.650389
O O10 0.900403 0.191081 0.614315
O O11 0.870756 0.000000 0.554072
O O12 0.577040 0.500000 0.832504
O O13 0.533291 0.258093 0.827033
O O14 0.500000 0.333769 0.000000
O O15 0.269243 0.815702 0.834351
O O16 0.253472 0.000000 0.748049
O O17 0.357623 0.253552 0.800493
O O18 0.301859 0.000000 0.892707
O O19 0.250000 0.250000 0.000000
O O20 0.488252 0.000000 0.854533
O O21 0.082524 0.000000 0.304906
#
# Coordination Sequence:
#
# PCOD9183505 Si02
#       8
#     8   8   8   8   8   8   8   8
#     4  10  19  33  55  80 109 143 175 212 257 317
#     4  11  22  35  54  80 108 140 178 225 269 314
#     4  10  21  38  56  75 102 140 183 225 269 317
#     4   9  17  31  52  78 107 139 173 213 258 309
#     4  10  21  36  54  78 104 136 179 223 262 311
#     4  10  21  35  51  73 105 142 176 217 268 316
#     4   9  20  35  51  78 111 142 173 210 263 318
#     4  10  21  36  53  75 102 138 183 225 267 315
#
# _framework density 17.373103
#
# number of rings (size 3 to 8) (size 9 to 14) (size 15 to 20)
#    0.000    2.125    0.000    3.000    1.750    7.500 
#    0.000    0.000    0.000    0.750    0.000    0.000 
#    0.000    0.000    0.000    0.000    0.000    0.000 
#
# Total GULP energy -178634.257124 kJ/mol
# GULP energy per Si atom -5582.320535 kJ/mol
# Density = 1.733356 g / cm^3
# Si number density = 17.373103 Si / 1000 Ang^3
#
#
#
# Elastic Constant Matrix: (Units=GPa)
#
#
# Indices 1 2 3 4 5 6 
#
# 1 64.9294 60.0612 41.4095 -0.0002 -22.6688 0.0000
# 2 60.0612 102.3565 49.8967 -0.0003 -18.1120 -0.0001
# 3 41.4095 49.8967 81.8118 -0.0001 -29.4544 0.0000
# 4 -0.0002 -0.0003 -0.0001 29.4524 0.0001 -6.5207
# 5 -22.6688 -18.1120 -29.4544 0.0001 21.9122 0.0000
# 6 0.0000 -0.0001 0.0000 -6.5207 0.0000 31.6395
#
#
#
# Elastic Compliance Matrix: (Units=1/GPa)
#
#
# Indices 1 2 3 4 5 6 
#
# 1 0.045665 -0.022034 0.001504 0.000000 0.031051 0.000000
# 2 -0.022034 0.024536 -0.009140 0.000000 -0.014801 0.000000
# 3 0.001504 -0.009140 0.028828 0.000000 0.032751 0.000000
# 4 0.000000 0.000000 0.000000 0.035576 0.000000 0.007332
# 5 0.031051 -0.014801 0.032751 0.000000 0.109550 0.000000
# 6 0.000000 0.000000 0.000000 0.007332 0.000000 0.033117
#
#
# Mechanical properties :
#
#
# Convention : Reuss Voigt Hill
#
# Bulk Modulus (GPa) = 25.19664 61.31474 43.25569
# Shear Modulus (GPa) = 14.29215 23.11616 18.70415
#
# Velocity S-wave (km/s) = 2.87132 3.65166 3.28474
# Velocity P-wave (km/s) = 5.05246 7.29034 6.27201
#
# Compressibility (1/GPa) = 0.03968783
#
# Stress axis : x y z
#
# Youngs Moduli (GPa) = 21.89861 40.75679 34.68868
#
# Poissons Ratio (x) = 0.89805 -0.05217
# Poissons Ratio (y) = 0.48252 0.31706
# Poissons Ratio (z) = -0.03294 0.37252
#
# Static dielectric constant tensor:
#      x y z
#    x 1.571730 0.000000 0.004780 
#    y 0.000000 1.579270 0.000000 
#    z 0.004780 0.000000 1.580020 
# 
# From -- ./inp_files/249872.got.cif
#   From: 2010.05.17/outbox.cif.g08.bks.cpg/sg12_125_cif.got.tgz:249872.got - 2010.06.03 13:09:07.
