data_PCOD9183744
_publ_section_title
;
Structure prediction by ZEFSAII (Michael W. Deem and Ramdas Pophale) SiO2 
 PCOD9183744
Probable space group: C 2/M
;
_chemical_formula_sum "Si O2"
_cell_formula_units_Z 48
_cell_length_a 13.553335
_cell_length_b 18.859145
_cell_length_c 11.527981
_cell_angle_alpha 90.000000
_cell_angle_beta 63.241055
_cell_angle_gamma 90.000000
_cell_volume 2631.046122
_symmetry_space_group_name_H-M "C 2/M"
_symmetry_group_IT_number 12
_symmetry_cell_setting 'monoclinic'
loop_
_space_group_symop_operation_xyz
x,y,z
-x,y,-z
-x,-y,-z
x,-y,z
1/2+x,1/2+y,z
1/2-x,1/2+y,-z
1/2-x,1/2-y,-z
1/2+x,1/2-y,z
loop_
_atom_site_type_symbol
_atom_site_label
_atom_site_fract_x
_atom_site_fract_y
_atom_site_fract_z
Si Si1 0.945229 0.229400 0.195621
Si Si2 0.985876 0.080265 0.274303
Si Si3 0.793088 0.864188 0.534443
Si Si4 0.756919 0.079987 0.796444
Si Si5 0.662229 0.783577 0.960559
Si Si6 0.106663 0.716543 0.518115
O O1 0.970198 0.145963 0.195125
O O2 0.847331 0.241751 0.156324
O O3 0.924723 0.260188 0.334081
O O4 0.046991 0.272436 0.087470
O O5 0.893989 0.093648 0.422584
O O6 0.110458 0.086712 0.256384
O O7 0.972661 0.000000 0.235723
O O8 0.738158 0.904272 0.670508
O O9 0.842406 0.789919 0.557420
O O10 0.702983 0.841205 0.485350
O O11 0.695176 0.137202 0.907822
O O12 0.724871 0.000000 0.842393
O O13 0.750000 0.750000 0.000000
O O14 0.000000 0.695749 0.500000
#
# Coordination Sequence:
#
# PCOD9183744 Si02
#       6
#     8   8   8   8   8   8
#     4  10  21  38  58  88 112 157 199 241 295 344
#     4  10  20  35  58  90 120 148 188 242 307 358
#     4  10  19  33  55  89 121 153 189 242 298 349
#     4  11  21  37  60  89 120 155 197 244 299 353
#     4  11  22  38  61  83 116 156 202 244 281 347
#     4  10  20  33  59  89 120 150 200 243 290 352
#
# _framework density 18.243694000000001
#
# number of rings (size 3 to 8) (size 9 to 14) (size 15 to 20)
#    0.000    1.667    3.333    3.000    0.000    1.333 
#    0.000    4.167    0.000    2.000    0.000    0.000 
#    0.000    0.000    0.000    0.000    0.000    0.000 
#
# Total GULP energy -133887.353514 kJ/mol
# GULP energy per Si atom -5578.639730 kJ/mol
# Density = 1.820217 g / cm^3
# Si number density = 18.243694 Si / 1000 Ang^3
#
#
#
# Elastic Constant Matrix: (Units=GPa)
#
#
# Indices 1 2 3 4 5 6 
#
# 1 86.9319 38.7898 14.6369 0.0000 14.1813 0.0000
# 2 38.7898 139.8659 45.1519 0.0000 1.0504 0.0000
# 3 14.6369 45.1519 80.4252 0.0000 -2.7476 0.0000
# 4 0.0000 0.0000 0.0000 25.0065 0.0000 -7.7000
# 5 14.1813 1.0504 -2.7476 0.0000 28.3678 0.0000
# 6 0.0000 0.0000 0.0000 -7.7000 0.0000 23.3713
#
#
#
# Elastic Compliance Matrix: (Units=1/GPa)
#
#
# Indices 1 2 3 4 5 6 
#
# 1 0.014457 -0.003697 -0.000800 0.000000 -0.007168 0.000000
# 2 -0.003697 0.009696 -0.004735 0.000000 0.001031 0.000000
# 3 -0.000800 -0.004735 0.015308 0.000000 0.002058 0.000000
# 4 0.000000 0.000000 0.000000 0.044505 0.000000 0.014663
# 5 -0.007168 0.001031 0.002058 0.000000 0.038996 0.000000
# 6 0.000000 0.000000 0.000000 0.014663 0.000000 0.047618
#
#
# Mechanical properties :
#
#
# Convention : Reuss Voigt Hill
#
# Bulk Modulus (GPa) = 47.62907 56.04226 51.83567
# Shear Modulus (GPa) = 25.50440 29.25874 27.38157
#
# Velocity S-wave (km/s) = 3.74302 4.00906 3.87832
# Velocity P-wave (km/s) = 6.69657 7.22603 6.96633
#
# Compressibility (1/GPa) = 0.02099558
#
# Stress axis : x y z
#
# Youngs Moduli (GPa) = 69.17043 103.13477 65.32358
#
# Poissons Ratio (x) = 0.38132 0.05228
# Poissons Ratio (y) = 0.25574 0.30933
# Poissons Ratio (z) = 0.05535 0.48839
#
# Static dielectric constant tensor:
#      x y z
#    x 1.695530 0.000000 -0.029470 
#    y 0.000000 1.631270 0.000000 
#    z -0.029470 0.000000 1.655940 
# 
# From -- ./inp_files/131661.got.cif
#   From: 2010.05.17/outbox.cif.g08.bks.cpg/sg12_66_cif.got.tgz:131661.got - 2010.06.03 13:09:07.
