data_PCOD9183733
_publ_section_title
;
Structure prediction by ZEFSAII (Michael W. Deem and Ramdas Pophale) SiO2 
 PCOD9183733
Probable space group: C 2/M
;
_chemical_formula_sum "Si O2"
_cell_formula_units_Z 56
_cell_length_a 20.847598
_cell_length_b 8.331805
_cell_length_c 15.560261
_cell_angle_alpha 90.000000
_cell_angle_beta 63.742747
_cell_angle_gamma 90.000000
_cell_volume 2423.905630
_symmetry_space_group_name_H-M "C 2/M"
_symmetry_group_IT_number 12
_symmetry_cell_setting 'monoclinic'
loop_
_space_group_symop_operation_xyz
x,y,z
-x,y,-z
-x,-y,-z
x,-y,z
1/2+x,1/2+y,z
1/2-x,1/2+y,-z
1/2-x,1/2-y,-z
1/2+x,1/2-y,z
loop_
_atom_site_type_symbol
_atom_site_label
_atom_site_fract_x
_atom_site_fract_y
_atom_site_fract_z
Si Si1 0.719352 0.683395 0.785911
Si Si2 0.346062 0.315060 0.805702
Si Si3 0.145584 0.192634 0.007129
Si Si4 0.007160 0.694835 0.725029
Si Si5 0.495926 0.182033 0.093524
Si Si6 0.230193 0.811993 0.416625
Si Si7 0.428198 0.192581 0.492585
O O1 0.699037 0.500000 0.787051
O O2 0.800355 0.700601 0.772819
O O3 0.676220 0.743644 0.895981
O O4 0.718574 0.762130 0.692940
O O5 0.335502 0.500000 0.785086
O O6 0.429876 0.273102 0.753439
O O7 0.317399 0.299971 0.920965
O O8 0.127477 0.000000 0.011231
O O9 0.079774 0.311312 0.064055
O O10 0.998751 0.500000 0.735175
O O11 0.036900 0.751078 0.800214
O O12 0.057896 0.729429 0.615681
O O13 0.468835 0.000000 0.097353
O O14 0.500000 0.270550 0.000000
O O15 0.250000 0.750000 0.500000
O O16 0.149289 0.760420 0.439749
O O17 0.232906 0.000000 0.420726
O O18 0.500000 0.248651 0.500000
O O19 0.425018 0.000000 0.506077
#
# Coordination Sequence:
#
# PCOD9183733 Si02
#       7
#     8   8   8   8   8   8   8
#     4  11  22  38  59  83 115 155 197 240 293 354
#     4  10  19  33  55  87 122 153 191 238 291 351
#     4   9  20  35  53  81 115 150 188 232 284 346
#     4   9  18  33  54  80 112 150 189 236 295 353
#     4   9  18  32  50  75 107 143 184 228 277 341
#     4  12  27  46  66  90 123 162 208 260 313 369
#     4  10  21  39  64  92 122 158 202 251 305 365
#
# _framework density 23.103209
#
# number of rings (size 3 to 8) (size 9 to 14) (size 15 to 20)
#    0.000    2.000    0.000    3.429    0.000    5.143 
#    0.000    1.429    0.000    0.000    0.000    0.000 
#    0.000    0.000    0.000    0.000    0.000    0.000 
#
# Total GULP energy -156083.829830 kJ/mol
# GULP energy per Si atom -5574.422494 kJ/mol
# Density = 2.305063 g / cm^3
# Si number density = 23.103209 Si / 1000 Ang^3
#
#
#
# Elastic Constant Matrix: (Units=GPa)
#
#
# Indices 1 2 3 4 5 6 
#
# 1 34.1923 9.2076 20.8772 0.0000 6.8430 0.0000
# 2 9.2076 36.5851 41.3300 0.0000 2.2533 0.0001
# 3 20.8772 41.3300 164.7971 0.0000 13.1380 0.0000
# 4 0.0000 0.0000 0.0000 20.2753 0.0000 -0.4052
# 5 6.8430 2.2533 13.1380 0.0000 39.1573 0.0000
# 6 0.0000 0.0001 0.0000 -0.4052 0.0000 20.6674
#
#
#
# Elastic Compliance Matrix: (Units=1/GPa)
#
#
# Indices 1 2 3 4 5 6 
#
# 1 0.033115 -0.005201 -0.002521 0.000000 -0.004642 0.000000
# 2 -0.005201 0.038997 -0.009263 0.000000 0.001773 0.000000
# 3 -0.002521 -0.009263 0.008870 0.000000 -0.002003 0.000000
# 4 0.000000 0.000000 0.000000 0.049340 0.000000 0.000967
# 5 -0.004642 0.001773 -0.002003 0.000000 0.026919 0.000000
# 6 0.000000 0.000000 0.000000 0.000967 0.000000 0.048404
#
#
# Mechanical properties :
#
#
# Convention : Reuss Voigt Hill
#
# Bulk Modulus (GPa) = 21.27023 42.04489 31.65756
# Shear Modulus (GPa) = 19.58587 26.96398 23.27493
#
# Velocity S-wave (km/s) = 2.91478 3.42001 3.17745
# Velocity P-wave (km/s) = 4.53371 5.81665 5.21479
#
# Compressibility (1/GPa) = 0.04701406
#
# Stress axis : x y z
#
# Youngs Moduli (GPa) = 30.19776 25.64281 112.73853
#
# Poissons Ratio (x) = 0.13336 0.28419
# Poissons Ratio (y) = 0.15705 1.04426
# Poissons Ratio (z) = 0.07612 0.23752
#
# Static dielectric constant tensor:
#      x y z
#    x 1.969190 0.000000 0.096600 
#    y 0.000000 1.812490 0.000000 
#    z 0.096600 0.000000 2.045760 
# 
# From -- ./inp_files/238253.got.cif
#   From: 2010.05.17/outbox.cif.g08.bks.cpg/sg12_120_cif.got.tgz:238253.got - 2010.06.03 13:09:07.
