data_PCOD9183877
_publ_section_title
;
Structure prediction by ZEFSAII (Michael W. Deem and Ramdas Pophale) SiO2 
 PCOD9183877
Probable space group: C 2/M
;
_chemical_formula_sum "Si O2"
_cell_formula_units_Z 48
_cell_length_a 30.237393
_cell_length_b 8.837473
_cell_length_c 10.432674
_cell_angle_alpha 90.000000
_cell_angle_beta 99.803449
_cell_angle_gamma 90.000000
_cell_volume 2747.132481
_symmetry_space_group_name_H-M "C 2/M"
_symmetry_group_IT_number 12
_symmetry_cell_setting 'monoclinic'
loop_
_space_group_symop_operation_xyz
x,y,z
-x,y,-z
-x,-y,-z
x,-y,z
1/2+x,1/2+y,z
1/2-x,1/2+y,-z
1/2-x,1/2-y,-z
1/2+x,1/2-y,z
loop_
_atom_site_type_symbol
_atom_site_label
_atom_site_fract_x
_atom_site_fract_y
_atom_site_fract_z
Si Si1 0.777070 0.680719 0.394060
Si Si2 0.034307 0.682127 0.126668
Si Si3 0.362171 0.181403 0.821761
Si Si4 0.137214 0.818956 0.459734
Si Si5 0.033645 0.818027 0.405462
Si Si6 0.723904 0.318958 0.106857
O O1 0.778624 0.500000 0.408587
O O2 0.750000 0.750000 0.500000
O O3 0.826940 0.748295 0.426346
O O4 0.751680 0.717237 0.249979
O O5 0.031577 0.500000 0.133822
O O6 0.086156 0.720212 0.120119
O O7 0.023902 0.749092 0.261307
O O8 0.000000 0.733801 0.000000
O O9 0.353462 0.251132 0.676714
O O10 0.325455 0.249057 0.898957
O O11 0.357995 0.000000 0.813760
O O12 0.085445 0.782091 0.464515
O O13 0.142457 0.000000 0.457435
O O14 0.000000 0.766179 0.500000
O O15 0.030312 0.000000 0.393792
O O16 0.720862 0.500000 0.094161
O O17 0.750000 0.250000 0.000000
#
# Coordination Sequence:
#
# PCOD9183877 Si02
#       6
#     8   8   8   8   8   8
#     4  11  22  36  58  84 110 142 183 227 270 325
#     4   9  19  36  57  82 110 142 183 226 269 324
#     4  10  19  34  58  81 109 146 184 226 273 323
#     4  10  19  33  56  83 111 144 185 227 269 321
#     4   9  19  36  56  80 113 145 179 225 273 322
#     4  11  24  40  57  80 112 147 183 225 276 327
#
# _framework density 17.472764999999999
#
# number of rings (size 3 to 8) (size 9 to 14) (size 15 to 20)
#    0.000    2.000    1.667    2.000    0.000    4.000 
#    3.000    0.000    0.000    0.000    0.000    0.000 
#    0.000    0.000    0.000    0.000    0.000    0.000 
#
# Total GULP energy -133979.669206 kJ/mol
# GULP energy per Si atom -5582.486217 kJ/mol
# Density = 1.743300 g / cm^3
# Si number density = 17.472765 Si / 1000 Ang^3
#
#
#
# Elastic Constant Matrix: (Units=GPa)
#
#
# Indices 1 2 3 4 5 6 
#
# 1 145.2024 49.3201 95.4526 0.0000 -9.4043 0.0000
# 2 49.3201 43.9733 52.3635 0.0000 -0.2346 0.0000
# 3 95.4526 52.3635 119.0362 0.0000 -6.8005 0.0000
# 4 0.0000 0.0000 0.0000 27.7144 0.0000 -1.1737
# 5 -9.4043 -0.2346 -6.8005 0.0000 38.3350 0.0000
# 6 0.0000 0.0000 0.0000 -1.1737 0.0000 26.4139
#
#
#
# Elastic Compliance Matrix: (Units=1/GPa)
#
#
# Indices 1 2 3 4 5 6 
#
# 1 0.015279 -0.005612 -0.009669 0.000000 0.001999 0.000000
# 2 -0.005612 0.050281 -0.017860 0.000000 -0.004237 0.000000
# 3 -0.009669 -0.017860 0.024113 0.000000 0.001796 0.000000
# 4 0.000000 0.000000 0.000000 0.036150 0.000000 0.001606
# 5 0.001999 -0.004237 0.001796 0.000000 0.026869 0.000000
# 6 0.000000 0.000000 0.000000 0.001606 0.000000 0.037930
#
#
# Mechanical properties :
#
#
# Convention : Reuss Voigt Hill
#
# Bulk Modulus (GPa) = 42.75209 78.05381 60.40295
# Shear Modulus (GPa) = 18.88928 25.89771 22.39349
#
# Velocity S-wave (km/s) = 3.29153 3.85408 3.58386
# Velocity P-wave (km/s) = 6.24232 8.03579 7.19515
#
# Compressibility (1/GPa) = 0.02339067
#
# Stress axis : x y z
#
# Youngs Moduli (GPa) = 65.45121 19.88826 41.47153
#
# Poissons Ratio (x) = 0.11162 0.40097
# Poissons Ratio (y) = 0.36734 0.74068
# Poissons Ratio (z) = 0.63282 0.35520
#
# Static dielectric constant tensor:
#      x y z
#    x 1.612880 0.000000 0.010320 
#    y 0.000000 1.584520 0.000000 
#    z 0.010320 0.000000 1.561830 
# 
# From -- ./inp_files/108596.got.cif
#   From: 2010.05.17/outbox.cif.g08.bks.cpg/sg12_55_cif.got.tgz:108596.got - 2010.06.03 13:09:07.
