data_PCOD9183408
_publ_section_title
;
Structure prediction by ZEFSAII (Michael W. Deem and Ramdas Pophale) SiO2 
 PCOD9183408
Probable space group: C 2/M
;
_chemical_formula_sum "Si O2"
_cell_formula_units_Z 40
_cell_length_a 27.714938
_cell_length_b 8.749315
_cell_length_c 11.602078
_cell_angle_alpha 90.000000
_cell_angle_beta 54.621759
_cell_angle_gamma 90.000000
_cell_volume 2293.858427
_symmetry_space_group_name_H-M "C 2/M"
_symmetry_group_IT_number 12
_symmetry_cell_setting 'monoclinic'
loop_
_space_group_symop_operation_xyz
x,y,z
-x,y,-z
-x,-y,-z
x,-y,z
1/2+x,1/2+y,z
1/2-x,1/2+y,-z
1/2-x,1/2-y,-z
1/2+x,1/2-y,z
loop_
_atom_site_type_symbol
_atom_site_label
_atom_site_fract_x
_atom_site_fract_y
_atom_site_fract_z
Si Si1 0.835976 0.683753 0.943528
Si Si2 0.925601 0.183217 0.204034
Si Si3 0.196013 0.182907 0.501069
Si Si4 0.048496 0.683116 0.082036
Si Si5 0.221528 0.317364 0.217711
O O1 0.829445 0.500000 0.963490
O O2 0.901744 0.723926 0.893251
O O3 0.819504 0.724955 0.835138
O O4 0.787142 0.761302 0.092644
O O5 0.866166 0.225765 0.353623
O O6 0.984938 0.238825 0.186137
O O7 0.927458 0.000000 0.187150
O O8 0.928194 0.261041 0.074869
O O9 0.250000 0.250000 0.500000
O O10 0.200700 0.243227 0.364774
O O11 0.200164 0.000000 0.495601
O O12 0.041300 0.500000 0.089722
O O13 0.221658 0.500000 0.229264
#
# Coordination Sequence:
#
# PCOD9183408 Si02
#       5
#     8   8   8   8   8
#     4   9  19  35  54  78 106 136 173 213 254 304
#     4  10  21  35  51  75 105 134 169 211 255 305
#     4  11  23  37  54  77 105 137 171 211 259 308
#     4  10  19  33  55  78 101 133 171 211 254 300
#     4  10  20  34  54  79 106 137 172 212 257 304
#
# _framework density 17.437868999999999
#
# number of rings (size 3 to 8) (size 9 to 14) (size 15 to 20)
#    0.000    2.000    0.000    4.800    0.000    8.800 
#    0.000    1.000    0.000    6.000    0.000    0.000 
#    0.000    0.000    0.000    0.000    0.000    0.000 
#
# Total GULP energy -111676.754287 kJ/mol
# GULP energy per Si atom -5583.837714 kJ/mol
# Density = 1.739818 g / cm^3
# Si number density = 17.437869 Si / 1000 Ang^3
#
#
#
# Elastic Constant Matrix: (Units=GPa)
#
#
# Indices 1 2 3 4 5 6 
#
# 1 129.5177 32.8244 69.0271 0.0000 -22.7724 0.0000
# 2 32.8244 37.5136 39.8069 0.0000 -7.9479 0.0000
# 3 69.0271 39.8069 134.7108 0.0000 -15.3777 0.0000
# 4 0.0000 0.0000 0.0000 31.4846 0.0000 0.2911
# 5 -22.7724 -7.9479 -15.3777 0.0000 18.3565 0.0000
# 6 0.0000 0.0000 0.0000 0.2911 0.0000 24.8989
#
#
#
# Elastic Compliance Matrix: (Units=1/GPa)
#
#
# Indices 1 2 3 4 5 6 
#
# 1 0.012940 -0.004841 -0.003988 0.000000 0.010616 0.000000
# 2 -0.004841 0.041727 -0.009369 0.000000 0.004212 0.000000
# 3 -0.003988 -0.009369 0.012393 0.000000 0.001378 0.000000
# 4 0.000000 0.000000 0.000000 0.031765 0.000000 -0.000371
# 5 0.010616 0.004212 0.001378 0.000000 0.070624 0.000000
# 6 0.000000 0.000000 0.000000 -0.000371 0.000000 0.040167
#
#
# Mechanical properties :
#
#
# Convention : Reuss Voigt Hill
#
# Bulk Modulus (GPa) = 32.61241 65.00654 48.80948
# Shear Modulus (GPa) = 19.51353 25.62027 22.56690
#
# Velocity S-wave (km/s) = 3.34882 3.83721 3.60131
# Velocity P-wave (km/s) = 5.80478 7.54932 6.73378
#
# Compressibility (1/GPa) = 0.03066317
#
# Stress axis : x y z
#
# Youngs Moduli (GPa) = 77.28038 23.96528 80.69369
#
# Poissons Ratio (x) = 0.11603 0.32181
# Poissons Ratio (y) = 0.37415 0.75599
# Poissons Ratio (z) = 0.30820 0.22452
#
# Static dielectric constant tensor:
#      x y z
#    x 1.599200 0.000000 -0.002570 
#    y 0.000000 1.586040 0.000000 
#    z -0.002570 0.000000 1.558210 
# 
# From -- ./inp_files/171550.got.cif
#   From: 2010.05.17/outbox.cif.g08.bks.cpg/sg12_86_cif.got.tgz:171550.got - 2010.06.03 13:09:07.
