data_PCOD9183383
_publ_section_title
;
Structure prediction by ZEFSAII (Michael W. Deem and Ramdas Pophale) SiO2 
 PCOD9183383
Probable space group: C 2/M
;
_chemical_formula_sum "Si O2"
_cell_formula_units_Z 64
_cell_length_a 9.461022
_cell_length_b 30.142418
_cell_length_c 13.744452
_cell_angle_alpha 90.000000
_cell_angle_beta 126.428794
_cell_angle_gamma 90.000000
_cell_volume 3153.705635
_symmetry_space_group_name_H-M "C 2/M"
_symmetry_group_IT_number 12
_symmetry_cell_setting 'monoclinic'
loop_
_space_group_symop_operation_xyz
x,y,z
-x,y,-z
-x,-y,-z
x,-y,z
1/2+x,1/2+y,z
1/2-x,1/2+y,-z
1/2-x,1/2-y,-z
1/2+x,1/2-y,z
loop_
_atom_site_type_symbol
_atom_site_label
_atom_site_fract_x
_atom_site_fract_y
_atom_site_fract_z
Si Si1 0.863208 0.852516 0.856584
Si Si2 0.030741 0.138543 0.310992
Si Si3 0.818992 0.048394 0.865464
Si Si4 0.441317 0.550089 0.363114
Si Si5 0.456004 0.795468 0.287203
Si Si6 0.566605 0.048783 0.278410
Si Si7 0.097150 0.375834 0.451041
Si Si8 0.154298 0.791442 0.644593
O O1 0.945679 0.839910 0.785695
O O2 0.810242 0.903700 0.811580
O O3 0.705377 0.821216 0.829571
O O4 0.000000 0.853481 0.000000
O O5 0.212678 0.142251 0.443726
O O6 0.000591 0.085883 0.308881
O O7 0.880328 0.163584 0.309698
O O8 0.630765 0.049665 0.844473
O O9 0.818553 0.000000 0.813362
O O10 0.000000 0.048646 0.000000
O O11 0.500000 0.561306 0.500000
O O12 0.505241 0.500000 0.371962
O O13 0.230211 0.550364 0.273609
O O14 0.488466 0.831753 0.384231
O O15 0.645884 0.789973 0.313475
O O16 0.386305 0.749730 0.301469
O O17 0.596141 0.089887 0.362406
O O18 0.583546 0.000000 0.335082
O O19 0.000000 0.399495 0.500000
O O20 0.000000 0.789316 0.500000
#
# Coordination Sequence:
#
# PCOD9183383 Si02
#       8
#     8   8   8   8   8   8   8   8
#     4  11  25  45  66  90 127 172 221 269 310 364
#     4  12  23  39  63  95 129 169 215 257 316 380
#     4   9  18  35  61  87 118 166 219 261 305 356
#     4  10  20  34  57  91 136 173 202 251 320 393
#     4  12  24  42  64  95 128 161 203 260 324 376
#     4  10  19  33  54  89 131 169 205 252 317 379
#     4  12  21  34  58  91 130 163 202 259 318 383
#     4  12  25  40  68 102 132 161 202 257 324 395
#
# _framework density 20.293588
#
# number of rings (size 3 to 8) (size 9 to 14) (size 15 to 20)
#    0.000    1.000    5.000    2.625    0.000    0.750 
#    0.000    3.125    0.000    0.000    0.000    6.125 
#    0.000    0.000    0.000    0.000    0.000    0.000 
#
# Total GULP energy -178177.417260 kJ/mol
# GULP energy per Si atom -5568.044289 kJ/mol
# Density = 2.024740 g / cm^3
# Si number density = 20.293588 Si / 1000 Ang^3
#
#
#
# Elastic Constant Matrix: (Units=GPa)
#
#
# Indices 1 2 3 4 5 6 
#
# 1 98.1720 30.2440 34.7317 0.0000 26.1903 0.0000
# 2 30.2440 95.9376 14.8743 0.0000 2.7103 0.0000
# 3 34.7317 14.8743 71.3970 0.0000 21.9766 0.0000
# 4 0.0000 0.0000 0.0000 22.0018 0.0000 -6.3174
# 5 26.1903 2.7103 21.9766 0.0000 22.0461 0.0000
# 6 0.0000 0.0000 0.0000 -6.3174 0.0000 60.3593
#
#
#
# Elastic Compliance Matrix: (Units=1/GPa)
#
#
# Indices 1 2 3 4 5 6 
#
# 1 0.016990 -0.004569 -0.001837 0.000000 -0.017791 0.000000
# 2 -0.004569 0.012026 -0.002162 0.000000 0.006104 0.000000
# 3 -0.001837 -0.002162 0.021058 0.000000 -0.018544 0.000000
# 4 0.000000 0.000000 0.000000 0.046859 0.000000 0.004904
# 5 -0.017791 0.006104 -0.018544 0.000000 0.084229 0.000000
# 6 0.000000 0.000000 0.000000 0.004904 0.000000 0.017081
#
#
# Mechanical properties :
#
#
# Convention : Reuss Voigt Hill
#
# Bulk Modulus (GPa) = 30.35868 47.24515 38.80192
# Shear Modulus (GPa) = 22.08891 33.25854 27.67373
#
# Velocity S-wave (km/s) = 3.30277 4.05269 3.69679
# Velocity P-wave (km/s) = 5.43476 6.72535 6.11421
#
# Compressibility (1/GPa) = 0.03293951
#
# Stress axis : x y z
#
# Youngs Moduli (GPa) = 58.85926 83.15044 47.48765
#
# Poissons Ratio (x) = 0.37988 0.08723
# Poissons Ratio (y) = 0.26890 0.10266
# Poissons Ratio (z) = 0.10812 0.17976
#
# Static dielectric constant tensor:
#      x y z
#    x 1.757410 0.000000 0.035490 
#    y 0.000000 1.763300 0.000000 
#    z 0.035490 0.000000 1.827200 
# 
# From -- ./inp_files/201330.got.cif
#   From: 2010.05.17/outbox.cif.g08.bks.cpg/sg12_101_cif.got.tgz:201330.got - 2010.06.03 13:09:07.
