data_PCOD9183219
_publ_section_title
;
Structure prediction by ZEFSAII (Michael W. Deem and Ramdas Pophale) SiO2 
 PCOD9183219
Probable space group: C 2/M
;
_chemical_formula_sum "Si O2"
_cell_formula_units_Z 56
_cell_length_a 29.168419
_cell_length_b 8.782818
_cell_length_c 17.788916
_cell_angle_alpha 90.000000
_cell_angle_beta 43.022030
_cell_angle_gamma 90.000000
_cell_volume 3109.271083
_symmetry_space_group_name_H-M "C 2/M"
_symmetry_group_IT_number 12
_symmetry_cell_setting 'monoclinic'
loop_
_space_group_symop_operation_xyz
x,y,z
-x,y,-z
-x,-y,-z
x,-y,z
1/2+x,1/2+y,z
1/2-x,1/2+y,-z
1/2-x,1/2-y,-z
1/2+x,1/2-y,z
loop_
_atom_site_type_symbol
_atom_site_label
_atom_site_fract_x
_atom_site_fract_y
_atom_site_fract_z
Si Si1 0.771051 0.681255 0.282547
Si Si2 0.180570 0.681744 0.614666
Si Si3 0.645745 0.816666 0.247677
Si Si4 0.059833 0.819139 0.662849
Si Si5 0.707655 0.817700 0.913060
Si Si6 0.583132 0.815763 0.166047
Si Si7 0.374831 0.181703 0.558704
O O1 0.754676 0.500000 0.303959
O O2 0.817703 0.712590 0.297973
O O3 0.802019 0.715543 0.163931
O O4 0.701372 0.772613 0.371998
O O5 0.180222 0.500000 0.603391
O O6 0.250000 0.750000 0.500000
O O7 0.117973 0.753698 0.646808
O O8 0.721552 0.755696 0.148889
O O9 0.601903 0.770286 0.228851
O O10 0.617932 0.769467 0.362828
O O11 0.648838 0.000000 0.244554
O O12 0.076570 0.760754 0.558732
O O13 0.987171 0.756407 0.772465
O O14 0.061554 0.000000 0.662581
O O15 0.714193 0.000000 0.913385
O O16 0.644995 0.768879 0.038605
O O17 0.577698 0.000000 0.169833
O O18 0.383331 0.000000 0.543624
#
# Coordination Sequence:
#
# PCOD9183219 Si02
#       7
#     8   8   8   8   8   8   8
#     4   9  18  33  55  84 111 136 174 222 267 318
#     4  11  21  35  58  84 111 141 178 220 270 326
#     4   9  19  34  56  84 110 141 181 224 270 322
#     4  12  25  38  53  77 110 145 185 228 274 325
#     4   9  18  34  58  84 110 142 180 222 266 317
#     4  10  21  38  56  77 110 149 185 221 267 323
#     4  10  19  33  54  80 110 142 177 221 274 325
#
# _framework density 18.010652
#
# number of rings (size 3 to 8) (size 9 to 14) (size 15 to 20)
#    0.000    2.000    1.429    2.571    0.000    2.857 
#    0.000    3.571    0.000    4.286    0.000    0.000 
#    0.000    0.000    0.000    0.000    0.000    0.000 
#
# Total GULP energy -156326.918279 kJ/mol
# GULP energy per Si atom -5583.104224 kJ/mol
# Density = 1.796966 g / cm^3
# Si number density = 18.010652 Si / 1000 Ang^3
#
#
#
# Elastic Constant Matrix: (Units=GPa)
#
#
# Indices 1 2 3 4 5 6 
#
# 1 99.6220 27.0124 22.3558 -0.0004 -4.6175 -0.0001
# 2 27.0124 38.0194 9.1539 0.0061 1.4748 -0.0025
# 3 22.3558 9.1539 20.8713 -0.0013 -2.9221 -0.0009
# 4 -0.0004 0.0061 -0.0013 27.8366 -0.0013 -5.2318
# 5 -4.6175 1.4748 -2.9221 -0.0013 18.4786 -0.0002
# 6 -0.0001 -0.0025 -0.0009 -5.2318 -0.0002 21.6281
#
#
#
# Elastic Compliance Matrix: (Units=1/GPa)
#
#
# Indices 1 2 3 4 5 6 
#
# 1 0.015037 -0.007806 -0.012343 0.000001 0.002429 -0.000001
# 2 -0.007806 0.033828 -0.007288 -0.000008 -0.005803 0.000002
# 3 -0.012343 -0.007288 0.065428 0.000005 0.007844 0.000003
# 4 0.000001 -0.000008 0.000005 0.037635 0.000005 0.009104
# 5 0.002429 -0.005803 0.007844 0.000005 0.056427 0.000001
# 6 -0.000001 0.000002 0.000003 0.009104 0.000001 0.048438
#
#
# Mechanical properties :
#
#
# Convention : Reuss Voigt Hill
#
# Bulk Modulus (GPa) = 16.82946 30.61743 23.72345
# Shear Modulus (GPa) = 15.08418 20.25471 17.66945
#
# Velocity S-wave (km/s) = 2.89712 3.35714 3.13558
# Velocity P-wave (km/s) = 4.53382 5.66248 5.12929
#
# Compressibility (1/GPa) = 0.05941960
#
# Stress axis : x y z
#
# Youngs Moduli (GPa) = 66.50317 29.56111 15.28402
#
# Poissons Ratio (x) = 0.23075 0.18865
# Poissons Ratio (y) = 0.51912 0.11139
# Poissons Ratio (z) = 0.82083 0.21544
#
# Static dielectric constant tensor:
#      x y z
#    x 1.614050 0.000000 0.035850 
#    y 0.000000 1.603120 0.000000 
#    z 0.035850 0.000000 1.606070 
# 
# From -- ./inp_files/288146.got.cif
#   From: 2010.05.17/outbox.cif.g08.bks.cpg/sg12_145_cif.got.tgz:288146.got - 2010.06.03 13:09:07.
