data_PCOD9183145
_publ_section_title
;
Structure prediction by ZEFSAII (Michael W. Deem and Ramdas Pophale) SiO2 
 PCOD9183145
Probable space group: C 2/M
;
_chemical_formula_sum "Si O2"
_cell_formula_units_Z 48
_cell_length_a 19.691405
_cell_length_b 8.662923
_cell_length_c 15.984327
_cell_angle_alpha 90.000000
_cell_angle_beta 78.390565
_cell_angle_gamma 90.000000
_cell_volume 2670.906171
_symmetry_space_group_name_H-M "C 2/M"
_symmetry_group_IT_number 12
_symmetry_cell_setting 'monoclinic'
loop_
_space_group_symop_operation_xyz
x,y,z
-x,y,-z
-x,-y,-z
x,-y,z
1/2+x,1/2+y,z
1/2-x,1/2+y,-z
1/2-x,1/2-y,-z
1/2+x,1/2-y,z
loop_
_atom_site_type_symbol
_atom_site_label
_atom_site_fract_x
_atom_site_fract_y
_atom_site_fract_z
Si Si1 0.423927 0.184728 0.862462
Si Si2 0.818510 0.686176 0.027933
Si Si3 0.030578 0.315157 0.402507
Si Si4 0.048975 0.182839 0.736592
Si Si5 0.314130 0.185889 0.222902
Si Si6 0.344440 0.315486 0.722330
O O1 0.497295 0.261390 0.823252
O O2 0.373215 0.234954 0.799225
O O3 0.432339 0.000000 0.859378
O O4 0.385937 0.231547 0.957412
O O5 0.814314 0.500000 0.027106
O O6 0.821145 0.733560 0.123867
O O7 0.750000 0.750000 0.000000
O O8 0.037685 0.500000 0.397262
O O9 0.980157 0.261173 0.340358
O O10 0.000000 0.271409 0.500000
O O11 0.104615 0.238947 0.363626
O O12 0.126222 0.235134 0.738504
O O13 0.043722 0.000000 0.729162
O O14 0.235944 0.222994 0.270352
O O15 0.322821 0.000000 0.224994
O O16 0.350188 0.500000 0.732281
#
# Coordination Sequence:
#
# PCOD9183145 Si02
#       6
#     8   8   8   8   8   8
#     4  10  19  33  54  78 108 148 188 228 272 321
#     4  10  20  33  53  79 109 147 190 232 269 315
#     4  10  21  39  63  86 109 139 175 218 270 333
#     4  11  23  37  56  81 111 145 182 228 274 321
#     4  10  21  37  54  78 114 150 183 225 276 321
#     4  10  19  33  57  83 110 144 181 224 270 321
#
# _framework density 17.971430000000002
#
# number of rings (size 3 to 8) (size 9 to 14) (size 15 to 20)
#    0.000    1.833    1.667    5.000    0.000    4.667 
#    0.000    4.167    0.000    0.000    0.000    0.000 
#    0.000    0.000    0.000    0.000    0.000    0.000 
#
# Total GULP energy -134026.855694 kJ/mol
# GULP energy per Si atom -5584.452321 kJ/mol
# Density = 1.793053 g / cm^3
# Si number density = 17.971430 Si / 1000 Ang^3
#
#
#
# Elastic Constant Matrix: (Units=GPa)
#
#
# Indices 1 2 3 4 5 6 
#
# 1 95.9572 11.0143 38.3929 0.0000 -17.1455 0.0000
# 2 11.0143 24.1257 14.6609 0.0000 -4.8496 0.0000
# 3 38.3929 14.6609 120.2960 0.0000 -16.3153 0.0000
# 4 0.0000 0.0000 0.0000 17.8115 0.0000 -6.5682
# 5 -17.1455 -4.8496 -16.3153 0.0000 18.9748 0.0000
# 6 0.0000 0.0000 0.0000 -6.5682 0.0000 31.3059
#
#
#
# Elastic Compliance Matrix: (Units=1/GPa)
#
#
# Indices 1 2 3 4 5 6 
#
# 1 0.013449 -0.002645 -0.002732 0.000000 0.009127 0.000000
# 2 -0.002645 0.046286 -0.003981 0.000000 0.006017 0.000000
# 3 -0.002732 -0.003981 0.010411 0.000000 0.005466 0.000000
# 4 0.000000 0.000000 0.000000 0.060852 0.000000 0.012767
# 5 0.009127 0.006017 0.005466 0.000000 0.067187 0.000000
# 6 0.000000 0.000000 0.000000 0.012767 0.000000 0.034622
#
#
# Mechanical properties :
#
#
# Convention : Reuss Voigt Hill
#
# Bulk Modulus (GPa) = 19.44382 40.94613 30.19497
# Shear Modulus (GPa) = 18.61057 25.37248 21.99153
#
# Velocity S-wave (km/s) = 3.22151 3.76150 3.50193
# Velocity P-wave (km/s) = 4.96793 6.45745 5.76103
#
# Compressibility (1/GPa) = 0.05143023
#
# Stress axis : x y z
#
# Youngs Moduli (GPa) = 74.35584 21.60494 96.05009
#
# Poissons Ratio (x) = 0.05715 0.26241
# Poissons Ratio (y) = 0.19667 0.38235
# Poissons Ratio (z) = 0.20314 0.08600
#
# Static dielectric constant tensor:
#      x y z
#    x 1.592000 0.000000 -0.019190 
#    y 0.000000 1.607050 0.000000 
#    z -0.019190 0.000000 1.618320 
# 
# From -- ./inp_files/279843.got.cif
#   From: 2010.05.17/outbox.cif.g08.bks.cpg/sg12_140_cif.got.tgz:279843.got - 2010.06.03 13:09:07.
