data_PCOD9183855
_publ_section_title
;
Structure prediction by ZEFSAII (Michael W. Deem and Ramdas Pophale) SiO2 
 PCOD9183855
Probable space group: C 2/M
;
_chemical_formula_sum "Si O2"
_cell_formula_units_Z 44
_cell_length_a 16.408297
_cell_length_b 26.996123
_cell_length_c 7.375609
_cell_angle_alpha 90.000000
_cell_angle_beta 138.718034
_cell_angle_gamma 90.000000
_cell_volume 2155.520606
_symmetry_space_group_name_H-M "C 2/M"
_symmetry_group_IT_number 12
_symmetry_cell_setting 'monoclinic'
loop_
_space_group_symop_operation_xyz
x,y,z
-x,y,-z
-x,-y,-z
x,-y,z
1/2+x,1/2+y,z
1/2-x,1/2+y,-z
1/2-x,1/2-y,-z
1/2+x,1/2-y,z
loop_
_atom_site_type_symbol
_atom_site_label
_atom_site_fract_x
_atom_site_fract_y
_atom_site_fract_z
Si Si1 0.749276 0.307665 0.039586
Si Si2 0.355803 0.356247 0.810515
Si Si3 0.000000 0.633001 0.500000
Si Si4 0.692330 0.388455 0.659879
Si Si5 0.950539 0.442403 0.122613
Si Si6 0.455506 0.554324 0.136103
O O1 0.693333 0.313460 0.146267
O O2 0.884591 0.331949 0.268082
O O3 0.750000 0.250000 0.000000
O O4 0.678842 0.342505 0.774942
O O5 0.288240 0.366353 0.509700
O O6 0.500000 0.348389 0.000000
O O7 0.350372 0.404771 0.933227
O O8 0.976404 0.595804 0.627966
O O9 0.569355 0.421950 0.435611
O O10 0.808826 0.423358 0.897358
O O11 0.960203 0.500000 0.194381
O O12 0.000000 0.439033 0.000000
O O13 0.419716 0.500000 0.142068
O O14 0.500000 0.549205 0.000000
#
# Coordination Sequence:
#
# PCOD9183855 Si02
#       6
#     8   8   4   8   8   8
#     4  11  24  41  60  81 109 150 192 237 287 329
#     4   9  20  37  58  86 119 146 184 235 278 330
#     4  10  23  40  56  82 118 144 187 240 276 332
#     4   9  19  35  55  81 115 148 188 231 275 336
#     4  10  19  33  56  82 113 154 190 225 275 334
#     4   8  15  30  54  83 115 146 175 218 276 333
#
# _framework density 20.412703
#
# number of rings (size 3 to 8) (size 9 to 14) (size 15 to 20)
#    0.000    2.909    0.000    1.909    0.000    7.273 
#    0.000   10.000    0.000    0.000    0.000    0.000 
#    0.000    0.000    0.000    0.000    0.000    0.000 
#
# Total GULP energy -122722.056134 kJ/mol
# GULP energy per Si atom -5578.275279 kJ/mol
# Density = 2.036624 g / cm^3
# Si number density = 20.412703 Si / 1000 Ang^3
#
#
#
# Elastic Constant Matrix: (Units=GPa)
#
#
# Indices 1 2 3 4 5 6 
#
# 1 49.2030 41.6763 9.1375 0.0000 -14.9991 0.0000
# 2 41.6763 156.5774 49.9683 0.0000 -22.6717 0.0000
# 3 9.1375 49.9683 75.4554 0.0000 -2.1474 0.0000
# 4 0.0000 0.0000 0.0000 112.9187 0.0000 -26.1452
# 5 -14.9991 -22.6717 -2.1474 0.0000 20.3036 0.0000
# 6 0.0000 0.0000 0.0000 -26.1452 0.0000 17.5074
#
#
#
# Elastic Compliance Matrix: (Units=1/GPa)
#
#
# Indices 1 2 3 4 5 6 
#
# 1 0.029985 -0.005972 0.000767 0.000000 0.015563 0.000000
# 2 -0.005972 0.011073 -0.006402 0.000000 0.007275 0.000000
# 3 0.000767 -0.006402 0.017264 0.000000 -0.004757 0.000000
# 4 0.000000 0.000000 0.000000 0.013537 0.000000 0.020215
# 5 0.015563 0.007275 -0.004757 0.000000 0.068370 0.000000
# 6 0.000000 0.000000 0.000000 0.020215 0.000000 0.087308
#
#
# Mechanical properties :
#
#
# Convention : Reuss Voigt Hill
#
# Bulk Modulus (GPa) = 28.48509 53.64445 41.06477
# Shear Modulus (GPa) = 19.05095 42.17617 30.61356
#
# Velocity S-wave (km/s) = 3.05829 4.55045 3.87684
# Velocity P-wave (km/s) = 5.14352 7.34478 6.34041
#
# Compressibility (1/GPa) = 0.03510609
#
# Stress axis : x y z
#
# Youngs Moduli (GPa) = 33.35055 90.31070 57.92235
#
# Poissons Ratio (x) = 0.53936 -0.04441
# Poissons Ratio (y) = 0.19918 0.37085
# Poissons Ratio (z) = -0.02557 0.57821
#
# Static dielectric constant tensor:
#      x y z
#    x 1.734860 0.000000 -0.024460 
#    y 0.000000 1.730790 0.000000 
#    z -0.024460 0.000000 1.752210 
# 
# From -- ./inp_files/12456.got.cif
#   From: 2010.05.17/outbox.cif.g08.bks.cpg/sg12_7_cif.got.tgz:12456.got - 2010.06.03 13:09:07.
