data_PCOD9183468
_publ_section_title
;
Structure prediction by ZEFSAII (Michael W. Deem and Ramdas Pophale) SiO2 
 PCOD9183468
Probable space group: C 2/M
;
_chemical_formula_sum "Si O2"
_cell_formula_units_Z 48
_cell_length_a 19.321903
_cell_length_b 14.078833
_cell_length_c 7.546557
_cell_angle_alpha 90.000000
_cell_angle_beta 101.501535
_cell_angle_gamma 90.000000
_cell_volume 2011.665422
_symmetry_space_group_name_H-M "C 2/M"
_symmetry_group_IT_number 12
_symmetry_cell_setting 'monoclinic'
loop_
_space_group_symop_operation_xyz
x,y,z
-x,y,-z
-x,-y,-z
x,-y,z
1/2+x,1/2+y,z
1/2-x,1/2+y,-z
1/2-x,1/2-y,-z
1/2+x,1/2-y,z
loop_
_atom_site_type_symbol
_atom_site_label
_atom_site_fract_x
_atom_site_fract_y
_atom_site_fract_z
Si Si1 0.229142 0.895832 0.112882
Si Si2 0.916820 0.700708 0.771109
Si Si3 0.891820 0.208477 0.400171
Si Si4 0.071482 0.140002 0.946181
Si Si5 0.046802 0.602720 0.701975
Si Si6 0.263735 0.813908 0.748245
O O1 0.145324 0.905248 0.036081
O O2 0.235806 0.801302 0.234716
O O3 0.254857 0.000000 0.184993
O O4 0.261145 0.863230 0.939766
O O5 0.924253 0.775184 0.610514
O O6 0.918100 0.756634 0.955794
O O7 0.983228 0.632396 0.798185
O O8 0.838692 0.657487 0.703208
O O9 0.812415 0.168654 0.377669
O O10 0.897457 0.314191 0.312953
O O11 0.929688 0.146426 0.267391
O O12 0.000000 0.103784 0.000000
O O13 0.077286 0.500000 0.762562
O O14 0.000000 0.595651 0.500000
#
# Coordination Sequence:
#
# PCOD9183468 Si02
#       6
#     8   8   8   8   8   8
#     4   9  19  35  54  81 114 142 179 235 277 319
#     4  10  19  34  54  78 108 144 183 229 276 323
#     4  10  19  34  54  78 108 144 183 229 276 323
#     4  10  19  33  55  80 103 135 190 222 265 338
#     4   9  18  31  49  77 110 142 178 224 278 333
#     4   9  19  34  56  81 107 146 191 225 270 347
#
# _framework density 23.860824999999998
#
# number of rings (size 3 to 8) (size 9 to 14) (size 15 to 20)
#    0.000    2.500    1.667    1.500    0.000    1.667 
#    0.000    1.667    0.000   24.000    0.000    9.333 
#    0.000    0.000    0.000    0.000    0.000    0.000 
#
# Total GULP energy -133754.717506 kJ/mol
# GULP energy per Si atom -5573.113229 kJ/mol
# Density = 2.380652 g / cm^3
# Si number density = 23.860825 Si / 1000 Ang^3
#
#
#
# Elastic Constant Matrix: (Units=GPa)
#
#
# Indices 1 2 3 4 5 6 
#
# 1 162.1677 2.2249 10.3337 0.0000 -16.1210 0.0000
# 2 2.2249 48.7526 -21.2897 0.0000 -10.5182 0.0000
# 3 10.3337 -21.2897 90.5427 0.0000 -15.1604 0.0000
# 4 0.0000 0.0000 0.0000 -7.9993 0.0000 8.2584
# 5 -16.1210 -10.5182 -15.1604 0.0000 27.5835 0.0000
# 6 0.0000 0.0000 0.0000 8.2584 0.0000 -0.4653
#
#
#
# Elastic Compliance Matrix: (Units=1/GPa)
#
#
# Indices 1 2 3 4 5 6 
#
# 1 0.006562 0.000630 0.000090 0.000000 0.004125 0.000000
# 2 0.000630 0.027972 0.009199 0.000000 0.016090 0.000000
# 3 0.000090 0.009199 0.015192 0.000000 0.011910 0.000000
# 4 0.000000 0.000000 0.000000 0.007216 0.000000 0.128078
# 5 0.004125 0.016090 0.011910 0.000000 0.051346 0.000000
# 6 0.000000 0.000000 0.000000 0.128078 0.000000 0.124059
#
#
# Mechanical properties :
#
#
# Convention : Reuss Voigt Hill
#
# Bulk Modulus (GPa) = 14.37554 31.55566 22.96560
# Shear Modulus (GPa) = 21.21373 24.50340 22.85856
#
# Velocity S-wave (km/s) = 2.98495 3.20805 3.09851
# Velocity P-wave (km/s) = 4.23293 5.19382 4.73780
#
# Compressibility (1/GPa) = 0.06956262
#
# Stress axis : x y z
#
# Youngs Moduli (GPa) = 152.38976 35.75046 65.82606
#
# Poissons Ratio (x) = -0.02251 -0.00590
# Poissons Ratio (y) = -0.09594 -0.60556
# Poissons Ratio (z) = -0.01367 -0.32888
#
# Static dielectric constant tensor:
#      x y z
#    x 1.944160 0.000000 -0.015230 
#    y 0.000000 1.960560 0.000000 
#    z -0.015230 0.000000 1.921870 
# 
# From -- ./inp_files/85121.got.cif
#   From: 2010.05.17/outbox.cif.g08.bks.cpg/sg12_43_cif.got.tgz:85121.got - 2010.06.03 13:09:07.
