data_PCOD9183909
_publ_section_title
;
Structure prediction by ZEFSAII (Michael W. Deem and Ramdas Pophale) SiO2 
 PCOD9183909
Probable space group: C 2/M
;
_chemical_formula_sum "Si O2"
_cell_formula_units_Z 56
_cell_length_a 27.309911
_cell_length_b 7.380816
_cell_length_c 20.718585
_cell_angle_alpha 90.000000
_cell_angle_beta 145.267460
_cell_angle_gamma 90.000000
_cell_volume 2379.393704
_symmetry_space_group_name_H-M "C 2/M"
_symmetry_group_IT_number 12
_symmetry_cell_setting 'monoclinic'
loop_
_space_group_symop_operation_xyz
x,y,z
-x,y,-z
-x,-y,-z
x,-y,z
1/2+x,1/2+y,z
1/2-x,1/2+y,-z
1/2-x,1/2-y,-z
1/2+x,1/2-y,z
loop_
_atom_site_type_symbol
_atom_site_label
_atom_site_fract_x
_atom_site_fract_y
_atom_site_fract_z
Si Si1 0.034760 0.279560 0.607817
Si Si2 0.228502 0.279141 0.803721
Si Si3 0.728172 0.719937 0.295572
Si Si4 0.514286 0.208433 0.222435
Si Si5 0.468274 0.793041 0.898414
Si Si6 0.172724 0.785600 0.965705
Si Si7 0.108651 0.278255 0.445699
O O1 0.034962 0.500000 0.608932
O O2 0.133086 0.221204 0.721418
O O3 0.000000 0.225260 0.500000
O O4 0.968238 0.220759 0.590037
O O5 0.229071 0.500000 0.804783
O O6 0.247580 0.224163 0.751147
O O7 0.296759 0.218161 0.930899
O O8 0.725282 0.500000 0.292908
O O9 0.634567 0.790213 0.211359
O O10 0.801587 0.776963 0.425425
O O11 0.505712 0.291368 0.141942
O O12 0.420147 0.208809 0.152774
O O13 0.583751 0.285474 0.347266
O O14 0.540014 0.000000 0.239324
O O15 0.502310 0.000000 0.935847
O O16 0.500000 0.708276 0.000000
O O17 0.161159 0.000000 0.956507
O O18 0.250000 0.750000 0.000000
O O19 0.108284 0.500000 0.444479
#
# Coordination Sequence:
#
# PCOD9183909 Si02
#       7
#     8   8   8   8   8   8   8
#     4   9  13  22  43  72 105 133 160 201 259 316
#     4   9  17  29  49  79 108 136 174 223 267 309
#     4  10  19  33  56  84 107 131 176 232 277 315
#     4  10  21  38  57  77 106 144 183 221 264 318
#     4  10  22  39  56  75 105 146 184 218 267 326
#     4  11  22  36  55  81 112 143 178 217 264 317
#     4   9  17  30  51  80 109 136 172 221 274 322
#
# _framework density 23.535409000000001
#
# number of rings (size 3 to 8) (size 9 to 14) (size 15 to 20)
#    0.000    2.286    1.429    2.143    0.000    3.714 
#    0.000    1.429    0.000    0.000    0.000    2.000 
#    0.000    0.000    0.000    0.000    0.000    0.000 
#
# Total GULP energy -156536.492142 kJ/mol
# GULP energy per Si atom -5590.589005 kJ/mol
# Density = 2.348184 g / cm^3
# Si number density = 23.535409 Si / 1000 Ang^3
#
#
#
# Elastic Constant Matrix: (Units=GPa)
#
#
# Indices 1 2 3 4 5 6 
#
# 1 100.2869 -2.8552 47.4948 0.0000 -11.1809 0.0000
# 2 -2.8552 89.1432 -1.7745 0.0000 -8.1950 0.0000
# 3 47.4948 -1.7745 154.1298 0.0000 -18.2031 0.0000
# 4 0.0000 0.0000 0.0000 6.8959 0.0000 12.4670
# 5 -11.1809 -8.1950 -18.2031 0.0000 49.9661 0.0000
# 6 0.0000 0.0000 0.0000 12.4670 0.0000 4.5639
#
#
#
# Elastic Compliance Matrix: (Units=1/GPa)
#
#
# Indices 1 2 3 4 5 6 
#
# 1 0.011781 0.000442 -0.003454 0.000000 0.001450 0.000000
# 2 0.000442 0.011426 0.000239 0.000000 0.002060 0.000000
# 3 -0.003454 0.000239 0.007804 0.000000 0.002109 0.000000
# 4 0.000000 0.000000 0.000000 -0.036819 0.000000 0.100577
# 5 0.001450 0.002060 0.002109 0.000000 0.021444 0.000000
# 6 0.000000 0.000000 0.000000 0.100577 0.000000 -0.055632
#
#
# Mechanical properties :
#
#
# Convention : Reuss Voigt Hill
#
# Bulk Modulus (GPa) = 39.26958 47.69890 43.48424
# Shear Modulus (GPa) = -192.60553 32.33151 -80.13701
#
# Velocity S-wave (km/s) = -9.05617 3.71042 -5.84153
# Velocity P-wave (km/s) = 9.62448 6.21829 5.19440
#
# Compressibility (1/GPa) = 0.02546501
#
# Stress axis : x y z
#
# Youngs Moduli (GPa) = 84.87893 87.51832 128.13505
#
# Poissons Ratio (x) = -0.03868 0.44258
# Poissons Ratio (y) = -0.03751 -0.03058
# Poissons Ratio (z) = 0.29318 -0.02089
#
# Static dielectric constant tensor:
#      x y z
#    x 1.864360 0.000000 -0.036900 
#    y 0.000000 1.887460 0.000000 
#    z -0.036900 0.000000 1.866300 
# 
# From -- ./inp_files/329669.got.cif
#   From: 2010.05.17/outbox.cif.g08.bks.cpg/sg12_165_cif.got.tgz:329669.got - 2010.06.03 13:09:07.
