data_PCOD9183168
_publ_section_title
;
Structure prediction by ZEFSAII (Michael W. Deem and Ramdas Pophale) SiO2 
 PCOD9183168
Probable space group: C 2/M
;
_chemical_formula_sum "Si O2"
_cell_formula_units_Z 64
_cell_length_a 20.997300
_cell_length_b 8.745866
_cell_length_c 22.405743
_cell_angle_alpha 90.000000
_cell_angle_beta 117.946745
_cell_angle_gamma 90.000000
_cell_volume 3634.753319
_symmetry_space_group_name_H-M "C 2/M"
_symmetry_group_IT_number 12
_symmetry_cell_setting 'monoclinic'
loop_
_space_group_symop_operation_xyz
x,y,z
-x,y,-z
-x,-y,-z
x,-y,z
1/2+x,1/2+y,z
1/2-x,1/2+y,-z
1/2-x,1/2-y,-z
1/2+x,1/2-y,z
loop_
_atom_site_type_symbol
_atom_site_label
_atom_site_fract_x
_atom_site_fract_y
_atom_site_fract_z
Si Si1 0.948298 0.683666 0.675045
Si Si2 0.709457 0.184474 0.039417
Si Si3 0.168817 0.816535 0.818940
Si Si4 0.417139 0.315949 0.457882
Si Si5 0.479308 0.317123 0.178439
Si Si6 0.403232 0.817930 0.325289
Si Si7 0.669855 0.316026 0.461681
Si Si8 0.542998 0.815128 0.959433
O O1 0.944725 0.500000 0.674584
O O2 0.876906 0.751857 0.613892
O O3 0.966866 0.745572 0.749061
O O4 0.017195 0.730118 0.663981
O O5 0.756698 0.230220 0.117509
O O6 0.711302 0.000000 0.037272
O O7 0.750000 0.250000 0.000000
O O8 0.626471 0.232579 0.003182
O O9 0.101643 0.778186 0.833343
O O10 0.152146 0.738689 0.748998
O O11 0.168234 0.000000 0.811060
O O12 0.500000 0.263566 0.500000
O O13 0.417050 0.500000 0.455201
O O14 0.388281 0.252069 0.383066
O O15 0.372112 0.269960 0.496104
O O16 0.486219 0.500000 0.181901
O O17 0.487111 0.253574 0.115255
O O18 0.402805 0.000000 0.328567
O O19 0.671692 0.500000 0.459406
O O20 0.750000 0.250000 0.500000
O O21 0.540511 0.000000 0.953749
O O22 0.500000 0.770234 0.000000
#
# Coordination Sequence:
#
# PCOD9183168 Si02
#       8
#     8   8   8   8   8   8   8   8
#     4  10  20  35  56  83 113 146 186 229 278 332
#     4  10  19  33  54  79 106 138 179 225 272 323
#     4   9  18  32  51  77 108 141 180 227 279 332
#     4  10  20  36  58  82 110 145 184 225 275 331
#     4  10  19  33  55  81 108 142 186 230 276 328
#     4  10  20  32  53  84 113 142 181 233 282 325
#     4  11  23  39  59  84 115 151 189 230 278 332
#     4  10  21  36  54  79 112 148 184 225 278 335
#
# _framework density 17.607797000000001
#
# number of rings (size 3 to 8) (size 9 to 14) (size 15 to 20)
#    0.000    2.000    2.500    1.500    0.000    3.500 
#    0.000    1.250    0.000    6.000    0.000    0.000 
#    0.000    0.000    0.000    0.000    0.000    0.000 
#
# Total GULP energy -178625.450348 kJ/mol
# GULP energy per Si atom -5582.045323 kJ/mol
# Density = 1.756772 g / cm^3
# Si number density = 17.607797 Si / 1000 Ang^3
#
#
#
# Elastic Constant Matrix: (Units=GPa)
#
#
# Indices 1 2 3 4 5 6 
#
# 1 109.6467 34.9615 81.9088 0.0000 1.0472 0.0000
# 2 34.9615 27.7474 43.9107 0.0000 -0.1253 0.0000
# 3 81.9088 43.9107 179.0102 0.0000 1.0562 0.0000
# 4 0.0000 0.0000 0.0000 30.1296 0.0000 -1.9968
# 5 1.0472 -0.1253 1.0562 0.0000 30.3497 0.0000
# 6 0.0000 0.0000 0.0000 -1.9968 0.0000 21.7244
#
#
#
# Elastic Compliance Matrix: (Units=1/GPa)
#
#
# Indices 1 2 3 4 5 6 
#
# 1 0.016916 -0.014828 -0.004100 0.000000 -0.000502 0.000000
# 2 -0.014828 0.071920 -0.010864 0.000000 0.001187 0.000000
# 3 -0.004100 -0.010864 0.010129 0.000000 -0.000256 0.000000
# 4 0.000000 0.000000 0.000000 0.033393 0.000000 0.003069
# 5 -0.000502 0.001187 -0.000256 0.000000 0.032980 0.000000
# 6 0.000000 0.000000 0.000000 0.003069 0.000000 0.046313
#
#
# Mechanical properties :
#
#
# Convention : Reuss Voigt Hill
#
# Bulk Modulus (GPa) = 25.39288 70.88514 48.13901
# Shear Modulus (GPa) = 17.58321 26.81563 22.19942
#
# Velocity S-wave (km/s) = 3.16350 3.90672 3.55459
# Velocity P-wave (km/s) = 5.27222 7.79071 6.65175
#
# Compressibility (1/GPa) = 0.03938111
#
# Stress axis : x y z
#
# Youngs Moduli (GPa) = 59.11718 13.90427 98.72962
#
# Poissons Ratio (x) = 0.20617 0.40477
# Poissons Ratio (y) = 0.87657 1.07262
# Poissons Ratio (z) = 0.24237 0.15106
#
# Static dielectric constant tensor:
#      x y z
#    x 1.586870 0.000000 0.008040 
#    y 0.000000 1.587860 0.000000 
#    z 0.008040 0.000000 1.588630 
# 
# From -- ./inp_files/319830.got.cif
#   From: 2010.05.17/outbox.cif.g08.bks.cpg/sg12_160_cif.got.tgz:319830.got - 2010.06.03 13:09:07.
