data_PCOD9183686
_publ_section_title
;
Structure prediction by ZEFSAII (Michael W. Deem and Ramdas Pophale) SiO2 
 PCOD9183686
Probable space group: C 2/M
;
_chemical_formula_sum "Si O2"
_cell_formula_units_Z 48
_cell_length_a 10.003654
_cell_length_b 21.027400
_cell_length_c 11.781333
_cell_angle_alpha 90.000000
_cell_angle_beta 64.903769
_cell_angle_gamma 90.000000
_cell_volume 2244.261721
_symmetry_space_group_name_H-M "C 2/M"
_symmetry_group_IT_number 12
_symmetry_cell_setting 'monoclinic'
loop_
_space_group_symop_operation_xyz
x,y,z
-x,y,-z
-x,-y,-z
x,-y,z
1/2+x,1/2+y,z
1/2-x,1/2+y,-z
1/2-x,1/2-y,-z
1/2+x,1/2-y,z
loop_
_atom_site_type_symbol
_atom_site_label
_atom_site_fract_x
_atom_site_fract_y
_atom_site_fract_z
Si Si1 0.008429 0.928109 0.874928
Si Si2 0.747707 0.706686 0.612013
Si Si3 0.965549 0.382378 0.826488
Si Si4 0.733005 0.124886 0.890192
Si Si5 0.412272 0.259967 0.770441
Si Si6 0.829532 0.571668 0.651262
O O1 0.892603 0.905599 0.824408
O O2 0.173045 0.926979 0.772003
O O3 0.960179 0.000000 0.912123
O O4 0.000000 0.893031 0.000000
O O5 0.750000 0.750000 0.500000
O O6 0.573961 0.706593 0.710390
O O7 0.848104 0.742034 0.669646
O O8 0.815039 0.634872 0.578096
O O9 0.939952 0.307526 0.818289
O O10 0.943223 0.416076 0.713873
O O11 0.124267 0.390309 0.826799
O O12 0.845359 0.399562 0.966617
O O13 0.781929 0.198738 0.874338
O O14 0.846853 0.500000 0.596831
#
# Coordination Sequence:
#
# PCOD9183686 Si02
#       6
#     8   8   8   8   8   8
#     4  10  19  33  55  84 119 163 204 237 291 364
#     4  11  23  40  66  88 115 156 207 261 315 367
#     4  10  22  34  54  87 126 164 200 239 300 368
#     4  11  20  34  54  86 127 165 201 237 299 361
#     4  11  21  39  56  87 120 155 198 258 308 358
#     4  10  21  39  62  88 122 160 204 255 305 362
#
# _framework density 21.387879000000002
#
# number of rings (size 3 to 8) (size 9 to 14) (size 15 to 20)
#    0.000    1.500    5.000    1.000    0.000    0.667 
#    3.000    1.667    0.000   11.000    0.000    0.000 
#    0.000    0.000    0.000    0.000    0.000    0.000 
#
# Total GULP energy -133804.557598 kJ/mol
# GULP energy per Si atom -5575.189900 kJ/mol
# Density = 2.133920 g / cm^3
# Si number density = 21.387879 Si / 1000 Ang^3
#
#
#
# Elastic Constant Matrix: (Units=GPa)
#
#
# Indices 1 2 3 4 5 6 
#
# 1 156.4265 14.9254 23.0944 0.0000 8.8844 0.0000
# 2 14.9254 91.6531 11.5073 0.0000 16.3185 0.0000
# 3 23.0944 11.5073 38.1100 0.0000 2.2753 0.0000
# 4 0.0000 0.0000 0.0000 18.0393 0.0000 4.8238
# 5 8.8844 16.3185 2.2753 0.0000 30.9035 0.0000
# 6 0.0000 0.0000 0.0000 4.8238 0.0000 12.8068
#
#
#
# Elastic Compliance Matrix: (Units=1/GPa)
#
#
# Indices 1 2 3 4 5 6 
#
# 1 0.007123 -0.000367 -0.004113 0.000000 -0.001551 0.000000
# 2 -0.000367 0.012482 -0.003173 0.000000 -0.006252 0.000000
# 3 -0.004113 -0.003173 0.029650 0.000000 0.000675 0.000000
# 4 0.000000 0.000000 0.000000 0.061643 0.000000 -0.023218
# 5 -0.001551 -0.006252 0.000675 0.000000 0.036056 0.000000
# 6 0.000000 0.000000 0.000000 -0.023218 0.000000 0.086829
#
#
# Mechanical properties :
#
#
# Convention : Reuss Voigt Hill
#
# Bulk Modulus (GPa) = 29.45659 42.80487 36.13073
# Shear Modulus (GPa) = 19.20073 28.12741 23.66407
#
# Velocity S-wave (km/s) = 2.99948 3.63038 3.32990
# Velocity P-wave (km/s) = 5.07920 6.13432 5.63153
#
# Compressibility (1/GPa) = 0.03394826
#
# Stress axis : x y z
#
# Youngs Moduli (GPa) = 140.38704 80.11503 33.72674
#
# Poissons Ratio (x) = 0.02944 0.13872
# Poissons Ratio (y) = 0.05158 0.10702
# Poissons Ratio (z) = 0.57742 0.25421
#
# Static dielectric constant tensor:
#      x y z
#    x 1.792190 0.000000 -0.001360 
#    y 0.000000 1.864620 0.000000 
#    z -0.001360 0.000000 1.888120 
# 
# From -- ./inp_files/122414.got.cif
#   From: 2010.05.17/outbox.cif.g08.bks.cpg/sg12_62_cif.got.tgz:122414.got - 2010.06.03 13:09:07.
