data_PCOD9183851
_publ_section_title
;
Structure prediction by ZEFSAII (Michael W. Deem and Ramdas Pophale) SiO2 
 PCOD9183851
Probable space group: C 2/M
;
_chemical_formula_sum "Si O2"
_cell_formula_units_Z 48
_cell_length_a 13.564705
_cell_length_b 10.895475
_cell_length_c 15.138430
_cell_angle_alpha 90.000000
_cell_angle_beta 88.127181
_cell_angle_gamma 90.000000
_cell_volume 2236.172544
_symmetry_space_group_name_H-M "C 2/M"
_symmetry_group_IT_number 12
_symmetry_cell_setting 'monoclinic'
loop_
_space_group_symop_operation_xyz
x,y,z
-x,y,-z
-x,-y,-z
x,-y,z
1/2+x,1/2+y,z
1/2-x,1/2+y,-z
1/2-x,1/2-y,-z
1/2+x,1/2-y,z
loop_
_atom_site_type_symbol
_atom_site_label
_atom_site_fract_x
_atom_site_fract_y
_atom_site_fract_z
Si Si1 0.586966 0.180790 0.288635
Si Si2 0.418679 0.136634 0.427200
Si Si3 0.873990 0.856077 0.043153
Si Si4 0.207235 0.860598 0.623846
Si Si5 0.543634 0.637623 0.779568
Si Si6 0.640742 0.134284 0.085714
O O1 0.486328 0.132460 0.336666
O O2 0.680117 0.159767 0.348864
O O3 0.552120 0.318728 0.270337
O O4 0.611799 0.134864 0.189869
O O5 0.500000 0.160724 0.500000
O O6 0.339026 0.245704 0.427828
O O7 0.376273 0.000000 0.441960
O O8 0.927494 0.802154 0.128876
O O9 0.759160 0.860470 0.073401
O O10 0.896996 0.000000 0.020093
O O11 0.890033 0.757573 0.965241
O O12 0.138456 0.858098 0.713311
O O13 0.197097 0.000000 0.587357
O O14 0.526106 0.500000 0.806591
O O15 0.609353 0.000000 0.049952
#
# Coordination Sequence:
#
# PCOD9183851 Si02
#       6
#     8   8   8   8   8   8
#     4  11  21  36  62  87 113 155 199 236 285 348
#     4  10  23  42  62  89 122 150 184 237 294 344
#     4   9  18  35  56  79 114 153 193 242 288 330
#     4  10  20  38  63  87 115 153 194 234 283 344
#     4   9  19  36  57  84 117 154 196 243 288 336
#     4  10  19  33  56  82 111 151 198 238 283 339
#
# _framework density 21.465250000000001
#
# number of rings (size 3 to 8) (size 9 to 14) (size 15 to 20)
#    0.000    2.167    1.667    1.500    0.000    3.000 
#    0.000    7.500    0.000    0.000    0.000    0.000 
#    0.000    0.000    0.000    0.000    0.000    0.000 
#
# Total GULP energy -133694.643838 kJ/mol
# GULP energy per Si atom -5570.610160 kJ/mol
# Density = 2.141639 g / cm^3
# Si number density = 21.465250 Si / 1000 Ang^3
#
#
#
# Elastic Constant Matrix: (Units=GPa)
#
#
# Indices 1 2 3 4 5 6 
#
# 1 97.7114 50.9956 10.0168 0.0000 -8.8853 0.0000
# 2 50.9956 120.0368 45.9410 0.0000 18.9987 0.0000
# 3 10.0168 45.9410 66.6739 0.0000 -7.7400 0.0000
# 4 0.0000 0.0000 0.0000 16.5984 0.0000 10.1263
# 5 -8.8853 18.9987 -7.7400 0.0000 39.7599 0.0000
# 6 0.0000 0.0000 0.0000 10.1263 0.0000 0.7717
#
#
#
# Elastic Compliance Matrix: (Units=1/GPa)
#
#
# Indices 1 2 3 4 5 6 
#
# 1 0.016144 -0.010799 0.006173 0.000000 0.009969 0.000000
# 2 -0.010799 0.020895 -0.014543 0.000000 -0.015228 0.000000
# 3 0.006173 -0.014543 0.025638 0.000000 0.013319 0.000000
# 4 0.000000 0.000000 0.000000 -0.008601 0.000000 0.112850
# 5 0.009969 -0.015228 0.013319 0.000000 0.037248 0.000000
# 6 0.000000 0.000000 0.000000 0.112850 0.000000 -0.184977
#
#
# Mechanical properties :
#
#
# Convention : Reuss Voigt Hill
#
# Bulk Modulus (GPa) = 41.08678 55.36989 48.22833
# Shear Modulus (GPa) = -105.92531 23.25727 -41.33402
#
# Velocity S-wave (km/s) = -7.03239 3.29520 -4.39295
# Velocity P-wave (km/s) = 6.83789 6.35051 1.79273
#
# Compressibility (1/GPa) = 0.02433873
#
# Stress axis : x y z
#
# Youngs Moduli (GPa) = 61.94289 47.85931 39.00503
#
# Poissons Ratio (x) = 0.51683 -0.24077
# Poissons Ratio (y) = 0.66891 0.56724
# Poissons Ratio (z) = -0.38236 0.69600
#
# Static dielectric constant tensor:
#      x y z
#    x 1.770350 0.000000 -0.028160 
#    y 0.000000 1.830710 0.000000 
#    z -0.028160 0.000000 1.800760 
# 
# From -- ./inp_files/212851.got.cif
#   From: 2010.05.17/outbox.cif.g08.bks.cpg/sg12_107_cif.got.tgz:212851.got - 2010.06.03 13:09:07.
