data_PCOD9183024
_publ_section_title
;
Structure prediction by ZEFSAII (Michael W. Deem and Ramdas Pophale) SiO2 
 PCOD9183024
Probable space group: C 2/M
;
_chemical_formula_sum "Si O2"
_cell_formula_units_Z 50
_cell_length_a 19.250145
_cell_length_b 7.648225
_cell_length_c 20.583546
_cell_angle_alpha 90.000000
_cell_angle_beta 123.177375
_cell_angle_gamma 90.000000
_cell_volume 2536.472626
_symmetry_space_group_name_H-M "C 2/M"
_symmetry_group_IT_number 12
_symmetry_cell_setting 'monoclinic'
loop_
_space_group_symop_operation_xyz
x,y,z
-x,y,-z
-x,-y,-z
x,-y,z
1/2+x,1/2+y,z
1/2-x,1/2+y,-z
1/2-x,1/2-y,-z
1/2+x,1/2-y,z
loop_
_atom_site_type_symbol
_atom_site_label
_atom_site_fract_x
_atom_site_fract_y
_atom_site_fract_z
Si Si1 0.368775 0.705055 0.490141
Si Si2 0.000000 0.500000 0.500000
Si Si3 0.057351 0.300576 0.087362
Si Si4 0.686667 0.705540 0.060188
Si Si5 0.455792 0.699514 0.774122
Si Si6 0.367252 0.288464 0.109659
Si Si7 0.819570 0.700557 0.606371
O O1 0.383111 0.500000 0.477908
O O2 0.435864 0.843062 0.496726
O O3 0.273481 0.760835 0.422931
O O4 0.361610 0.709590 0.565444
O O5 0.030851 0.500000 0.085800
O O6 0.147730 0.297354 0.101890
O O7 0.055807 0.203093 0.154201
O O8 0.000000 0.226316 0.000000
O O9 0.669980 0.500000 0.056983
O O10 0.784082 0.734249 0.102946
O O11 0.644671 0.770712 0.971340
O O12 0.455934 0.500000 0.751196
O O13 0.548485 0.775431 0.814343
O O14 0.382195 0.790595 0.698554
O O15 0.370827 0.500000 0.109285
O O16 0.808337 0.500000 0.580319
#
# Coordination Sequence:
#
# PCOD9183024 Si02
#       7
#     8   2   8   8   8   8   8
#     4  10  22  41  70 104 139 175 215 259 321 388
#     4  12  22  40  72 110 140 174 210 272 316 390
#     4  11  22  35  53  79 111 151 201 262 317 371
#     4  10  19  33  54  74 105 143 192 249 311 366
#     4  11  22  36  60  87 118 157 208 259 310 368
#     4   9  19  34  51  78 107 146 192 249 305 367
#     4  10  21  41  66  97 132 173 219 263 310 392
#
# _framework density 19.712415
#
# number of rings (size 3 to 8) (size 9 to 14) (size 15 to 20)
#    0.000    1.760    2.400    2.160    2.240    2.560 
#    0.000    1.600    3.520    5.760    0.000    0.000 
#    0.000    0.000    0.000    0.000    0.000    0.000 
#
# Total GULP energy -139168.177117 kJ/mol
# GULP energy per Si atom -5566.727085 kJ/mol
# Density = 1.966755 g / cm^3
# Si number density = 19.712415 Si / 1000 Ang^3
#
#
#
# Elastic Constant Matrix: (Units=GPa)
#
#
# Indices 1 2 3 4 5 6 
#
# 1 136.3067 43.6271 40.6728 0.0000 15.9126 0.0000
# 2 43.6271 95.7304 12.9304 0.0000 7.5682 0.0000
# 3 40.6728 12.9304 94.2854 0.0000 21.0606 0.0000
# 4 0.0000 0.0000 0.0000 17.2767 0.0000 -2.4481
# 5 15.9126 7.5682 21.0606 0.0000 16.1917 0.0000
# 6 0.0000 0.0000 0.0000 -2.4481 0.0000 26.8119
#
#
#
# Elastic Compliance Matrix: (Units=1/GPa)
#
#
# Indices 1 2 3 4 5 6 
#
# 1 0.009882 -0.003786 -0.002776 0.000000 -0.004331 0.000000
# 2 -0.003786 0.012314 0.000562 0.000000 -0.002766 0.000000
# 3 -0.002776 0.000562 0.015753 0.000000 -0.018024 0.000000
# 4 0.000000 0.000000 0.000000 0.058640 0.000000 0.005354
# 5 -0.004331 -0.002766 -0.018024 0.000000 0.090753 0.000000
# 6 0.000000 0.000000 0.000000 0.005354 0.000000 0.037786
#
#
# Mechanical properties :
#
#
# Convention : Reuss Voigt Hill
#
# Bulk Modulus (GPa) = 38.53730 57.86479 48.20105
# Shear Modulus (GPa) = 20.34358 27.32890 23.83624
#
# Velocity S-wave (km/s) = 3.21599 3.72745 3.48113
# Velocity P-wave (km/s) = 5.77774 6.92412 6.37674
#
# Compressibility (1/GPa) = 0.02594889
#
# Stress axis : x y z
#
# Youngs Moduli (GPa) = 101.19121 81.20686 63.48138
#
# Poissons Ratio (x) = 0.30747 0.17625
# Poissons Ratio (y) = 0.38313 -0.03571
# Poissons Ratio (z) = 0.28094 -0.04568
#
# Static dielectric constant tensor:
#      x y z
#    x 1.726320 0.000000 0.028490 
#    y 0.000000 1.741610 0.000000 
#    z 0.028490 0.000000 1.685230 
# 
# From -- ./inp_files/275806.got.cif
#   From: 2010.05.17/outbox.cif.g08.bks.cpg/sg12_138_cif.got.tgz:275806.got - 2010.06.03 13:09:07.
