data_PCOD9183888
_publ_section_title
;
Structure prediction by ZEFSAII (Michael W. Deem and Ramdas Pophale) SiO2 
 PCOD9183888
Probable space group: C 2/M
;
_chemical_formula_sum "Si O2"
_cell_formula_units_Z 56
_cell_length_a 9.733834
_cell_length_b 18.095381
_cell_length_c 19.633053
_cell_angle_alpha 90.000000
_cell_angle_beta 121.458026
_cell_angle_gamma 90.000000
_cell_volume 2949.851134
_symmetry_space_group_name_H-M "C 2/M"
_symmetry_group_IT_number 12
_symmetry_cell_setting 'monoclinic'
loop_
_space_group_symop_operation_xyz
x,y,z
-x,y,-z
-x,-y,-z
x,-y,z
1/2+x,1/2+y,z
1/2-x,1/2+y,-z
1/2-x,1/2-y,-z
1/2+x,1/2-y,z
loop_
_atom_site_type_symbol
_atom_site_label
_atom_site_fract_x
_atom_site_fract_y
_atom_site_fract_z
Si Si1 0.114217 0.089368 0.314601
Si Si2 0.662459 0.916341 0.996767
Si Si3 0.025332 0.589391 0.583905
Si Si4 0.127471 0.415110 0.318242
Si Si5 0.342193 0.328676 0.157801
Si Si6 0.002329 0.915121 0.426788
Si Si7 0.987720 0.676913 0.839379
O O1 0.296666 0.107213 0.341752
O O2 0.973907 0.125404 0.234538
O O3 0.100371 0.116000 0.389416
O O4 0.094567 0.000000 0.309120
O O5 0.609826 0.871086 0.916914
O O6 0.713514 0.000000 0.994117
O O7 0.500000 0.920598 0.000000
O O8 0.788463 0.874212 0.077159
O O9 0.014550 0.500000 0.576059
O O10 0.000000 0.617163 0.500000
O O11 0.903639 0.611393 0.612363
O O12 0.067626 0.500000 0.297485
O O13 0.318137 0.417556 0.355465
O O14 0.049329 0.365246 0.240437
O O15 0.180730 0.315709 0.161785
O O16 0.427705 0.253810 0.156192
O O17 0.000000 0.878645 0.500000
O O18 0.063851 0.000000 0.452652
#
# Coordination Sequence:
#
# PCOD9183888 Si02
#       7
#     8   8   8   8   8   8   8
#     4  10  19  33  56  83 112 147 192 239 282 334
#     4   9  19  38  65  91 114 143 186 234 277 328
#     4   9  18  32  53  84 117 148 185 237 298 343
#     4  10  19  33  56  83 112 147 192 239 282 334
#     4  11  23  38  59  85 117 154 189 228 280 339
#     4   9  16  28  51  82 109 136 183 245 290 323
#     4  11  23  38  59  85 117 154 189 228 280 339
#
# _framework density 18.984007999999999
#
# number of rings (size 3 to 8) (size 9 to 14) (size 15 to 20)
#    0.000    2.143    1.429    2.143    2.000    4.571 
#    0.000    0.000    0.000    6.000    0.000    0.000 
#    0.000    0.000    0.000    0.000    0.000    0.000 
#
# Total GULP energy -156119.986509 kJ/mol
# GULP energy per Si atom -5575.713804 kJ/mol
# Density = 1.894080 g / cm^3
# Si number density = 18.984008 Si / 1000 Ang^3
#
#
#
# Elastic Constant Matrix: (Units=GPa)
#
#
# Indices 1 2 3 4 5 6 
#
# 1 65.9852 20.4906 7.3709 0.0000 -1.6157 0.0000
# 2 20.4906 79.4054 40.1155 0.0000 4.7431 0.0000
# 3 7.3709 40.1155 93.2552 0.0000 5.1368 0.0000
# 4 0.0000 0.0000 0.0000 -21.1140 0.0000 -5.1919
# 5 -1.6157 4.7431 5.1368 0.0000 23.8716 0.0000
# 6 0.0000 0.0000 0.0000 -5.1919 0.0000 21.6979
#
#
#
# Elastic Compliance Matrix: (Units=1/GPa)
#
#
# Indices 1 2 3 4 5 6 
#
# 1 0.016595 -0.004703 0.000605 0.000000 0.001927 0.000000
# 2 -0.004703 0.017494 -0.007028 0.000000 -0.002282 0.000000
# 3 0.000605 -0.007028 0.013783 0.000000 -0.001528 0.000000
# 4 0.000000 0.000000 0.000000 -0.044730 0.000000 -0.010703
# 5 0.001927 -0.002282 -0.001528 0.000000 0.042804 0.000000
# 6 0.000000 0.000000 0.000000 -0.010703 0.000000 0.043526
#
#
# Mechanical properties :
#
#
# Convention : Reuss Voigt Hill
#
# Bulk Modulus (GPa) = 39.03181 41.62221 40.32701
# Shear Modulus (GPa) = 41.57533 16.26903 28.92218
#
# Velocity S-wave (km/s) = 4.68484 2.93061 3.90744
# Velocity P-wave (km/s) = 7.06177 5.78133 6.45339
#
# Compressibility (1/GPa) = 0.02562013
#
# Stress axis : x y z
#
# Youngs Moduli (GPa) = 60.25903 57.16206 72.55408
#
# Poissons Ratio (x) = 0.26885 -0.04392
# Poissons Ratio (y) = 0.28342 0.50991
# Poissons Ratio (z) = -0.03648 0.40173
#
# Static dielectric constant tensor:
#      x y z
#    x 1.656280 0.000000 -0.010910 
#    y 0.000000 1.649220 0.000000 
#    z -0.010910 0.000000 1.660100 
# 
# From -- ./inp_files/257129.got.cif
#   From: 2010.05.17/outbox.cif.g08.bks.cpg/sg12_129_cif.got.tgz:257129.got - 2010.06.03 13:09:07.
