data_PCOD9183634
_publ_section_title
;
Structure prediction by ZEFSAII (Michael W. Deem and Ramdas Pophale) SiO2 
 PCOD9183634
Probable space group: C 2/M
;
_chemical_formula_sum "Si O2"
_cell_formula_units_Z 48
_cell_length_a 21.081356
_cell_length_b 8.353245
_cell_length_c 15.578591
_cell_angle_alpha 90.000000
_cell_angle_beta 111.588574
_cell_angle_gamma 90.000000
_cell_volume 2550.907885
_symmetry_space_group_name_H-M "C 2/M"
_symmetry_group_IT_number 12
_symmetry_cell_setting 'monoclinic'
loop_
_space_group_symop_operation_xyz
x,y,z
-x,y,-z
-x,-y,-z
x,-y,z
1/2+x,1/2+y,z
1/2-x,1/2+y,-z
1/2-x,1/2-y,-z
1/2+x,1/2-y,z
loop_
_atom_site_type_symbol
_atom_site_label
_atom_site_fract_x
_atom_site_fract_y
_atom_site_fract_z
Si Si1 0.174504 0.807955 0.243667
Si Si2 0.077986 0.193457 0.538474
Si Si3 0.324684 0.306472 0.065703
Si Si4 0.078205 0.195656 0.039883
Si Si5 0.174770 0.690129 0.435742
Si Si6 0.323863 0.306159 0.260108
O O1 0.119634 0.754176 0.145274
O O2 0.160277 0.744614 0.331604
O O3 0.249356 0.751782 0.251610
O O4 0.174051 0.000000 0.245821
O O5 0.119588 0.244040 0.475159
O O6 0.120326 0.248715 0.642997
O O7 0.000000 0.250745 0.500000
O O8 0.076768 0.000000 0.540066
O O9 0.324923 0.500000 0.065309
O O10 0.338268 0.253117 0.169932
O O11 0.250000 0.250000 0.000000
O O12 0.380039 0.252038 0.023490
O O13 0.077932 0.000000 0.039522
O O14 0.000000 0.249102 0.000000
O O15 0.175139 0.500000 0.440076
O O16 0.250000 0.750000 0.500000
O O17 0.323233 0.500000 0.260755
#
# Coordination Sequence:
#
# PCOD9183634 Si02
#       6
#     8   8   8   8   8   8
#     4  11  21  35  60  89 115 152 197 244 293 348
#     4  10  22  40  61  89 121 155 196 243 297 355
#     4  10  19  33  55  83 111 147 189 234 287 337
#     4   9  19  35  56  85 119 151 192 240 287 341
#     4  12  24  39  61  88 119 156 200 247 299 353
#     4  10  20  34  57  85 116 152 191 242 293 347
#
# _framework density 18.816828999999998
#
# number of rings (size 3 to 8) (size 9 to 14) (size 15 to 20)
#    0.000    1.667    3.333    2.000    0.000    1.667 
#    0.000    5.000    0.000    6.500    0.000    0.000 
#    0.000    0.000    0.000    0.000    0.000    0.000 
#
# Total GULP energy -134072.639863 kJ/mol
# GULP energy per Si atom -5586.359994 kJ/mol
# Density = 1.877400 g / cm^3
# Si number density = 18.816829 Si / 1000 Ang^3
#
#
#
# Elastic Constant Matrix: (Units=GPa)
#
#
# Indices 1 2 3 4 5 6 
#
# 1 197.8085 13.3569 124.8102 0.0000 2.8156 0.0000
# 2 13.3569 10.8786 17.7962 0.0000 4.0264 0.0000
# 3 124.8102 17.7962 208.5846 0.0000 -5.5037 0.0000
# 4 0.0000 0.0000 0.0000 21.4038 0.0000 -1.6138
# 5 2.8156 4.0264 -5.5037 0.0000 38.0763 0.0000
# 6 0.0000 0.0000 0.0000 -1.6138 0.0000 27.4027
#
#
#
# Elastic Compliance Matrix: (Units=1/GPa)
#
#
# Indices 1 2 3 4 5 6 
#
# 1 0.008217 -0.001847 -0.004788 0.000000 -0.001104 0.000000
# 2 -0.001847 0.113699 -0.008943 0.000000 -0.013179 0.000000
# 3 -0.004788 -0.008943 0.008489 0.000000 0.002527 0.000000
# 4 0.000000 0.000000 0.000000 0.046929 0.000000 0.002764
# 5 -0.001104 -0.013179 0.002527 0.000000 0.028104 0.000000
# 6 0.000000 0.000000 0.000000 0.002764 0.000000 0.036656
#
#
# Mechanical properties :
#
#
# Convention : Reuss Voigt Hill
#
# Bulk Modulus (GPa) = 10.07573 81.02203 45.54888
# Shear Modulus (GPa) = 16.32204 34.79711 25.55958
#
# Velocity S-wave (km/s) = 2.94839 4.30496 3.68956
# Velocity P-wave (km/s) = 4.11788 8.23784 6.51226
#
# Compressibility (1/GPa) = 0.09924840
#
# Stress axis : x y z
#
# Youngs Moduli (GPa) = 121.69633 8.79512 117.79712
#
# Poissons Ratio (x) = 0.01624 0.56407
# Poissons Ratio (y) = 0.22477 1.05349
# Poissons Ratio (z) = 0.58274 0.07866
#
# Static dielectric constant tensor:
#      x y z
#    x 1.578900 0.000000 -0.029390 
#    y 0.000000 1.658290 0.000000 
#    z -0.029390 0.000000 1.630450 
# 
# From -- ./inp_files/230371.got.cif
#   From: 2010.05.17/outbox.cif.g08.bks.cpg/sg12_116_cif.got.tgz:230371.got - 2010.06.03 13:09:07.
