data_PCOD9183735
_publ_section_title
;
Structure prediction by ZEFSAII (Michael W. Deem and Ramdas Pophale) SiO2 
 PCOD9183735
Probable space group: C 2/M
;
_chemical_formula_sum "Si O2"
_cell_formula_units_Z 40
_cell_length_a 19.030430
_cell_length_b 7.604312
_cell_length_c 20.621361
_cell_angle_alpha 90.000000
_cell_angle_beta 45.898008
_cell_angle_gamma 90.000000
_cell_volume 2142.950070
_symmetry_space_group_name_H-M "C 2/M"
_symmetry_group_IT_number 12
_symmetry_cell_setting 'monoclinic'
loop_
_space_group_symop_operation_xyz
x,y,z
-x,y,-z
-x,-y,-z
x,-y,z
1/2+x,1/2+y,z
1/2-x,1/2+y,-z
1/2-x,1/2-y,-z
1/2+x,1/2-y,z
loop_
_atom_site_type_symbol
_atom_site_label
_atom_site_fract_x
_atom_site_fract_y
_atom_site_fract_z
Si Si1 0.517043 0.786091 0.916502
Si Si2 0.993201 0.800048 0.288887
Si Si3 0.828084 0.708064 0.287612
Si Si4 0.335601 0.000000 0.603473
Si Si5 0.494625 0.000000 0.612240
Si Si6 0.360810 0.790366 0.911304
O O1 0.616328 0.739779 0.814945
O O2 0.428898 0.729046 0.926761
O O3 0.515749 0.000000 0.919118
O O4 0.500000 0.721913 0.000000
O O5 0.000064 0.668488 0.344305
O O6 0.093624 0.790238 0.182904
O O7 0.907332 0.741166 0.294076
O O8 0.974578 0.000000 0.320861
O O9 0.805990 0.500000 0.300264
O O10 0.734427 0.830207 0.356214
O O11 0.397605 0.000000 0.630213
O O12 0.413614 0.000000 0.495311
O O13 0.373060 0.000000 0.896793
O O14 0.250000 0.750000 0.000000
#
# Coordination Sequence:
#
# PCOD9183735 Si02
#       6
#     8   8   8   4   4   8
#     4   8  16  32  55  83 120 159 198 246 297 354
#     4  11  21  41  67  90 123 169 212 259 311 367
#     4  10  20  40  66  93 126 162 211 263 305 372
#     4  11  26  44  65  92 129 159 200 269 331 375
#     4  11  26  46  62  94 130 157 205 267 321 387
#     4  10  19  33  55  87 126 161 203 254 299 362
#
# _framework density 18.665858
#
# number of rings (size 3 to 8) (size 9 to 14) (size 15 to 20)
#    0.000    2.000    3.000    1.800    0.000    4.000 
#    0.000    4.500    0.000    0.000    0.000    0.000 
#    0.000    0.000    0.000    0.000    0.000    0.000 
#
# Total GULP energy -111663.734483 kJ/mol
# GULP energy per Si atom -5583.186724 kJ/mol
# Density = 1.862337 g / cm^3
# Si number density = 18.665858 Si / 1000 Ang^3
#
#
#
# Elastic Constant Matrix: (Units=GPa)
#
#
# Indices 1 2 3 4 5 6 
#
# 1 86.2819 43.1094 78.6692 0.0000 -2.7921 -0.0001
# 2 43.1094 126.9120 48.7891 0.0000 2.1051 -0.0003
# 3 78.6692 48.7891 119.0888 0.0000 3.4989 0.0000
# 4 0.0000 0.0000 0.0000 21.2118 0.0000 -7.3568
# 5 -2.7921 2.1051 3.4989 0.0000 39.1456 0.0000
# 6 -0.0001 -0.0003 0.0000 -7.3568 0.0000 21.0719
#
#
#
# Elastic Compliance Matrix: (Units=1/GPa)
#
#
# Indices 1 2 3 4 5 6 
#
# 1 0.030749 -0.003154 -0.019140 0.000000 0.004074 0.000000
# 2 -0.003154 0.009677 -0.001864 0.000000 -0.000579 0.000000
# 3 -0.019140 -0.001864 0.021899 0.000000 -0.003222 0.000000
# 4 0.000000 0.000000 0.000000 0.053639 0.000000 0.018727
# 5 0.004074 -0.000579 -0.003222 0.000000 0.026155 0.000000
# 6 0.000000 0.000000 0.000000 0.018727 0.000000 0.053994
#
#
# Mechanical properties :
#
#
# Convention : Reuss Voigt Hill
#
# Bulk Modulus (GPa) = 71.38331 74.82423 73.10377
# Shear Modulus (GPa) = 20.07232 27.06685 23.56959
#
# Velocity S-wave (km/s) = 3.28281 3.81211 3.55732
# Velocity P-wave (km/s) = 7.25912 7.71683 7.49147
#
# Compressibility (1/GPa) = 0.01400888
#
# Stress axis : x y z
#
# Youngs Moduli (GPa) = 32.52142 103.33725 45.66406
#
# Poissons Ratio (x) = 0.32596 0.87401
# Poissons Ratio (y) = 0.10258 0.08511
# Poissons Ratio (z) = 0.62246 0.19260
#
# Static dielectric constant tensor:
#      x y z
#    x 1.622450 0.000000 0.002630 
#    y 0.000000 1.660040 0.000000 
#    z 0.002630 0.000000 1.632070 
# 
# From -- ./inp_files/273966.got.cif
#   From: 2010.05.17/outbox.cif.g08.bks.cpg/sg12_137_cif.got.tgz:273966.got - 2010.06.03 13:09:07.
