data_PCOD9183465
_publ_section_title
;
Structure prediction by ZEFSAII (Michael W. Deem and Ramdas Pophale) SiO2 
 PCOD9183465
Probable space group: C 2/M
;
_chemical_formula_sum "Si O2"
_cell_formula_units_Z 56
_cell_length_a 15.199529
_cell_length_b 7.596628
_cell_length_c 22.461757
_cell_angle_alpha 90.000000
_cell_angle_beta 60.265887
_cell_angle_gamma 90.000000
_cell_volume 2252.074264
_symmetry_space_group_name_H-M "C 2/M"
_symmetry_group_IT_number 12
_symmetry_cell_setting 'monoclinic'
loop_
_space_group_symop_operation_xyz
x,y,z
-x,y,-z
-x,-y,-z
x,-y,z
1/2+x,1/2+y,z
1/2-x,1/2+y,-z
1/2-x,1/2-y,-z
1/2+x,1/2-y,z
loop_
_atom_site_type_symbol
_atom_site_label
_atom_site_fract_x
_atom_site_fract_y
_atom_site_fract_z
Si Si1 0.388782 0.708816 0.522757
Si Si2 0.661233 0.285006 0.949784
Si Si3 0.660406 0.211187 0.274711
Si Si4 0.706802 0.789215 0.666229
Si Si5 0.054937 0.712290 0.622924
Si Si6 0.375242 0.210952 0.846856
Si Si7 0.987715 0.210254 0.098571
O O1 0.500000 0.784305 0.500000
O O2 0.391594 0.500000 0.533203
O O3 0.298779 0.780173 0.593672
O O4 0.378008 0.734089 0.455774
O O5 0.661583 0.500000 0.952040
O O6 0.776501 0.223822 0.916462
O O7 0.613831 0.231980 0.901380
O O8 0.581315 0.223911 0.025968
O O9 0.761953 0.250946 0.276787
O O10 0.560670 0.275938 0.343751
O O11 0.643121 0.277110 0.213707
O O12 0.656471 0.000000 0.273079
O O13 0.604806 0.727096 0.668188
O O14 0.704016 0.000000 0.662750
O O15 0.052122 0.500000 0.623996
O O16 0.479762 0.248609 0.845381
O O17 0.369448 0.000000 0.845983
O O18 0.985951 0.000000 0.094995
#
# Coordination Sequence:
#
# PCOD9183465 Si02
#       7
#     8   8   8   8   8   8   8
#     4  10  19  33  55  80 103 126 161 211 257 297
#     4   8  16  32  53  75 103 134 164 204 253 300
#     4  10  22  37  51  72 103 138 172 204 244 299
#     4  10  21  37  55  75 101 132 167 209 254 297
#     4  10  21  36  54  76 102 133 167 205 252 302
#     4  10  20  34  51  73 104 137 167 205 252 295
#     4   9  17  32  54  78 100 129 170 209 247 297
#
# _framework density 24.865964000000002
#
# number of rings (size 3 to 8) (size 9 to 14) (size 15 to 20)
#    0.000    2.429    1.429    1.714    0.000    3.143 
#    0.000    2.143    0.000    0.000    0.000    0.000 
#    0.000    0.000    0.000    0.000    0.000    0.000 
#
# Total GULP energy -156401.264931 kJ/mol
# GULP energy per Si atom -5585.759462 kJ/mol
# Density = 2.480937 g / cm^3
# Si number density = 24.865964 Si / 1000 Ang^3
#
#
#
# Elastic Constant Matrix: (Units=GPa)
#
#
# Indices 1 2 3 4 5 6 
#
# 1 144.7648 -5.2443 10.3829 0.0000 29.5541 0.0001
# 2 -5.2443 50.4577 -7.3657 0.0000 -5.7531 0.0001
# 3 10.3829 -7.3657 40.3342 0.0000 22.4140 0.0000
# 4 0.0000 0.0000 0.0000 5.4143 0.0000 8.8497
# 5 29.5541 -5.7531 22.4140 0.0000 41.4123 0.0000
# 6 0.0001 0.0001 0.0000 8.8497 0.0000 17.9908
#
#
#
# Elastic Compliance Matrix: (Units=1/GPa)
#
#
# Indices 1 2 3 4 5 6 
#
# 1 0.008165 0.000331 0.001675 0.000000 -0.006687 0.000000
# 2 0.000331 0.020414 0.003144 0.000002 0.000899 -0.000001
# 3 0.001675 0.003144 0.036265 0.000000 -0.020386 0.000000
# 4 0.000000 0.000002 0.000000 0.942381 0.000001 -0.463559
# 5 -0.006687 0.000899 -0.020386 0.000001 0.040079 0.000000
# 6 0.000000 -0.000001 0.000000 -0.463559 0.000000 0.283609
#
#
# Mechanical properties :
#
#
# Convention : Reuss Voigt Hill
#
# Bulk Modulus (GPa) = 13.30817 25.67803 19.49310
# Shear Modulus (GPa) = 3.71564 28.81573 16.26569
#
# Velocity S-wave (km/s) = 1.22373 3.40787 2.56038
# Velocity P-wave (km/s) = 2.71298 5.08269 4.07394
#
# Compressibility (1/GPa) = 0.07514182
#
# Stress axis : x y z
#
# Youngs Moduli (GPa) = 122.47577 48.98526 27.57504
#
# Poissons Ratio (x) = -0.01620 -0.04618
# Poissons Ratio (y) = -0.04049 -0.08668
# Poissons Ratio (z) = -0.20513 -0.15399
#
# Static dielectric constant tensor:
#      x y z
#    x 1.987120 0.000000 0.023850 
#    y 0.000000 1.922230 0.000000 
#    z 0.023850 0.000000 2.013850 
# 
# From -- ./inp_files/309515.got.cif
#   From: 2010.05.17/outbox.cif.g08.bks.cpg/sg12_155_cif.got.tgz:309515.got - 2010.06.03 13:09:07.
