data_PCOD9183101
_publ_section_title
;
Structure prediction by ZEFSAII (Michael W. Deem and Ramdas Pophale) SiO2 
 PCOD9183101
Probable space group: C 2/M
;
_chemical_formula_sum "Si O2"
_cell_formula_units_Z 56
_cell_length_a 14.613502
_cell_length_b 7.930703
_cell_length_c 20.805809
_cell_angle_alpha 90.000000
_cell_angle_beta 81.984743
_cell_angle_gamma 90.000000
_cell_volume 2387.740377
_symmetry_space_group_name_H-M "C 2/M"
_symmetry_group_IT_number 12
_symmetry_cell_setting 'monoclinic'
loop_
_space_group_symop_operation_xyz
x,y,z
-x,y,-z
-x,-y,-z
x,-y,z
1/2+x,1/2+y,z
1/2-x,1/2+y,-z
1/2-x,1/2-y,-z
1/2+x,1/2-y,z
loop_
_atom_site_type_symbol
_atom_site_label
_atom_site_fract_x
_atom_site_fract_y
_atom_site_fract_z
Si Si1 0.018664 0.194904 0.399608
Si Si2 0.164661 0.194143 0.287877
Si Si3 0.449813 0.803579 0.808449
Si Si4 0.649982 0.793020 0.776226
Si Si5 0.386686 0.700020 0.944404
Si Si6 0.643649 0.804584 0.503579
Si Si7 0.682161 0.202817 0.918578
O O1 0.082420 0.272633 0.337338
O O2 0.088033 0.204607 0.454032
O O3 0.922111 0.281521 0.427604
O O4 0.997220 0.000000 0.387507
O O5 0.131367 0.200651 0.217272
O O6 0.267304 0.267887 0.277182
O O7 0.171655 0.000000 0.308825
O O8 0.546565 0.743934 0.769364
O O9 0.452491 0.782394 0.885009
O O10 0.435134 0.000000 0.796011
O O11 0.665446 0.736172 0.848167
O O12 0.652862 0.000000 0.776118
O O13 0.393980 0.500000 0.936103
O O14 0.284067 0.758787 0.931667
O O15 0.389497 0.740867 0.019452
O O16 0.750000 0.750000 0.500000
O O17 0.641687 0.000000 0.485477
O O18 0.681499 0.000000 0.917942
#
# Coordination Sequence:
#
# PCOD9183101 Si02
#       7
#     8   8   8   8   8   8   8
#     4  10  21  38  63  93 124 161 202 242 296 354
#     4  10  21  41  62  82 116 156 191 233 284 338
#     4  11  22  35  56  83 110 145 194 239 282 343
#     4   9  19  37  57  78 107 148 189 228 283 346
#     4  10  19  33  54  77 106 140 181 235 296 351
#     4  11  22  39  64  93 129 163 200 246 290 341
#     4   9  17  33  56  75 100 140 186 231 285 354
#
# _framework density 23.453136000000001
#
# number of rings (size 3 to 8) (size 9 to 14) (size 15 to 20)
#    0.000    2.000    1.429    3.429    0.000    3.429 
#    0.000    7.143    0.000    0.000    0.000    0.000 
#    0.000    0.000    0.000    0.000    0.000    0.000 
#
# Total GULP energy -156390.839477 kJ/mol
# GULP energy per Si atom -5585.387124 kJ/mol
# Density = 2.339976 g / cm^3
# Si number density = 23.453136 Si / 1000 Ang^3
#
#
#
# Elastic Constant Matrix: (Units=GPa)
#
#
# Indices 1 2 3 4 5 6 
#
# 1 105.9797 1.1619 25.7260 0.0000 -40.3890 0.0000
# 2 1.1619 46.2118 -5.3682 0.0000 -6.3917 0.0000
# 3 25.7260 -5.3682 88.1385 0.0000 -37.3032 0.0000
# 4 0.0000 0.0000 0.0000 21.1665 0.0000 -3.2137
# 5 -40.3890 -6.3917 -37.3032 0.0000 39.6994 0.0000
# 6 0.0000 0.0000 0.0000 -3.2137 0.0000 10.5249
#
#
#
# Elastic Compliance Matrix: (Units=1/GPa)
#
#
# Indices 1 2 3 4 5 6 
#
# 1 0.016504 0.003073 0.004459 0.000000 0.021475 0.000000
# 2 0.003073 0.023966 0.005843 0.000000 0.012475 0.000000
# 3 0.004459 0.005843 0.021116 0.000000 0.025318 0.000000
# 4 0.000000 0.000000 0.000000 0.049541 0.000000 0.015127
# 5 0.021475 0.012475 0.025318 0.000000 0.072836 0.000000
# 6 0.000000 0.000000 0.000000 0.015127 0.000000 0.099632
#
#
# Mechanical properties :
#
#
# Convention : Reuss Voigt Hill
#
# Bulk Modulus (GPa) = 11.32040 31.48549 21.40295
# Shear Modulus (GPa) = 17.46477 28.86552 23.16515
#
# Velocity S-wave (km/s) = 2.73182 3.51205 3.14621
# Velocity P-wave (km/s) = 3.84548 5.46808 4.72693
#
# Compressibility (1/GPa) = 0.08833612
#
# Stress axis : x y z
#
# Youngs Moduli (GPa) = 60.59169 41.72505 47.35814
#
# Poissons Ratio (x) = -0.12823 -0.21117
# Poissons Ratio (y) = -0.18622 -0.27670
# Poissons Ratio (z) = -0.27018 -0.24379
#
# Static dielectric constant tensor:
#      x y z
#    x 1.902270 0.000000 -0.030280 
#    y 0.000000 1.832010 0.000000 
#    z -0.030280 0.000000 1.957790 
# 
# From -- ./inp_files/337914.got.cif
#   From: 2010.05.17/outbox.cif.g08.bks.cpg/sg12_169_cif.got.tgz:337914.got - 2010.06.03 13:09:07.
