data_PCOD9183692
_publ_section_title
;
Structure prediction by ZEFSAII (Michael W. Deem and Ramdas Pophale) SiO2 
 PCOD9183692
Probable space group: C 2/M
;
_chemical_formula_sum "Si O2"
_cell_formula_units_Z 60
_cell_length_a 12.590558
_cell_length_b 19.995787
_cell_length_c 14.485800
_cell_angle_alpha 90.000000
_cell_angle_beta 64.536386
_cell_angle_gamma 90.000000
_cell_volume 3292.650662
_symmetry_space_group_name_H-M "C 2/M"
_symmetry_group_IT_number 12
_symmetry_cell_setting 'monoclinic'
loop_
_space_group_symop_operation_xyz
x,y,z
-x,y,-z
-x,-y,-z
x,-y,z
1/2+x,1/2+y,z
1/2-x,1/2+y,-z
1/2-x,1/2-y,-z
1/2+x,1/2-y,z
loop_
_atom_site_type_symbol
_atom_site_label
_atom_site_fract_x
_atom_site_fract_y
_atom_site_fract_z
Si Si1 0.988734 0.077317 0.215287
Si Si2 0.750541 0.180538 0.105544
Si Si3 0.000000 0.113284 0.000000
Si Si4 0.362693 0.811159 0.051683
Si Si5 0.263299 0.580854 0.794938
Si Si6 0.252230 0.580866 0.399786
Si Si7 0.099110 0.580182 0.285603
Si Si8 0.175549 0.419108 0.627172
O O1 0.985101 0.078603 0.105397
O O2 0.870155 0.106791 0.304696
O O3 0.111186 0.104181 0.210388
O O4 0.989934 0.000000 0.242802
O O5 0.879455 0.153119 0.033212
O O6 0.782204 0.254427 0.131012
O O7 0.683058 0.127533 0.193997
O O8 0.677857 0.187227 0.038914
O O9 0.336022 0.881739 0.109143
O O10 0.500000 0.795218 0.000000
O O11 0.254375 0.500000 0.806923
O O12 0.242746 0.599483 0.695714
O O13 0.262331 0.500000 0.401466
O O14 0.140370 0.591954 0.375408
O O15 0.232420 0.606259 0.510702
O O16 0.116362 0.500000 0.259898
O O17 0.963142 0.597527 0.318827
O O18 0.179312 0.500000 0.621988
#
# Coordination Sequence:
#
# PCOD9183692 Si02
#       8
#     8   8   4   8   8   8   8   8
#     4  10  20  32  52  82 113 142 177 227 274 316
#     4  11  23  36  57  81 106 146 182 219 270 329
#     4  12  19  36  54  78 107 142 182 226 264 326
#     4  11  23  39  55  77 110 145 185 220 268 327
#     4  10  21  36  54  79 108 143 184 224 271 321
#     4   9  17  30  52  82 111 140 177 224 277 321
#     4  10  19  33  55  85 111 138 179 227 275 317
#     4   9  18  33  53  80 112 142 179 226 270 322
#
# _framework density 18.222401000000001
#
# number of rings (size 3 to 8) (size 9 to 14) (size 15 to 20)
#    0.000    1.867    3.333    1.400    0.000    3.467 
#    0.000    2.667    0.000    0.800    3.467    0.000 
#    0.000    0.000    0.000    0.000    0.000    0.000 
#
# Total GULP energy -167078.884896 kJ/mol
# GULP energy per Si atom -5569.296163 kJ/mol
# Density = 1.818093 g / cm^3
# Si number density = 18.222401 Si / 1000 Ang^3
#
#
#
# Elastic Constant Matrix: (Units=GPa)
#
#
# Indices 1 2 3 4 5 6 
#
# 1 133.7576 20.1823 61.8444 0.0000 9.1115 0.0000
# 2 20.1823 38.9140 25.4428 0.0000 1.4033 0.0000
# 3 61.8444 25.4428 90.1977 0.0000 0.0567 0.0000
# 4 0.0000 0.0000 0.0000 -2.9530 0.0000 4.2914
# 5 9.1115 1.4033 0.0567 0.0000 23.8913 0.0000
# 6 0.0000 0.0000 0.0000 4.2914 0.0000 6.0379
#
#
#
# Elastic Compliance Matrix: (Units=1/GPa)
#
#
# Indices 1 2 3 4 5 6 
#
# 1 0.011395 -0.000796 -0.007586 0.000000 -0.004281 0.000000
# 2 -0.000796 0.031645 -0.008380 0.000000 -0.001535 0.000000
# 3 -0.007586 -0.008380 0.018650 0.000000 0.003341 0.000000
# 4 0.000000 0.000000 0.000000 -0.166582 0.000000 0.118396
# 5 -0.004281 -0.001535 0.003341 0.000000 0.043571 0.000000
# 6 0.000000 0.000000 0.000000 0.118396 0.000000 0.081471
#
#
# Mechanical properties :
#
#
# Convention : Reuss Voigt Hill
#
# Bulk Modulus (GPa) = 35.50293 53.08982 44.29637
# Shear Modulus (GPa) = 79.28638 15.75523 47.52081
#
# Velocity S-wave (km/s) = 6.60340 2.94361 5.11223
# Velocity P-wave (km/s) = 8.81279 6.38363 7.69467
#
# Compressibility (1/GPa) = 0.02816669
#
# Stress axis : x y z
#
# Youngs Moduli (GPa) = 87.75406 31.60102 53.61957
#
# Poissons Ratio (x) = 0.02515 0.40677
# Poissons Ratio (y) = 0.06983 0.44932
# Poissons Ratio (z) = 0.66572 0.26481
#
# Static dielectric constant tensor:
#      x y z
#    x 1.636180 0.000000 -0.004890 
#    y 0.000000 1.651010 0.000000 
#    z -0.004890 0.000000 1.628920 
# 
# From -- ./inp_files/207657.got.cif
#   From: 2010.05.17/outbox.cif.g08.bks.cpg/sg12_104_cif.got.tgz:207657.got - 2010.06.03 13:09:07.
