data_PCOD9183584
_publ_section_title
;
Structure prediction by ZEFSAII (Michael W. Deem and Ramdas Pophale) SiO2 
 PCOD9183584
Probable space group: C 2/M
;
_chemical_formula_sum "Si O2"
_cell_formula_units_Z 56
_cell_length_a 14.639050
_cell_length_b 23.109494
_cell_length_c 9.095721
_cell_angle_alpha 90.000000
_cell_angle_beta 112.861419
_cell_angle_gamma 90.000000
_cell_volume 2835.377735
_symmetry_space_group_name_H-M "C 2/M"
_symmetry_group_IT_number 12
_symmetry_cell_setting 'monoclinic'
loop_
_space_group_symop_operation_xyz
x,y,z
-x,y,-z
-x,-y,-z
x,-y,z
1/2+x,1/2+y,z
1/2-x,1/2+y,-z
1/2-x,1/2-y,-z
1/2+x,1/2-y,z
loop_
_atom_site_type_symbol
_atom_site_label
_atom_site_fract_x
_atom_site_fract_y
_atom_site_fract_z
Si Si1 0.913919 0.565443 0.115327
Si Si2 0.077259 0.349726 0.313340
Si Si3 0.082365 0.133548 0.871659
Si Si4 0.836280 0.434184 0.399785
Si Si5 0.214950 0.648764 0.138658
Si Si6 0.934081 0.729953 0.100482
Si Si7 0.110333 0.931297 0.198357
O O1 0.938230 0.500000 0.101328
O O2 0.865238 0.569247 0.247074
O O3 0.011055 0.604124 0.182878
O O4 0.837307 0.590951 0.952182
O O5 0.109860 0.383552 0.478432
O O6 0.173308 0.335658 0.273502
O O7 0.999497 0.296586 0.274451
O O8 0.169293 0.136171 0.806029
O O9 0.069531 0.201376 0.897659
O O10 0.978174 0.102053 0.772930
O O11 0.115969 0.099385 0.041054
O O12 0.863512 0.500000 0.467079
O O13 0.718110 0.426850 0.338394
O O14 0.170289 0.697676 0.997450
O O15 0.000000 0.713911 0.000000
O O16 0.088777 0.000000 0.169488
#
# Coordination Sequence:
#
# PCOD9183584 Si02
#       7
#     8   8   8   8   8   8   8
#     4  10  19  33  55  82 110 147 193 232 274 333
#     4  10  21  35  52  82 118 148 180 228 281 346
#     4  11  18  35  60  80 108 149 187 237 285 311
#     4  10  20  37  57  81 115 151 187 228 281 336
#     4  10  21  33  54  84 115 144 186 234 278 339
#     4   9  18  34  55  82 110 146 189 229 276 334
#     4  10  21  35  58  87 109 138 197 245 273 325
#
# _framework density 19.750454999999999
#
# number of rings (size 3 to 8) (size 9 to 14) (size 15 to 20)
#    0.000    2.000    2.857    3.429    0.000    3.429 
#    0.000    1.429    0.000    3.429    0.000    0.000 
#    0.000    0.000    0.000    0.000    0.000    0.000 
#
# Total GULP energy -156063.356622 kJ/mol
# GULP energy per Si atom -5573.691308 kJ/mol
# Density = 1.970550 g / cm^3
# Si number density = 19.750455 Si / 1000 Ang^3
#
#
#
# Elastic Constant Matrix: (Units=GPa)
#
#
# Indices 1 2 3 4 5 6 
#
# 1 108.7357 23.0673 3.1883 0.0000 -3.2386 0.0000
# 2 23.0673 114.8124 3.1267 0.0000 6.0186 0.0000
# 3 3.1883 3.1267 27.2806 0.0000 1.3458 0.0000
# 4 0.0000 0.0000 0.0000 -0.9007 0.0000 -4.9797
# 5 -3.2386 6.0186 1.3458 0.0000 16.5613 0.0000
# 6 0.0000 0.0000 0.0000 -4.9797 0.0000 20.2846
#
#
#
# Elastic Compliance Matrix: (Units=1/GPa)
#
#
# Indices 1 2 3 4 5 6 
#
# 1 0.009749 -0.002074 -0.001037 0.000000 0.002745 0.000000
# 2 -0.002074 0.009341 -0.000643 0.000000 -0.003748 0.000000
# 3 -0.001037 -0.000643 0.036998 0.000000 -0.002976 0.000000
# 4 0.000000 0.000000 0.000000 -0.471007 0.000000 -0.115627
# 5 0.002745 -0.003748 -0.002976 0.000000 0.062522 0.000000
# 6 0.000000 0.000000 0.000000 -0.115627 0.000000 0.020913
#
#
# Mechanical properties :
#
#
# Convention : Reuss Voigt Hill
#
# Bulk Modulus (GPa) = 20.58539 34.39926 27.49233
# Shear Modulus (GPa) = -16.24522 21.95212 2.85345
#
# Velocity S-wave (km/s) = -2.87108 3.33749 1.20328
# Velocity P-wave (km/s) = 0.73853 5.68389 3.98504
#
# Compressibility (1/GPa) = 0.04857813
#
# Stress axis : x y z
#
# Youngs Moduli (GPa) = 102.57664 107.05946 27.02862
#
# Poissons Ratio (x) = 0.22207 0.02803
# Poissons Ratio (y) = 0.21277 0.01739
# Poissons Ratio (z) = 0.10637 0.06887
#
# Static dielectric constant tensor:
#      x y z
#    x 1.758470 0.000000 -0.009770 
#    y 0.000000 1.691950 0.000000 
#    z -0.009770 0.000000 1.714250 
# 
# From -- ./inp_files/65444.got.cif
#   From: 2010.05.17/outbox.cif.g08.bks.cpg/sg12_33_cif.got.tgz:65444.got - 2010.06.03 13:09:07.
