data_PCOD9183726
_publ_section_title
;
Structure prediction by ZEFSAII (Michael W. Deem and Ramdas Pophale) SiO2 
 PCOD9183726
Probable space group: C 2/M
;
_chemical_formula_sum "Si O2"
_cell_formula_units_Z 48
_cell_length_a 20.386332
_cell_length_b 13.974484
_cell_length_c 9.406288
_cell_angle_alpha 90.000000
_cell_angle_beta 107.489402
_cell_angle_gamma 90.000000
_cell_volume 2555.865331
_symmetry_space_group_name_H-M "C 2/M"
_symmetry_group_IT_number 12
_symmetry_cell_setting 'monoclinic'
loop_
_space_group_symop_operation_xyz
x,y,z
-x,y,-z
-x,-y,-z
x,-y,z
1/2+x,1/2+y,z
1/2-x,1/2+y,-z
1/2-x,1/2-y,-z
1/2+x,1/2-y,z
loop_
_atom_site_type_symbol
_atom_site_label
_atom_site_fract_x
_atom_site_fract_y
_atom_site_fract_z
Si Si1 0.475496 0.706372 0.321097
Si Si2 0.338140 0.389665 0.223229
Si Si3 0.941058 0.108464 0.842597
Si Si4 0.922894 0.608227 0.388022
Si Si5 0.707230 0.386691 0.114276
Si Si6 0.799264 0.275437 0.399963
O O1 0.500000 0.698113 0.500000
O O2 0.419081 0.626246 0.247712
O O3 0.539696 0.686464 0.262399
O O4 0.435756 0.808193 0.279349
O O5 0.323559 0.500000 0.240376
O O6 0.322645 0.324747 0.348103
O O7 0.297198 0.359314 0.054545
O O8 0.868497 0.126144 0.869126
O O9 0.939566 0.000000 0.781047
O O10 0.000000 0.111801 0.000000
O O11 0.901754 0.500000 0.332750
O O12 0.867033 0.656305 0.458883
O O13 0.000000 0.599825 0.500000
O O14 0.723180 0.500000 0.130170
O O15 0.758023 0.329038 0.247626
O O16 0.750000 0.250000 0.500000
#
# Coordination Sequence:
#
# PCOD9183726 Si02
#       6
#     8   8   8   8   8   8
#     4  10  20  33  56  87 116 148 192 244 288 343
#     4  10  21  38  56  81 115 156 195 234 294 361
#     4  10  19  33  55  86 120 154 188 232 295 360
#     4   9  20  39  60  80 112 156 197 237 290 353
#     4  10  21  37  59  82 114 157 197 237 294 364
#     4  11  24  38  59  90 118 149 195 254 307 355
#
# _framework density 18.780332000000001
#
# number of rings (size 3 to 8) (size 9 to 14) (size 15 to 20)
#    0.000    2.000    1.667    1.500    7.000    2.667 
#    0.000    0.000    0.000    0.500    0.000    0.000 
#    0.000    0.000    0.000    0.000    0.000    0.000 
#
# Total GULP energy -133718.983719 kJ/mol
# GULP energy per Si atom -5571.624322 kJ/mol
# Density = 1.873759 g / cm^3
# Si number density = 18.780332 Si / 1000 Ang^3
#
#
#
# Elastic Constant Matrix: (Units=GPa)
#
#
# Indices 1 2 3 4 5 6 
#
# 1 82.8644 36.7014 15.7538 0.0000 -5.0952 0.0000
# 2 36.7014 88.7772 26.9112 0.0000 -17.9879 0.0000
# 3 15.7538 26.9112 54.7809 0.0000 -2.2573 0.0000
# 4 0.0000 0.0000 0.0000 21.7678 0.0000 3.7890
# 5 -5.0952 -17.9879 -2.2573 0.0000 36.7144 0.0000
# 6 0.0000 0.0000 0.0000 3.7890 0.0000 22.4741
#
#
#
# Elastic Compliance Matrix: (Units=1/GPa)
#
#
# Indices 1 2 3 4 5 6 
#
# 1 0.014901 -0.005917 -0.001416 0.000000 -0.000918 0.000000
# 2 -0.005917 0.017104 -0.006405 0.000000 0.007165 0.000000
# 3 -0.001416 -0.006405 0.021726 0.000000 -0.001999 0.000000
# 4 0.000000 0.000000 0.000000 0.047328 0.000000 -0.007979
# 5 -0.000918 0.007165 -0.001999 0.000000 0.030497 0.000000
# 6 0.000000 0.000000 0.000000 -0.007979 0.000000 0.045841
#
#
# Mechanical properties :
#
#
# Convention : Reuss Voigt Hill
#
# Bulk Modulus (GPa) = 38.08994 42.79502 40.44248
# Shear Modulus (GPa) = 23.40531 25.99500 24.70016
#
# Velocity S-wave (km/s) = 3.53408 3.72447 3.63052
# Velocity P-wave (km/s) = 6.08102 6.42901 6.25743
#
# Compressibility (1/GPa) = 0.02625365
#
# Stress axis : x y z
#
# Youngs Moduli (GPa) = 67.10752 58.46675 46.02750
#
# Poissons Ratio (x) = 0.34595 0.06519
# Poissons Ratio (y) = 0.39708 0.29482
# Poissons Ratio (z) = 0.09505 0.37450
#
# Static dielectric constant tensor:
#      x y z
#    x 1.681360 0.000000 0.024230 
#    y 0.000000 1.694930 0.000000 
#    z 0.024230 0.000000 1.656420 
# 
# From -- ./inp_files/85947.got.cif
#   From: 2010.05.17/outbox.cif.g08.bks.cpg/sg12_43_cif.got.tgz:85947.got - 2010.06.03 13:09:07.
