data_PCOD9183121
_publ_section_title
;
Structure prediction by ZEFSAII (Michael W. Deem and Ramdas Pophale) SiO2 
 PCOD9183121
Probable space group: C 2/M
;
_chemical_formula_sum "Si O2"
_cell_formula_units_Z 64
_cell_length_a 23.391664
_cell_length_b 15.030643
_cell_length_c 28.346521
_cell_angle_alpha 90.000000
_cell_angle_beta 162.553927
_cell_angle_gamma 90.000000
_cell_volume 2988.007579
_symmetry_space_group_name_H-M "C 2/M"
_symmetry_group_IT_number 12
_symmetry_cell_setting 'monoclinic'
loop_
_space_group_symop_operation_xyz
x,y,z
-x,y,-z
-x,-y,-z
x,-y,z
1/2+x,1/2+y,z
1/2-x,1/2+y,-z
1/2-x,1/2-y,-z
1/2+x,1/2-y,z
loop_
_atom_site_type_symbol
_atom_site_label
_atom_site_fract_x
_atom_site_fract_y
_atom_site_fract_z
Si Si1 0.012341 0.609124 0.210144
Si Si2 0.433368 0.107882 0.254560
Si Si3 0.305942 0.896445 0.368727
Si Si4 0.811233 0.107421 0.118093
Si Si5 0.989523 0.850714 0.044998
Si Si6 0.189770 0.898298 0.627580
Si Si7 0.992984 0.642637 0.047484
Si Si8 0.221740 0.109137 0.407198
O O1 0.015387 0.500000 0.211473
O O2 0.987630 0.636362 0.244447
O O3 0.203906 0.640535 0.334439
O O4 0.832443 0.637303 0.036589
O O5 0.594104 0.136866 0.418064
O O6 0.428692 0.000000 0.251170
O O7 0.224046 0.139239 0.104094
O O8 0.500000 0.856834 0.500000
O O9 0.239856 0.860386 0.367306
O O10 0.138740 0.891980 0.198834
O O11 0.348725 0.000000 0.412142
O O12 0.024255 0.138927 0.275515
O O13 0.813282 0.000000 0.118528
O O14 0.712449 0.133124 0.089440
O O15 0.041015 0.746816 0.083260
O O16 0.000000 0.887527 0.000000
O O17 0.352430 0.899646 0.795814
O O18 0.000000 0.856109 0.500000
O O19 0.138227 0.000000 0.574131
O O20 0.000000 0.606998 0.000000
O O21 0.216527 0.000000 0.403738
#
# Coordination Sequence:
#
# PCOD9183121 Si02
#       8
#     8   8   8   8   8   8   8   8
#     4   8  15  29  50  77 106 133 163 206 255 300
#     4  10  19  33  54  78 105 136 172 214 260 308
#     4  10  20  35  56  80 104 133 173 216 258 309
#     4   9  17  33  55  76 102 135 171 210 254 306
#     4  11  23  37  52  73 105 141 175 215 261 307
#     4   9  18  34  57  83 108 135 172 214 256 307
#     4  10  22  37  52  75 107 140 176 216 258 306
#     4   9  18  32  53  82 107 129 167 219 264 302
#
# _framework density 21.418953999999999
#
# number of rings (size 3 to 8) (size 9 to 14) (size 15 to 20)
#    0.000    2.500    0.000    3.000    0.000    6.500 
#    0.000    8.750    0.000    0.000    0.000    0.000 
#    0.000    0.000    0.000    0.000    0.000    0.000 
#
# Total GULP energy -178669.127580 kJ/mol
# GULP energy per Si atom -5583.410237 kJ/mol
# Density = 2.137020 g / cm^3
# Si number density = 21.418954 Si / 1000 Ang^3
#
#
#
# Elastic Constant Matrix: (Units=GPa)
#
#
# Indices 1 2 3 4 5 6 
#
# 1 198.3893 -8.9114 81.2427 -0.1084 13.2314 0.0214
# 2 -8.9114 41.1631 -12.6541 0.0559 0.4569 0.0204
# 3 81.2427 -12.6541 131.2238 -0.8184 27.8531 0.1720
# 4 -0.1084 0.0559 -0.8184-1060.7343 -0.2556 106.2943
# 5 13.2314 0.4569 27.8531 -0.2556 35.8546 0.0347
# 6 0.0214 0.0204 0.1720 106.2943 0.0347 -30.5728
#
#
#
# Elastic Compliance Matrix: (Units=1/GPa)
#
#
# Indices 1 2 3 4 5 6 
#
# 1 0.006778 0.000112 -0.004376 0.000001 0.000897 -0.000016
# 2 0.000112 0.025246 0.002924 0.000004 -0.002635 0.000045
# 3 -0.004376 0.002924 0.012306 -0.000002 -0.007982 0.000053
# 4 0.000001 0.000004 -0.000002 -0.001447 -0.000005 -0.005030
# 5 0.000897 -0.002635 -0.007982 -0.000005 0.033794 -0.000024
# 6 -0.000016 0.000045 0.000053 -0.005030 -0.000024 -0.050197
#
#
# Mechanical properties :
#
#
# Convention : Reuss Voigt Hill
#
# Bulk Modulus (GPa) = 24.00890 54.45897 39.23394
# Shear Modulus (GPa) = 116.16720 -190.35058 -37.09169
#
# Velocity S-wave (km/s) = 7.37248 -9.43732 -4.16591
# Velocity P-wave (km/s) = 9.14903 9.65764 2.18692
#
# Compressibility (1/GPa) = 0.04165122
#
# Stress axis : x y z
#
# Youngs Moduli (GPa) = 147.54227 39.61014 81.26270
#
# Poissons Ratio (x) = -0.00445 0.35558
# Poissons Ratio (y) = -0.01656 -0.23763
# Poissons Ratio (z) = 0.64559 -0.11583
#
# Static dielectric constant tensor:
#      x y z
#    x 1.770950 0.000000 0.018440 
#    y 0.000000 1.805120 -0.000040 
#    z 0.018440 -0.000040 1.727790 
# 
# From -- ./inp_files/366826.got.cif
#   From: 2010.05.17/outbox.cif.g08.bks.cpg/sg12_184_cif.got.tgz:366826.got - 2010.06.03 13:09:07.
