data_PCOD9183068
_publ_section_title
;
Structure prediction by ZEFSAII (Michael W. Deem and Ramdas Pophale) SiO2 
 PCOD9183068
Probable space group: C 2/M
;
_chemical_formula_sum "Si O2"
_cell_formula_units_Z 48
_cell_length_a 13.277201
_cell_length_b 13.674251
_cell_length_c 30.820647
_cell_angle_alpha 90.000000
_cell_angle_beta 153.939910
_cell_angle_gamma 90.000000
_cell_volume 2458.252049
_symmetry_space_group_name_H-M "C 2/M"
_symmetry_group_IT_number 12
_symmetry_cell_setting 'monoclinic'
loop_
_space_group_symop_operation_xyz
x,y,z
-x,y,-z
-x,-y,-z
x,-y,z
1/2+x,1/2+y,z
1/2-x,1/2+y,-z
1/2-x,1/2-y,-z
1/2+x,1/2-y,z
loop_
_atom_site_type_symbol
_atom_site_label
_atom_site_fract_x
_atom_site_fract_y
_atom_site_fract_z
Si Si1 0.227843 0.113948 0.275072
Si Si2 0.718441 0.609851 0.116151
Si Si3 0.348043 0.886955 0.775212
Si Si4 0.198396 0.384707 0.403820
Si Si5 0.492547 0.277265 0.885952
Si Si6 0.130918 0.796386 0.615866
O O1 0.455049 0.120308 0.332903
O O2 0.282956 0.188757 0.336094
O O3 0.030218 0.155292 0.166250
O O4 0.191693 0.000000 0.272939
O O5 0.771821 0.500000 0.152560
O O6 0.640749 0.672718 0.126477
O O7 0.930023 0.641010 0.168143
O O8 0.500000 0.605845 0.000000
O O9 0.361761 0.821529 0.822552
O O10 0.140407 0.858665 0.663808
O O11 0.358552 0.000000 0.788921
O O12 0.268257 0.500000 0.432007
O O13 0.379603 0.314542 0.498693
O O14 0.205824 0.346003 0.357343
O O15 0.750000 0.250000 0.000000
#
# Coordination Sequence:
#
# PCOD9183068 Si02
#       6
#     8   8   8   8   8   8
#     4  10  22  37  55  80 112 147 183 222 269 327
#     4  10  19  33  54  77 101 133 178 223 264 318
#     4  10  20  34  54  80 107 137 176 222 270 321
#     4  10  19  35  59  85 112 142 181 225 270 320
#     4  11  21  33  53  79 105 137 179 228 270 312
#     4  10  19  33  57  85 111 141 178 225 270 317
#
# _framework density 19.526070000000001
#
# number of rings (size 3 to 8) (size 9 to 14) (size 15 to 20)
#    0.000    1.833    1.667    4.000    0.000    3.333 
#    0.000    1.667    0.000   19.500    0.000    0.000 
#    0.000    0.000    0.000    0.000    0.000    0.000 
#
# Total GULP energy -133882.890203 kJ/mol
# GULP energy per Si atom -5578.453758 kJ/mol
# Density = 1.948163 g / cm^3
# Si number density = 19.526070 Si / 1000 Ang^3
#
#
#
# Elastic Constant Matrix: (Units=GPa)
#
#
# Indices 1 2 3 4 5 6 
#
# 1 46.5245 52.3141 13.9396 -0.0004 -15.3564 -0.0003
# 2 52.3141 153.8990 34.7721 -0.0004 -26.0758 0.0000
# 3 13.9396 34.7721 87.4175 0.0000 -19.6203 -0.0006
# 4 -0.0004 -0.0004 0.0000 20.4964 -0.0006 -5.0448
# 5 -15.3564 -26.0758 -19.6203 -0.0006 30.7235 -0.0002
# 6 -0.0003 0.0000 -0.0006 -5.0448 -0.0002 40.6265
#
#
#
# Elastic Compliance Matrix: (Units=1/GPa)
#
#
# Indices 1 2 3 4 5 6 
#
# 1 0.036877 -0.011082 0.000646 0.000001 0.009439 0.000000
# 2 -0.011082 0.011181 -0.002094 0.000000 0.002613 0.000000
# 3 0.000646 -0.002094 0.013824 0.000000 0.007374 0.000000
# 4 0.000001 0.000000 0.000000 0.050327 0.000002 0.006249
# 5 0.009439 0.002613 0.007374 0.000002 0.044193 0.000001
# 6 0.000000 0.000000 0.000000 0.006249 0.000001 0.025391
#
#
# Mechanical properties :
#
#
# Convention : Reuss Voigt Hill
#
# Bulk Modulus (GPa) = 27.15691 54.43252 40.79471
# Shear Modulus (GPa) = 22.81781 30.82361 26.82071
#
# Velocity S-wave (km/s) = 3.42216 3.97745 3.71021
# Velocity P-wave (km/s) = 5.43628 7.00221 6.26833
#
# Compressibility (1/GPa) = 0.03682303
#
# Stress axis : x y z
#
# Youngs Moduli (GPa) = 27.11693 89.43988 72.33673
#
# Poissons Ratio (x) = 0.99119 -0.04675
# Poissons Ratio (y) = 0.30052 0.15145
# Poissons Ratio (z) = -0.01753 0.18726
#
# Static dielectric constant tensor:
#      x y z
#    x 1.669430 0.000000 -0.005340 
#    y 0.000000 1.707100 0.000000 
#    z -0.005340 0.000000 1.751570 
# 
# From -- ./inp_files/212757.got.cif
#   From: 2010.05.17/outbox.cif.g08.bks.cpg/sg12_107_cif.got.tgz:212757.got - 2010.06.03 13:09:07.
