data_PCOD9183027
_publ_section_title
;
Structure prediction by ZEFSAII (Michael W. Deem and Ramdas Pophale) SiO2 
 PCOD9183027
Probable space group: C 2/M
;
_chemical_formula_sum "Si O2"
_cell_formula_units_Z 56
_cell_length_a 14.654615
_cell_length_b 29.269103
_cell_length_c 14.698794
_cell_angle_alpha 90.000000
_cell_angle_beta 148.023185
_cell_angle_gamma 90.000000
_cell_volume 3338.826634
_symmetry_space_group_name_H-M "C 2/M"
_symmetry_group_IT_number 12
_symmetry_cell_setting 'monoclinic'
loop_
_space_group_symop_operation_xyz
x,y,z
-x,y,-z
-x,-y,-z
x,-y,z
1/2+x,1/2+y,z
1/2-x,1/2+y,-z
1/2-x,1/2-y,-z
1/2+x,1/2-y,z
loop_
_atom_site_type_symbol
_atom_site_label
_atom_site_fract_x
_atom_site_fract_y
_atom_site_fract_z
Si Si1 0.348852 0.142806 0.125519
Si Si2 0.072392 0.708009 0.959082
Si Si3 0.757961 0.230062 0.648660
Si Si4 0.718175 0.449684 0.283289
Si Si5 0.033405 0.854880 0.133377
Si Si6 0.537341 0.949096 0.686719
Si Si7 0.397774 0.233274 0.279338
O O1 0.407642 0.160970 0.077613
O O2 0.423161 0.093833 0.216423
O O3 0.401222 0.182470 0.241220
O O4 0.143141 0.144091 0.961068
O O5 0.927463 0.738858 0.787721
O O6 0.256454 0.734341 0.111832
O O7 0.000000 0.702583 0.000000
O O8 0.827715 0.178198 0.701610
O O9 0.598853 0.246891 0.452766
O O10 0.677841 0.231931 0.682568
O O11 0.635125 0.500000 0.217517
O O12 0.596795 0.406507 0.180967
O O13 0.827479 0.447394 0.282630
O O14 0.852990 0.445689 0.480517
O O15 0.000000 0.838198 0.000000
O O16 0.550335 0.000000 0.739400
#
# Coordination Sequence:
#
# PCOD9183027 Si02
#       7
#     8   8   8   8   8   8   8
#     4  12  21  32  52  77 101 134 175 212 248 306
#     4  10  22  40  51  69 103 135 176 222 258 287
#     4  10  19  34  52  72 104 140 165 206 255 302
#     4   9  18  32  49  73 109 142 164 197 250 311
#     4  12  19  29  47  76 111 136 168 206 248 300
#     4   9  18  33  51  74 103 137 173 203 246 311
#     4  10  19  33  54  75 101 134 172 205 252 311
#
# _framework density 16.772359999999999
#
# number of rings (size 3 to 8) (size 9 to 14) (size 15 to 20)
#    0.000    1.714    4.286    2.571    0.000    3.714 
#    2.571    0.000    0.000    0.429    0.000    0.000 
#    0.000    2.286    0.000    0.000    0.000    0.000 
#
# Total GULP energy -156170.692595 kJ/mol
# GULP energy per Si atom -5577.524736 kJ/mol
# Density = 1.673419 g / cm^3
# Si number density = 16.772360 Si / 1000 Ang^3
#
#
#
# Elastic Constant Matrix: (Units=GPa)
#
#
# Indices 1 2 3 4 5 6 
#
# 1 50.3725 33.3953 31.3833 0.0000 -0.3034 0.0000
# 2 33.3953 115.1988 52.0063 0.0000 -0.4613 0.0000
# 3 31.3833 52.0063 99.5763 0.0000 13.7569 0.0000
# 4 0.0000 0.0000 0.0000 24.0905 0.0000 -0.7060
# 5 -0.3034 -0.4613 13.7569 0.0000 17.8467 0.0000
# 6 0.0000 0.0000 0.0000 -0.7060 0.0000 26.9866
#
#
#
# Elastic Compliance Matrix: (Units=1/GPa)
#
#
# Indices 1 2 3 4 5 6 
#
# 1 0.027365 -0.004794 -0.006903 0.000000 0.005663 0.000000
# 2 -0.004794 0.012692 -0.005766 0.000000 0.004691 0.000000
# 3 -0.006903 -0.005766 0.017086 0.000000 -0.013437 0.000000
# 4 0.000000 0.000000 0.000000 0.041542 0.000000 0.001087
# 5 0.005663 0.004691 -0.013437 0.000000 0.066608 0.000000
# 6 0.000000 0.000000 0.000000 0.001087 0.000000 0.037084
#
#
# Mechanical properties :
#
#
# Convention : Reuss Voigt Hill
#
# Bulk Modulus (GPa) = 45.01021 55.41304 50.21162
# Shear Modulus (GPa) = 20.43237 23.67562 22.05399
#
# Velocity S-wave (km/s) = 3.49408 3.76118 3.63009
# Velocity P-wave (km/s) = 6.57057 7.20916 6.89726
#
# Compressibility (1/GPa) = 0.02221718
#
# Stress axis : x y z
#
# Youngs Moduli (GPa) = 36.54270 78.78837 58.52699
#
# Poissons Ratio (x) = 0.37770 0.40403
# Poissons Ratio (y) = 0.17518 0.33747
# Poissons Ratio (z) = 0.25226 0.45430
#
# Static dielectric constant tensor:
#      x y z
#    x 1.556790 0.000000 -0.008910 
#    y 0.000000 1.557210 0.000000 
#    z -0.008910 0.000000 1.626180 
# 
# From -- ./inp_files/90443.got.cif
#   From: 2010.05.17/outbox.cif.g08.bks.cpg/sg12_46_cif.got.tgz:90443.got - 2010.06.03 13:09:07.
