data_PCOD9183223
_publ_section_title
;
Structure prediction by ZEFSAII (Michael W. Deem and Ramdas Pophale) SiO2 
 PCOD9183223
Probable space group: C 2/M
;
_chemical_formula_sum "Si O2"
_cell_formula_units_Z 50
_cell_length_a 28.582782
_cell_length_b 7.745977
_cell_length_c 15.725245
_cell_angle_alpha 90.000000
_cell_angle_beta 49.323612
_cell_angle_gamma 90.000000
_cell_volume 2640.451328
_symmetry_space_group_name_H-M "C 2/M"
_symmetry_group_IT_number 12
_symmetry_cell_setting 'monoclinic'
loop_
_space_group_symop_operation_xyz
x,y,z
-x,y,-z
-x,-y,-z
x,-y,z
1/2+x,1/2+y,z
1/2-x,1/2+y,-z
1/2-x,1/2-y,-z
1/2+x,1/2-y,z
loop_
_atom_site_type_symbol
_atom_site_label
_atom_site_fract_x
_atom_site_fract_y
_atom_site_fract_z
Si Si1 0.415214 0.302962 0.521401
Si Si2 0.840452 0.200844 0.054183
Si Si3 0.000000 0.500000 0.500000
Si Si4 0.471441 0.201522 0.948257
Si Si5 0.631547 0.291442 0.167689
Si Si6 0.504693 0.205618 0.721884
Si Si7 0.794623 0.205316 0.753908
O O1 0.425767 0.500000 0.542098
O O2 0.451753 0.153364 0.526517
O O3 0.441427 0.293542 0.395015
O O4 0.342834 0.267474 0.620811
O O5 0.897352 0.288414 0.034409
O O6 0.773353 0.220214 0.173241
O O7 0.856860 0.000000 0.031078
O O8 0.839885 0.264903 0.956681
O O9 0.489313 0.000000 0.925193
O O10 0.500000 0.279002 0.000000
O O11 0.494197 0.272431 0.830118
O O12 0.630974 0.500000 0.171698
O O13 0.560511 0.231621 0.250012
O O14 0.670880 0.229362 0.201327
O O15 0.515644 0.000000 0.709854
O O16 0.786181 0.000000 0.773937
#
# Coordination Sequence:
#
# PCOD9183223 Si02
#       7
#     8   8   2   8   8   8   8
#     4  11  23  36  53  80 114 154 197 240 277 322
#     4  10  20  32  52  78 108 141 180 231 282 333
#     4  12  22  36  56  78 110 156 204 236 264 324
#     4   9  19  37  61  85 108 138 180 232 292 351
#     4   9  18  32  48  72 105 145 186 228 271 320
#     4  10  19  33  54  80 110 146 186 235 287 334
#     4  10  21  34  50  72 108 154 190 222 266 327
#
# _framework density 18.936157000000001
#
# number of rings (size 3 to 8) (size 9 to 14) (size 15 to 20)
#    0.000    2.080    0.800    2.640    1.120    3.520 
#    0.000    0.000    0.000    0.960    0.000    0.000 
#    0.000    0.000    0.000    0.000    0.000    0.000 
#
# Total GULP energy -139232.338398 kJ/mol
# GULP energy per Si atom -5569.293536 kJ/mol
# Density = 1.889306 g / cm^3
# Si number density = 18.936157 Si / 1000 Ang^3
#
#
#
# Elastic Constant Matrix: (Units=GPa)
#
#
# Indices 1 2 3 4 5 6 
#
# 1 79.1764 3.1588 53.0805 0.0000 3.2123 0.0000
# 2 3.1588 66.6773 13.2126 0.0001 -0.1898 0.0001
# 3 53.0805 13.2126 119.6811 0.0001 -21.2018 0.0000
# 4 0.0000 0.0001 0.0001 18.5305 0.0000 -4.5602
# 5 3.2123 -0.1898 -21.2018 0.0000 16.3299 -0.0001
# 6 0.0000 0.0001 0.0000 -4.5602 -0.0001 12.9786
#
#
#
# Elastic Compliance Matrix: (Units=1/GPa)
#
#
# Indices 1 2 3 4 5 6 
#
# 1 0.023467 0.001758 -0.014826 0.000000 -0.023846 0.000000
# 2 0.001758 0.015552 -0.003281 0.000000 -0.004424 0.000000
# 3 -0.014826 -0.003281 0.020524 0.000000 0.029526 0.000000
# 4 0.000000 0.000000 0.000000 0.059073 0.000000 0.020756
# 5 -0.023846 -0.004424 0.029526 0.000000 0.104211 0.000001
# 6 0.000000 0.000000 0.000000 0.020756 0.000001 0.084343
#
#
# Mechanical properties :
#
#
# Convention : Reuss Voigt Hill
#
# Bulk Modulus (GPa) = 37.25008 44.93762 41.09385
# Shear Modulus (GPa) = 14.33421 22.64000 18.48710
#
# Velocity S-wave (km/s) = 2.75430 3.46149 3.12795
# Velocity P-wave (km/s) = 5.46160 6.30544 5.89863
#
# Compressibility (1/GPa) = 0.02684558
#
# Stress axis : x y z
#
# Youngs Moduli (GPa) = 42.61284 64.30136 48.72343
#
# Poissons Ratio (x) = -0.11307 0.72240
# Poissons Ratio (y) = -0.07493 0.15984
# Poissons Ratio (z) = 0.63180 0.21094
#
# Static dielectric constant tensor:
#      x y z
#    x 1.634160 0.000000 0.031930 
#    y 0.000000 1.683150 0.000000 
#    z 0.031930 0.000000 1.713520 
# 
# From -- ./inp_files/243555.got.cif
#   From: 2010.05.17/outbox.cif.g08.bks.cpg/sg12_122_cif.got.tgz:243555.got - 2010.06.03 13:09:07.
