data_PCOD9183314
_publ_section_title
;
Structure prediction by ZEFSAII (Michael W. Deem and Ramdas Pophale) SiO2 
 PCOD9183314
Probable space group: C 2/M
;
_chemical_formula_sum "Si O2"
_cell_formula_units_Z 48
_cell_length_a 23.138706
_cell_length_b 7.666566
_cell_length_c 24.127214
_cell_angle_alpha 90.000000
_cell_angle_beta 149.384167
_cell_angle_gamma 90.000000
_cell_volume 2179.732032
_symmetry_space_group_name_H-M "C 2/M"
_symmetry_group_IT_number 12
_symmetry_cell_setting 'monoclinic'
loop_
_space_group_symop_operation_xyz
x,y,z
-x,y,-z
-x,-y,-z
x,-y,z
1/2+x,1/2+y,z
1/2-x,1/2+y,-z
1/2-x,1/2-y,-z
1/2+x,1/2-y,z
loop_
_atom_site_type_symbol
_atom_site_label
_atom_site_fract_x
_atom_site_fract_y
_atom_site_fract_z
Si Si1 0.947303 0.788817 0.014021
Si Si2 0.573092 0.286974 0.227015
Si Si3 0.635829 0.709740 0.871977
Si Si4 0.184487 0.204433 0.792290
Si Si5 0.294267 0.790516 0.473455
Si Si6 0.004340 0.701993 0.440774
O O1 0.028711 0.729680 0.130690
O O2 0.942348 0.000000 0.012474
O O3 0.818868 0.725077 0.909508
O O4 0.000000 0.734085 0.000000
O O5 0.575172 0.500000 0.228467
O O6 0.474741 0.228685 0.187523
O O7 0.694000 0.230811 0.349369
O O8 0.630203 0.500000 0.864077
O O9 0.637781 0.779066 0.811507
O O10 0.750000 0.750000 0.000000
O O11 0.121714 0.290201 0.688930
O O12 0.158289 0.000000 0.766601
O O13 0.250000 0.750000 0.500000
O O14 0.410349 0.727707 0.537776
O O15 0.301259 0.000000 0.479840
O O16 0.039343 0.500000 0.476976
O O17 0.000000 0.778392 0.500000
#
# Coordination Sequence:
#
# PCOD9183314 Si02
#       6
#     8   8   8   8   8   8
#     4  10  21  36  60  87 113 153 199 240 286 346
#     4   9  18  34  57  84 113 146 187 238 288 336
#     4  10  19  33  54  82 114 149 187 231 284 345
#     4  11  23  38  59  87 122 155 188 241 303 360
#     4  10  21  39  62  88 120 156 199 249 300 354
#     4  10  23  41  64  90 117 156 208 256 294 353
#
# _framework density 22.021055
#
# number of rings (size 3 to 8) (size 9 to 14) (size 15 to 20)
#    0.000    2.000    1.667    1.500    2.333    3.333 
#    0.000    1.667    0.000    0.000    0.000    0.000 
#    0.000    0.000    0.000    0.000    0.000    0.000 
#
# Total GULP energy -133898.958902 kJ/mol
# GULP energy per Si atom -5579.123288 kJ/mol
# Density = 2.197093 g / cm^3
# Si number density = 22.021055 Si / 1000 Ang^3
#
#
#
# Elastic Constant Matrix: (Units=GPa)
#
#
# Indices 1 2 3 4 5 6 
#
# 1 125.6853 15.2524 46.1138 0.0000 -29.2580 0.0000
# 2 15.2524 43.2067 -2.4178 0.0001 -2.4789 0.0001
# 3 46.1138 -2.4178 135.0933 0.0000 -23.1866 0.0000
# 4 0.0000 0.0001 0.0000 15.3123 0.0000 2.7792
# 5 -29.2580 -2.4789 -23.1866 0.0000 39.7515 0.0000
# 6 0.0000 0.0001 0.0000 2.7792 0.0000 17.9081
#
#
#
# Elastic Compliance Matrix: (Units=1/GPa)
#
#
# Indices 1 2 3 4 5 6 
#
# 1 0.010821 -0.003617 -0.002701 0.000000 0.006164 0.000000
# 2 -0.003617 0.024503 0.001643 0.000000 -0.000176 0.000000
# 3 -0.002701 0.001643 0.008923 0.000000 0.003320 0.000000
# 4 0.000000 0.000000 0.000000 0.067200 0.000000 -0.010429
# 5 0.006164 -0.000176 0.003320 0.000000 0.031618 0.000000
# 6 0.000000 0.000000 0.000000 -0.010429 0.000000 0.057459
#
#
# Mechanical properties :
#
#
# Convention : Reuss Voigt Hill
#
# Bulk Modulus (GPa) = 28.65494 46.87579 37.76537
# Shear Modulus (GPa) = 22.57263 30.93018 26.75141
#
# Velocity S-wave (km/s) = 3.20511 3.75183 3.48919
# Velocity P-wave (km/s) = 5.17086 6.33256 5.78096
#
# Compressibility (1/GPa) = 0.03489799
#
# Stress axis : x y z
#
# Youngs Moduli (GPa) = 92.41240 40.81067 112.06611
#
# Poissons Ratio (x) = 0.14763 0.30264
# Poissons Ratio (y) = 0.33430 -0.18414
# Poissons Ratio (z) = 0.24957 -0.06706
#
# Static dielectric constant tensor:
#      x y z
#    x 1.815790 0.000000 0.008630 
#    y 0.000000 1.829680 0.000000 
#    z 0.008630 0.000000 1.817400 
# 
# From -- ./inp_files/348899.got.cif
#   From: 2010.05.17/outbox.cif.g08.bks.cpg/sg12_175_cif.got.tgz:348899.got - 2010.06.03 13:09:07.
