data_PCOD9183754
_publ_section_title
;
Structure prediction by ZEFSAII (Michael W. Deem and Ramdas Pophale) SiO2 
 PCOD9183754
Probable space group: C 2/M
;
_chemical_formula_sum "Si O2"
_cell_formula_units_Z 64
_cell_length_a 31.416519
_cell_length_b 7.777514
_cell_length_c 11.631489
_cell_angle_alpha 90.000000
_cell_angle_beta 93.566290
_cell_angle_gamma 90.000000
_cell_volume 2836.562463
_symmetry_space_group_name_H-M "C 2/M"
_symmetry_group_IT_number 12
_symmetry_cell_setting 'monoclinic'
loop_
_space_group_symop_operation_xyz
x,y,z
-x,y,-z
-x,-y,-z
x,-y,z
1/2+x,1/2+y,z
1/2-x,1/2+y,-z
1/2-x,1/2-y,-z
1/2+x,1/2-y,z
loop_
_atom_site_type_symbol
_atom_site_label
_atom_site_fract_x
_atom_site_fract_y
_atom_site_fract_z
Si Si1 0.046861 0.302378 0.520080
Si Si2 0.857476 0.289353 0.868720
Si Si3 0.887275 0.300681 0.118466
Si Si4 0.868097 0.709061 0.355101
Si Si5 0.981383 0.801282 0.116915
Si Si6 0.760049 0.707235 0.865329
Si Si7 0.937038 0.696711 0.741056
Si Si8 0.723765 0.702074 0.611484
O O1 0.039641 0.500000 0.562257
O O2 0.085614 0.224342 0.597629
O O3 0.064893 0.309386 0.395031
O O4 0.000000 0.221755 0.500000
O O5 0.857120 0.500000 0.864001
O O6 0.808809 0.236476 0.849464
O O7 0.893227 0.231954 0.784598
O O8 0.874658 0.226745 0.994509
O O9 0.874692 0.500000 0.110882
O O10 0.863559 0.225889 0.223912
O O11 0.938056 0.291193 0.144077
O O12 0.870931 0.500000 0.357735
O O13 0.826134 0.757523 0.416879
O O14 0.019941 0.788988 0.212363
O O15 0.969641 0.000000 0.096791
O O16 0.000000 0.731951 0.000000
O O17 0.757336 0.500000 0.863151
O O18 0.735689 0.771961 0.743598
O O19 0.750000 0.750000 0.000000
O O20 0.941988 0.500000 0.784995
O O21 0.729679 0.500000 0.622833
O O22 0.750000 0.750000 0.500000
#
# Coordination Sequence:
#
# PCOD9183754 Si02
#       8
#     8   8   8   8   8   8   8   8
#     4   9  18  33  56  87 115 146 193 243 288 340
#     4   9  18  32  55  84 108 139 188 242 292 347
#     4  10  19  34  58  85 111 147 194 242 293 355
#     4  10  21  38  64  91 119 155 200 252 303 360
#     4  11  22  34  49  76 116 154 186 234 294 353
#     4  10  22  41  65  92 122 157 203 257 315 372
#     4  10  19  33  56  78 105 145 191 240 285 343
#     4  11  25  43  66  95 130 170 212 258 314 380
#
# _framework density 22.562522000000001
#
# number of rings (size 3 to 8) (size 9 to 14) (size 15 to 20)
#    0.000    2.000    1.250    2.250    1.750    5.000 
#    0.000    1.875    0.000    1.500    0.000    0.000 
#    0.000    0.000    0.000    0.000    0.000    0.000 
#
# Total GULP energy -178435.772694 kJ/mol
# GULP energy per Si atom -5576.117897 kJ/mol
# Density = 2.251117 g / cm^3
# Si number density = 22.562522 Si / 1000 Ang^3
#
#
#
# Elastic Constant Matrix: (Units=GPa)
#
#
# Indices 1 2 3 4 5 6 
#
# 1 144.5424 -4.3901 47.1378 0.0000 -5.6940 0.0000
# 2 -4.3901 35.9730 8.3908 0.0000 2.3272 0.0000
# 3 47.1378 8.3908 95.3981 0.0000 -4.0002 0.0000
# 4 0.0000 0.0000 0.0000 9.8497 0.0000 -3.2231
# 5 -5.6940 2.3272 -4.0002 0.0000 29.7816 0.0000
# 6 0.0000 0.0000 0.0000 -3.2231 0.0000 10.2493
#
#
#
# Elastic Compliance Matrix: (Units=1/GPa)
#
#
# Indices 1 2 3 4 5 6 
#
# 1 0.008413 0.001971 -0.004294 0.000000 0.000878 0.000000
# 2 0.001971 0.029039 -0.003628 0.000000 -0.002380 0.000000
# 3 -0.004294 -0.003628 0.012974 0.000000 0.001205 0.000000
# 4 0.000000 0.000000 0.000000 0.113172 0.000000 0.035589
# 5 0.000878 -0.002380 0.001205 0.000000 0.034093 0.000000
# 6 0.000000 0.000000 0.000000 0.035589 0.000000 0.108759
#
#
# Mechanical properties :
#
#
# Convention : Reuss Voigt Hill
#
# Bulk Modulus (GPa) = 25.95681 42.02115 33.98898
# Shear Modulus (GPa) = 15.09695 24.96111 20.02903
#
# Velocity S-wave (km/s) = 2.58953 3.32973 2.98268
# Velocity P-wave (km/s) = 4.52441 5.78339 5.19220
#
# Compressibility (1/GPa) = 0.03852554
#
# Stress axis : x y z
#
# Youngs Moduli (GPa) = 118.86269 34.43593 77.07964
#
# Poissons Ratio (x) = -0.06789 0.33095
# Poissons Ratio (y) = -0.23433 0.27965
# Poissons Ratio (z) = 0.51035 0.12494
#
# Static dielectric constant tensor:
#      x y z
#    x 1.839640 0.000000 0.028070 
#    y 0.000000 1.982090 0.000000 
#    z 0.028070 0.000000 1.877290 
# 
# From -- ./inp_files/187560.got.cif
#   From: 2010.05.17/outbox.cif.g08.bks.cpg/sg12_94_cif.got.tgz:187560.got - 2010.06.03 13:09:07.
