data_PCOD9183276
_publ_section_title
;
Structure prediction by ZEFSAII (Michael W. Deem and Ramdas Pophale) SiO2 
 PCOD9183276
Probable space group: C 2/M
;
_chemical_formula_sum "Si O2"
_cell_formula_units_Z 56
_cell_length_a 29.509984
_cell_length_b 7.751590
_cell_length_c 19.959823
_cell_angle_alpha 90.000000
_cell_angle_beta 33.415091
_cell_angle_gamma 90.000000
_cell_volume 2514.386352
_symmetry_space_group_name_H-M "C 2/M"
_symmetry_group_IT_number 12
_symmetry_cell_setting 'monoclinic'
loop_
_space_group_symop_operation_xyz
x,y,z
-x,y,-z
-x,-y,-z
x,-y,z
1/2+x,1/2+y,z
1/2-x,1/2+y,-z
1/2-x,1/2-y,-z
1/2+x,1/2-y,z
loop_
_atom_site_type_symbol
_atom_site_label
_atom_site_fract_x
_atom_site_fract_y
_atom_site_fract_z
Si Si1 0.497386 0.206275 0.795500
Si Si2 0.683242 0.703798 0.526708
Si Si3 0.265417 0.712160 0.683680
Si Si4 0.275373 0.705477 0.892834
Si Si5 0.427985 0.304122 0.546018
Si Si6 0.046019 0.297856 0.295618
Si Si7 0.644678 0.788706 0.941011
O O1 0.592243 0.248501 0.664774
O O2 0.447567 0.255847 0.789632
O O3 0.494334 0.000000 0.803674
O O4 0.445232 0.271453 0.923433
O O5 0.682641 0.500000 0.519295
O O6 0.750000 0.750000 0.500000
O O7 0.712290 0.775038 0.418262
O O8 0.268043 0.500000 0.679763
O O9 0.338821 0.769842 0.642920
O O10 0.180703 0.763721 0.824349
O O11 0.277712 0.500000 0.884423
O O12 0.368689 0.771101 0.770942
O O13 0.210266 0.765560 0.917609
O O14 0.250000 0.750000 0.000000
O O15 0.500000 0.215690 0.500000
O O16 0.417368 0.500000 0.585167
O O17 0.471760 0.306498 0.419724
O O18 0.024705 0.500000 0.323513
O O19 0.644364 0.000000 0.941024
#
# Coordination Sequence:
#
# PCOD9183276 Si02
#       7
#     8   8   8   8   8   8   8
#     4  10  20  37  60  85 115 150 189 237 293 346
#     4  11  23  41  66  92 115 145 190 242 300 361
#     4   9  18  34  58  87 114 146 195 245 289 341
#     4  11  20  32  51  78 117 162 205 246 286 339
#     4  10  19  33  54  81 113 154 200 244 290 342
#     4  11  21  33  50  79 115 155 200 243 292 342
#     4   9  18  35  57  83 116 154 196 244 288 333
#
# _framework density 22.271837000000001
#
# number of rings (size 3 to 8) (size 9 to 14) (size 15 to 20)
#    0.000    1.857    2.857    2.143    0.000    3.143 
#    0.000    0.714    0.000    9.429    0.000    0.000 
#    0.000    0.000    0.000    0.000    0.000    0.000 
#
# Total GULP energy -156267.558324 kJ/mol
# GULP energy per Si atom -5580.984226 kJ/mol
# Density = 2.222115 g / cm^3
# Si number density = 22.271837 Si / 1000 Ang^3
#
#
#
# Elastic Constant Matrix: (Units=GPa)
#
#
# Indices 1 2 3 4 5 6 
#
# 1 92.0172 -3.4476 66.3155 0.0013 2.4409 -0.0002
# 2 -3.4476 31.9668 10.1558 0.0260 3.3202 -0.0072
# 3 66.3155 10.1558 205.7118 0.0150 18.4865 0.0068
# 4 0.0013 0.0260 0.0150 22.0685 0.0040 -1.1008
# 5 2.4409 3.3202 18.4865 0.0040 25.6403 -0.0061
# 6 -0.0002 -0.0072 0.0068 -1.1008 -0.0061 17.7074
#
#
#
# Elastic Compliance Matrix: (Units=1/GPa)
#
#
# Indices 1 2 3 4 5 6 
#
# 1 0.014530 0.002963 -0.004995 -0.000001 0.001835 0.000004
# 2 0.002963 0.032631 -0.002311 -0.000036 -0.002841 0.000011
# 3 -0.004995 -0.002311 0.006967 -0.000001 -0.004249 -0.000005
# 4 -0.000001 -0.000036 -0.000001 0.045454 -0.000001 0.002826
# 5 0.001835 -0.002841 -0.004249 -0.000001 0.042258 0.000015
# 6 0.000004 0.000011 -0.000005 0.002826 0.000015 0.056649
#
#
# Mechanical properties :
#
#
# Convention : Reuss Voigt Hill
#
# Bulk Modulus (GPa) = 22.00546 52.86035 37.43291
# Shear Modulus (GPa) = 22.48979 30.19471 26.34225
#
# Velocity S-wave (km/s) = 3.18116 3.68603 3.44286
# Velocity P-wave (km/s) = 4.83683 6.47313 5.71386
#
# Compressibility (1/GPa) = 0.04544327
#
# Stress axis : x y z
#
# Youngs Moduli (GPa) = 68.82383 30.64532 143.52618
#
# Poissons Ratio (x) = -0.09082 0.71694
# Poissons Ratio (y) = -0.20396 0.33168
# Poissons Ratio (z) = 0.34379 0.07082
#
# Static dielectric constant tensor:
#      x y z
#    x 1.816500 0.000000 0.059250 
#    y 0.000000 1.809810 0.000000 
#    z 0.059250 0.000000 1.889260 
# 
# From -- ./inp_files/329536.got.cif
#   From: 2010.05.17/outbox.cif.g08.bks.cpg/sg12_165_cif.got.tgz:329536.got - 2010.06.03 13:09:07.
