data_PCOD9183624
_publ_section_title
;
Structure prediction by ZEFSAII (Michael W. Deem and Ramdas Pophale) SiO2 
 PCOD9183624
Probable space group: C 2/M
;
_chemical_formula_sum "Si O2"
_cell_formula_units_Z 56
_cell_length_a 9.206034
_cell_length_b 16.327772
_cell_length_c 20.678870
_cell_angle_alpha 90.000000
_cell_angle_beta 133.921240
_cell_angle_gamma 90.000000
_cell_volume 2238.907285
_symmetry_space_group_name_H-M "C 2/M"
_symmetry_group_IT_number 12
_symmetry_cell_setting 'monoclinic'
loop_
_space_group_symop_operation_xyz
x,y,z
-x,y,-z
-x,-y,-z
x,-y,z
1/2+x,1/2+y,z
1/2-x,1/2+y,-z
1/2-x,1/2-y,-z
1/2+x,1/2-y,z
loop_
_atom_site_type_symbol
_atom_site_label
_atom_site_fract_x
_atom_site_fract_y
_atom_site_fract_z
Si Si1 0.068787 0.356226 0.923951
Si Si2 0.225370 0.087657 0.730110
Si Si3 0.243826 0.266825 0.858570
Si Si4 0.225850 0.091147 0.539731
Si Si5 0.514172 0.412979 0.925500
Si Si6 0.814647 0.269166 0.661517
Si Si7 0.216349 0.090860 0.380873
O O1 0.186168 0.293258 0.912935
O O2 0.934474 0.410169 0.833596
O O3 0.895087 0.308109 0.906733
O O4 0.249754 0.400776 0.016083
O O5 0.219306 0.168701 0.684641
O O6 0.022419 0.087588 0.709291
O O7 0.218467 0.000000 0.692101
O O8 0.368516 0.339574 0.862290
O O9 0.039435 0.254497 0.757143
O O10 0.321863 0.172673 0.600565
O O11 0.224462 0.096241 0.461565
O O12 0.000000 0.091994 0.500000
O O13 0.311847 0.000000 0.581392
O O14 0.443227 0.500000 0.877781
O O15 0.500000 0.415687 0.000000
O O16 0.712156 0.179990 0.621855
O O17 0.300552 0.000000 0.388765
#
# Coordination Sequence:
#
# PCOD9183624 Si02
#       7
#     8   8   8   8   8   8   8
#     4  10  19  35  55  82 114 147 192 236 290 340
#     4  10  19  33  57  83 108 140 191 240 277 334
#     4  10  21  33  55  83 114 148 191 239 288 349
#     4  10  19  33  55  83 110 141 189 243 288 339
#     4   9  18  33  54  81 112 147 191 243 291 335
#     4  11  20  33  55  83 111 146 184 239 295 337
#     4  10  20  35  53  78 110 142 184 235 282 343
#
# _framework density 25.012201999999998
#
# number of rings (size 3 to 8) (size 9 to 14) (size 15 to 20)
#    0.000    2.000    2.857    1.714    0.000    4.000 
#    0.000    0.000    0.000    8.143    0.000    0.000 
#    0.000    0.000    0.000    0.000    0.000    0.000 
#
# Total GULP energy -156398.196880 kJ/mol
# GULP energy per Si atom -5585.649889 kJ/mol
# Density = 2.495527 g / cm^3
# Si number density = 25.012202 Si / 1000 Ang^3
#
#
#
# Elastic Constant Matrix: (Units=GPa)
#
#
# Indices 1 2 3 4 5 6 
#
# 1 66.2387 39.3252 12.3536 0.0000 16.7053 0.0000
# 2 39.3252 223.0662 27.2315 0.0000 -12.1666 0.0000
# 3 12.3536 27.2315 52.4256 0.0000 7.4901 0.0000
# 4 0.0000 0.0000 0.0000 26.7624 0.0000 -4.7793
# 5 16.7053 -12.1666 7.4901 0.0000 17.4409 0.0000
# 6 0.0000 0.0000 0.0000 -4.7793 0.0000 11.7520
#
#
#
# Elastic Compliance Matrix: (Units=1/GPa)
#
#
# Indices 1 2 3 4 5 6 
#
# 1 0.026328 -0.006483 0.001505 0.000000 -0.030386 0.000000
# 2 -0.006483 0.006773 -0.003785 0.000000 0.012559 0.000000
# 3 0.001505 -0.003785 0.022660 0.000000 -0.013813 0.000000
# 4 0.000000 0.000000 0.000000 0.040292 0.000000 0.016386
# 5 -0.030386 0.012559 -0.013813 0.000000 0.101135 0.000000
# 6 0.000000 0.000000 0.000000 0.016386 0.000000 0.091756
#
#
# Mechanical properties :
#
#
# Convention : Reuss Voigt Hill
#
# Bulk Modulus (GPa) = 26.15403 55.50567 40.82985
# Shear Modulus (GPa) = 15.66347 28.71239 22.18793
#
# Velocity S-wave (km/s) = 2.50518 3.39180 2.98163
# Velocity P-wave (km/s) = 4.34133 6.13014 5.31158
#
# Compressibility (1/GPa) = 0.03823503
#
# Stress axis : x y z
#
# Youngs Moduli (GPa) = 37.98193 147.64790 44.13150
#
# Poissons Ratio (x) = 0.95713 -0.06640
# Poissons Ratio (y) = 0.24622 0.16703
# Poissons Ratio (z) = -0.05715 0.55883
#
# Static dielectric constant tensor:
#      x y z
#    x 2.014250 0.000000 -0.045660 
#    y 0.000000 2.025650 0.000000 
#    z -0.045660 0.000000 2.001540 
# 
# From -- ./inp_files/358226.got.cif
#   From: 2010.05.17/outbox.cif.g08.bks.cpg/sg12_180_cif.got.tgz:358226.got - 2010.06.03 13:09:07.
