data_PCOD9183902
_publ_section_title
;
Structure prediction by ZEFSAII (Michael W. Deem and Ramdas Pophale) SiO2 
 PCOD9183902
Probable space group: C 2/M
;
_chemical_formula_sum "Si O2"
_cell_formula_units_Z 48
_cell_length_a 14.672396
_cell_length_b 15.196743
_cell_length_c 19.714290
_cell_angle_alpha 90.000000
_cell_angle_beta 150.660274
_cell_angle_gamma 90.000000
_cell_volume 2153.858866
_symmetry_space_group_name_H-M "C 2/M"
_symmetry_group_IT_number 12
_symmetry_cell_setting 'monoclinic'
loop_
_space_group_symop_operation_xyz
x,y,z
-x,y,-z
-x,-y,-z
x,-y,z
1/2+x,1/2+y,z
1/2-x,1/2+y,-z
1/2-x,1/2-y,-z
1/2+x,1/2-y,z
loop_
_atom_site_type_symbol
_atom_site_label
_atom_site_fract_x
_atom_site_fract_y
_atom_site_fract_z
Si Si1 0.777864 0.398920 0.719176
Si Si2 0.571114 0.394763 0.183786
Si Si3 0.803469 0.643202 0.465717
Si Si4 0.841624 0.391902 0.087624
Si Si5 0.688888 0.898888 0.779146
Si Si6 0.591107 0.347050 0.459771
O O1 0.787097 0.500000 0.748206
O O2 0.690040 0.396932 0.586229
O O3 0.628802 0.350906 0.669704
O O4 0.983951 0.360462 0.843482
O O5 0.556598 0.500000 0.165956
O O6 0.718034 0.378916 0.338206
O O7 0.650901 0.358866 0.164350
O O8 0.364117 0.364479 0.068386
O O9 0.659215 0.618404 0.431688
O O10 0.840491 0.747263 0.490562
O O11 0.000807 0.601861 0.613167
O O12 0.856794 0.500000 0.095929
O O13 0.856064 0.361637 0.175685
O O14 0.743467 0.000000 0.828126
#
# Coordination Sequence:
#
# PCOD9183902 Si02
#       6
#     8   8   8   8   8   8
#     4  10  20  37  63  86 104 145 202 244 279 332
#     4  10  21  34  55  86 117 152 187 230 287 339
#     4  11  22  36  55  82 121 148 183 233 291 340
#     4   9  18  36  58  83 114 146 191 240 281 331
#     4  10  19  33  56  83 113 152 193 228 273 339
#     4  10  22  36  56  81 113 146 186 236 292 335
#
# _framework density 22.285582999999999
#
# number of rings (size 3 to 8) (size 9 to 14) (size 15 to 20)
#    0.000    2.000    1.667    2.500    4.667    5.333 
#    0.000    1.667    0.000    3.000    0.000    0.000 
#    0.000    0.000    0.000    0.000    0.000    0.000 
#
# Total GULP energy -134061.766852 kJ/mol
# GULP energy per Si atom -5585.906952 kJ/mol
# Density = 2.223486 g / cm^3
# Si number density = 22.285583 Si / 1000 Ang^3
#
#
#
# Elastic Constant Matrix: (Units=GPa)
#
#
# Indices 1 2 3 4 5 6 
#
# 1 137.8752 8.0266 17.4277 -0.0011 34.2282 0.0063
# 2 8.0266 25.3472 4.2684 0.0237 7.8572 0.0054
# 3 17.4277 4.2684 68.6666 0.0221 15.5395 0.0206
# 4 -0.0011 0.0237 0.0221 3.8470 0.0076 8.4097
# 5 34.2282 7.8572 15.5395 0.0076 37.2490 0.0047
# 6 0.0063 0.0054 0.0206 8.4097 0.0047 16.8718
#
#
#
# Elastic Compliance Matrix: (Units=1/GPa)
#
#
# Indices 1 2 3 4 5 6 
#
# 1 0.009413 -0.000301 -0.000472 -0.000278 -0.008389 0.000138
# 2 -0.000301 0.042248 -0.000658 0.002430 -0.008361 -0.001221
# 3 -0.000472 -0.000658 0.016116 0.000426 -0.006151 -0.000230
# 4 -0.000278 0.002430 0.000426 -2.900486 -0.000028 1.445731
# 5 -0.008389 -0.008361 -0.006151 -0.000028 0.038885 0.000016
# 6 0.000138 -0.001221 -0.000230 1.445731 0.000016 -0.661346
#
#
# Mechanical properties :
#
#
# Convention : Reuss Voigt Hill
#
# Bulk Modulus (GPa) = 15.40464 32.37049 23.88756
# Shear Modulus (GPa) = -1.45744 25.07131 11.80693
#
# Velocity S-wave (km/s) = -0.80957 3.35774 2.30424
# Velocity P-wave (km/s) = 2.46039 5.43962 4.22155
#
# Compressibility (1/GPa) = 0.06491552
#
# Stress axis : x y z
#
# Youngs Moduli (GPa) = 106.23953 23.66978 62.05143
#
# Poissons Ratio (x) = 0.00711 0.02927
# Poissons Ratio (y) = 0.03193 0.04084
# Poissons Ratio (z) = 0.05012 0.01558
#
# Static dielectric constant tensor:
#      x y z
#    x 1.846260 0.000000 0.031660 
#    y 0.000000 1.847200 0.000000 
#    z 0.031660 0.000000 1.808490 
# 
# From -- ./inp_files/216484.got.cif
#   From: 2010.05.17/outbox.cif.g08.bks.cpg/sg12_109_cif.got.tgz:216484.got - 2010.06.03 13:09:07.
