data_PCOD9183786
_publ_section_title
;
Structure prediction by ZEFSAII (Michael W. Deem and Ramdas Pophale) SiO2 
 PCOD9183786
Probable space group: C 2/M
;
_chemical_formula_sum "Si O2"
_cell_formula_units_Z 64
_cell_length_a 20.344621
_cell_length_b 7.440858
_cell_length_c 31.721753
_cell_angle_alpha 90.000000
_cell_angle_beta 36.970430
_cell_angle_gamma 90.000000
_cell_volume 2887.986942
_symmetry_space_group_name_H-M "C 2/M"
_symmetry_group_IT_number 12
_symmetry_cell_setting 'monoclinic'
loop_
_space_group_symop_operation_xyz
x,y,z
-x,y,-z
-x,-y,-z
x,-y,z
1/2+x,1/2+y,z
1/2-x,1/2+y,-z
1/2-x,1/2-y,-z
1/2+x,1/2-y,z
loop_
_atom_site_type_symbol
_atom_site_label
_atom_site_fract_x
_atom_site_fract_y
_atom_site_fract_z
Si Si1 0.433356 0.791028 0.494484
Si Si2 0.409216 0.788077 0.171012
Si Si3 0.041739 0.719904 0.613260
Si Si4 0.805155 0.715851 0.766994
Si Si5 0.682892 0.217503 0.617713
Si Si6 0.460692 0.209822 0.975456
Si Si7 0.774037 0.282918 0.877703
Si Si8 0.482643 0.219744 0.224154
O O1 0.500000 0.713099 0.500000
O O2 0.452854 0.715180 0.437583
O O3 0.303469 0.781005 0.567528
O O4 0.467182 0.000000 0.474426
O O5 0.283684 0.766927 0.222152
O O6 0.436798 0.716344 0.202926
O O7 0.434121 0.000000 0.160800
O O8 0.481307 0.712017 0.095499
O O9 0.044172 0.500000 0.611464
O O10 0.926967 0.775172 0.693013
O O11 0.140236 0.776621 0.593526
O O12 0.808932 0.500000 0.767124
O O13 0.766378 0.779105 0.832942
O O14 0.594132 0.275540 0.697852
O O15 0.685670 0.000000 0.616246
O O16 0.330104 0.221666 0.042509
O O17 0.492775 0.000000 0.959902
O O18 0.500000 0.289819 0.000000
O O19 0.771849 0.500000 0.878924
O O20 0.891991 0.225166 0.833984
O O21 0.481786 0.000000 0.225634
#
# Coordination Sequence:
#
# PCOD9183786 Si02
#       8
#     8   8   8   8   8   8   8   8
#     4  10  22  37  53  79 114 144 169 207 263 316
#     4  10  21  36  53  75 107 142 173 213 267 317
#     4   9  18  35  57  78 105 142 176 212 261 310
#     4  10  19  33  56  81 103 134 179 222 258 304
#     4  10  19  36  60  79 102 138 180 219 255 305
#     4  10  20  34  51  74 108 144 172 207 265 323
#     4  10  19  34  57  80 102 133 179 224 258 303
#     4   9  19  36  56  79 105 136 174 220 268 305
#
# _framework density 22.160765000000001
#
# number of rings (size 3 to 8) (size 9 to 14) (size 15 to 20)
#    0.000    2.250    2.500    0.375    1.750    1.500 
#    0.000    2.500    0.000    0.000    0.000    0.000 
#    0.000    0.000    0.000    0.000    0.000    0.000 
#
# Total GULP energy -178785.289841 kJ/mol
# GULP energy per Si atom -5587.040308 kJ/mol
# Density = 2.211033 g / cm^3
# Si number density = 22.160765 Si / 1000 Ang^3
#
#
#
# Elastic Constant Matrix: (Units=GPa)
#
#
# Indices 1 2 3 4 5 6 
#
# 1 186.0885 -1.2291 53.6370 -0.0074 5.7526 0.1146
# 2 -1.2291 67.4728 -6.7160 0.0088 13.0607 -0.1168
# 3 53.6370 -6.7160 92.8992 -0.0635 -6.9292 0.0058
# 4 -0.0074 0.0088 -0.0635 7.6538 -0.0113 -13.3444
# 5 5.7526 13.0607 -6.9292 -0.0113 29.7584 -0.0161
# 6 0.1146 -0.1168 0.0058 -13.3444 -0.0161 6.9104
#
#
#
# Elastic Compliance Matrix: (Units=1/GPa)
#
#
# Indices 1 2 3 4 5 6 
#
# 1 0.006586 0.000165 -0.003960 0.000092 -0.002268 0.000070
# 2 0.000165 0.016240 0.000554 -0.000178 -0.007030 -0.000088
# 3 -0.003960 0.000554 0.013362 -0.000100 0.003633 -0.000122
# 4 0.000092 -0.000178 -0.000100 -0.055200 -0.000042 -0.106598
# 5 -0.002268 -0.007030 0.003633 -0.000042 0.037974 -0.000077
# 6 0.000070 -0.000088 -0.000122 -0.106598 -0.000077 -0.061140
#
#
# Mechanical properties :
#
#
# Convention : Reuss Voigt Hill
#
# Bulk Modulus (GPa) = 33.66283 48.64937 41.15610
# Shear Modulus (GPa) = -193.83953 28.91575 -82.46189
#
# Velocity S-wave (km/s) = -9.36267 3.61614 -6.10668
# Velocity P-wave (km/s) = 10.08247 6.27980 5.57765
#
# Compressibility (1/GPa) = 0.02970635
#
# Stress axis : x y z
#
# Youngs Moduli (GPa) = 151.83021 61.57744 74.84082
#
# Poissons Ratio (x) = -0.01015 0.29636
# Poissons Ratio (y) = -0.02503 -0.04149
# Poissons Ratio (z) = 0.60123 -0.03413
#
# Static dielectric constant tensor:
#      x y z
#    x 1.797450 0.000020 0.022120 
#    y 0.000020 1.871120 0.000010 
#    z 0.022120 0.000010 1.777960 
# 
# From -- ./inp_files/346122.got.cif
#   From: 2010.05.17/outbox.cif.g08.bks.cpg/sg12_174_cif.got.tgz:346122.got - 2010.06.03 13:09:07.
