data_PCOD9183948
_publ_section_title
;
Structure prediction by ZEFSAII (Michael W. Deem and Ramdas Pophale) SiO2 
 PCOD9183948
Probable space group: C 2/M
;
_chemical_formula_sum "Si O2"
_cell_formula_units_Z 64
_cell_length_a 24.219852
_cell_length_b 11.279871
_cell_length_c 13.329642
_cell_angle_alpha 90.000000
_cell_angle_beta 97.061278
_cell_angle_gamma 90.000000
_cell_volume 3613.994858
_symmetry_space_group_name_H-M "C 2/M"
_symmetry_group_IT_number 12
_symmetry_cell_setting 'monoclinic'
loop_
_space_group_symop_operation_xyz
x,y,z
-x,y,-z
-x,-y,-z
x,-y,z
1/2+x,1/2+y,z
1/2-x,1/2+y,-z
1/2-x,1/2-y,-z
1/2+x,1/2-y,z
loop_
_atom_site_type_symbol
_atom_site_label
_atom_site_fract_x
_atom_site_fract_y
_atom_site_fract_z
Si Si1 0.842329 0.268571 0.507112
Si Si2 0.377351 0.129519 0.310851
Si Si3 0.442081 0.637222 0.021483
Si Si4 0.225010 0.717018 0.830282
Si Si5 0.044255 0.138368 0.423218
Si Si6 0.178045 0.861526 0.008363
Si Si7 0.248983 0.361701 0.362975
Si Si8 0.944839 0.864994 0.262132
O O1 0.857128 0.359278 0.421115
O O2 0.899628 0.212237 0.558343
O O3 0.805514 0.323728 0.587128
O O4 0.802166 0.173256 0.443289
O O5 0.324003 0.136897 0.225937
O O6 0.411282 0.251696 0.297083
O O7 0.405044 0.000000 0.302542
O O8 0.443356 0.500000 0.985430
O O9 0.440816 0.637622 0.141720
O O10 0.500000 0.694033 0.000000
O O11 0.382669 0.687646 0.974413
O O12 0.276621 0.652940 0.894641
O O13 0.245708 0.793115 0.740493
O O14 0.198835 0.797136 0.912662
O O15 0.000000 0.173628 0.500000
O O16 0.008249 0.147529 0.313920
O O17 0.057784 0.000000 0.442850
O O18 0.171138 0.000000 0.983144
O O19 0.248752 0.500000 0.343823
O O20 0.926526 0.000000 0.290912
#
# Coordination Sequence:
#
# PCOD9183948 Si02
#       8
#     8   8   8   8   8   8   8   8
#     4  10  21  36  55  82 113 151 190 234 285 337
#     4  11  21  35  55  82 116 150 187 233 285 338
#     4   9  18  33  55  82 109 138 174 227 284 334
#     4  10  21  34  55  82 109 148 186 231 281 337
#     4  10  19  33  56  85 112 140 187 243 284 327
#     4  10  19  34  56  84 111 137 182 235 281 332
#     4  10  21  37  56  78 112 155 195 232 280 340
#     4  10  20  35  57  83 109 145 190 233 280 338
#
# _framework density 17.708935
#
# number of rings (size 3 to 8) (size 9 to 14) (size 15 to 20)
#    0.000    2.000    2.500    1.500    0.000    3.000 
#    0.000    5.000    0.000    0.375    0.000    0.000 
#    0.000    0.000    0.000    0.000    0.000    0.000 
#
# Total GULP energy -178336.386613 kJ/mol
# GULP energy per Si atom -5573.012082 kJ/mol
# Density = 1.766863 g / cm^3
# Si number density = 17.708935 Si / 1000 Ang^3
#
#
#
# Elastic Constant Matrix: (Units=GPa)
#
#
# Indices 1 2 3 4 5 6 
#
# 1 105.0247 36.5399 21.1886 0.0000 10.8289 0.0000
# 2 36.5399 91.5181 22.0164 0.0000 -4.8979 0.0000
# 3 21.1886 22.0164 46.1972 0.0000 7.1105 0.0000
# 4 0.0000 0.0000 0.0000 1.2397 0.0000 -3.0376
# 5 10.8289 -4.8979 7.1105 0.0000 31.1994 0.0000
# 6 0.0000 0.0000 0.0000 -3.0376 0.0000 15.7422
#
#
#
# Elastic Compliance Matrix: (Units=1/GPa)
#
#
# Indices 1 2 3 4 5 6 
#
# 1 0.012038 -0.004361 -0.002793 0.000000 -0.004226 0.000000
# 2 -0.004361 0.014279 -0.005579 0.000000 0.005027 0.000000
# 3 -0.002793 -0.005579 0.026501 0.000000 -0.005946 0.000000
# 4 0.000000 0.000000 0.000000 1.530130 0.000000 0.295251
# 5 -0.004226 0.005027 -0.005946 0.000000 0.035663 0.000000
# 6 0.000000 0.000000 0.000000 0.295251 0.000000 0.120495
#
#
# Mechanical properties :
#
#
# Convention : Reuss Voigt Hill
#
# Bulk Modulus (GPa) = 36.55752 44.69221 40.62486
# Shear Modulus (GPa) = 2.81899 20.50260 11.66079
#
# Velocity S-wave (km/s) = 1.26305 3.40627 2.56885
# Velocity P-wave (km/s) = 4.77655 6.38452 5.63815
#
# Compressibility (1/GPa) = 0.02735415
#
# Stress axis : x y z
#
# Youngs Moduli (GPa) = 83.07107 70.03343 37.73443
#
# Poissons Ratio (x) = 0.30539 0.10538
# Poissons Ratio (y) = 0.36225 0.21050
# Poissons Ratio (z) = 0.23198 0.39069
#
# Static dielectric constant tensor:
#      x y z
#    x 1.629450 0.000000 0.007410 
#    y 0.000000 1.608860 0.000000 
#    z 0.007410 0.000000 1.601080 
# 
# From -- ./inp_files/174629.got.cif
#   From: 2010.05.17/outbox.cif.g08.bks.cpg/sg12_88_cif.got.tgz:174629.got - 2010.06.03 13:09:07.
