data_PCOD9183863
_publ_section_title
;
Structure prediction by ZEFSAII (Michael W. Deem and Ramdas Pophale) SiO2 
 PCOD9183863
Probable space group: C 2/M
;
_chemical_formula_sum "Si O2"
_cell_formula_units_Z 40
_cell_length_a 21.873149
_cell_length_b 9.071833
_cell_length_c 21.141072
_cell_angle_alpha 90.000000
_cell_angle_beta 153.374861
_cell_angle_gamma 90.000000
_cell_volume 1880.001018
_symmetry_space_group_name_H-M "C 2/M"
_symmetry_group_IT_number 12
_symmetry_cell_setting 'monoclinic'
loop_
_space_group_symop_operation_xyz
x,y,z
-x,y,-z
-x,-y,-z
x,-y,z
1/2+x,1/2+y,z
1/2-x,1/2+y,-z
1/2-x,1/2-y,-z
1/2+x,1/2-y,z
loop_
_atom_site_type_symbol
_atom_site_label
_atom_site_fract_x
_atom_site_fract_y
_atom_site_fract_z
Si Si1 0.591357 0.673726 0.168285
Si Si2 0.019080 0.824500 0.679195
Si Si3 0.488608 0.169732 0.784016
Si Si4 0.864637 0.825108 0.411049
Si Si5 0.820784 0.330726 0.928931
O O1 0.594752 0.500000 0.165208
O O2 0.595866 0.727262 0.246247
O O3 0.725361 0.747180 0.263045
O O4 0.442133 0.735299 0.011047
O O5 0.995338 0.733747 0.720641
O O6 0.164877 0.782621 0.782688
O O7 0.902127 0.803235 0.519234
O O8 0.028553 0.000000 0.701956
O O9 0.439400 0.000000 0.739941
O O10 0.635250 0.169399 0.955712
O O11 0.000000 0.774084 0.500000
O O12 0.850014 0.000000 0.386077
O O13 0.832303 0.500000 0.917418
#
# Coordination Sequence:
#
# PCOD9183863 Si02
#       5
#     8   8   8   8   8
#     4  10  20  35  56  79 108 143 176 215 263 314
#     4  10  19  33  56  83 108 139 178 217 261 313
#     4   9  18  32  54  82 114 141 168 211 265 320
#     4  10  22  40  58  76 103 140 181 224 267 311
#     4   8  17  33  53  81 112 139 171 211 262 320
#
# _framework density 21.276584
#
# number of rings (size 3 to 8) (size 9 to 14) (size 15 to 20)
#    1.200    1.400    0.000    2.400    0.000    2.800 
#    0.000    1.000    0.000    6.000    0.000    0.000 
#    0.000    0.000    0.000    0.000    0.000    0.000 
#
# Total GULP energy -111546.851292 kJ/mol
# GULP energy per Si atom -5577.342565 kJ/mol
# Density = 2.122816 g / cm^3
# Si number density = 21.276584 Si / 1000 Ang^3
#
#
#
# Elastic Constant Matrix: (Units=GPa)
#
#
# Indices 1 2 3 4 5 6 
#
# 1 68.4773 25.8041 39.7323 0.0000 11.7690 0.0000
# 2 25.8041 66.6384 44.7309 0.0000 13.1133 0.0000
# 3 39.7323 44.7309 106.9670 0.0000 13.1557 0.0000
# 4 0.0000 0.0000 0.0000 7.5764 0.0000 8.4539
# 5 11.7690 13.1133 13.1557 0.0000 38.5558 0.0000
# 6 0.0000 0.0000 0.0000 8.4539 0.0000 18.3021
#
#
#
# Elastic Compliance Matrix: (Units=1/GPa)
#
#
# Indices 1 2 3 4 5 6 
#
# 1 0.019556 -0.003278 -0.005528 0.000000 -0.002968 0.000000
# 2 -0.003278 0.022118 -0.007546 0.000000 -0.003947 0.000000
# 3 -0.005528 -0.007546 0.014649 0.000000 -0.000744 0.000000
# 4 0.000000 0.000000 0.000000 0.272375 0.000000 -0.125813
# 5 -0.002968 -0.003947 -0.000744 0.000000 0.028439 0.000000
# 6 0.000000 0.000000 0.000000 -0.125813 0.000000 0.112753
#
#
# Mechanical properties :
#
#
# Convention : Reuss Voigt Hill
#
# Bulk Modulus (GPa) = 42.33889 51.40194 46.87042
# Shear Modulus (GPa) = 9.79494 21.67453 15.73474
#
# Velocity S-wave (km/s) = 2.14793 3.19518 2.72239
# Velocity P-wave (km/s) = 5.10823 6.15009 5.65321
#
# Compressibility (1/GPa) = 0.02361895
#
# Stress axis : x y z
#
# Youngs Moduli (GPa) = 51.13422 45.21289 68.26252
#
# Poissons Ratio (x) = 0.14819 0.37738
# Poissons Ratio (y) = 0.16760 0.51512
# Poissons Ratio (z) = 0.28269 0.34118
#
# Static dielectric constant tensor:
#      x y z
#    x 1.800570 0.000000 -0.017790 
#    y 0.000000 1.708300 0.000000 
#    z -0.017790 0.000000 1.767060 
# 
# From -- ./inp_files/324432.got.cif
#   From: 2010.05.17/outbox.cif.g08.bks.cpg/sg12_163_cif.got.tgz:324432.got - 2010.06.03 13:09:07.
