data_PCOD9183125
_publ_section_title
;
Structure prediction by ZEFSAII (Michael W. Deem and Ramdas Pophale) SiO2 
 PCOD9183125
Probable space group: C 2/M
;
_chemical_formula_sum "Si O2"
_cell_formula_units_Z 48
_cell_length_a 20.929271
_cell_length_b 8.709159
_cell_length_c 32.529213
_cell_angle_alpha 90.000000
_cell_angle_beta 152.489481
_cell_angle_gamma 90.000000
_cell_volume 2738.814431
_symmetry_space_group_name_H-M "C 2/M"
_symmetry_group_IT_number 12
_symmetry_cell_setting 'monoclinic'
loop_
_space_group_symop_operation_xyz
x,y,z
-x,y,-z
-x,-y,-z
x,-y,z
1/2+x,1/2+y,z
1/2-x,1/2+y,-z
1/2-x,1/2-y,-z
1/2+x,1/2-y,z
loop_
_atom_site_type_symbol
_atom_site_label
_atom_site_fract_x
_atom_site_fract_y
_atom_site_fract_z
Si Si1 0.383100 0.185496 0.052763
Si Si2 0.710566 0.184607 0.433189
Si Si3 0.866553 0.685228 0.949004
Si Si4 0.850657 0.316269 0.432236
Si Si5 0.410218 0.815470 0.760753
Si Si6 0.072699 0.316401 0.770791
O O1 0.519410 0.229963 0.156310
O O2 0.376667 0.000000 0.049983
O O3 0.250000 0.250000 0.000000
O O4 0.380918 0.236922 0.004454
O O5 0.750000 0.250000 0.500000
O O6 0.808641 0.243901 0.452212
O O7 0.553566 0.230459 0.330932
O O8 0.716257 0.000000 0.436914
O O9 0.865785 0.500000 0.948264
O O10 0.720558 0.741341 0.848051
O O11 0.000000 0.738398 0.000000
O O12 0.849726 0.500000 0.436064
O O13 0.731811 0.264894 0.332573
O O14 0.000000 0.268436 0.500000
O O15 0.518760 0.779146 0.786060
O O16 0.389247 0.000000 0.748051
O O17 0.086978 0.500000 0.776390
#
# Coordination Sequence:
#
# PCOD9183125 Si02
#       6
#     8   8   8   8   8   8
#     4  10  19  33  54  78 105 137 178 225 263 313
#     4  10  21  38  60  84 111 143 184 228 272 329
#     4  10  21  35  51  76 111 143 175 216 266 320
#     4  10  21  37  57  82 114 145 180 228 278 327
#     4   9  18  33  54  79 106 138 182 226 268 321
#     4   9  18  34  55  78 105 137 176 221 265 316
#
# _framework density 17.525831
#
# number of rings (size 3 to 8) (size 9 to 14) (size 15 to 20)
#    0.000    2.333    1.667    2.000    0.000    5.667 
#    3.000    0.000    0.000    0.000    0.000    0.000 
#    0.000    0.000    0.000    0.000    0.000    0.000 
#
# Total GULP energy -133877.371744 kJ/mol
# GULP energy per Si atom -5578.223823 kJ/mol
# Density = 1.748594 g / cm^3
# Si number density = 17.525831 Si / 1000 Ang^3
#
#
#
# Elastic Constant Matrix: (Units=GPa)
#
#
# Indices 1 2 3 4 5 6 
#
# 1 128.2936 33.9664 100.7384 0.0000 4.3647 0.0000
# 2 33.9664 23.7782 39.2656 0.0000 2.2778 0.0001
# 3 100.7384 39.2656 156.0419 0.0007 5.8051 0.0001
# 4 0.0000 0.0000 0.0007 33.0172 0.0000 2.4015
# 5 4.3647 2.2778 5.8051 0.0000 36.6606 0.0000
# 6 0.0000 0.0001 0.0001 2.4015 0.0000 22.6111
#
#
#
# Elastic Compliance Matrix: (Units=1/GPa)
#
#
# Indices 1 2 3 4 5 6 
#
# 1 0.017267 -0.010703 -0.008452 0.000000 -0.000052 0.000000
# 2 -0.010703 0.078684 -0.012831 0.000000 -0.001583 0.000000
# 3 -0.008452 -0.012831 0.015116 0.000000 -0.000590 0.000000
# 4 0.000000 0.000000 0.000000 0.030523 0.000000 -0.003242
# 5 -0.000052 -0.001583 -0.000590 0.000000 0.027475 0.000000
# 6 0.000000 0.000000 0.000000 -0.003242 0.000000 0.044570
#
#
# Mechanical properties :
#
#
# Convention : Reuss Voigt Hill
#
# Bulk Modulus (GPa) = 21.23397 72.89494 47.06446
# Shear Modulus (GPa) = 17.04711 27.40067 22.22389
#
# Velocity S-wave (km/s) = 3.12217 3.95833 3.56485
# Velocity P-wave (km/s) = 5.01392 7.91039 6.62245
#
# Compressibility (1/GPa) = 0.04709434
#
# Stress axis : x y z
#
# Youngs Moduli (GPa) = 57.91505 12.70908 66.15653
#
# Poissons Ratio (x) = 0.13602 0.55915
# Poissons Ratio (y) = 0.61986 0.84886
# Poissons Ratio (z) = 0.48949 0.16307
#
# Static dielectric constant tensor:
#      x y z
#    x 1.578890 0.000000 -0.011700 
#    y 0.000000 1.592750 0.000000 
#    z -0.011700 0.000000 1.593240 
# 
# From -- ./inp_files/274069.got.cif
#   From: 2010.05.17/outbox.cif.g08.bks.cpg/sg12_138_cif.got.tgz:274069.got - 2010.06.03 13:09:07.
