data_PCOD9183482
_publ_section_title
;
Structure prediction by ZEFSAII (Michael W. Deem and Ramdas Pophale) SiO2 
 PCOD9183482
Probable space group: C 2/M
;
_chemical_formula_sum "Si O2"
_cell_formula_units_Z 32
_cell_length_a 25.741204
_cell_length_b 7.374424
_cell_length_c 8.531230
_cell_angle_alpha 90.000000
_cell_angle_beta 129.132220
_cell_angle_gamma 90.000000
_cell_volume 1256.196893
_symmetry_space_group_name_H-M "C 2/M"
_symmetry_group_IT_number 12
_symmetry_cell_setting 'monoclinic'
loop_
_space_group_symop_operation_xyz
x,y,z
-x,y,-z
-x,-y,-z
x,-y,z
1/2+x,1/2+y,z
1/2-x,1/2+y,-z
1/2-x,1/2-y,-z
1/2+x,1/2-y,z
loop_
_atom_site_type_symbol
_atom_site_label
_atom_site_fract_x
_atom_site_fract_y
_atom_site_fract_z
Si Si1 0.285720 0.785199 0.902953
Si Si2 0.161702 0.779152 0.478915
Si Si3 0.030106 0.221190 0.393259
Si Si4 0.410607 0.706570 0.967400
O O1 0.234382 0.715556 0.671479
O O2 0.358865 0.704575 0.014312
O O3 0.293579 0.000000 0.902157
O O4 0.250000 0.750000 0.000000
O O5 0.106112 0.728366 0.502389
O O6 0.130942 0.713495 0.256381
O O7 0.165831 0.000000 0.482469
O O8 0.000000 0.283098 0.500000
O O9 0.027726 0.000000 0.388552
O O10 0.980390 0.284325 0.160199
O O11 0.425226 0.500000 0.947235
#
# Coordination Sequence:
#
# PCOD9183482 Si02
#       4
#     8   8   8   8
#     4  11  22  36  54  76 105 138 174 214 257 308
#     4   9  18  32  52  79 106 136 175 215 254 301
#     4   9  16  28  50  79 107 135 171 213 253 298
#     4  10  19  33  55  80 106 135 170 214 261 306
#
# _framework density 25.473714999999999
#
# number of rings (size 3 to 8) (size 9 to 14) (size 15 to 20)
#    0.000    2.250    0.000    3.750    0.000    7.000 
#    0.000    1.250    0.000   11.250    0.000    0.000 
#    0.000    0.000    0.000    0.000    0.000    0.000 
#
# Total GULP energy -89530.580456 kJ/mol
# GULP energy per Si atom -5595.661279 kJ/mol
# Density = 2.541574 g / cm^3
# Si number density = 25.473715 Si / 1000 Ang^3
#
#
#
# Elastic Constant Matrix: (Units=GPa)
#
#
# Indices 1 2 3 4 5 6 
#
# 1 90.9380 -8.6992 -10.3284 0.0000 10.4946 0.0000
# 2 -8.6992 105.4946 -0.4800 0.0000 2.8984 0.0000
# 3 -10.3284 -0.4800 81.5213 0.0000 11.7675 0.0000
# 4 0.0000 0.0000 0.0000 -4.5031 0.0000 -1.8528
# 5 10.4946 2.8984 11.7675 0.0000 52.4677 0.0000
# 6 0.0000 0.0000 0.0000 -1.8528 0.0000 8.0466
#
#
#
# Elastic Compliance Matrix: (Units=1/GPa)
#
#
# Indices 1 2 3 4 5 6 
#
# 1 0.011635 0.001045 0.001886 0.000000 -0.002808 0.000000
# 2 0.001045 0.009589 0.000305 0.000000 -0.000807 0.000000
# 3 0.001886 0.000305 0.012985 0.000000 -0.003306 0.000000
# 4 0.000000 0.000000 0.000000 -0.202851 0.000000 -0.046707
# 5 -0.002808 -0.000807 -0.003306 0.000000 0.020407 0.000000
# 6 0.000000 0.000000 0.000000 -0.046707 0.000000 0.113521
#
#
# Mechanical properties :
#
#
# Convention : Reuss Voigt Hill
#
# Bulk Modulus (GPa) = 24.58189 26.54874 25.56531
# Shear Modulus (GPa) = -180.98768 31.03302 -74.97733
#
# Velocity S-wave (km/s) = -8.43819 3.49411 -5.43112
# Velocity P-wave (km/s) = 9.23399 5.16943 5.41034
#
# Compressibility (1/GPa) = 0.04068035
#
# Stress axis : x y z
#
# Youngs Moduli (GPa) = 85.95005 104.28717 77.01387
#
# Poissons Ratio (x) = -0.10899 -0.14521
# Poissons Ratio (y) = -0.08983 -0.02352
# Poissons Ratio (z) = -0.16206 -0.03185
#
# Static dielectric constant tensor:
#      x y z
#    x 1.969240 0.000000 -0.053100 
#    y 0.000000 1.992140 0.000000 
#    z -0.053100 0.000000 1.998110 
# 
# From -- ./inp_files/56483.got.cif
#   From: 2010.05.17/outbox.cif.g08.bks.cpg/sg12_29_cif.got.tgz:56483.got - 2010.06.03 13:09:07.
