data_PCOD9183473
_publ_section_title
;
Structure prediction by ZEFSAII (Michael W. Deem and Ramdas Pophale) SiO2 
 PCOD9183473
Probable space group: C 2/M
;
_chemical_formula_sum "Si O2"
_cell_formula_units_Z 56
_cell_length_a 29.351076
_cell_length_b 14.979834
_cell_length_c 9.938211
_cell_angle_alpha 90.000000
_cell_angle_beta 41.901866
_cell_angle_gamma 90.000000
_cell_volume 2918.250645
_symmetry_space_group_name_H-M "C 2/M"
_symmetry_group_IT_number 12
_symmetry_cell_setting 'monoclinic'
loop_
_space_group_symop_operation_xyz
x,y,z
-x,y,-z
-x,-y,-z
x,-y,z
1/2+x,1/2+y,z
1/2-x,1/2+y,-z
1/2-x,1/2-y,-z
1/2+x,1/2-y,z
loop_
_atom_site_type_symbol
_atom_site_label
_atom_site_fract_x
_atom_site_fract_y
_atom_site_fract_z
Si Si1 0.315064 0.609734 0.224519
Si Si2 0.406787 0.897422 0.916670
Si Si3 0.671132 0.101689 0.643661
Si Si4 0.540461 0.853305 0.773120
Si Si5 0.903623 0.795989 0.811516
Si Si6 0.056645 0.823785 0.572148
Si Si7 0.074431 0.102312 0.804376
O O1 0.316059 0.500000 0.206302
O O2 0.239268 0.641452 0.430514
O O3 0.365041 0.639406 0.237533
O O4 0.344851 0.657032 0.026838
O O5 0.483872 0.901322 0.806140
O O6 0.403663 0.812531 0.823831
O O7 0.389590 0.000000 0.911591
O O8 0.359197 0.866668 0.147197
O O9 0.609192 0.101323 0.673993
O O10 0.690447 0.000000 0.631839
O O11 0.563263 0.768497 0.637961
O O12 0.500000 0.833049 0.000000
O O13 0.904499 0.822809 0.653783
O O14 0.975911 0.830338 0.715256
O O15 0.082556 0.892571 0.626636
O O16 0.071008 0.000000 0.854901
O O17 0.000000 0.142039 0.000000
#
# Coordination Sequence:
#
# PCOD9183473 Si02
#       7
#     8   8   8   8   8   8   8
#     4  10  21  36  56  82 111 142 180 225 272 323
#     4   9  18  34  56  81 109 140 181 226 266 319
#     4   9  18  33  55  82 108 138 179 226 273 318
#     4   9  17  31  56  82 104 137 177 224 272 313
#     4  10  21  35  53  81 112 146 179 218 276 323
#     4  10  20  34  52  79 111 140 181 224 266 324
#     4  10  19  33  55  80 104 141 186 229 272 314
#
# _framework density 19.189578000000001
#
# number of rings (size 3 to 8) (size 9 to 14) (size 15 to 20)
#    0.000    2.429    1.429    0.857    4.000    2.857 
#    0.000    8.571    0.000    0.000    0.000    0.000 
#    0.000    0.000    0.000    0.000    0.000    0.000 
#
# Total GULP energy -155884.602637 kJ/mol
# GULP energy per Si atom -5567.307237 kJ/mol
# Density = 1.914590 g / cm^3
# Si number density = 19.189578 Si / 1000 Ang^3
#
#
#
# Elastic Constant Matrix: (Units=GPa)
#
#
# Indices 1 2 3 4 5 6 
#
# 1 53.6723 9.8719 53.4673 0.0000 -0.6843 0.0000
# 2 9.8719 41.5993 6.8252 0.0000 -12.2151 0.0000
# 3 53.4673 6.8252 109.2172 0.0000 -16.2087 0.0000
# 4 0.0000 0.0000 0.0000 9.4051 0.0000 -4.8505
# 5 -0.6843 -12.2151 -16.2087 0.0000 25.9521 0.0000
# 6 0.0000 0.0000 0.0000 -4.8505 0.0000 11.4467
#
#
#
# Elastic Compliance Matrix: (Units=1/GPa)
#
#
# Indices 1 2 3 4 5 6 
#
# 1 0.044472 -0.012383 -0.023904 0.000000 -0.019585 0.000000
# 2 -0.012383 0.031347 0.006882 0.000000 0.018726 0.000000
# 3 -0.023904 0.006882 0.022942 0.000000 0.016938 0.000000
# 4 0.000000 0.000000 0.000000 0.136059 0.000000 0.057655
# 5 -0.019585 0.018726 0.016938 0.000000 0.057409 0.000000
# 6 0.000000 0.000000 0.000000 0.057655 0.000000 0.111793
#
#
# Mechanical properties :
#
#
# Convention : Reuss Voigt Hill
#
# Bulk Modulus (GPa) = 25.03025 38.31307 31.67166
# Shear Modulus (GPa) = 10.50091 18.31574 14.40833
#
# Velocity S-wave (km/s) = 2.34181 3.09279 2.74312
# Velocity P-wave (km/s) = 4.51487 5.72387 5.15494
#
# Compressibility (1/GPa) = 0.03995166
#
# Stress axis : x y z
#
# Youngs Moduli (GPa) = 22.48584 31.90107 43.58802
#
# Poissons Ratio (x) = 0.39502 1.04194
# Poissons Ratio (y) = 0.27843 -0.29998
# Poissons Ratio (z) = 0.53751 -0.21955
#
# Static dielectric constant tensor:
#      x y z
#    x 1.665030 0.000000 -0.017560 
#    y 0.000000 1.737890 0.000000 
#    z -0.017560 0.000000 1.686140 
# 
# From -- ./inp_files/112615.got.cif
#   From: 2010.05.17/outbox.cif.g08.bks.cpg/sg12_57_cif.got.tgz:112615.got - 2010.06.03 13:09:07.
