data_PCOD9183547
_publ_section_title
;
Structure prediction by ZEFSAII (Michael W. Deem and Ramdas Pophale) SiO2 
 PCOD9183547
Probable space group: C 2/M
;
_chemical_formula_sum "Si O2"
_cell_formula_units_Z 56
_cell_length_a 34.353584
_cell_length_b 8.828949
_cell_length_c 15.388026
_cell_angle_alpha 90.000000
_cell_angle_beta 45.814084
_cell_angle_gamma 90.000000
_cell_volume 3346.823173
_symmetry_space_group_name_H-M "C 2/M"
_symmetry_group_IT_number 12
_symmetry_cell_setting 'monoclinic'
loop_
_space_group_symop_operation_xyz
x,y,z
-x,y,-z
-x,-y,-z
x,-y,z
1/2+x,1/2+y,z
1/2-x,1/2+y,-z
1/2-x,1/2-y,-z
1/2+x,1/2-y,z
loop_
_atom_site_type_symbol
_atom_site_label
_atom_site_fract_x
_atom_site_fract_y
_atom_site_fract_z
Si Si1 0.684836 0.317906 0.236612
Si Si2 0.601305 0.680727 0.522052
Si Si3 0.005560 0.317937 0.390430
Si Si4 0.301276 0.682112 0.106421
Si Si5 0.706093 0.681673 0.682917
Si Si6 0.171283 0.319260 0.562364
Si Si7 0.129080 0.681870 0.152901
O O1 0.689133 0.500000 0.224781
O O2 0.642500 0.277981 0.379270
O O3 0.743026 0.247097 0.167935
O O4 0.662048 0.252286 0.182205
O O5 0.599787 0.500000 0.529975
O O6 0.542428 0.743907 0.589660
O O7 0.625763 0.748053 0.572175
O O8 0.999349 0.500000 0.397034
O O9 0.065702 0.279864 0.263893
O O10 0.000000 0.270778 0.500000
O O11 0.300444 0.500000 0.100268
O O12 0.309824 0.721881 0.194351
O O13 0.346230 0.751966 0.973600
O O14 0.702268 0.500000 0.678882
O O15 0.769426 0.723707 0.569162
O O16 0.672164 0.759814 0.659495
O O17 0.167137 0.500000 0.567202
O O18 0.134678 0.500000 0.146133
#
# Coordination Sequence:
#
# PCOD9183547 Si02
#       7
#     8   8   8   8   8   8   8
#     4  11  22  35  53  80 112 147 183 222 268 321
#     4  11  22  34  55  83 113 143 179 227 272 320
#     4  10  21  38  58  78 105 143 185 227 272 321
#     4  11  22  37  56  79 112 149 182 221 268 325
#     4   9  19  34  53  79 110 143 178 218 268 323
#     4  10  19  33  55  81 110 142 178 221 270 324
#     4  11  23  38  56  78 108 146 186 227 269 322
#
# _framework density 16.732285999999998
#
# number of rings (size 3 to 8) (size 9 to 14) (size 15 to 20)
#    0.000    1.571    2.857    2.571    0.000    4.286 
#    0.000    0.000    0.000    0.857    0.000    6.000 
#    0.000    0.000    0.000    0.000    0.000    0.000 
#
# Total GULP energy -156429.242312 kJ/mol
# GULP energy per Si atom -5586.758654 kJ/mol
# Density = 1.669420 g / cm^3
# Si number density = 16.732286 Si / 1000 Ang^3
#
#
#
# Elastic Constant Matrix: (Units=GPa)
#
#
# Indices 1 2 3 4 5 6 
#
# 1 152.1028 50.8489 81.2861 0.0000 20.6103 0.0000
# 2 50.8489 45.6747 52.7186 0.0002 6.5232 -0.0001
# 3 81.2861 52.7186 133.2663 0.0000 11.1475 0.0000
# 4 0.0000 0.0002 0.0000 24.0067 0.0000 -1.0748
# 5 20.6103 6.5232 11.1475 0.0000 19.6247 0.0000
# 6 0.0000 -0.0001 0.0000 -1.0748 0.0000 30.5318
#
#
#
# Elastic Compliance Matrix: (Units=1/GPa)
#
#
# Indices 1 2 3 4 5 6 
#
# 1 0.012441 -0.008671 -0.003472 0.000000 -0.008212 0.000000
# 2 -0.008671 0.046725 -0.013289 0.000000 0.001124 0.000000
# 3 -0.003472 -0.013289 0.014912 0.000000 -0.000408 0.000000
# 4 0.000000 0.000000 0.000000 0.041721 0.000000 0.001469
# 5 -0.008212 0.001124 -0.000408 0.000000 0.059438 0.000000
# 6 0.000000 0.000000 0.000000 0.001469 0.000000 0.032804
#
#
# Mechanical properties :
#
#
# Convention : Reuss Voigt Hill
#
# Bulk Modulus (GPa) = 43.07427 77.86120 60.46773
# Shear Modulus (GPa) = 18.75159 24.57864 21.66512
#
# Velocity S-wave (km/s) = 3.35129 3.83683 3.60225
# Velocity P-wave (km/s) = 6.38545 8.14020 7.31563
#
# Compressibility (1/GPa) = 0.02321572
#
# Stress axis : x y z
#
# Youngs Moduli (GPa) = 80.37815 21.40174 67.05850
#
# Poissons Ratio (x) = 0.18557 0.23280
# Poissons Ratio (y) = 0.69695 0.89115
# Poissons Ratio (z) = 0.27904 0.28441
#
# Static dielectric constant tensor:
#      x y z
#    x 1.532270 0.000000 0.007880 
#    y 0.000000 1.556890 0.000000 
#    z 0.007880 0.000000 1.554620 
# 
# From -- ./inp_files/237306.got.cif
#   From: 2010.05.17/outbox.cif.g08.bks.cpg/sg12_119_cif.got.tgz:237306.got - 2010.06.03 13:09:07.
