data_PCOD9183738
_publ_section_title
;
Structure prediction by ZEFSAII (Michael W. Deem and Ramdas Pophale) SiO2 
 PCOD9183738
Probable space group: C 2/M
;
_chemical_formula_sum "Si O2"
_cell_formula_units_Z 64
_cell_length_a 19.425701
_cell_length_b 19.127202
_cell_length_c 26.090824
_cell_angle_alpha 90.000000
_cell_angle_beta 20.023788
_cell_angle_gamma 90.000000
_cell_volume 3319.423786
_symmetry_space_group_name_H-M "C 2/M"
_symmetry_group_IT_number 12
_symmetry_cell_setting 'monoclinic'
loop_
_space_group_symop_operation_xyz
x,y,z
-x,y,-z
-x,-y,-z
x,-y,z
1/2+x,1/2+y,z
1/2-x,1/2+y,-z
1/2-x,1/2-y,-z
1/2+x,1/2-y,z
loop_
_atom_site_type_symbol
_atom_site_label
_atom_site_fract_x
_atom_site_fract_y
_atom_site_fract_z
Si Si1 0.063278 0.418188 0.268734
Si Si2 0.075413 0.704371 0.096145
Si Si3 0.014635 0.796890 0.333786
Si Si4 0.005132 0.080933 0.922921
Si Si5 0.872049 0.081388 0.897339
Si Si6 0.096516 0.706067 0.678729
Si Si7 0.833820 0.083176 0.398290
Si Si8 0.370958 0.272092 0.141441
O O1 0.037980 0.500000 0.276953
O O2 0.976602 0.371606 0.283691
O O3 0.903843 0.399511 0.425934
O O4 0.304952 0.408317 0.098381
O O5 0.182016 0.629311 0.016304
O O6 0.908955 0.710586 0.256913
O O7 0.990925 0.736061 0.103533
O O8 0.250000 0.750000 0.000000
O O9 0.966062 0.874925 0.347754
O O10 0.184512 0.775354 0.254699
O O11 0.043667 0.753718 0.260267
O O12 0.811946 0.776340 0.505204
O O13 0.156140 0.145824 0.824945
O O14 0.077076 0.000000 0.879975
O O15 0.927268 0.087363 0.918691
O O16 0.828286 0.000000 0.917994
O O17 0.065280 0.101372 0.726941
O O18 0.851710 0.000000 0.392142
O O19 0.500000 0.272855 0.000000
#
# Coordination Sequence:
#
# PCOD9183738 Si02
#       8
#     8   8   8   8   8   8   8   8
#     4   9  16  31  56  87 116 147 191 241 287 342
#     4  12  21  35  59  84 112 154 197 242 291 350
#     4  10  22  38  57  84 117 151 194 247 293 348
#     4  10  20  35  58  87 119 154 196 244 290 347
#     4  10  19  33  55  88 119 149 198 243 285 344
#     4  10  20  37  60  82 111 152 201 241 293 350
#     4   9  18  33  58  86 115 152 195 242 292 348
#     4  12  24  37  56  83 120 154 192 242 296 346
#
# _framework density 19.280453999999999
#
# number of rings (size 3 to 8) (size 9 to 14) (size 15 to 20)
#    0.000    1.750    2.500    3.000    0.000    0.750 
#    0.000    1.250    2.750    3.000    0.000    5.250 
#    0.000    0.000    0.000    0.000    0.000    0.000 
#
# Total GULP energy -178295.547317 kJ/mol
# GULP energy per Si atom -5571.735854 kJ/mol
# Density = 1.923657 g / cm^3
# Si number density = 19.280454 Si / 1000 Ang^3
#
#
#
# Elastic Constant Matrix: (Units=GPa)
#
#
# Indices 1 2 3 4 5 6 
#
# 1 105.4438 34.8794 24.3514 0.0075 11.8425 -0.0387
# 2 34.8794 64.3536 25.5982 0.0191 2.0184 -0.0364
# 3 24.3514 25.5982 66.8389 -0.0216 12.9665 0.0452
# 4 0.0075 0.0191 -0.0216 19.9376 0.0102 0.4736
# 5 11.8425 2.0184 12.9665 0.0102 34.1421 0.0121
# 6 -0.0387 -0.0364 0.0452 0.4736 0.0121 26.3137
#
#
#
# Elastic Compliance Matrix: (Units=1/GPa)
#
#
# Indices 1 2 3 4 5 6 
#
# 1 0.012150 -0.005869 -0.001542 0.000001 -0.003282 0.000014
# 2 -0.005869 0.021259 -0.006645 -0.000028 0.003302 0.000031
# 3 -0.001542 -0.006645 0.019311 0.000032 -0.006406 -0.000042
# 4 0.000001 -0.000028 0.000032 0.050178 -0.000025 -0.000903
# 5 -0.003282 0.003302 -0.006406 -0.000025 0.032665 -0.000004
# 6 0.000014 0.000031 -0.000042 -0.000903 -0.000004 0.038019
#
#
# Mechanical properties :
#
#
# Convention : Reuss Voigt Hill
#
# Bulk Modulus (GPa) = 40.63564 45.14380 42.88972
# Shear Modulus (GPa) = 23.82122 26.19916 25.01019
#
# Velocity S-wave (km/s) = 3.51880 3.69025 3.60554
# Velocity P-wave (km/s) = 6.13442 6.45154 6.29498
#
# Compressibility (1/GPa) = 0.02460894
#
# Stress axis : x y z
#
# Youngs Moduli (GPa) = 82.30622 47.03798 51.78447
#
# Poissons Ratio (x) = 0.27605 0.07987
# Poissons Ratio (y) = 0.48303 0.34408
# Poissons Ratio (z) = 0.12694 0.31255
#
# Static dielectric constant tensor:
#      x y z
#    x 1.661340 0.000000 0.035370 
#    y 0.000000 1.723840 0.000010 
#    z 0.035370 0.000010 1.776870 
# 
# From -- ./inp_files/344858.got.cif
#   From: 2010.05.17/outbox.cif.g08.bks.cpg/sg12_173_cif.got.tgz:344858.got - 2010.06.03 13:09:07.
