data_PCOD9183484
_publ_section_title
;
Structure prediction by ZEFSAII (Michael W. Deem and Ramdas Pophale) SiO2 
 PCOD9183484
Probable space group: C 2/M
;
_chemical_formula_sum "Si O2"
_cell_formula_units_Z 40
_cell_length_a 28.073237
_cell_length_b 8.938421
_cell_length_c 19.072182
_cell_angle_alpha 90.000000
_cell_angle_beta 152.566549
_cell_angle_gamma 90.000000
_cell_volume 2204.900004
_symmetry_space_group_name_H-M "C 2/M"
_symmetry_group_IT_number 12
_symmetry_cell_setting 'monoclinic'
loop_
_space_group_symop_operation_xyz
x,y,z
-x,y,-z
-x,-y,-z
x,-y,z
1/2+x,1/2+y,z
1/2-x,1/2+y,-z
1/2-x,1/2-y,-z
1/2+x,1/2-y,z
loop_
_atom_site_type_symbol
_atom_site_label
_atom_site_fract_x
_atom_site_fract_y
_atom_site_fract_z
Si Si1 0.469593 0.317884 0.538104
Si Si2 0.583402 0.672064 0.172791
Si Si3 0.423617 0.822274 0.060865
Si Si4 0.640031 0.679736 0.875745
Si Si5 0.260630 0.179111 0.722944
O O1 0.500000 0.266057 0.500000
O O2 0.466505 0.500000 0.531761
O O3 0.556193 0.275957 0.707442
O O4 0.355390 0.269374 0.412328
O O5 0.598851 0.500000 0.213357
O O6 0.529591 0.763913 0.164548
O O7 0.685993 0.743029 0.273724
O O8 0.500000 0.675659 0.000000
O O9 0.397095 0.738650 0.097626
O O10 0.427850 0.000000 0.077695
O O11 0.332942 0.792607 0.885317
O O12 0.647807 0.500000 0.886530
O O13 0.750000 0.750000 0.000000
O O14 0.260709 0.000000 0.711772
#
# Coordination Sequence:
#
# PCOD9183484 Si02
#       5
#     8   8   8   8   8
#     4   9  18  34  55  77 101 133 174 216 257 304
#     4   9  17  30  50  78 110 139 170 211 258 306
#     4  10  19  33  55  80 106 137 174 214 255 304
#     4  11  22  36  55  78 105 136 171 213 261 311
#     4   9  17  32  55  79 103 136 178 217 254 301
#
# _framework density 18.141411999999999
#
# number of rings (size 3 to 8) (size 9 to 14) (size 15 to 20)
#    0.000    2.400    0.000    3.000    0.000    6.400 
#    0.000    3.000    0.000    4.200    0.000    0.000 
#    0.000    0.000    0.000    0.000    0.000    0.000 
#
# Total GULP energy -111614.430510 kJ/mol
# GULP energy per Si atom -5580.721525 kJ/mol
# Density = 1.810012 g / cm^3
# Si number density = 18.141412 Si / 1000 Ang^3
#
#
#
# Elastic Constant Matrix: (Units=GPa)
#
#
# Indices 1 2 3 4 5 6 
#
# 1 178.6968 61.7721 87.4218 0.0000 24.7072 0.0000
# 2 61.7721 57.7003 50.6575 0.0000 0.3171 0.0000
# 3 87.4218 50.6575 104.6172 0.0000 25.3744 0.0000
# 4 0.0000 0.0000 0.0000 15.1200 0.0000 0.8456
# 5 24.7072 0.3171 25.3744 0.0000 32.2399 0.0000
# 6 0.0000 0.0000 0.0000 0.8456 0.0000 37.5290
#
#
#
# Elastic Compliance Matrix: (Units=1/GPa)
#
#
# Indices 1 2 3 4 5 6 
#
# 1 0.011215 -0.008528 -0.003927 0.000000 -0.005420 0.000000
# 2 -0.008528 0.042615 -0.018529 0.000000 0.020700 0.000000
# 3 -0.003927 -0.018529 0.026002 0.000000 -0.017273 0.000000
# 4 0.000000 0.000000 0.000000 0.066221 0.000000 -0.001492
# 5 -0.005420 0.020700 -0.017273 0.000000 0.048562 0.000000
# 6 0.000000 0.000000 0.000000 -0.001492 0.000000 0.026680
#
#
# Mechanical properties :
#
#
# Convention : Reuss Voigt Hill
#
# Bulk Modulus (GPa) = 55.98396 82.30190 69.14293
# Shear Modulus (GPa) = 17.28808 26.38863 21.83836
#
# Velocity S-wave (km/s) = 3.09036 3.81807 3.47332
# Velocity P-wave (km/s) = 6.60761 8.05619 7.36759
#
# Compressibility (1/GPa) = 0.01786226
#
# Stress axis : x y z
#
# Youngs Moduli (GPa) = 89.16702 23.46618 38.45883
#
# Poissons Ratio (x) = 0.20013 0.15104
# Poissons Ratio (y) = 0.76046 0.71259
# Poissons Ratio (z) = 0.35020 0.43480
#
# Static dielectric constant tensor:
#      x y z
#    x 1.598200 0.000000 0.003150 
#    y 0.000000 1.609110 0.000000 
#    z 0.003150 0.000000 1.612370 
# 
# From -- ./inp_files/151955.got.cif
#   From: 2010.05.17/outbox.cif.g08.bks.cpg/sg12_76_cif.got.tgz:151955.got - 2010.06.03 13:09:07.
