data_PCOD9183532
_publ_section_title
;
Structure prediction by ZEFSAII (Michael W. Deem and Ramdas Pophale) SiO2 
 PCOD9183532
Probable space group: C 2/M
;
_chemical_formula_sum "Si O2"
_cell_formula_units_Z 56
_cell_length_a 16.628102
_cell_length_b 19.663147
_cell_length_c 22.135172
_cell_angle_alpha 90.000000
_cell_angle_beta 21.953756
_cell_angle_gamma 90.000000
_cell_volume 2705.736116
_symmetry_space_group_name_H-M "C 2/M"
_symmetry_group_IT_number 12
_symmetry_cell_setting 'monoclinic'
loop_
_space_group_symop_operation_xyz
x,y,z
-x,y,-z
-x,-y,-z
x,-y,z
1/2+x,1/2+y,z
1/2-x,1/2+y,-z
1/2-x,1/2-y,-z
1/2+x,1/2-y,z
loop_
_atom_site_type_symbol
_atom_site_label
_atom_site_fract_x
_atom_site_fract_y
_atom_site_fract_z
Si Si1 0.040118 0.926917 0.747830
Si Si2 0.064935 0.186829 0.388084
Si Si3 0.938217 0.669837 0.472196
Si Si4 0.758906 0.580909 0.823810
Si Si5 0.765380 0.360201 0.947629
Si Si6 0.455661 0.783131 0.922935
Si Si7 0.764029 0.611448 0.145168
O O1 0.897941 0.911225 0.905621
O O2 0.873906 0.927473 0.808136
O O3 0.212368 0.867693 0.619983
O O4 0.150073 0.000000 0.676582
O O5 0.297710 0.222022 0.232414
O O6 0.111717 0.127839 0.307887
O O7 0.000000 0.162856 0.500000
O O8 0.919035 0.250159 0.468944
O O9 0.000000 0.667744 0.500000
O O10 0.116008 0.627693 0.311192
O O11 0.798432 0.500000 0.787937
O O12 0.500000 0.591674 0.000000
O O13 0.837255 0.605976 0.835406
O O14 0.638984 0.290389 0.022870
O O15 0.934519 0.334177 0.880209
O O16 0.325588 0.818380 0.067770
O O17 0.000000 0.583564 0.000000
#
# Coordination Sequence:
#
# PCOD9183532 Si02
#       7
#     8   8   8   8   8   8   8
#     4  11  23  38  57  81 112 152 190 223 268 329
#     4  10  19  33  55  81 108 136 174 223 279 330
#     4  11  23  37  55  79 112 148 183 226 277 329
#     4  11  22  34  51  75 107 150 192 227 266 319
#     4  10  19  34  55  78 105 137 182 231 273 319
#     4   9  18  33  55  80 105 137 174 224 283 330
#     4   9  20  38  59  84 112 142 181 230 281 332
#
# _framework density 20.696770999999998
#
# number of rings (size 3 to 8) (size 9 to 14) (size 15 to 20)
#    0.000    1.857    0.000    5.143    0.000    5.429 
#    0.000    0.000    0.000    0.429    0.000    0.000 
#    0.000    0.000    0.000    0.000    0.000    0.000 
#
# Total GULP energy -156328.108425 kJ/mol
# GULP energy per Si atom -5583.146729 kJ/mol
# Density = 2.064966 g / cm^3
# Si number density = 20.696771 Si / 1000 Ang^3
#
#
#
# Elastic Constant Matrix: (Units=GPa)
#
#
# Indices 1 2 3 4 5 6 
#
# 1 65.4811 12.3053 19.7236 -0.1073 22.7789 0.0111
# 2 12.3053 50.7759 16.0917 -0.0929 14.7017 -0.0168
# 3 19.7236 16.0917 52.8669 -0.1908 25.9164 -0.0069
# 4 -0.1073 -0.0929 -0.1908 0.7336 0.0953 1.1484
# 5 22.7789 14.7017 25.9164 0.0953 48.6426 0.0203
# 6 0.0111 -0.0168 -0.0069 1.1484 0.0203 -3.7423
#
#
#
# Elastic Compliance Matrix: (Units=1/GPa)
#
#
# Indices 1 2 3 4 5 6 
#
# 1 0.018866 -0.001612 -0.003313 0.001687 -0.006586 0.000551
# 2 -0.001612 0.022569 -0.004450 0.001440 -0.003698 0.000324
# 3 -0.003313 -0.004450 0.027220 0.005201 -0.011617 0.001493
# 4 0.001687 0.001440 0.005201 0.922592 -0.005922 0.283074
# 5 -0.006586 -0.003698 -0.011617 -0.005922 0.030962 -0.001631
# 6 0.000551 0.000324 0.001493 0.283074 -0.001631 -0.180359
#
#
# Mechanical properties :
#
#
# Convention : Reuss Voigt Hill
#
# Bulk Modulus (GPa) = 20.03822 29.48504 24.76163
# Shear Modulus (GPa) = 5.69973 17.19366 11.44669
#
# Velocity S-wave (km/s) = 1.66129 2.88538 2.35429
# Velocity P-wave (km/s) = 3.65824 5.03763 4.40230
#
# Compressibility (1/GPa) = 0.04990462
#
# Stress axis : x y z
#
# Youngs Moduli (GPa) = 53.00480 44.30887 36.73807
#
# Poissons Ratio (x) = 0.07142 0.12172
# Poissons Ratio (y) = 0.08544 0.16348
# Poissons Ratio (z) = 0.17562 0.19717
#
# Static dielectric constant tensor:
#      x y z
#    x 1.773470 0.000010 0.004870 
#    y 0.000010 1.727310 0.000010 
#    z 0.004870 0.000010 1.741890 
# 
# From -- ./inp_files/344751.got.cif
#   From: 2010.05.17/outbox.cif.g08.bks.cpg/sg12_173_cif.got.tgz:344751.got - 2010.06.03 13:09:07.
