data_PCOD9183914
_publ_section_title
;
Structure prediction by ZEFSAII (Michael W. Deem and Ramdas Pophale) SiO2 
 PCOD9183914
Probable space group: C 2/M
;
_chemical_formula_sum "Si O2"
_cell_formula_units_Z 40
_cell_length_a 18.636126
_cell_length_b 8.568886
_cell_length_c 26.933284
_cell_angle_alpha 90.000000
_cell_angle_beta 30.164119
_cell_angle_gamma 90.000000
_cell_volume 2161.159831
_symmetry_space_group_name_H-M "C 2/M"
_symmetry_group_IT_number 12
_symmetry_cell_setting 'monoclinic'
loop_
_space_group_symop_operation_xyz
x,y,z
-x,y,-z
-x,-y,-z
x,-y,z
1/2+x,1/2+y,z
1/2-x,1/2+y,-z
1/2-x,1/2-y,-z
1/2+x,1/2-y,z
loop_
_atom_site_type_symbol
_atom_site_label
_atom_site_fract_x
_atom_site_fract_y
_atom_site_fract_z
Si Si1 0.089394 0.313036 0.595065
Si Si2 0.169467 0.312107 0.999399
Si Si3 0.438798 0.687688 0.783181
Si Si4 0.600236 0.187575 0.784502
Si Si5 0.919701 0.688675 0.598283
O O1 0.094304 0.500000 0.592320
O O2 0.250000 0.250000 0.500000
O O3 0.003576 0.255303 0.694374
O O4 0.009321 0.261538 0.592790
O O5 0.171723 0.500000 0.998481
O O6 0.005584 0.264814 0.106672
O O7 0.250000 0.250000 0.000000
O O8 0.273457 0.263546 0.892327
O O9 0.445986 0.500000 0.777310
O O10 0.531402 0.745553 0.774964
O O11 0.759612 0.247798 0.695561
O O12 0.600177 0.000000 0.781249
O O13 0.913455 0.500000 0.601625
O O14 0.000000 0.738891 0.500000
#
# Coordination Sequence:
#
# PCOD9183914 Si02
#       5
#     8   8   8   8   8
#     4  11  23  38  57  81 108 138 177 223 270 322
#     4   8  16  30  50  78 108 140 177 217 260 308
#     4  10  19  34  56  80 111 147 179 215 264 317
#     4  10  19  33  56  84 110 138 180 226 264 310
#     4  10  22  39  56  76 105 140 176 218 272 327
#
# _framework density 18.508579000000001
#
# number of rings (size 3 to 8) (size 9 to 14) (size 15 to 20)
#    0.000    2.200    0.000    3.000    0.000    5.200 
#    0.000    1.000    0.000    6.000    0.000    0.000 
#    0.000    0.000    0.000    0.000    0.000    0.000 
#
# Total GULP energy -111551.299184 kJ/mol
# GULP energy per Si atom -5577.564959 kJ/mol
# Density = 1.846645 g / cm^3
# Si number density = 18.508579 Si / 1000 Ang^3
#
#
#
# Elastic Constant Matrix: (Units=GPa)
#
#
# Indices 1 2 3 4 5 6 
#
# 1 114.6808 31.0209 103.7642 0.0001 2.4627 0.0000
# 2 31.0209 27.9129 41.4913 0.0001 0.4321 0.0000
# 3 103.7642 41.4913 241.2540 0.0008 2.6325 -0.0001
# 4 0.0001 0.0001 0.0008 25.7919 -0.0001 -0.6494
# 5 2.4627 0.4321 2.6325 -0.0001 33.2948 0.0000
# 6 0.0000 0.0000 -0.0001 -0.6494 0.0000 24.4250
#
#
#
# Elastic Compliance Matrix: (Units=1/GPa)
#
#
# Indices 1 2 3 4 5 6 
#
# 1 0.016223 -0.010288 -0.005201 0.000000 -0.000655 0.000000
# 2 -0.010288 0.054654 -0.004980 0.000000 0.000445 0.000000
# 3 -0.005201 -0.004980 0.007240 0.000000 -0.000123 0.000000
# 4 0.000000 0.000000 0.000000 0.038798 0.000000 0.001032
# 5 -0.000655 0.000445 -0.000123 0.000000 0.030087 0.000000
# 6 0.000000 0.000000 0.000000 0.001032 0.000000 0.040969
#
#
# Mechanical properties :
#
#
# Convention : Reuss Voigt Hill
#
# Bulk Modulus (GPa) = 26.89634 81.82228 54.35931
# Shear Modulus (GPa) = 20.72106 30.54042 25.63074
#
# Velocity S-wave (km/s) = 3.34958 4.06651 3.72533
# Velocity P-wave (km/s) = 5.43350 8.14570 6.92370
#
# Compressibility (1/GPa) = 0.03717977
#
# Stress axis : x y z
#
# Youngs Moduli (GPa) = 61.64232 18.29688 138.12762
#
# Poissons Ratio (x) = 0.18824 0.71839
# Poissons Ratio (y) = 0.63417 0.68781
# Poissons Ratio (z) = 0.32060 0.09111
#
# Static dielectric constant tensor:
#      x y z
#    x 1.601330 0.000000 0.007200 
#    y 0.000000 1.639790 0.000000 
#    z 0.007200 0.000000 1.667360 
# 
# From -- ./inp_files/151734.got.cif
#   From: 2010.05.17/outbox.cif.g08.bks.cpg/sg12_76_cif.got.tgz:151734.got - 2010.06.03 13:09:07.
