data_PCOD9183261
_publ_section_title
;
Structure prediction by ZEFSAII (Michael W. Deem and Ramdas Pophale) SiO2 
 PCOD9183261
Probable space group: C 2/M
;
_chemical_formula_sum "Si O2"
_cell_formula_units_Z 64
_cell_length_a 20.335229
_cell_length_b 23.536678
_cell_length_c 11.575466
_cell_angle_alpha 90.000000
_cell_angle_beta 39.388220
_cell_angle_gamma 90.000000
_cell_volume 3515.712607
_symmetry_space_group_name_H-M "C 2/M"
_symmetry_group_IT_number 12
_symmetry_cell_setting 'monoclinic'
loop_
_space_group_symop_operation_xyz
x,y,z
-x,y,-z
-x,-y,-z
x,-y,z
1/2+x,1/2+y,z
1/2-x,1/2+y,-z
1/2-x,1/2-y,-z
1/2+x,1/2-y,z
loop_
_atom_site_type_symbol
_atom_site_label
_atom_site_fract_x
_atom_site_fract_y
_atom_site_fract_z
Si Si1 0.895287 0.106613 0.716227
Si Si2 0.929226 0.174718 0.196868
Si Si3 0.638966 0.273673 0.120775
Si Si4 0.072573 0.274028 0.619170
Si Si5 0.384225 0.162291 0.207311
Si Si6 0.232074 0.065608 0.322012
Si Si7 0.483964 0.437563 0.241351
Si Si8 0.714750 0.722876 0.764805
O O1 0.882739 0.171243 0.773541
O O2 0.802308 0.086268 0.759836
O O3 0.000000 0.101893 0.500000
O O4 0.922346 0.071496 0.795106
O O5 0.919868 0.213642 0.322386
O O6 0.976572 0.114686 0.164629
O O7 0.818463 0.176193 0.285330
O O8 0.000000 0.202107 0.000000
O O9 0.546156 0.228400 0.259368
O O10 0.750000 0.250000 0.000000
O O11 0.656053 0.289592 0.963129
O O12 0.097567 0.320565 0.683429
O O13 0.160818 0.275459 0.402210
O O14 0.314064 0.107978 0.270151
O O15 0.325499 0.216428 0.229007
O O16 0.500000 0.155952 0.000000
O O17 0.124798 0.066349 0.540685
O O18 0.267524 0.000000 0.269643
O O19 0.491291 0.500000 0.178930
#
# Coordination Sequence:
#
# PCOD9183261 Si02
#       8
#     8   8   8   8   8   8   8   8
#     4  10  21  36  56  77 112 152 185 230 287 335
#     4  11  18  34  53  78 112 146 187 224 276 335
#     4  12  24  35  53  83 111 142 185 229 273 343
#     4  11  21  36  56  80 111 154 181 223 281 339
#     4  11  20  35  56  80 113 144 187 230 279 337
#     4  10  21  36  55  80 109 146 191 237 284 333
#     4  10  19  33  54  81 109 143 189 234 280 335
#     4  11  21  36  56  79 114 149 184 223 280 336
#
# _framework density 18.203990999999998
#
# number of rings (size 3 to 8) (size 9 to 14) (size 15 to 20)
#    0.000    1.250    3.750    4.875    3.500    2.000 
#    0.000    0.000    0.000    0.000    0.000    0.000 
#    0.000    1.000    0.000    0.000    0.000    0.000 
#
# Total GULP energy -178493.762908 kJ/mol
# GULP energy per Si atom -5577.930091 kJ/mol
# Density = 1.816256 g / cm^3
# Si number density = 18.203991 Si / 1000 Ang^3
#
#
#
# Elastic Constant Matrix: (Units=GPa)
#
#
# Indices 1 2 3 4 5 6 
#
# 1 89.1269 49.6993 7.9713 0.0000 -21.3780 0.0000
# 2 49.6993 100.8666 0.0879 0.0000 -5.1472 0.0000
# 3 7.9713 0.0879 52.9985 0.0000 -19.2123 0.0000
# 4 0.0000 0.0000 0.0000 13.0929 0.0000 -0.0821
# 5 -21.3780 -5.1472 -19.2123 0.0000 30.6117 0.0000
# 6 0.0000 0.0000 0.0000 -0.0821 0.0000 25.1561
#
#
#
# Elastic Compliance Matrix: (Units=1/GPa)
#
#
# Indices 1 2 3 4 5 6 
#
# 1 0.019030 -0.008715 0.001862 0.000000 0.012993 0.000000
# 2 -0.008715 0.014015 -0.000083 0.000000 -0.003782 0.000000
# 3 0.001862 -0.000083 0.024667 0.000000 0.016768 0.000000
# 4 0.000000 0.000000 0.000000 0.076379 0.000000 0.000249
# 5 0.012993 -0.003782 0.016768 0.000000 0.051629 0.000000
# 6 0.000000 0.000000 0.000000 0.000249 0.000000 0.039753
#
#
# Mechanical properties :
#
#
# Convention : Reuss Voigt Hill
#
# Bulk Modulus (GPa) = 22.81046 39.83434 31.32240
# Shear Modulus (GPa) = 19.68835 26.12103 22.90469
#
# Velocity S-wave (km/s) = 3.29225 3.79213 3.55099
# Velocity P-wave (km/s) = 5.19707 6.41119 5.83579
#
# Compressibility (1/GPa) = 0.04383954
#
# Stress axis : x y z
#
# Youngs Moduli (GPa) = 52.54991 71.35111 40.54018
#
# Poissons Ratio (x) = 0.62182 -0.07550
# Poissons Ratio (y) = 0.45797 0.00338
# Poissons Ratio (z) = -0.09786 0.00595
#
# Static dielectric constant tensor:
#      x y z
#    x 1.744900 0.000000 -0.005520 
#    y 0.000000 1.618280 0.000000 
#    z -0.005520 0.000000 1.646360 
# 
# From -- ./inp_files/170150.got.cif
#   From: 2010.05.17/outbox.cif.g08.bks.cpg/sg12_86_cif.got.tgz:170150.got - 2010.06.03 13:09:07.
