data_PCOD9183154
_publ_section_title
;
Structure prediction by ZEFSAII (Michael W. Deem and Ramdas Pophale) SiO2 
 PCOD9183154
Probable space group: C 2/M
;
_chemical_formula_sum "Si O2"
_cell_formula_units_Z 64
_cell_length_a 20.789545
_cell_length_b 7.434405
_cell_length_c 25.888840
_cell_angle_alpha 90.000000
_cell_angle_beta 46.870729
_cell_angle_gamma 90.000000
_cell_volume 2920.219219
_symmetry_space_group_name_H-M "C 2/M"
_symmetry_group_IT_number 12
_symmetry_cell_setting 'monoclinic'
loop_
_space_group_symop_operation_xyz
x,y,z
-x,y,-z
-x,-y,-z
x,-y,z
1/2+x,1/2+y,z
1/2-x,1/2+y,-z
1/2-x,1/2-y,-z
1/2+x,1/2-y,z
loop_
_atom_site_type_symbol
_atom_site_label
_atom_site_fract_x
_atom_site_fract_y
_atom_site_fract_z
Si Si1 0.029583 0.781581 0.346616
Si Si2 0.739306 0.286500 0.945102
Si Si3 0.450675 0.719900 0.186317
Si Si4 0.660718 0.286121 0.579345
Si Si5 0.542384 0.279981 0.030516
Si Si6 0.215213 0.779882 0.662037
Si Si7 0.911106 0.292725 0.573525
Si Si8 0.078918 0.792942 0.206681
O O1 0.927207 0.722048 0.400882
O O2 0.077101 0.711787 0.371381
O O3 0.069170 0.720156 0.269875
O O4 0.034189 0.000000 0.347514
O O5 0.741622 0.500000 0.936193
O O6 0.821975 0.211534 0.868513
O O7 0.750000 0.250000 0.000000
O O8 0.643490 0.220637 0.980410
O O9 0.453739 0.500000 0.184071
O O10 0.487252 0.778471 0.110951
O O11 0.351572 0.772868 0.255769
O O12 0.515913 0.782907 0.196418
O O13 0.649934 0.500000 0.589170
O O14 0.750000 0.250000 0.500000
O O15 0.672516 0.220258 0.631347
O O16 0.542963 0.500000 0.030836
O O17 0.500000 0.223018 0.000000
O O18 0.315658 0.715364 0.611526
O O19 0.217403 0.000000 0.660920
O O20 0.908582 0.500000 0.556720
O O21 0.000000 0.211043 0.500000
O O22 0.049641 0.000000 0.227820
#
# Coordination Sequence:
#
# PCOD9183154 Si02
#       8
#     8   8   8   8   8   8   8   8
#     4  10  21  36  56  80 108 143 183 225 273 334
#     4  11  21  34  56  84 112 146 185 226 274 327
#     4   9  15  29  53  76 102 138 178 222 266 315
#     4  10  19  33  54  79 103 133 179 225 269 320
#     4   9  18  31  50  80 110 135 175 226 266 307
#     4   9  17  31  53  76 100 140 186 219 260 323
#     4  10  21  36  54  80 114 147 179 225 279 325
#     4  10  19  35  57  81 108 143 185 228 276 326
#
# _framework density 21.916163000000001
#
# number of rings (size 3 to 8) (size 9 to 14) (size 15 to 20)
#    0.000    2.250    2.500    1.125    0.000    3.250 
#    0.000    3.125    0.000    2.250    0.000    0.000 
#    0.000    0.000    0.000    0.000    0.000    0.000 
#
# Total GULP energy -178764.163209 kJ/mol
# GULP energy per Si atom -5586.380100 kJ/mol
# Density = 2.186628 g / cm^3
# Si number density = 21.916163 Si / 1000 Ang^3
#
#
#
# Elastic Constant Matrix: (Units=GPa)
#
#
# Indices 1 2 3 4 5 6 
#
# 1 98.1648 -4.2947 9.2096 0.0003 -6.7577 -0.0007
# 2 -4.2947 68.3354 -7.9802 0.0025 -1.7404 -0.0012
# 3 9.2096 -7.9802 105.5815 0.0002 -7.9565 -0.0004
# 4 0.0003 0.0025 0.0002 12.6716 -0.0003 -0.0158
# 5 -6.7577 -1.7404 -7.9565 -0.0003 41.5265 0.0004
# 6 -0.0007 -0.0012 -0.0004 -0.0158 0.0004 11.3396
#
#
#
# Elastic Compliance Matrix: (Units=1/GPa)
#
#
# Indices 1 2 3 4 5 6 
#
# 1 0.010391 0.000607 -0.000742 0.000000 0.001574 0.000001
# 2 0.000607 0.014829 0.001139 -0.000003 0.000938 0.000002
# 3 -0.000742 0.001139 0.009758 0.000000 0.001797 0.000000
# 4 0.000000 -0.000003 0.000000 0.078917 0.000000 0.000110
# 5 0.001574 0.000938 0.001797 0.000000 0.024721 -0.000001
# 6 0.000001 0.000002 0.000000 0.000110 -0.000001 0.088187
#
#
# Mechanical properties :
#
#
# Convention : Reuss Voigt Hill
#
# Bulk Modulus (GPa) = 27.03867 29.55011 28.29439
# Shear Modulus (GPa) = 21.08607 31.45067 26.26837
#
# Velocity S-wave (km/s) = 3.10518 3.79231 3.46581
# Velocity P-wave (km/s) = 5.02198 5.71734 5.38090
#
# Compressibility (1/GPa) = 0.03698407
#
# Stress axis : x y z
#
# Youngs Moduli (GPa) = 96.23278 67.43689 102.48504
#
# Poissons Ratio (x) = -0.04090 0.07604
# Poissons Ratio (y) = -0.05837 -0.11669
# Poissons Ratio (z) = 0.07140 -0.07678
#
# Static dielectric constant tensor:
#      x y z
#    x 1.781310 0.000000 -0.019410 
#    y 0.000000 1.853640 0.000000 
#    z -0.019410 0.000000 1.774270 
# 
# From -- ./inp_files/346095.got.cif
#   From: 2010.05.17/outbox.cif.g08.bks.cpg/sg12_174_cif.got.tgz:346095.got - 2010.06.03 13:09:07.
