data_PCOD9183899
_publ_section_title
;
Structure prediction by ZEFSAII (Michael W. Deem and Ramdas Pophale) SiO2 
 PCOD9183899
Probable space group: C 2/M
;
_chemical_formula_sum "Si O2"
_cell_formula_units_Z 56
_cell_length_a 18.421961
_cell_length_b 8.650282
_cell_length_c 19.346613
_cell_angle_alpha 90.000000
_cell_angle_beta 76.215735
_cell_angle_gamma 90.000000
_cell_volume 2994.191899
_symmetry_space_group_name_H-M "C 2/M"
_symmetry_group_IT_number 12
_symmetry_cell_setting 'monoclinic'
loop_
_space_group_symop_operation_xyz
x,y,z
-x,y,-z
-x,-y,-z
x,-y,z
1/2+x,1/2+y,z
1/2-x,1/2+y,-z
1/2-x,1/2-y,-z
1/2+x,1/2-y,z
loop_
_atom_site_type_symbol
_atom_site_label
_atom_site_fract_x
_atom_site_fract_y
_atom_site_fract_z
Si Si1 0.831979 0.186001 0.999270
Si Si2 0.209326 0.812885 0.845285
Si Si3 0.992025 0.316146 0.708227
Si Si4 0.154641 0.814339 0.705971
Si Si5 0.873803 0.814151 0.843338
Si Si6 0.441023 0.686609 0.572654
Si Si7 0.272522 0.685507 0.569459
O O1 0.842593 0.230677 0.076931
O O2 0.830148 0.000000 0.997836
O O3 0.750000 0.250000 0.000000
O O4 0.882224 0.233459 0.922451
O O5 0.175347 0.767470 0.779587
O O6 0.291200 0.739880 0.838068
O O7 0.217755 0.000000 0.843805
O O8 0.995976 0.500000 0.707878
O O9 0.073585 0.246486 0.703422
O O10 0.935342 0.258741 0.780074
O O11 0.962423 0.259127 0.640844
O O12 0.216321 0.749517 0.639687
O O13 0.154827 0.000000 0.702431
O O14 0.878031 0.000000 0.837709
O O15 0.500000 0.731662 0.500000
O O16 0.443840 0.500000 0.578808
O O17 0.357403 0.730191 0.569020
O O18 0.268518 0.500000 0.569026
O O19 0.250000 0.750000 0.500000
#
# Coordination Sequence:
#
# PCOD9183899 Si02
#       7
#     8   8   8   8   8   8   8
#     4   8  15  29  51  80 110 142 182 227 276 330
#     4   9  18  34  57  84 112 144 186 233 279 331
#     4  12  25  39  57  81 112 149 190 235 279 330
#     4  11  23  39  58  80 112 151 189 233 283 333
#     4  10  19  33  56  83 113 148 185 229 281 335
#     4  10  22  41  64  89 117 148 182 223 273 328
#     4  11  23  39  62  90 119 150 185 226 271 325
#
# _framework density 18.702874999999999
#
# number of rings (size 3 to 8) (size 9 to 14) (size 15 to 20)
#    0.000    1.857    0.000    4.286    0.000    6.571 
#    0.000    0.714    0.000    4.286    0.000    0.000 
#    0.000    0.000    0.000    0.000    0.000    0.000 
#
# Total GULP energy -156334.929296 kJ/mol
# GULP energy per Si atom -5583.390332 kJ/mol
# Density = 1.866031 g / cm^3
# Si number density = 18.702875 Si / 1000 Ang^3
#
#
#
# Elastic Constant Matrix: (Units=GPa)
#
#
# Indices 1 2 3 4 5 6 
#
# 1 142.4908 48.0120 110.0782 0.0000 1.7489 0.0000
# 2 48.0120 43.8805 57.0461 0.0000 2.8781 0.0000
# 3 110.0782 57.0461 230.0797 0.0000 4.6093 0.0000
# 4 0.0000 0.0000 0.0000 20.3470 0.0000 0.5363
# 5 1.7489 2.8781 4.6093 0.0000 32.5513 0.0000
# 6 0.0000 0.0000 0.0000 0.5363 0.0000 23.1909
#
#
#
# Elastic Compliance Matrix: (Units=1/GPa)
#
#
# Indices 1 2 3 4 5 6 
#
# 1 0.013280 -0.009293 -0.004063 0.000000 0.000683 0.000000
# 2 -0.009293 0.040237 -0.005485 0.000000 -0.002282 0.000000
# 3 -0.004063 -0.005485 0.007658 0.000000 -0.000381 0.000000
# 4 0.000000 0.000000 0.000000 0.049177 0.000000 -0.001137
# 5 0.000683 -0.002282 -0.000381 0.000000 0.030940 0.000000
# 6 0.000000 0.000000 0.000000 -0.001137 0.000000 0.043147
#
#
# Mechanical properties :
#
#
# Convention : Reuss Voigt Hill
#
# Bulk Modulus (GPa) = 42.56545 94.08040 68.32293
# Shear Modulus (GPa) = 21.74391 28.63882 25.19137
#
# Velocity S-wave (km/s) = 3.41339 3.91737 3.67403
# Velocity P-wave (km/s) = 6.19218 8.41860 7.38972
#
# Compressibility (1/GPa) = 0.02349323
#
# Stress axis : x y z
#
# Youngs Moduli (GPa) = 75.30350 24.85298 130.58650
#
# Poissons Ratio (x) = 0.23095 0.53059
# Poissons Ratio (y) = 0.69976 0.71622
# Poissons Ratio (z) = 0.30597 0.13631
#
# Static dielectric constant tensor:
#      x y z
#    x 1.603520 0.000000 0.006250 
#    y 0.000000 1.635600 0.000000 
#    z 0.006250 0.000000 1.662630 
# 
# From -- ./inp_files/275132.got.cif
#   From: 2010.05.17/outbox.cif.g08.bks.cpg/sg12_138_cif.got.tgz:275132.got - 2010.06.03 13:09:07.
