data_PCOD9183225
_publ_section_title
;
Structure prediction by ZEFSAII (Michael W. Deem and Ramdas Pophale) SiO2 
 PCOD9183225
Probable space group: C 2/M
;
_chemical_formula_sum "Si O2"
_cell_formula_units_Z 64
_cell_length_a 21.053497
_cell_length_b 7.948931
_cell_length_c 21.882875
_cell_angle_alpha 90.000000
_cell_angle_beta 130.526315
_cell_angle_gamma 90.000000
_cell_volume 2783.635888
_symmetry_space_group_name_H-M "C 2/M"
_symmetry_group_IT_number 12
_symmetry_cell_setting 'monoclinic'
loop_
_space_group_symop_operation_xyz
x,y,z
-x,y,-z
-x,-y,-z
x,-y,z
1/2+x,1/2+y,z
1/2-x,1/2+y,-z
1/2-x,1/2-y,-z
1/2+x,1/2-y,z
loop_
_atom_site_type_symbol
_atom_site_label
_atom_site_fract_x
_atom_site_fract_y
_atom_site_fract_z
Si Si1 0.576864 0.703868 0.358969
Si Si2 0.594521 0.298884 0.554935
Si Si3 0.324494 0.195940 0.756266
Si Si4 0.167367 0.198270 0.983476
Si Si5 0.751386 0.192722 0.582932
Si Si6 0.743334 0.202854 0.156288
Si Si7 0.004839 0.203748 0.179324
Si Si8 0.590159 0.295063 0.687827
O O1 0.584068 0.500000 0.370110
O O2 0.673366 0.767807 0.412739
O O3 0.530973 0.739268 0.265531
O O4 0.505060 0.763718 0.361039
O O5 0.500000 0.231310 0.500000
O O6 0.588254 0.500000 0.548182
O O7 0.658052 0.256968 0.539871
O O8 0.625380 0.252663 0.642546
O O9 0.292017 0.292013 0.676239
O O10 0.293496 0.257912 0.801970
O O11 0.423755 0.213367 0.816690
O O12 0.298864 0.000000 0.732404
O O13 0.185760 0.241917 0.064946
O O14 0.159285 0.000000 0.973618
O O15 0.250000 0.250000 0.000000
O O16 0.084724 0.267263 0.899160
O O17 0.743506 0.000000 0.560782
O O18 0.840978 0.257890 0.219078
O O19 0.744717 0.000000 0.155938
O O20 0.009196 0.000000 0.176247
O O21 0.585700 0.500000 0.687305
#
# Coordination Sequence:
#
# PCOD9183225 Si02
#       8
#     8   8   8   8   8   8   8   8
#     4   8  15  29  53  77  98 137 183 217 257 316
#     4  10  20  35  57  83 109 141 182 225 272 326
#     4  10  19  33  55  81 106 137 180 225 269 322
#     4  11  23  37  53  74 105 143 184 230 279 331
#     4  10  19  33  54  80 111 143 178 219 269 332
#     4  10  20  34  54  77 104 140 181 227 275 324
#     4   9  19  35  52  73 104 142 180 221 275 328
#     4   9  16  32  55  78 105 138 182 226 266 322
#
# _framework density 22.991513000000001
#
# number of rings (size 3 to 8) (size 9 to 14) (size 15 to 20)
#    0.000    2.375    1.250    2.625    0.000    4.750 
#    0.000    3.125    0.000    4.500    0.000    0.000 
#    0.000    0.000    0.000    0.000    0.000    0.000 
#
# Total GULP energy -178535.909726 kJ/mol
# GULP energy per Si atom -5579.247179 kJ/mol
# Density = 2.293918 g / cm^3
# Si number density = 22.991513 Si / 1000 Ang^3
#
#
#
# Elastic Constant Matrix: (Units=GPa)
#
#
# Indices 1 2 3 4 5 6 
#
# 1 167.2653 13.0148 33.6013 0.0000 16.7238 0.0000
# 2 13.0148 22.0729 15.0731 0.0000 0.2316 0.0000
# 3 33.6013 15.0731 81.4613 0.0000 24.7383 0.0000
# 4 0.0000 0.0000 0.0000 22.8415 0.0000 3.8670
# 5 16.7238 0.2316 24.7383 0.0000 43.3691 0.0000
# 6 0.0000 0.0000 0.0000 3.8670 0.0000 25.1191
#
#
#
# Elastic Compliance Matrix: (Units=1/GPa)
#
#
# Indices 1 2 3 4 5 6 
#
# 1 0.006705 -0.002712 -0.001794 0.000000 -0.001548 0.000000
# 2 -0.002712 0.054410 -0.011101 0.000000 0.007088 0.000000
# 3 -0.001794 -0.011101 0.017951 0.000000 -0.009489 0.000000
# 4 0.000000 0.000000 0.000000 0.044952 0.000000 -0.006920
# 5 -0.001548 0.007088 -0.009489 0.000000 0.029029 0.000000
# 6 0.000000 0.000000 0.000000 -0.006920 0.000000 0.040876
#
#
# Mechanical properties :
#
#
# Convention : Reuss Voigt Hill
#
# Bulk Modulus (GPa) = 20.89791 43.79755 32.34773
# Shear Modulus (GPa) = 20.73930 32.20661 26.47296
#
# Velocity S-wave (km/s) = 3.00666 3.74679 3.39694
# Velocity P-wave (km/s) = 4.60027 6.14888 5.43006
#
# Compressibility (1/GPa) = 0.04785168
#
# Stress axis : x y z
#
# Youngs Moduli (GPa) = 149.15057 18.37887 55.70616
#
# Poissons Ratio (x) = 0.04985 0.09992
# Poissons Ratio (y) = 0.40452 0.61842
# Poissons Ratio (z) = 0.26753 0.20403
#
# Static dielectric constant tensor:
#      x y z
#    x 1.899160 0.000000 0.028690 
#    y 0.000000 1.819250 0.000000 
#    z 0.028690 0.000000 1.925270 
# 
# From -- ./inp_files/346218.got.cif
#   From: 2010.05.17/outbox.cif.g08.bks.cpg/sg12_174_cif.got.tgz:346218.got - 2010.06.03 13:09:07.
