data_PCOD9183087
_publ_section_title
;
Structure prediction by ZEFSAII (Michael W. Deem and Ramdas Pophale) SiO2 
 PCOD9183087
Probable space group: C 2/M
;
_chemical_formula_sum "Si O2"
_cell_formula_units_Z 64
_cell_length_a 26.733661
_cell_length_b 7.410107
_cell_length_c 20.318211
_cell_angle_alpha 90.000000
_cell_angle_beta 133.988736
_cell_angle_gamma 90.000000
_cell_volume 2895.908968
_symmetry_space_group_name_H-M "C 2/M"
_symmetry_group_IT_number 12
_symmetry_cell_setting 'monoclinic'
loop_
_space_group_symop_operation_xyz
x,y,z
-x,y,-z
-x,-y,-z
x,-y,z
1/2+x,1/2+y,z
1/2-x,1/2+y,-z
1/2-x,1/2-y,-z
1/2+x,1/2-y,z
loop_
_atom_site_type_symbol
_atom_site_label
_atom_site_fract_x
_atom_site_fract_y
_atom_site_fract_z
Si Si1 0.955907 0.779726 0.606210
Si Si2 0.931229 0.781854 0.086838
Si Si3 0.388097 0.279808 0.290760
Si Si4 0.156471 0.779043 0.604398
Si Si5 0.824633 0.784685 0.099476
Si Si6 0.422351 0.210600 0.932375
Si Si7 0.923281 0.782590 0.724567
Si Si8 0.687476 0.788075 0.272222
O O1 0.899738 0.721791 0.501038
O O2 0.935227 0.721107 0.660801
O O3 0.033611 0.724854 0.656801
O O4 0.956564 0.000000 0.607895
O O5 0.883951 0.717717 0.103910
O O6 0.010590 0.721780 0.171339
O O7 0.931131 0.000000 0.086893
O O8 0.901929 0.722294 0.989981
O O9 0.387601 0.500000 0.291970
O O10 0.365190 0.221262 0.342133
O O11 0.337665 0.219473 0.185498
O O12 0.234386 0.716739 0.658703
O O13 0.155342 0.000000 0.602462
O O14 0.833479 0.000000 0.110443
O O15 0.750000 0.750000 0.000000
O O16 0.365199 0.289346 0.830929
O O17 0.429294 0.000000 0.920392
O O18 0.500000 0.291519 0.000000
O O19 0.852156 0.728857 0.694797
O O20 0.924843 0.000000 0.725180
O O21 0.694799 0.000000 0.263687
#
# Coordination Sequence:
#
# PCOD9183087 Si02
#       8
#     8   8   8   8   8   8   8   8
#     4   9  16  30  52  77 101 129 171 217 259 306
#     4  10  20  34  51  74 103 135 174 214 253 302
#     4   9  16  30  52  76 103 134 170 213 257 303
#     4   9  18  30  49  76 104 134 168 213 264 305
#     4  10  21  35  52  78 109 138 169 210 258 309
#     4  10  20  33  50  72 100 136 173 208 251 305
#     4  10  19  33  54  77 103 136 172 212 255 301
#     4  10  21  35  49  75 109 136 171 214 255 306
#
# _framework density 22.100142000000002
#
# number of rings (size 3 to 8) (size 9 to 14) (size 15 to 20)
#    0.000    2.375    2.500    0.375    1.750    3.250 
#    0.000    0.000    0.000    0.000    0.000    0.000 
#    0.000    3.000    0.000    0.000    0.000    0.000 
#
# Total GULP energy -178789.670720 kJ/mol
# GULP energy per Si atom -5587.177210 kJ/mol
# Density = 2.204984 g / cm^3
# Si number density = 22.100142 Si / 1000 Ang^3
#
#
#
# Elastic Constant Matrix: (Units=GPa)
#
#
# Indices 1 2 3 4 5 6 
#
# 1 153.1121 -9.2672 94.7986 0.0000 -2.3937 0.0000
# 2 -9.2672 70.6953 2.0731 0.0001 2.9040 0.0000
# 3 94.7986 2.0731 166.9613 0.0000 9.0132 0.0000
# 4 0.0000 0.0001 0.0000 9.7484 0.0000 -8.2091
# 5 -2.3937 2.9040 9.0132 0.0000 33.1099 0.0000
# 6 0.0000 0.0000 0.0000 -8.2091 0.0000 23.0584
#
#
#
# Elastic Compliance Matrix: (Units=1/GPa)
#
#
# Indices 1 2 3 4 5 6 
#
# 1 0.010396 0.001447 -0.006043 0.000000 0.002270 0.000000
# 2 0.001447 0.014400 -0.000952 0.000000 -0.000899 0.000000
# 3 -0.006043 -0.000952 0.009592 0.000000 -0.002965 0.000000
# 4 0.000000 0.000000 0.000000 0.146503 0.000000 0.052157
# 5 0.002270 -0.000899 -0.002965 0.000000 0.031252 0.000000
# 6 0.000000 0.000000 0.000000 0.052157 0.000000 0.061937
#
#
# Mechanical properties :
#
#
# Convention : Reuss Voigt Hill
#
# Bulk Modulus (GPa) = 42.93349 62.88642 52.90995
# Shear Modulus (GPa) = 17.06835 33.39428 25.23132
#
# Velocity S-wave (km/s) = 2.78208 3.89143 3.38254
# Velocity P-wave (km/s) = 5.45792 6.97911 6.26486
#
# Compressibility (1/GPa) = 0.02329184
#
# Stress axis : x y z
#
# Youngs Moduli (GPa) = 96.19325 69.44587 104.24865
#
# Poissons Ratio (x) = -0.10047 0.62998
# Poissons Ratio (y) = -0.13916 0.09921
# Poissons Ratio (z) = 0.58130 0.06609
#
# Static dielectric constant tensor:
#      x y z
#    x 1.780780 0.000000 0.001100 
#    y 0.000000 1.860870 0.000000 
#    z 0.001100 0.000000 1.787230 
# 
# From -- ./inp_files/324299.got.cif
#   From: 2010.05.17/outbox.cif.g08.bks.cpg/sg12_163_cif.got.tgz:324299.got - 2010.06.03 13:09:07.
