data_PCOD9183884
_publ_section_title
;
Structure prediction by ZEFSAII (Michael W. Deem and Ramdas Pophale) SiO2 
 PCOD9183884
Probable space group: C 2/M
;
_chemical_formula_sum "Si O2"
_cell_formula_units_Z 56
_cell_length_a 16.922658
_cell_length_b 18.276687
_cell_length_c 15.291864
_cell_angle_alpha 90.000000
_cell_angle_beta 134.145835
_cell_angle_gamma 90.000000
_cell_volume 3393.832182
_symmetry_space_group_name_H-M "C 2/M"
_symmetry_group_IT_number 12
_symmetry_cell_setting 'monoclinic'
loop_
_space_group_symop_operation_xyz
x,y,z
-x,y,-z
-x,-y,-z
x,-y,z
1/2+x,1/2+y,z
1/2-x,1/2+y,-z
1/2-x,1/2-y,-z
1/2+x,1/2-y,z
loop_
_atom_site_type_symbol
_atom_site_label
_atom_site_fract_x
_atom_site_fract_y
_atom_site_fract_z
Si Si1 0.239356 0.087236 0.333378
Si Si2 0.390869 0.087798 0.612871
Si Si3 0.357535 0.913118 0.242070
Si Si4 0.474563 0.321337 0.878649
Si Si5 0.286843 0.333686 0.015929
Si Si6 0.157535 0.412857 0.061201
Si Si7 0.077020 0.649522 0.176758
O O1 0.303186 0.107792 0.471002
O O2 0.317746 0.100898 0.310012
O O3 0.127079 0.130672 0.232462
O O4 0.218340 0.000000 0.319547
O O5 0.514315 0.104219 0.673870
O O6 0.375321 0.127759 0.692925
O O7 0.385093 0.000000 0.621986
O O8 0.282455 0.868456 0.117114
O O9 0.343239 0.000000 0.213566
O O10 0.444007 0.235692 0.848035
O O11 0.500000 0.337527 0.000000
O O12 0.585106 0.335984 0.909333
O O13 0.250000 0.250000 0.000000
O O14 0.253058 0.378260 0.076225
O O15 0.164783 0.500000 0.071171
O O16 0.149729 0.378553 0.151733
O O17 0.041587 0.390443 0.926059
#
# Coordination Sequence:
#
# PCOD9183884 Si02
#       7
#     8   8   8   8   8   8   8
#     4  10  23  37  55  82 115 155 193 227 277 347
#     4  10  19  36  58  84 115 146 187 239 285 333
#     4  10  19  33  56  83 112 146 185 233 285 332
#     4  12  22  38  57  82 119 155 187 233 292 344
#     4  12  21  35  55  82 118 151 182 230 289 343
#     4  11  21  34  56  87 113 145 188 235 287 337
#     4  11  20  36  58  85 112 144 185 246 289 335
#
# _framework density 16.500520999999999
#
# number of rings (size 3 to 8) (size 9 to 14) (size 15 to 20)
#    0.000    1.143    5.714    2.571    0.000    3.714 
#    0.000    0.000    0.000    0.857    0.000    3.000 
#    0.000    0.000    0.000    0.000    0.000    0.000 
#
# Total GULP energy -156412.086009 kJ/mol
# GULP energy per Si atom -5586.145929 kJ/mol
# Density = 1.646297 g / cm^3
# Si number density = 16.500521 Si / 1000 Ang^3
#
#
#
# Elastic Constant Matrix: (Units=GPa)
#
#
# Indices 1 2 3 4 5 6 
#
# 1 137.0011 62.5384 73.6051 0.0000 -16.1580 0.0000
# 2 62.5384 78.4500 66.2054 0.0000 -5.6373 0.0000
# 3 73.6051 66.2054 142.8008 0.0000 -16.2748 0.0000
# 4 0.0000 0.0000 0.0000 -2.3094 0.0000 -6.7516
# 5 -16.1580 -5.6373 -16.2748 0.0000 22.8664 0.0000
# 6 0.0000 0.0000 0.0000 -6.7516 0.0000 25.6345
#
#
#
# Elastic Compliance Matrix: (Units=1/GPa)
#
#
# Indices 1 2 3 4 5 6 
#
# 1 0.012760 -0.007809 -0.002338 0.000000 0.005427 0.000000
# 2 -0.007809 0.025795 -0.008530 0.000000 -0.005230 0.000000
# 3 -0.002338 -0.008530 0.012771 0.000000 0.005334 0.000000
# 4 0.000000 0.000000 0.000000 -0.244637 0.000000 -0.064433
# 5 0.005427 -0.005230 0.005334 0.000000 0.050075 0.000000
# 6 0.000000 0.000000 0.000000 -0.064433 0.000000 0.022040
#
#
# Mechanical properties :
#
#
# Convention : Reuss Voigt Hill
#
# Bulk Modulus (GPa) = 71.57483 84.77218 78.17351
# Shear Modulus (GPa) = -63.14254 19.63181 -21.75537
#
# Velocity S-wave (km/s) = -6.19274 3.45304 -3.63501
# Velocity P-wave (km/s) = 2.76802 8.20884 5.46457
#
# Compressibility (1/GPa) = 0.01397139
#
# Stress axis : x y z
#
# Youngs Moduli (GPa) = 78.36928 38.76742 78.30483
#
# Poissons Ratio (x) = 0.30273 0.18309
# Poissons Ratio (y) = 0.61197 0.66795
# Poissons Ratio (z) = 0.18324 0.33069
#
# Static dielectric constant tensor:
#      x y z
#    x 1.558730 0.000000 -0.014580 
#    y 0.000000 1.539850 0.000000 
#    z -0.014580 0.000000 1.528530 
# 
# From -- ./inp_files/145682.got.cif
#   From: 2010.05.17/outbox.cif.g08.bks.cpg/sg12_73_cif.got.tgz:145682.got - 2010.06.03 13:09:07.
