data_PCOD9183718
_publ_section_title
;
Structure prediction by ZEFSAII (Michael W. Deem and Ramdas Pophale) SiO2 
 PCOD9183718
Probable space group: C 2/M
;
_chemical_formula_sum "Si O2"
_cell_formula_units_Z 42
_cell_length_a 14.620145
_cell_length_b 8.818074
_cell_length_c 22.059437
_cell_angle_alpha 90.000000
_cell_angle_beta 140.303287
_cell_angle_gamma 90.000000
_cell_volume 1816.489360
_symmetry_space_group_name_H-M "C 2/M"
_symmetry_group_IT_number 12
_symmetry_cell_setting 'monoclinic'
loop_
_space_group_symop_operation_xyz
x,y,z
-x,y,-z
-x,-y,-z
x,-y,z
1/2+x,1/2+y,z
1/2-x,1/2+y,-z
1/2-x,1/2-y,-z
1/2+x,1/2-y,z
loop_
_atom_site_type_symbol
_atom_site_label
_atom_site_fract_x
_atom_site_fract_y
_atom_site_fract_z
Si Si1 0.000000 0.000000 0.000000
Si Si2 0.819301 0.177722 0.616766
Si Si3 0.492035 0.675322 0.829937
Si Si4 0.215649 0.665294 0.874797
Si Si5 0.473903 0.823805 0.582854
Si Si6 0.755963 0.174571 0.231748
O O1 0.116671 0.129389 0.035695
O O2 0.896414 0.194470 0.720101
O O3 0.648369 0.205180 0.529596
O O4 0.890149 0.285945 0.602912
O O5 0.837672 0.000000 0.607108
O O6 0.531171 0.500000 0.856940
O O7 0.630118 0.778346 0.889374
O O8 0.382244 0.723546 0.825734
O O9 0.154385 0.500000 0.823818
O O10 0.193885 0.787256 0.810678
O O11 0.615043 0.723111 0.658472
O O12 0.516348 0.000000 0.601481
O O13 0.720685 0.000000 0.221322
#
# Coordination Sequence:
#
# PCOD9183718 Si02
#       6
#     2   8   8   8   8   8
#     4   8  24  44  78  92 128 146 198 252 328 388
#     4   9  19  34  54  85 124 168 217 264 309 358
#     4  11  22  38  64  95 127 168 211 257 309 369
#     4  10  21  44  69  93 122 154 196 255 317 381
#     4  10  19  33  55  85 123 171 217 265 310 352
#     4  12  24  38  61  93 128 171 214 255 306 370
#
# _framework density 23.121523
#
# number of rings (size 3 to 8) (size 9 to 14) (size 15 to 20)
#    0.571    1.143    1.905    3.429    0.000    2.286 
#    0.000    6.667    0.000    0.000    0.000    0.000 
#    0.000    0.000    0.000    0.000    0.000    0.000 
#
# Total GULP energy -117131.365868 kJ/mol
# GULP energy per Si atom -5577.684089 kJ/mol
# Density = 2.306890 g / cm^3
# Si number density = 23.121523 Si / 1000 Ang^3
#
#
#
# Elastic Constant Matrix: (Units=GPa)
#
#
# Indices 1 2 3 4 5 6 
#
# 1 64.2188 -13.2008 7.1074 0.0000 20.8702 0.0000
# 2 -13.2008 40.8177 10.6597 0.0000 9.9933 0.0000
# 3 7.1074 10.6597 93.0709 0.0000 11.7198 0.0000
# 4 0.0000 0.0000 0.0000 27.1536 0.0000 16.2579
# 5 20.8702 9.9933 11.7198 0.0000 42.8126 0.0000
# 6 0.0000 0.0000 0.0000 16.2579 0.0000 38.3885
#
#
#
# Elastic Compliance Matrix: (Units=1/GPa)
#
#
# Indices 1 2 3 4 5 6 
#
# 1 0.022094 0.010639 -0.001281 0.000000 -0.012903 0.000000
# 2 0.010639 0.031588 -0.002950 0.000000 -0.011752 0.000000
# 3 -0.001281 -0.002950 0.011408 0.000000 -0.001810 0.000000
# 4 0.000000 0.000000 0.000000 0.049338 0.000000 -0.020895
# 5 -0.012903 -0.011752 -0.001810 0.000000 0.032886 0.000000
# 6 0.000000 0.000000 0.000000 -0.020895 0.000000 0.034899
#
#
# Mechanical properties :
#
#
# Convention : Reuss Voigt Hill
#
# Bulk Modulus (GPa) = 12.83629 23.02669 17.93149
# Shear Modulus (GPa) = 25.59303 34.57368 30.08335
#
# Velocity S-wave (km/s) = 3.33061 3.87111 3.61099
# Velocity P-wave (km/s) = 4.51158 5.47369 5.01575
#
# Compressibility (1/GPa) = 0.07790412
#
# Stress axis : x y z
#
# Youngs Moduli (GPa) = 45.26181 31.65809 87.65672
#
# Poissons Ratio (x) = -0.33680 0.11228
# Poissons Ratio (y) = -0.48153 0.25863
# Poissons Ratio (z) = 0.05798 0.09341
#
# Static dielectric constant tensor:
#      x y z
#    x 1.854910 0.000000 -0.025820 
#    y 0.000000 1.779690 0.000000 
#    z -0.025820 0.000000 1.931990 
# 
# From -- ./inp_files/267054.got.cif
#   From: 2010.05.17/outbox.cif.g08.bks.cpg/sg12_134_cif.got.tgz:267054.got - 2010.06.03 13:09:07.
