data_PCOD9183406
_publ_section_title
;
Structure prediction by ZEFSAII (Michael W. Deem and Ramdas Pophale) SiO2 
 PCOD9183406
Probable space group: C 2/M
;
_chemical_formula_sum "Si O2"
_cell_formula_units_Z 56
_cell_length_a 18.872936
_cell_length_b 7.687658
_cell_length_c 30.307878
_cell_angle_alpha 90.000000
_cell_angle_beta 38.319490
_cell_angle_gamma 90.000000
_cell_volume 2726.546613
_symmetry_space_group_name_H-M "C 2/M"
_symmetry_group_IT_number 12
_symmetry_cell_setting 'monoclinic'
loop_
_space_group_symop_operation_xyz
x,y,z
-x,y,-z
-x,-y,-z
x,-y,z
1/2+x,1/2+y,z
1/2-x,1/2+y,-z
1/2-x,1/2-y,-z
1/2+x,1/2-y,z
loop_
_atom_site_type_symbol
_atom_site_label
_atom_site_fract_x
_atom_site_fract_y
_atom_site_fract_z
Si Si1 0.494988 0.713177 0.139956
Si Si2 0.338065 0.289032 0.862978
Si Si3 0.573040 0.707233 0.005554
Si Si4 0.568294 0.295892 0.275717
Si Si5 0.765439 0.706122 0.725523
Si Si6 0.118116 0.790905 0.569504
Si Si7 0.540005 0.710078 0.432879
O O1 0.496365 0.500000 0.139643
O O2 0.582338 0.769486 0.135391
O O3 0.364668 0.768962 0.212303
O O4 0.533906 0.773742 0.072512
O O5 0.339816 0.500000 0.861711
O O6 0.207028 0.236412 0.933117
O O7 0.386458 0.222779 0.792437
O O8 0.552459 0.500000 0.016831
O O9 0.500000 0.778055 0.000000
O O10 0.548746 0.500000 0.276943
O O11 0.662502 0.281454 0.268576
O O12 0.450777 0.223648 0.354041
O O13 0.762863 0.500000 0.734041
O O14 0.835740 0.741215 0.646421
O O15 0.250000 0.750000 0.500000
O O16 0.048667 0.727080 0.560862
O O17 0.107277 0.000000 0.575484
O O18 0.500000 0.774288 0.500000
O O19 0.536285 0.500000 0.435694
#
# Coordination Sequence:
#
# PCOD9183406 Si02
#       7
#     8   8   8   8   8   8   8
#     4   9  19  34  51  75 106 135 164 207 261 303
#     4  10  20  35  54  75 101 133 170 210 250 299
#     4  10  20  35  54  75 103 137 169 206 255 304
#     4   9  19  35  52  71 100 136 168 204 255 306
#     4  10  19  33  55  78 100 131 172 212 249 298
#     4   9  18  32  50  72  98 130 166 205 251 300
#     4   9  19  36  54  73 103 139 170 206 255 303
#
# _framework density 20.538799999999998
#
# number of rings (size 3 to 8) (size 9 to 14) (size 15 to 20)
#    0.000    2.571    0.000    2.571    0.000    5.714 
#    0.000    4.286    0.000    0.000    0.000    0.000 
#    0.000    0.000    0.000    0.000    0.000    0.000 
#
# Total GULP energy -156261.058237 kJ/mol
# GULP energy per Si atom -5580.752080 kJ/mol
# Density = 2.049205 g / cm^3
# Si number density = 20.538800 Si / 1000 Ang^3
#
#
#
# Elastic Constant Matrix: (Units=GPa)
#
#
# Indices 1 2 3 4 5 6 
#
# 1 126.3061 -8.3047 119.1961 -0.0068 2.4654 0.0488
# 2 -8.3047 28.0728 -8.0728 0.0027 5.7801 0.0256
# 3 119.1961 -8.0728 233.0247 -0.0034 4.7420 0.0026
# 4 -0.0068 0.0027 -0.0034 18.4721 0.0017 -12.4382
# 5 2.4654 5.7801 4.7420 0.0017 41.6455 -0.0007
# 6 0.0488 0.0256 0.0026 -12.4382 -0.0007 2.3761
#
#
#
# Elastic Compliance Matrix: (Units=1/GPa)
#
#
# Indices 1 2 3 4 5 6 
#
# 1 0.015459 0.002399 -0.007817 0.000088 -0.000358 0.000124
# 2 0.002399 0.037488 0.000181 0.000123 -0.005366 0.000188
# 3 -0.007817 0.000181 0.008307 -0.000039 -0.000508 -0.000056
# 4 0.000088 0.000123 -0.000039 -0.021441 -0.000019 -0.112240
# 5 -0.000358 -0.005366 -0.000508 -0.000019 0.024836 -0.000025
# 6 0.000124 0.000188 -0.000056 -0.112240 -0.000025 -0.166689
#
#
# Mechanical properties :
#
#
# Convention : Reuss Voigt Hill
#
# Bulk Modulus (GPa) = 19.69333 65.89343 42.79338
# Shear Modulus (GPa) = -66.98925 31.47106 -17.75909
#
# Velocity S-wave (km/s) = -5.71723 3.91867 -2.94370
# Velocity P-wave (km/s) = 5.82865 7.25443 3.05398
#
# Compressibility (1/GPa) = 0.05077861
#
# Stress axis : x y z
#
# Youngs Moduli (GPa) = 64.68673 26.67529 120.38566
#
# Poissons Ratio (x) = -0.06399 0.94108
# Poissons Ratio (y) = -0.15517 -0.02177
# Poissons Ratio (z) = 0.50567 -0.00482
#
# Static dielectric constant tensor:
#      x y z
#    x 1.701290 -0.000010 0.018690 
#    y -0.000010 1.757450 0.000000 
#    z 0.018690 0.000000 1.728020 
# 
# From -- ./inp_files/313757.got.cif
#   From: 2010.05.17/outbox.cif.g08.bks.cpg/sg12_157_cif.got.tgz:313757.got - 2010.06.03 13:09:07.
