data_PCOD9183823
_publ_section_title
;
Structure prediction by ZEFSAII (Michael W. Deem and Ramdas Pophale) SiO2 
 PCOD9183823
Probable space group: C 2/M
;
_chemical_formula_sum "Si O2"
_cell_formula_units_Z 56
_cell_length_a 19.581425
_cell_length_b 8.070555
_cell_length_c 21.468367
_cell_angle_alpha 90.000000
_cell_angle_beta 122.046422
_cell_angle_gamma 90.000000
_cell_volume 2875.723436
_symmetry_space_group_name_H-M "C 2/M"
_symmetry_group_IT_number 12
_symmetry_cell_setting 'monoclinic'
loop_
_space_group_symop_operation_xyz
x,y,z
-x,y,-z
-x,-y,-z
x,-y,z
1/2+x,1/2+y,z
1/2-x,1/2+y,-z
1/2-x,1/2-y,-z
1/2+x,1/2-y,z
loop_
_atom_site_type_symbol
_atom_site_label
_atom_site_fract_x
_atom_site_fract_y
_atom_site_fract_z
Si Si1 0.021932 0.696325 0.312773
Si Si2 0.031061 0.700823 0.581150
Si Si3 0.355385 0.684624 0.185604
Si Si4 0.294610 0.799810 0.282951
Si Si5 0.882450 0.201028 0.759639
Si Si6 0.839799 0.315751 0.048618
Si Si7 0.000927 0.193144 0.070829
O O1 0.002236 0.500000 0.300417
O O2 0.088769 0.732470 0.293383
O O3 0.028616 0.737022 0.389544
O O4 0.945420 0.802678 0.254777
O O5 0.034721 0.500000 0.578464
O O6 0.122429 0.754274 0.642893
O O7 0.000000 0.765190 0.500000
O O8 0.338527 0.500000 0.153798
O O9 0.298018 0.730176 0.214717
O O10 0.353461 0.812091 0.128852
O O11 0.210248 0.752552 0.272962
O O12 0.297165 0.000000 0.280564
O O13 0.939860 0.259153 0.845367
O O14 0.888395 0.000000 0.760633
O O15 0.846636 0.500000 0.026039
O O16 0.910003 0.208385 0.051901
O O17 0.750000 0.250000 0.000000
O O18 0.024115 0.000000 0.075582
O O19 0.000000 0.265460 0.000000
#
# Coordination Sequence:
#
# PCOD9183823 Si02
#       7
#     8   8   8   8   8   8   8
#     4  10  19  33  56  82 107 143 186 227 273 330
#     4   8  15  31  55  81 110 145 187 229 271 326
#     4  11  21  36  56  80 108 142 183 230 280 327
#     4   9  19  34  55  83 110 145 188 227 276 331
#     4  10  20  35  55  79 112 147 182 229 281 334
#     4  12  25  40  58  81 110 143 186 233 279 331
#     4  10  22  39  57  80 110 148 187 229 283 334
#
# _framework density 19.47336
#
# number of rings (size 3 to 8) (size 9 to 14) (size 15 to 20)
#    0.000    2.000    1.429    3.857    2.000    0.857 
#    0.000    0.714    0.000   10.714    0.000    0.000 
#    0.000    0.000    0.000    0.000    0.000    0.000 
#
# Total GULP energy -156063.684811 kJ/mol
# GULP energy per Si atom -5573.703029 kJ/mol
# Density = 1.942904 g / cm^3
# Si number density = 19.473360 Si / 1000 Ang^3
#
#
#
# Elastic Constant Matrix: (Units=GPa)
#
#
# Indices 1 2 3 4 5 6 
#
# 1 157.1077 6.0713 58.7723 0.0000 -21.0460 0.0000
# 2 6.0713 32.6171 5.8717 0.0000 -3.3041 0.0000
# 3 58.7723 5.8717 101.7290 0.0000 -25.4890 0.0000
# 4 0.0000 0.0000 0.0000 11.1071 0.0000 -7.9425
# 5 -21.0460 -3.3041 -25.4890 0.0000 26.5712 0.0000
# 6 0.0000 0.0000 0.0000 -7.9425 0.0000 20.8466
#
#
#
# Elastic Compliance Matrix: (Units=1/GPa)
#
#
# Indices 1 2 3 4 5 6 
#
# 1 0.008262 -0.000542 -0.004106 0.000000 0.002538 0.000000
# 2 -0.000542 0.031177 -0.000820 0.000000 0.002661 0.000000
# 3 -0.004106 -0.000820 0.015019 0.000000 0.011053 0.000000
# 4 0.000000 0.000000 0.000000 0.123746 0.000000 0.047147
# 5 0.002538 0.002661 0.011053 0.000000 0.050579 0.000000
# 6 0.000000 0.000000 0.000000 0.047147 0.000000 0.065932
#
#
# Mechanical properties :
#
#
# Convention : Reuss Voigt Hill
#
# Bulk Modulus (GPa) = 22.97647 48.09828 35.53737
# Shear Modulus (GPa) = 15.61734 26.42088 21.01911
#
# Velocity S-wave (km/s) = 2.83501 3.68743 3.28895
# Velocity P-wave (km/s) = 4.74772 6.54849 5.71942
#
# Compressibility (1/GPa) = 0.04352279
#
# Stress axis : x y z
#
# Youngs Moduli (GPa) = 121.03605 32.07520 66.58208
#
# Poissons Ratio (x) = 0.01737 0.27339
# Poissons Ratio (y) = 0.06556 0.05458
# Poissons Ratio (z) = 0.49699 0.02629
#
# Static dielectric constant tensor:
#      x y z
#    x 1.686130 0.000000 0.014440 
#    y 0.000000 1.712390 0.000000 
#    z 0.014440 0.000000 1.806020 
# 
# From -- ./inp_files/314401.got.cif
#   From: 2010.05.17/outbox.cif.g08.bks.cpg/sg12_158_cif.got.tgz:314401.got - 2010.06.03 13:09:07.
