data_PCOD9183247
_publ_section_title
;
Structure prediction by ZEFSAII (Michael W. Deem and Ramdas Pophale) SiO2 
 PCOD9183247
Probable space group: C 2/M
;
_chemical_formula_sum "Si O2"
_cell_formula_units_Z 56
_cell_length_a 16.761589
_cell_length_b 14.943318
_cell_length_c 11.207045
_cell_angle_alpha 90.000000
_cell_angle_beta 67.507592
_cell_angle_gamma 90.000000
_cell_volume 2593.537427
_symmetry_space_group_name_H-M "C 2/M"
_symmetry_group_IT_number 12
_symmetry_cell_setting 'monoclinic'
loop_
_space_group_symop_operation_xyz
x,y,z
-x,y,-z
-x,-y,-z
x,-y,z
1/2+x,1/2+y,z
1/2-x,1/2+y,-z
1/2-x,1/2-y,-z
1/2+x,1/2-y,z
loop_
_atom_site_type_symbol
_atom_site_label
_atom_site_fract_x
_atom_site_fract_y
_atom_site_fract_z
Si Si1 0.651481 0.400296 0.019454
Si Si2 0.419085 0.716589 0.613566
Si Si3 0.915476 0.596613 0.212747
Si Si4 0.686948 0.651969 0.747200
Si Si5 0.999487 0.221667 0.825443
Si Si6 0.145839 0.602779 0.477799
Si Si7 0.247688 0.843866 0.196724
O O1 0.627118 0.500000 0.075670
O O2 0.568385 0.335664 0.060079
O O3 0.717494 0.359368 0.078528
O O4 0.687448 0.406722 0.865861
O O5 0.500000 0.675402 0.500000
O O6 0.450810 0.735164 0.728698
O O7 0.396817 0.812509 0.565707
O O8 0.338036 0.650090 0.672389
O O9 0.959185 0.500000 0.181271
O O10 0.975077 0.679867 0.145587
O O11 0.880931 0.610862 0.368500
O O12 0.829409 0.597205 0.182619
O O13 0.589885 0.669101 0.757777
O O14 0.752703 0.617541 0.609370
O O15 0.720764 0.745236 0.783983
O O16 0.122866 0.500000 0.453724
#
# Coordination Sequence:
#
# PCOD9183247 Si02
#       7
#     8   8   8   8   8   8   8
#     4  11  22  39  61  85 117 153 195 246 293 341
#     4  10  19  33  54  80 116 156 187 225 290 339
#     4  10  20  37  60  88 120 153 191 238 288 345
#     4  10  21  37  60  83 115 153 196 239 290 342
#     4  10  22  36  57  86 115 154 192 236 292 343
#     4  10  21  34  56  89 118 152 195 235 285 349
#     4   9  21  36  59  84 114 153 196 237 287 350
#
# _framework density 21.592131999999999
#
# number of rings (size 3 to 8) (size 9 to 14) (size 15 to 20)
#    0.000    2.000    1.429    1.714    2.000    4.286 
#    0.000    0.000    0.000    9.857    0.000    0.000 
#    0.000    0.000    0.000    0.000    0.000    0.000 
#
# Total GULP energy -156233.652992 kJ/mol
# GULP energy per Si atom -5579.773321 kJ/mol
# Density = 2.154299 g / cm^3
# Si number density = 21.592132 Si / 1000 Ang^3
#
#
#
# Elastic Constant Matrix: (Units=GPa)
#
#
# Indices 1 2 3 4 5 6 
#
# 1 63.9413 -4.0033 5.6910 0.0000 13.8325 0.0000
# 2 -4.0033 70.3123 4.2665 0.0000 3.7097 0.0000
# 3 5.6910 4.2665 45.4369 0.0000 2.5092 0.0000
# 4 0.0000 0.0000 0.0000 -10.9312 0.0000 12.0935
# 5 13.8325 3.7097 2.5092 0.0000 27.1254 0.0000
# 6 0.0000 0.0000 0.0000 12.0935 0.0000 2.0882
#
#
#
# Elastic Compliance Matrix: (Units=1/GPa)
#
#
# Indices 1 2 3 4 5 6 
#
# 1 0.017892 0.001617 -0.001886 0.000000 -0.009171 0.000000
# 2 0.001617 0.014542 -0.001420 0.000000 -0.002682 0.000000
# 3 -0.001886 -0.001420 0.022429 0.000000 -0.000919 0.000000
# 4 0.000000 0.000000 0.000000 -0.012351 0.000000 0.071525
# 5 -0.009171 -0.002682 -0.000919 0.000000 0.041994 0.000000
# 6 0.000000 0.000000 0.000000 0.071525 0.000000 0.064651
#
#
# Mechanical properties :
#
#
# Convention : Reuss Voigt Hill
#
# Bulk Modulus (GPa) = 19.42323 21.28874 20.35599
# Shear Modulus (GPa) = 29.46417 15.23891 22.35154
#
# Velocity S-wave (km/s) = 3.69803 2.65950 3.22090
# Velocity P-wave (km/s) = 5.22005 4.39448 4.82496
#
# Compressibility (1/GPa) = 0.05148475
#
# Stress axis : x y z
#
# Youngs Moduli (GPa) = 55.88961 68.76632 44.58537
#
# Poissons Ratio (x) = -0.11120 0.08411
# Poissons Ratio (y) = -0.09038 0.06331
# Poissons Ratio (z) = 0.10543 0.09764
#
# Static dielectric constant tensor:
#      x y z
#    x 1.794270 0.000000 -0.024640 
#    y 0.000000 1.830510 0.000000 
#    z -0.024640 0.000000 1.807010 
# 
# From -- ./inp_files/156001.got.cif
#   From: 2010.05.17/outbox.cif.g08.bks.cpg/sg12_79_cif.got.tgz:156001.got - 2010.06.03 13:09:07.
