data_PCOD9183009
_publ_section_title
;
Structure prediction by ZEFSAII (Michael W. Deem and Ramdas Pophale) SiO2 
 PCOD9183009
Probable space group: C 2/M
;
_chemical_formula_sum "Si O2"
_cell_formula_units_Z 56
_cell_length_a 22.970147
_cell_length_b 7.370147
_cell_length_c 15.051407
_cell_angle_alpha 90.000000
_cell_angle_beta 110.637758
_cell_angle_gamma 90.000000
_cell_volume 2384.585026
_symmetry_space_group_name_H-M "C 2/M"
_symmetry_group_IT_number 12
_symmetry_cell_setting 'monoclinic'
loop_
_space_group_symop_operation_xyz
x,y,z
-x,y,-z
-x,-y,-z
x,-y,z
1/2+x,1/2+y,z
1/2-x,1/2+y,-z
1/2-x,1/2-y,-z
1/2+x,1/2-y,z
loop_
_atom_site_type_symbol
_atom_site_label
_atom_site_fract_x
_atom_site_fract_y
_atom_site_fract_z
Si Si1 0.485211 0.219728 0.747087
Si Si2 0.180666 0.279526 0.047306
Si Si3 0.558299 0.220462 0.089510
Si Si4 0.798718 0.217926 0.446322
Si Si5 0.774399 0.208826 0.241868
Si Si6 0.057988 0.208264 0.473206
Si Si7 0.627860 0.218977 0.835025
O O1 0.445147 0.279239 0.810413
O O2 0.463247 0.288524 0.640572
O O3 0.556305 0.272661 0.805733
O O4 0.483188 0.000000 0.741373
O O5 0.185390 0.500000 0.042868
O O6 0.119833 0.231982 0.070556
O O7 0.235877 0.209848 0.139236
O O8 0.168796 0.214198 0.940826
O O9 0.555493 0.000000 0.089670
O O10 0.500000 0.282469 0.000000
O O11 0.750000 0.250000 0.500000
O O12 0.770640 0.287141 0.337834
O O13 0.870891 0.284301 0.489387
O O14 0.803315 0.000000 0.442894
O O15 0.844447 0.215684 0.243075
O O16 0.753403 0.000000 0.237710
O O17 0.000000 0.287880 0.500000
O O18 0.063859 0.000000 0.507911
O O19 0.629012 0.000000 0.835880
#
# Coordination Sequence:
#
# PCOD9183009 Si02
#       7
#     8   8   8   8   8   8   8
#     4  10  20  32  56  87 109 137 182 229 272 319
#     4   9  17  30  51  79 110 141 177 217 263 324
#     4   9  15  28  50  78 110 140 171 218 273 321
#     4  10  23  41  60  84 113 148 190 236 284 331
#     4  10  21  36  56  79 105 144 187 220 264 330
#     4  10  22  41  61  81 112 152 189 230 285 340
#     4  10  19  33  53  83 116 142 173 221 274 321
#
# _framework density 23.484171
#
# number of rings (size 3 to 8) (size 9 to 14) (size 15 to 20)
#    0.000    2.286    1.429    1.286    2.000    3.143 
#    0.000    0.000    0.000    1.286    0.000    0.000 
#    0.000    0.000    0.000    0.000    0.000    0.000 
#
# Total GULP energy -156339.256878 kJ/mol
# GULP energy per Si atom -5583.544888 kJ/mol
# Density = 2.343072 g / cm^3
# Si number density = 23.484171 Si / 1000 Ang^3
#
#
#
# Elastic Constant Matrix: (Units=GPa)
#
#
# Indices 1 2 3 4 5 6 
#
# 1 139.7092 -0.7193 66.2423 0.0000 -21.5653 0.0000
# 2 -0.7193 83.4210 -1.8680 0.0000 5.6887 0.0000
# 3 66.2423 -1.8680 156.9216 0.0000 -22.0605 0.0000
# 4 0.0000 0.0000 0.0000 26.1782 0.0000 -16.7599
# 5 -21.5653 5.6887 -22.0605 0.0000 46.6381 0.0000
# 6 0.0000 0.0000 0.0000 -16.7599 0.0000 24.1205
#
#
#
# Elastic Compliance Matrix: (Units=1/GPa)
#
#
# Indices 1 2 3 4 5 6 
#
# 1 0.009236 -0.000178 -0.003533 0.000000 0.002622 0.000000
# 2 -0.000178 0.012092 0.000000 0.000000 -0.001557 0.000000
# 3 -0.003533 0.000000 0.008178 0.000000 0.002235 0.000000
# 4 0.000000 0.000000 0.000000 0.068810 0.000000 0.047812
# 5 0.002622 -0.001557 0.002235 0.000000 0.023901 0.000000
# 6 0.000000 0.000000 0.000000 0.047812 0.000000 0.074680
#
#
# Mechanical properties :
#
#
# Convention : Reuss Voigt Hill
#
# Bulk Modulus (GPa) = 45.27882 56.37352 50.82617
# Shear Modulus (GPa) = 23.62042 40.48046 32.05044
#
# Velocity S-wave (km/s) = 3.17488 4.15629 3.69828
# Velocity P-wave (km/s) = 5.72383 6.86222 6.31871
#
# Compressibility (1/GPa) = 0.02208538
#
# Stress axis : x y z
#
# Youngs Moduli (GPa) = 108.26674 82.69899 122.27884
#
# Poissons Ratio (x) = 0.01474 0.43196
# Poissons Ratio (y) = 0.01930 -0.00003
# Poissons Ratio (z) = 0.38246 -0.00002
#
# Static dielectric constant tensor:
#      x y z
#    x 1.880800 0.000000 0.029090 
#    y 0.000000 1.919940 0.000000 
#    z 0.029090 0.000000 1.854200 
# 
# From -- ./inp_files/237856.got.cif
#   From: 2010.05.17/outbox.cif.g08.bks.cpg/sg12_119_cif.got.tgz:237856.got - 2010.06.03 13:09:07.
