data_PCOD9183767
_publ_section_title
;
Structure prediction by ZEFSAII (Michael W. Deem and Ramdas Pophale) SiO2 
 PCOD9183767
Probable space group: C 2/M
;
_chemical_formula_sum "Si O2"
_cell_formula_units_Z 64
_cell_length_a 20.164535
_cell_length_b 9.286276
_cell_length_c 21.455667
_cell_angle_alpha 90.000000
_cell_angle_beta 46.959226
_cell_angle_gamma 90.000000
_cell_volume 2936.370637
_symmetry_space_group_name_H-M "C 2/M"
_symmetry_group_IT_number 12
_symmetry_cell_setting 'monoclinic'
loop_
_space_group_symop_operation_xyz
x,y,z
-x,y,-z
-x,-y,-z
x,-y,z
1/2+x,1/2+y,z
1/2-x,1/2+y,-z
1/2-x,1/2-y,-z
1/2+x,1/2-y,z
loop_
_atom_site_type_symbol
_atom_site_label
_atom_site_fract_x
_atom_site_fract_y
_atom_site_fract_z
Si Si1 0.605862 0.171319 0.607092
Si Si2 0.794114 0.833856 0.352833
Si Si3 0.435208 0.167219 0.805367
Si Si4 0.497241 0.669025 0.426963
Si Si5 0.973876 0.833991 0.148718
Si Si6 0.181660 0.672481 0.306828
Si Si7 0.235063 0.170259 0.945156
Si Si8 0.639164 0.325328 0.889374
O O1 0.683865 0.237259 0.601372
O O2 0.513110 0.201070 0.705858
O O3 0.584564 0.248865 0.555579
O O4 0.616445 0.000000 0.593055
O O5 0.883288 0.830969 0.250527
O O6 0.713891 0.792680 0.356912
O O7 0.781437 0.000000 0.380476
O O8 0.452597 0.255135 0.857033
O O9 0.332872 0.186533 0.848254
O O10 0.446608 0.000000 0.813804
O O11 0.500000 0.683724 0.500000
O O12 0.493227 0.500000 0.413702
O O13 0.592554 0.740874 0.346122
O O14 0.942728 0.773647 0.101797
O O15 0.000122 0.000000 0.123592
O O16 0.164376 0.500000 0.314569
O O17 0.268613 0.704074 0.208185
O O18 0.157575 0.223802 0.947764
O O19 0.222109 0.000000 0.964468
O O20 0.250000 0.250000 0.000000
O O21 0.630434 0.500000 0.897206
#
# Coordination Sequence:
#
# PCOD9183767 Si02
#       8
#     8   8   8   8   8   8   8   8
#     4  10  19  33  56  80 100 129 169 206 246 301
#     4   8  15  29  51  80 108 127 152 201 256 299
#     4   9  18  32  51  75 101 127 156 200 252 292
#     4  11  24  38  50  70 104 139 169 208 254 293
#     4   8  14  27  50  76  98 123 157 196 240 293
#     4   9  17  33  58  81 100 129 168 206 250 303
#     4  10  20  34  49  67  97 133 167 203 243 287
#     4   8  15  31  54  76  98 126 161 203 247 289
#
# _framework density 21.795612999999999
#
# number of rings (size 3 to 8) (size 9 to 14) (size 15 to 20)
#    0.000    2.875    0.000    3.000    0.000    4.500 
#    0.000    5.625    0.000    3.750    0.000    0.000 
#    0.000    0.000    0.000    0.000    0.000    0.000 
#
# Total GULP energy -178661.119671 kJ/mol
# GULP energy per Si atom -5583.159990 kJ/mol
# Density = 2.174600 g / cm^3
# Si number density = 21.795613 Si / 1000 Ang^3
#
#
#
# Elastic Constant Matrix: (Units=GPa)
#
#
# Indices 1 2 3 4 5 6 
#
# 1 157.8701 57.1233 30.2679 0.0000 41.3282 0.0000
# 2 57.1233 36.8870 22.4744 0.0000 31.4820 -0.0001
# 3 30.2679 22.4744 72.0146 0.0000 16.3424 0.0000
# 4 0.0000 0.0000 0.0000 14.0767 0.0000 9.2289
# 5 41.3282 31.4820 16.3424 0.0000 37.8925 0.0000
# 6 0.0000 -0.0001 0.0000 9.2289 0.0000 26.4499
#
#
#
# Elastic Compliance Matrix: (Units=1/GPa)
#
#
# Indices 1 2 3 4 5 6 
#
# 1 0.015702 -0.034800 0.001758 0.000000 0.011029 0.000000
# 2 -0.034800 0.182252 -0.018293 -0.000001 -0.105574 0.000001
# 3 0.001758 -0.018293 0.017561 0.000000 0.005707 0.000000
# 4 0.000000 -0.000001 0.000000 0.092110 0.000001 -0.032139
# 5 0.011029 -0.105574 0.005707 0.000001 0.099614 -0.000001
# 6 0.000000 0.000001 0.000000 -0.032139 -0.000001 0.049021
#
#
# Mechanical properties :
#
#
# Convention : Reuss Voigt Hill
#
# Bulk Modulus (GPa) = 8.86172 54.05589 31.45881
# Shear Modulus (GPa) = 8.38160 26.14422 17.26291
#
# Velocity S-wave (km/s) = 1.96313 3.46716 2.81737
# Velocity P-wave (km/s) = 3.03532 6.39401 5.00483
#
# Compressibility (1/GPa) = 0.11284486
#
# Stress axis : x y z
#
# Youngs Moduli (GPa) = 63.68580 5.48692 56.94477
#
# Poissons Ratio (x) = 0.19095 -0.10011
# Poissons Ratio (y) = 2.21629 1.04166
# Poissons Ratio (z) = -0.11197 0.10037
#
# Static dielectric constant tensor:
#      x y z
#    x 1.794120 0.000000 -0.006460 
#    y 0.000000 1.724720 0.000000 
#    z -0.006460 0.000000 1.882460 
# 
# From -- ./inp_files/319870.got.cif
#   From: 2010.05.17/outbox.cif.g08.bks.cpg/sg12_160_cif.got.tgz:319870.got - 2010.06.03 13:09:07.
