data_PCOD9183721
_publ_section_title
;
Structure prediction by ZEFSAII (Michael W. Deem and Ramdas Pophale) SiO2 
 PCOD9183721
Probable space group: C 2/M
;
_chemical_formula_sum "Si O2"
_cell_formula_units_Z 64
_cell_length_a 20.704532
_cell_length_b 8.632672
_cell_length_c 20.696210
_cell_angle_alpha 90.000000
_cell_angle_beta 102.896557
_cell_angle_gamma 90.000000
_cell_volume 3605.833660
_symmetry_space_group_name_H-M "C 2/M"
_symmetry_group_IT_number 12
_symmetry_cell_setting 'monoclinic'
loop_
_space_group_symop_operation_xyz
x,y,z
-x,y,-z
-x,-y,-z
x,-y,z
1/2+x,1/2+y,z
1/2-x,1/2+y,-z
1/2-x,1/2-y,-z
1/2+x,1/2-y,z
loop_
_atom_site_type_symbol
_atom_site_label
_atom_site_fract_x
_atom_site_fract_y
_atom_site_fract_z
Si Si1 0.331295 0.187874 0.332131
Si Si2 0.125671 0.686636 0.176629
Si Si3 0.264934 0.185331 0.181494
Si Si4 0.106977 0.183992 0.849622
Si Si5 0.508096 0.186944 0.927155
Si Si6 0.961797 0.687489 0.294585
Si Si7 0.761891 0.814167 0.573794
Si Si8 0.612429 0.812748 0.323918
O O1 0.290007 0.234050 0.259017
O O2 0.407007 0.235673 0.335265
O O3 0.294739 0.241944 0.388375
O O4 0.330813 0.000000 0.333654
O O5 0.129109 0.500000 0.175071
O O6 0.190609 0.755176 0.157659
O O7 0.057680 0.734245 0.126968
O O8 0.124346 0.732652 0.251790
O O9 0.318918 0.252733 0.144452
O O10 0.267033 0.000000 0.179171
O O11 0.063920 0.249879 0.779832
O O12 0.071616 0.241522 0.906478
O O13 0.107394 0.000000 0.846613
O O14 0.513271 0.000000 0.924462
O O15 0.500000 0.230393 0.000000
O O16 0.960645 0.500000 0.289760
O O17 0.037216 0.733722 0.324467
O O18 0.750000 0.750000 0.500000
O O19 0.831836 0.759944 0.618648
O O20 0.760052 0.000000 0.571719
O O21 0.616766 0.000000 0.328786
#
# Coordination Sequence:
#
# PCOD9183721 Si02
#       8
#     8   8   8   8   8   8   8   8
#     4   8  16  31  53  77 102 135 181 224 261 319
#     4  10  19  33  55  86 114 138 180 233 278 325
#     4  10  19  34  56  81 109 144 185 228 277 330
#     4  11  21  33  53  83 116 146 182 231 281 326
#     4  10  21  39  60  81 112 154 190 224 276 338
#     4   9  17  34  57  81 108 142 183 226 275 329
#     4  11  22  37  54  78 110 146 187 226 277 335
#     4  10  19  33  56  83 111 139 177 229 278 324
#
# _framework density 17.749015
#
# number of rings (size 3 to 8) (size 9 to 14) (size 15 to 20)
#    0.000    2.125    2.500    2.625    0.000    1.250 
#    0.000    1.875    0.000    3.750    0.000    0.000 
#    0.000    0.000    0.000    0.000    0.000    0.000 
#
# Total GULP energy -178565.697909 kJ/mol
# GULP energy per Si atom -5580.178060 kJ/mol
# Density = 1.770862 g / cm^3
# Si number density = 17.749015 Si / 1000 Ang^3
#
#
#
# Elastic Constant Matrix: (Units=GPa)
#
#
# Indices 1 2 3 4 5 6 
#
# 1 115.3499 22.4691 21.1082 0.0000 -23.9041 0.0000
# 2 22.4691 23.3515 13.2588 0.0000 -3.9262 0.0000
# 3 21.1082 13.2588 50.1121 0.0000 -13.7118 0.0000
# 4 0.0000 0.0000 0.0000 18.8299 0.0000 -2.3867
# 5 -23.9041 -3.9262 -13.7118 0.0000 29.6859 0.0000
# 6 0.0000 0.0000 0.0000 -2.3867 0.0000 26.0902
#
#
#
# Elastic Compliance Matrix: (Units=1/GPa)
#
#
# Indices 1 2 3 4 5 6 
#
# 1 0.012536 -0.010537 -0.000128 0.000000 0.008642 0.000000
# 2 -0.010537 0.059259 -0.013070 0.000000 -0.006684 0.000000
# 3 -0.000128 -0.013070 0.026288 0.000000 0.010311 0.000000
# 4 0.000000 0.000000 0.000000 0.053730 0.000000 0.004915
# 5 0.008642 -0.006684 0.010311 0.000000 0.044523 0.000000
# 6 0.000000 0.000000 0.000000 0.004915 0.000000 0.038778
#
#
# Mechanical properties :
#
#
# Convention : Reuss Voigt Hill
#
# Bulk Modulus (GPa) = 19.75684 33.60951 26.68318
# Shear Modulus (GPa) = 16.69699 23.71970 20.20834
#
# Velocity S-wave (km/s) = 3.07046 3.65964 3.37792
# Velocity P-wave (km/s) = 4.87090 6.06913 5.50273
#
# Compressibility (1/GPa) = 0.05061539
#
# Stress axis : x y z
#
# Youngs Moduli (GPa) = 79.77054 16.87499 38.03951
#
# Poissons Ratio (x) = 0.17780 0.00487
# Poissons Ratio (y) = 0.84051 0.49716
# Poissons Ratio (z) = 0.01021 0.22055
#
# Static dielectric constant tensor:
#      x y z
#    x 1.613020 0.000000 -0.018430 
#    y 0.000000 1.602710 0.000000 
#    z -0.018430 0.000000 1.584060 
# 
# From -- ./inp_files/281367.got.cif
#   From: 2010.05.17/outbox.cif.g08.bks.cpg/sg12_141_cif.got.tgz:281367.got - 2010.06.03 13:09:07.
