data_PCOD9183559
_publ_section_title
;
Structure prediction by ZEFSAII (Michael W. Deem and Ramdas Pophale) SiO2 
 PCOD9183559
Probable space group: C 2/M
;
_chemical_formula_sum "Si O2"
_cell_formula_units_Z 64
_cell_length_a 25.708809
_cell_length_b 8.917454
_cell_length_c 29.614180
_cell_angle_alpha 90.000000
_cell_angle_beta 150.582923
_cell_angle_gamma 90.000000
_cell_volume 3334.636823
_symmetry_space_group_name_H-M "C 2/M"
_symmetry_group_IT_number 12
_symmetry_cell_setting 'monoclinic'
loop_
_space_group_symop_operation_xyz
x,y,z
-x,y,-z
-x,-y,-z
x,-y,z
1/2+x,1/2+y,z
1/2-x,1/2+y,-z
1/2-x,1/2-y,-z
1/2+x,1/2-y,z
loop_
_atom_site_type_symbol
_atom_site_label
_atom_site_fract_x
_atom_site_fract_y
_atom_site_fract_z
Si Si1 0.219370 0.168966 0.522163
Si Si2 0.899614 0.818158 0.482741
Si Si3 0.866448 0.180794 0.315207
Si Si4 0.224702 0.680550 0.029919
Si Si5 0.270114 0.679117 0.714735
Si Si6 0.457255 0.170829 0.722576
Si Si7 0.601250 0.679932 0.764361
Si Si8 0.488499 0.818715 0.845878
O O1 0.250000 0.250000 0.500000
O O2 0.134817 0.232104 0.492904
O O3 0.331167 0.166202 0.632831
O O4 0.186393 0.000000 0.486251
O O5 0.818364 0.742577 0.387021
O O6 0.024476 0.786884 0.574905
O O7 0.886210 0.000000 0.469634
O O8 0.770651 0.261945 0.267758
O O9 0.880336 0.226830 0.273384
O O10 0.852082 0.000000 0.305771
O O11 0.231798 0.500000 0.030588
O O12 0.306931 0.727871 0.131014
O O13 0.250000 0.750000 0.000000
O O14 0.103903 0.715095 0.953292
O O15 0.271840 0.500000 0.713977
O O16 0.385700 0.744063 0.789938
O O17 0.494707 0.260461 0.707254
O O18 0.498680 0.232159 0.801241
O O19 0.494904 0.000000 0.745308
O O20 0.597922 0.500000 0.761298
O O21 0.473178 0.000000 0.833950
#
# Coordination Sequence:
#
# PCOD9183559 Si02
#       8
#     8   8   8   8   8   8   8   8
#     4  10  20  33  50  77 113 150 189 229 275 335
#     4  10  20  38  60  81 111 154 196 230 281 353
#     4  10  22  40  61  82 113 157 195 233 287 348
#     4  10  20  35  60  91 120 150 187 232 282 340
#     4  12  25  39  59  86 114 147 196 253 291 325
#     4  10  19  33  55  81 114 153 186 224 282 341
#     4  10  21  37  59  89 119 148 190 237 281 338
#     4  10  20  38  60  83 115 154 191 226 280 349
#
# _framework density 19.192494
#
# number of rings (size 3 to 8) (size 9 to 14) (size 15 to 20)
#    0.000    1.750    2.500    2.250    0.000    5.500 
#    0.000    0.625    0.000    3.750    0.000    0.000 
#    0.000    0.000    0.000    0.000    0.000    0.000 
#
# Total GULP energy -178573.743346 kJ/mol
# GULP energy per Si atom -5580.429480 kJ/mol
# Density = 1.914881 g / cm^3
# Si number density = 19.192494 Si / 1000 Ang^3
#
#
#
# Elastic Constant Matrix: (Units=GPa)
#
#
# Indices 1 2 3 4 5 6 
#
# 1 126.6261 34.4135 36.3695 0.0000 20.3145 -0.0001
# 2 34.4135 32.3315 24.3596 -0.0002 9.2731 -0.0004
# 3 36.3695 24.3596 87.9641 0.0001 13.8680 0.0000
# 4 0.0000 -0.0002 0.0001 16.5158 0.0000 0.3021
# 5 20.3145 9.2731 13.8680 0.0000 28.6554 0.0000
# 6 -0.0001 -0.0004 0.0000 0.3021 0.0000 29.9764
#
#
#
# Elastic Compliance Matrix: (Units=1/GPa)
#
#
# Indices 1 2 3 4 5 6 
#
# 1 0.011774 -0.010272 -0.001333 0.000000 -0.004378 0.000000
# 2 -0.010272 0.049827 -0.008831 0.000000 -0.004568 0.000001
# 3 -0.001333 -0.008831 0.014903 0.000000 -0.003409 0.000000
# 4 0.000000 0.000000 0.000000 0.060559 0.000000 -0.000610
# 5 -0.004378 -0.004568 -0.003409 0.000000 0.041129 0.000000
# 6 0.000000 0.000001 0.000000 -0.000610 0.000000 0.033366
#
#
# Mechanical properties :
#
#
# Convention : Reuss Voigt Hill
#
# Bulk Modulus (GPa) = 28.06573 48.57855 38.32214
# Shear Modulus (GPa) = 18.91728 25.14812 22.03270
#
# Velocity S-wave (km/s) = 3.14293 3.62375 3.39187
# Velocity P-wave (km/s) = 5.27501 6.54789 5.94561
#
# Compressibility (1/GPa) = 0.03563064
#
# Stress axis : x y z
#
# Youngs Moduli (GPa) = 84.93112 20.06932 67.10246
#
# Poissons Ratio (x) = 0.20616 0.08947
# Poissons Ratio (y) = 0.87244 0.59259
# Poissons Ratio (z) = 0.11324 0.17723
#
# Static dielectric constant tensor:
#      x y z
#    x 1.667630 0.000000 -0.016100 
#    y 0.000000 1.656300 0.000000 
#    z -0.016100 0.000000 1.707060 
# 
# From -- ./inp_files/243913.got.cif
#   From: 2010.05.17/outbox.cif.g08.bks.cpg/sg12_122_cif.got.tgz:243913.got - 2010.06.03 13:09:07.
