data_PCOD9183240
_publ_section_title
;
Structure prediction by ZEFSAII (Michael W. Deem and Ramdas Pophale) SiO2 
 PCOD9183240
Probable space group: C 2/M
;
_chemical_formula_sum "Si O2"
_cell_formula_units_Z 56
_cell_length_a 20.224153
_cell_length_b 9.463977
_cell_length_c 29.740081
_cell_angle_alpha 90.000000
_cell_angle_beta 28.316046
_cell_angle_gamma 90.000000
_cell_volume 2700.045787
_symmetry_space_group_name_H-M "C 2/M"
_symmetry_group_IT_number 12
_symmetry_cell_setting 'monoclinic'
loop_
_space_group_symop_operation_xyz
x,y,z
-x,y,-z
-x,-y,-z
x,-y,z
1/2+x,1/2+y,z
1/2-x,1/2+y,-z
1/2-x,1/2-y,-z
1/2+x,1/2-y,z
loop_
_atom_site_type_symbol
_atom_site_label
_atom_site_fract_x
_atom_site_fract_y
_atom_site_fract_z
Si Si1 0.767208 0.657110 0.352710
Si Si2 0.605050 0.666119 0.276966
Si Si3 0.435593 0.841804 0.779604
Si Si4 0.386843 0.343138 0.209388
Si Si5 0.897776 0.170525 0.102021
Si Si6 0.666502 0.330828 0.509953
Si Si7 0.182582 0.159257 0.079375
O O1 0.709853 0.500000 0.378650
O O2 0.776269 0.745850 0.301511
O O3 0.698616 0.716648 0.439551
O O4 0.929094 0.642259 0.270541
O O5 0.629357 0.500000 0.255005
O O6 0.522883 0.739468 0.285366
O O7 0.748792 0.751701 0.190393
O O8 0.498769 0.682234 0.381777
O O9 0.316380 0.757069 0.877356
O O10 0.392513 0.000000 0.791787
O O11 0.326409 0.500000 0.239864
O O12 0.442676 0.297492 0.126794
O O13 0.521949 0.355093 0.160187
O O14 0.884866 0.000000 0.105851
O O15 0.000000 0.215389 0.000000
O O16 0.702896 0.500000 0.490501
O O17 0.750000 0.250000 0.500000
O O18 0.238860 0.000000 0.051244
O O19 0.250000 0.250000 0.000000
#
# Coordination Sequence:
#
# PCOD9183240 Si02
#       7
#     8   8   8   8   8   8   8
#     4   9  18  34  57  85 115 152 188 227 284 346
#     4  11  23  37  57  88 121 151 192 247 295 347
#     4  10  19  33  54  80 114 153 190 231 283 347
#     4   9  20  38  57  80 110 148 194 241 288 342
#     4  10  23  43  64  82 109 156 204 246 293 350
#     4  10  20  35  57  88 124 156 191 233 292 354
#     4  10  20  33  52  81 113 144 187 240 297 354
#
# _framework density 20.740390000000001
#
# number of rings (size 3 to 8) (size 9 to 14) (size 15 to 20)
#    0.000    2.143    1.429    1.286    2.000    3.143 
#    0.000    0.714    0.000    4.286    0.000    0.000 
#    0.000    0.000    0.000    0.000    0.000    0.000 
#
# Total GULP energy -155913.050079 kJ/mol
# GULP energy per Si atom -5568.323217 kJ/mol
# Density = 2.069318 g / cm^3
# Si number density = 20.740390 Si / 1000 Ang^3
#
#
#
# Elastic Constant Matrix: (Units=GPa)
#
#
# Indices 1 2 3 4 5 6 
#
# 1 37.9067 8.7001 22.2468 -0.0001 17.5927 0.0002
# 2 8.7001 80.8488 66.8563 0.0002 18.4098 0.0004
# 3 22.2468 66.8563 125.7769 0.0000 41.0293 0.0001
# 4 -0.0001 0.0002 0.0000 26.7903 0.0000 8.2736
# 5 17.5927 18.4098 41.0293 0.0000 40.6978 0.0000
# 6 0.0002 0.0004 0.0001 8.2736 0.0000 20.1351
#
#
#
# Elastic Compliance Matrix: (Units=1/GPa)
#
#
# Indices 1 2 3 4 5 6 
#
# 1 0.033350 0.001366 -0.002564 0.000000 -0.012450 0.000000
# 2 0.001366 0.022333 -0.012851 0.000000 0.002262 0.000000
# 3 -0.002564 -0.012851 0.019336 0.000000 -0.012572 0.000000
# 4 0.000000 0.000000 0.000000 0.042752 0.000000 -0.017567
# 5 -0.012450 0.002262 -0.012572 0.000000 0.041604 0.000000
# 6 0.000000 0.000000 0.000000 -0.017567 0.000000 0.056883
#
#
# Mechanical properties :
#
#
# Convention : Reuss Voigt Hill
#
# Bulk Modulus (GPa) = 21.31199 48.90432 35.10816
# Shear Modulus (GPa) = 19.23109 27.30659 23.26884
#
# Velocity S-wave (km/s) = 3.04835 3.63242 3.35313
# Velocity P-wave (km/s) = 4.76317 6.42052 5.65292
#
# Compressibility (1/GPa) = 0.04692194
#
# Stress axis : x y z
#
# Youngs Moduli (GPa) = 29.98542 44.77604 51.71707
#
# Poissons Ratio (x) = -0.06117 0.13259
# Poissons Ratio (y) = -0.04096 0.66461
# Poissons Ratio (z) = 0.07687 0.57541
#
# Static dielectric constant tensor:
#      x y z
#    x 1.866790 0.000000 0.097800 
#    y 0.000000 1.815440 0.000000 
#    z 0.097800 0.000000 1.964000 
# 
# From -- ./inp_files/380626.got.cif
#   From: 2010.05.17/outbox.cif.g08.bks.cpg/sg12_191_cif.got.tgz:380626.got - 2010.06.03 13:09:07.
