data_PCOD9183600
_publ_section_title
;
Structure prediction by ZEFSAII (Michael W. Deem and Ramdas Pophale) SiO2 
 PCOD9183600
Probable space group: C 2/M
;
_chemical_formula_sum "Si O2"
_cell_formula_units_Z 56
_cell_length_a 19.455475
_cell_length_b 14.037661
_cell_length_c 12.267601
_cell_angle_alpha 90.000000
_cell_angle_beta 97.711443
_cell_angle_gamma 90.000000
_cell_volume 3320.097111
_symmetry_space_group_name_H-M "C 2/M"
_symmetry_group_IT_number 12
_symmetry_cell_setting 'monoclinic'
loop_
_space_group_symop_operation_xyz
x,y,z
-x,y,-z
-x,-y,-z
x,-y,z
1/2+x,1/2+y,z
1/2-x,1/2+y,-z
1/2-x,1/2-y,-z
1/2+x,1/2-y,z
loop_
_atom_site_type_symbol
_atom_site_label
_atom_site_fract_x
_atom_site_fract_y
_atom_site_fract_z
Si Si1 0.681983 0.388384 0.147965
Si Si2 0.920073 0.727416 0.950750
Si Si3 0.162619 0.388023 0.883920
Si Si4 0.069525 0.608757 0.650832
Si Si5 0.581566 0.888615 0.273140
Si Si6 0.290160 0.612080 0.588194
Si Si7 0.646678 0.790811 0.488959
O O1 0.669749 0.500000 0.123118
O O2 0.621361 0.322652 0.089389
O O3 0.756588 0.362189 0.111552
O O4 0.689791 0.377995 0.280408
O O5 0.918253 0.659904 0.844240
O O6 0.879263 0.674928 0.039388
O O7 0.000000 0.744033 0.000000
O O8 0.158002 0.500000 0.913537
O O9 0.126170 0.379780 0.758249
O O10 0.074933 0.500000 0.608318
O O11 0.085294 0.681468 0.557749
O O12 0.995097 0.619327 0.690931
O O13 0.632101 0.836051 0.367891
O O14 0.598831 0.000000 0.268604
O O15 0.290812 0.500000 0.561338
O O16 0.339504 0.679255 0.525906
O O17 0.214297 0.657077 0.552658
#
# Coordination Sequence:
#
# PCOD9183600 Si02
#       7
#     8   8   8   8   8   8   8
#     4  10  21  40  60  80 110 152 199 234 272 336
#     4  12  23  37  57  85 117 150 189 237 287 336
#     4  10  20  36  59  83 112 150 188 228 283 341
#     4  10  19  33  55  82 112 149 183 223 281 347
#     4  11  22  34  53  86 118 145 180 228 290 343
#     4  10  20  35  57  82 110 145 186 229 279 336
#     4  11  20  34  57  83 112 142 185 229 278 335
#
# _framework density 16.866976000000001
#
# number of rings (size 3 to 8) (size 9 to 14) (size 15 to 20)
#    0.000    1.429    4.286    2.571    0.000    2.000 
#    0.000    0.000    0.000    3.429    0.000    0.000 
#    0.000    0.000    0.000    0.000    0.000    0.000 
#
# Total GULP energy -156330.476037 kJ/mol
# GULP energy per Si atom -5583.231287 kJ/mol
# Density = 1.682859 g / cm^3
# Si number density = 16.866976 Si / 1000 Ang^3
#
#
#
# Elastic Constant Matrix: (Units=GPa)
#
#
# Indices 1 2 3 4 5 6 
#
# 1 56.7344 55.4299 27.1542 0.0000 -10.7435 0.0000
# 2 55.4299 115.6527 46.9441 0.0000 -5.6413 0.0000
# 3 27.1542 46.9441 73.7102 0.0000 1.5870 0.0000
# 4 0.0000 0.0000 0.0000 27.8597 0.0000 -3.1632
# 5 -10.7435 -5.6413 1.5870 0.0000 27.8405 0.0000
# 6 0.0000 0.0000 0.0000 -3.1632 0.0000 24.8210
#
#
#
# Elastic Compliance Matrix: (Units=1/GPa)
#
#
# Indices 1 2 3 4 5 6 
#
# 1 0.036759 -0.015472 -0.003930 0.000000 0.011274 0.000000
# 2 -0.015472 0.018394 -0.005974 0.000000 -0.001903 0.000000
# 3 -0.003930 -0.005974 0.018901 0.000000 -0.003805 0.000000
# 4 0.000000 0.000000 0.000000 0.036421 0.000000 0.004641
# 5 0.011274 -0.001903 -0.003805 0.000000 0.040101 0.000000
# 6 0.000000 0.000000 0.000000 0.004641 0.000000 0.040880
#
#
# Mechanical properties :
#
#
# Convention : Reuss Voigt Hill
#
# Bulk Modulus (GPa) = 42.91728 56.12821 49.52274
# Shear Modulus (GPa) = 20.00193 23.87552 21.93872
#
# Velocity S-wave (km/s) = 3.44737 3.76642 3.61042
# Velocity P-wave (km/s) = 6.43006 7.22937 6.84140
#
# Compressibility (1/GPa) = 0.02330064
#
# Stress axis : x y z
#
# Youngs Moduli (GPa) = 27.20449 54.36494 52.90702
#
# Poissons Ratio (x) = 0.84116 0.20794
# Poissons Ratio (y) = 0.42092 0.31606
# Poissons Ratio (z) = 0.10692 0.32477
#
# Static dielectric constant tensor:
#      x y z
#    x 1.575780 0.000000 0.006710 
#    y 0.000000 1.552370 0.000000 
#    z 0.006710 0.000000 1.560260 
# 
# From -- ./inp_files/164971.got.cif
#   From: 2010.05.17/outbox.cif.g08.bks.cpg/sg12_83_cif.got.tgz:164971.got - 2010.06.03 13:09:07.
