data_PCOD9183983
_publ_section_title
;
Structure prediction by ZEFSAII (Michael W. Deem and Ramdas Pophale) SiO2 
 PCOD9183983
Probable space group: C 2/M
;
_chemical_formula_sum "Si O2"
_cell_formula_units_Z 64
_cell_length_a 24.388584
_cell_length_b 8.336647
_cell_length_c 29.398107
_cell_angle_alpha 90.000000
_cell_angle_beta 149.550599
_cell_angle_gamma 90.000000
_cell_volume 3029.105991
_symmetry_space_group_name_H-M "C 2/M"
_symmetry_group_IT_number 12
_symmetry_cell_setting 'monoclinic'
loop_
_space_group_symop_operation_xyz
x,y,z
-x,y,-z
-x,-y,-z
x,-y,z
1/2+x,1/2+y,z
1/2-x,1/2+y,-z
1/2-x,1/2-y,-z
1/2+x,1/2-y,z
loop_
_atom_site_type_symbol
_atom_site_label
_atom_site_fract_x
_atom_site_fract_y
_atom_site_fract_z
Si Si1 0.374417 0.692909 0.027163
Si Si2 0.956353 0.185513 0.346208
Si Si3 0.712238 0.809383 0.708102
Si Si4 0.442140 0.304398 0.911813
Si Si5 0.691834 0.812747 0.504017
Si Si6 0.211730 0.690587 0.333568
Si Si7 0.026548 0.691860 0.814561
Si Si8 0.153437 0.694330 0.819053
O O1 0.374745 0.500000 0.030980
O O2 0.479099 0.743505 0.072999
O O3 0.384707 0.763628 0.084585
O O4 0.267789 0.737960 0.923143
O O5 0.895893 0.230785 0.349454
O O6 0.869877 0.224202 0.245116
O O7 0.062899 0.286552 0.410660
O O8 0.986971 0.000000 0.368035
O O9 0.820060 0.752525 0.812824
O O10 0.732251 0.771765 0.669551
O O11 0.703708 0.000000 0.708666
O O12 0.439606 0.500000 0.911511
O O13 0.500000 0.251761 0.000000
O O14 0.750000 0.750000 0.500000
O O15 0.732139 0.723259 0.578118
O O16 0.716536 0.000000 0.526318
O O17 0.208948 0.500000 0.323022
O O18 0.089119 0.754386 0.251750
O O19 0.019074 0.500000 0.806919
O O20 0.062319 0.745146 0.790270
O O21 0.151585 0.500000 0.812155
#
# Coordination Sequence:
#
# PCOD9183983 Si02
#       8
#     8   8   8   8   8   8   8   8
#     4  10  19  33  56  86 121 165 217 264 313 378
#     4  12  26  44  66  95 129 166 210 263 323 386
#     4  11  22  40  65  92 128 171 219 270 325 386
#     4   9  17  31  54  84 119 164 217 268 316 370
#     4  12  26  47  74 103 132 166 211 260 319 385
#     4  11  23  41  65  95 133 173 216 269 326 384
#     4  10  21  36  57  87 127 167 206 259 319 377
#     4  10  21  38  60  88 124 170 216 263 321 382
#
# _framework density 21.128344999999999
#
# number of rings (size 3 to 8) (size 9 to 14) (size 15 to 20)
#    0.000    1.375    1.250    4.875    0.000    5.000 
#    0.000    2.500    0.000    1.875    0.000    0.000 
#    0.000    0.000    0.000    0.000    0.000    0.000 
#
# Total GULP energy -178931.678304 kJ/mol
# GULP energy per Si atom -5591.614947 kJ/mol
# Density = 2.108026 g / cm^3
# Si number density = 21.128345 Si / 1000 Ang^3
#
#
#
# Elastic Constant Matrix: (Units=GPa)
#
#
# Indices 1 2 3 4 5 6 
#
# 1 114.4318 -2.2786 21.7651 0.0000 7.5776 0.0001
# 2 -2.2786 15.5360 -11.8045 0.0003 6.3771 0.0006
# 3 21.7651 -11.8045 57.0585 0.0000 -3.0339 0.0000
# 4 0.0000 0.0003 0.0000 24.8296 0.0000 -4.3771
# 5 7.5776 6.3771 -3.0339 0.0000 35.9167 0.0001
# 6 0.0001 0.0006 0.0000 -4.3771 0.0001 16.7613
#
#
#
# Elastic Compliance Matrix: (Units=1/GPa)
#
#
# Indices 1 2 3 4 5 6 
#
# 1 0.009621 -0.000648 -0.003923 0.000000 -0.002246 0.000000
# 2 -0.000648 0.082217 0.016562 -0.000002 -0.013062 -0.000003
# 3 -0.003923 0.016562 0.022437 0.000000 -0.000218 -0.000001
# 4 0.000000 -0.000002 0.000000 0.042218 0.000000 0.011025
# 5 -0.002246 -0.013062 -0.000218 0.000000 0.030617 0.000000
# 6 0.000000 -0.000003 -0.000001 0.011025 0.000000 0.062540
#
#
# Mechanical properties :
#
#
# Convention : Reuss Voigt Hill
#
# Bulk Modulus (GPa) = 7.23291 22.48783 14.86037
# Shear Modulus (GPa) = 18.39891 27.45782 22.92837
#
# Velocity S-wave (km/s) = 2.95416 3.60887 3.29780
# Velocity P-wave (km/s) = 3.88160 5.29451 4.64212
#
# Compressibility (1/GPa) = 0.13825688
#
# Stress axis : x y z
#
# Youngs Moduli (GPa) = 103.94034 12.16287 44.56858
#
# Poissons Ratio (x) = 0.00788 0.17486
# Poissons Ratio (y) = 0.06736 -0.73815
# Poissons Ratio (z) = 0.40780 -0.20144
#
# Static dielectric constant tensor:
#      x y z
#    x 1.751560 0.000000 0.011040 
#    y 0.000000 1.745060 0.000000 
#    z 0.011040 0.000000 1.777800 
# 
# From -- ./inp_files/382429.got.cif
#   From: 2010.05.17/outbox.cif.g08.bks.cpg/sg12_192_cif.got.tgz:382429.got - 2010.06.03 13:09:07.
