data_PCOD9183439
_publ_section_title
;
Structure prediction by ZEFSAII (Michael W. Deem and Ramdas Pophale) SiO2 
 PCOD9183439
Probable space group: C 2/M
;
_chemical_formula_sum "Si O2"
_cell_formula_units_Z 48
_cell_length_a 20.733980
_cell_length_b 9.021716
_cell_length_c 15.186817
_cell_angle_alpha 90.000000
_cell_angle_beta 99.092900
_cell_angle_gamma 90.000000
_cell_volume 2805.087409
_symmetry_space_group_name_H-M "C 2/M"
_symmetry_group_IT_number 12
_symmetry_cell_setting 'monoclinic'
loop_
_space_group_symop_operation_xyz
x,y,z
-x,y,-z
-x,-y,-z
x,-y,z
1/2+x,1/2+y,z
1/2-x,1/2+y,-z
1/2-x,1/2-y,-z
1/2+x,1/2-y,z
loop_
_atom_site_type_symbol
_atom_site_label
_atom_site_fract_x
_atom_site_fract_y
_atom_site_fract_z
Si Si1 0.940231 0.821453 0.423660
Si Si2 0.197652 0.178306 0.053365
Si Si3 0.442790 0.678525 0.054487
Si Si4 0.081090 0.675500 0.766766
Si Si5 0.232439 0.323938 0.757438
Si Si6 0.708686 0.677073 0.568831
O O1 0.945207 0.747900 0.328760
O O2 0.868691 0.781842 0.447507
O O3 0.000000 0.778794 0.500000
O O4 0.941350 0.000000 0.413696
O O5 0.215561 0.220211 0.157186
O O6 0.203749 0.000000 0.049916
O O7 0.250000 0.250000 0.000000
O O8 0.125897 0.219511 0.005422
O O9 0.444303 0.500000 0.065677
O O10 0.446807 0.752168 0.150967
O O11 0.500000 0.721096 0.000000
O O12 0.069659 0.500000 0.763656
O O13 0.159754 0.699929 0.781433
O O14 0.238723 0.500000 0.740342
O O15 0.235902 0.234076 0.668139
O O16 0.712930 0.500000 0.563967
O O17 0.750000 0.750000 0.500000
#
# Coordination Sequence:
#
# PCOD9183439 Si02
#       6
#     8   8   8   8   8   8
#     4   9  19  37  59  80 102 136 180 218 255 310
#     4  10  19  33  55  79 104 136 177 220 257 305
#     4  10  21  36  53  76 108 144 178 214 259 311
#     4  10  19  33  55  80 107 138 172 217 267 312
#     4   9  18  33  53  78 105 136 175 216 259 307
#     4  10  20  35  56  80 107 138 171 214 265 311
#
# _framework density 17.111765999999999
#
# number of rings (size 3 to 8) (size 9 to 14) (size 15 to 20)
#    0.000    2.333    1.667    1.000    0.000    2.667 
#    3.000    0.000    0.000    0.000    0.000    0.000 
#    0.000    0.000    0.000    0.000    0.000    0.000 
#
# Total GULP energy -133890.980874 kJ/mol
# GULP energy per Si atom -5578.790870 kJ/mol
# Density = 1.707282 g / cm^3
# Si number density = 17.111766 Si / 1000 Ang^3
#
#
#
# Elastic Constant Matrix: (Units=GPa)
#
#
# Indices 1 2 3 4 5 6 
#
# 1 116.8847 45.7480 102.5237 0.0000 -1.4436 0.0000
# 2 45.7480 34.6705 62.4882 0.0000 -6.1354 0.0000
# 3 102.5237 62.4882 178.5493 0.0000 -4.2075 0.0000
# 4 0.0000 0.0000 0.0000 35.1947 0.0000 -4.2000
# 5 -1.4436 -6.1354 -4.2075 0.0000 34.8693 0.0000
# 6 0.0000 0.0000 0.0000 -4.2000 0.0000 21.9913
#
#
#
# Elastic Compliance Matrix: (Units=1/GPa)
#
#
# Indices 1 2 3 4 5 6 
#
# 1 0.020089 -0.016495 -0.005828 0.000000 -0.002774 0.000000
# 2 -0.016495 0.095675 -0.023699 0.000000 0.013292 0.000000
# 3 -0.005828 -0.023699 0.017186 0.000000 -0.002337 0.000000
# 4 0.000000 0.000000 0.000000 0.029076 0.000000 0.005553
# 5 -0.002774 0.013292 -0.002337 0.000000 0.030620 0.000000
# 6 0.000000 0.000000 0.000000 0.005553 0.000000 0.046533
#
#
# Mechanical properties :
#
#
# Convention : Reuss Voigt Hill
#
# Bulk Modulus (GPa) = 24.44630 83.51383 53.98006
# Shear Modulus (GPa) = 14.49872 26.36737 20.43305
#
# Velocity S-wave (km/s) = 2.91399 3.92968 3.45931
# Velocity P-wave (km/s) = 5.06350 8.33671 6.89709
#
# Compressibility (1/GPa) = 0.04090599
#
# Stress axis : x y z
#
# Youngs Moduli (GPa) = 49.77915 10.45208 58.18658
#
# Poissons Ratio (x) = 0.17240 0.33909
# Poissons Ratio (y) = 0.82110 1.37899
# Poissons Ratio (z) = 0.29009 0.24771
#
# Static dielectric constant tensor:
#      x y z
#    x 1.572980 0.000000 0.014330 
#    y 0.000000 1.572830 0.000000 
#    z 0.014330 0.000000 1.554330 
# 
# From -- ./inp_files/221677.got.cif
#   From: 2010.05.17/outbox.cif.g08.bks.cpg/sg12_111_cif.got.tgz:221677.got - 2010.06.03 13:09:07.
