data_PCOD9183440
_publ_section_title
;
Structure prediction by ZEFSAII (Michael W. Deem and Ramdas Pophale) SiO2 
 PCOD9183440
Probable space group: C 2/M
;
_chemical_formula_sum "Si O2"
_cell_formula_units_Z 64
_cell_length_a 20.487199
_cell_length_b 7.390725
_cell_length_c 21.124775
_cell_angle_alpha 90.000000
_cell_angle_beta 121.515440
_cell_angle_gamma 90.000000
_cell_volume 2726.815587
_symmetry_space_group_name_H-M "C 2/M"
_symmetry_group_IT_number 12
_symmetry_cell_setting 'monoclinic'
loop_
_space_group_symop_operation_xyz
x,y,z
-x,y,-z
-x,-y,-z
x,-y,z
1/2+x,1/2+y,z
1/2-x,1/2+y,-z
1/2-x,1/2-y,-z
1/2+x,1/2-y,z
loop_
_atom_site_type_symbol
_atom_site_label
_atom_site_fract_x
_atom_site_fract_y
_atom_site_fract_z
Si Si1 0.335641 0.793084 0.196517
Si Si2 0.764349 0.783365 0.433097
Si Si3 0.504805 0.218771 0.681260
Si Si4 0.566665 0.287374 0.490409
Si Si5 0.886228 0.219338 0.080866
Si Si6 0.118748 0.719426 0.279720
Si Si7 0.672476 0.721588 0.081129
Si Si8 0.949835 0.207552 0.884762
O O1 0.408033 0.712839 0.270443
O O2 0.361638 0.792950 0.136106
O O3 0.250615 0.713089 0.153280
O O4 0.327802 0.000000 0.214606
O O5 0.750000 0.750000 0.500000
O O6 0.848291 0.711061 0.458660
O O7 0.694751 0.717586 0.354540
O O8 0.765431 0.000000 0.426103
O O9 0.460492 0.271338 0.595612
O O10 0.454638 0.277667 0.715952
O O11 0.507508 0.000000 0.684678
O O12 0.500000 0.207841 0.500000
O O13 0.572469 0.500000 0.509078
O O14 0.970686 0.283414 0.101687
O O15 0.887153 0.000000 0.087329
O O16 0.831570 0.270013 0.994699
O O17 0.118997 0.500000 0.278256
O O18 0.108583 0.786470 0.203642
O O19 0.672708 0.500000 0.083737
O O20 0.596240 0.783953 0.079005
O O21 0.968221 0.000000 0.910524
#
# Coordination Sequence:
#
# PCOD9183440 Si02
#       8
#     8   8   8   8   8   8   8   8
#     4  10  20  35  55  77 106 141 177 215 259 311
#     4  10  20  35  56  78 103 136 173 212 255 304
#     4  10  20  35  55  78 106 141 175 211 257 311
#     4  10  22  38  56  81 110 137 169 214 265 311
#     4  10  19  33  55  79 104 137 178 220 262 308
#     4  10  20  35  54  78 108 138 173 216 261 307
#     4   9  19  35  53  76 107 140 175 219 263 307
#     4  10  20  34  54  79 105 137 178 218 261 311
#
# _framework density 23.470600999999998
#
# number of rings (size 3 to 8) (size 9 to 14) (size 15 to 20)
#    0.000    2.125    2.500    0.750    0.000    4.250 
#    0.000    1.250    0.000    1.500    0.000    0.000 
#    0.000    0.000    0.000    0.000    0.000    0.000 
#
# Total GULP energy -178863.772114 kJ/mol
# GULP energy per Si atom -5589.492879 kJ/mol
# Density = 2.341718 g / cm^3
# Si number density = 23.470601 Si / 1000 Ang^3
#
#
#
# Elastic Constant Matrix: (Units=GPa)
#
#
# Indices 1 2 3 4 5 6 
#
# 1 85.2933 -1.5380 -9.8605 0.0000 18.4637 0.0000
# 2 -1.5380 86.3964 -9.9986 0.0000 7.1257 0.0000
# 3 -9.8605 -9.9986 62.6755 0.0000 20.5380 0.0000
# 4 0.0000 0.0000 0.0000 32.5477 0.0000 1.8246
# 5 18.4637 7.1257 20.5380 0.0000 48.7034 0.0000
# 6 0.0000 0.0000 0.0000 1.8246 0.0000 7.4671
#
#
#
# Elastic Compliance Matrix: (Units=1/GPa)
#
#
# Indices 1 2 3 4 5 6 
#
# 1 0.013956 0.001441 0.004906 0.000000 -0.007571 0.000000
# 2 0.001441 0.012311 0.003434 0.000000 -0.003796 0.000000
# 3 0.004906 0.003434 0.020943 0.000000 -0.011194 0.000000
# 4 0.000000 0.000000 0.000000 0.031151 0.000000 -0.007612
# 5 -0.007571 -0.003796 -0.011194 0.000000 0.028678 0.000000
# 6 0.000000 0.000000 0.000000 -0.007612 0.000000 0.135780
#
#
# Mechanical properties :
#
#
# Convention : Reuss Voigt Hill
#
# Bulk Modulus (GPa) = 14.97616 21.28566 18.13091
# Shear Modulus (GPa) = 20.36540 34.79448 27.57994
#
# Velocity S-wave (km/s) = 2.94887 3.85446 3.43167
# Velocity P-wave (km/s) = 4.24136 5.37568 4.84185
#
# Compressibility (1/GPa) = 0.06677280
#
# Stress axis : x y z
#
# Youngs Moduli (GPa) = 71.65239 81.23009 47.74830
#
# Poissons Ratio (x) = -0.11702 -0.23427
# Poissons Ratio (y) = -0.10323 -0.16398
# Poissons Ratio (z) = -0.35155 -0.27897
#
# Static dielectric constant tensor:
#      x y z
#    x 1.887620 0.000000 0.039780 
#    y 0.000000 1.931470 0.000000 
#    z 0.039780 0.000000 1.845270 
# 
# From -- ./inp_files/320043.got.cif
#   From: 2010.05.17/outbox.cif.g08.bks.cpg/sg12_161_cif.got.tgz:320043.got - 2010.06.03 13:09:07.
