data_PCOD9183719
_publ_section_title
;
Structure prediction by ZEFSAII (Michael W. Deem and Ramdas Pophale) SiO2 
 PCOD9183719
Probable space group: C 2/M
;
_chemical_formula_sum "Si O2"
_cell_formula_units_Z 56
_cell_length_a 11.327335
_cell_length_b 14.710889
_cell_length_c 24.343446
_cell_angle_alpha 90.000000
_cell_angle_beta 145.985385
_cell_angle_gamma 90.000000
_cell_volume 2269.209344
_symmetry_space_group_name_H-M "C 2/M"
_symmetry_group_IT_number 12
_symmetry_cell_setting 'monoclinic'
loop_
_space_group_symop_operation_xyz
x,y,z
-x,y,-z
-x,-y,-z
x,-y,z
1/2+x,1/2+y,z
1/2-x,1/2+y,-z
1/2-x,1/2-y,-z
1/2+x,1/2-y,z
loop_
_atom_site_type_symbol
_atom_site_label
_atom_site_fract_x
_atom_site_fract_y
_atom_site_fract_z
Si Si1 0.361169 0.848251 0.708478
Si Si2 0.922827 0.854815 0.306823
Si Si3 0.966385 0.892739 0.117336
Si Si4 0.816559 0.392330 0.890308
Si Si5 0.303264 0.853142 0.384409
Si Si6 0.572457 0.148193 0.684319
Si Si7 0.736340 0.608247 0.067816
O O1 0.183851 0.892375 0.679146
O O2 0.287677 0.745397 0.668356
O O3 0.418760 0.890976 0.671654
O O4 0.577724 0.844757 0.827135
O O5 0.738946 0.852135 0.189760
O O6 0.995508 0.752768 0.349949
O O7 0.118123 0.898288 0.349489
O O8 0.193883 0.849459 0.199144
O O9 0.885355 0.884552 0.147844
O O10 0.996627 0.000000 0.117498
O O11 0.789829 0.863001 0.005682
O O12 0.863087 0.500000 0.899345
O O13 0.000000 0.353892 0.000000
O O14 0.500000 0.841361 0.500000
O O15 0.388631 0.895256 0.360190
O O16 0.783466 0.500000 0.089088
O O17 0.500000 0.621488 0.000000
#
# Coordination Sequence:
#
# PCOD9183719 Si02
#       7
#     8   8   8   8   8   8   8
#     4  10  21  34  56  88 117 152 197 244 296 353
#     4  10  21  37  56  87 117 151 199 251 302 351
#     4  10  19  34  58  83 118 166 206 237 280 351
#     4  10  20  36  57  83 120 162 201 242 293 353
#     4  10  22  42  63  81 112 156 201 254 313 363
#     4  10  20  37  57  84 118 152 198 245 292 360
#     4  10  19  33  55  85 124 165 196 231 290 362
#
# _framework density 24.678198999999999
#
# number of rings (size 3 to 8) (size 9 to 14) (size 15 to 20)
#    0.000    2.000    2.857    0.857    0.000    6.857 
#    5.143    2.143    0.000    2.143    0.000    8.000 
#    0.000    0.000    0.000    0.000    0.000    0.000 
#
# Total GULP energy -156424.806106 kJ/mol
# GULP energy per Si atom -5586.600218 kJ/mol
# Density = 2.462203 g / cm^3
# Si number density = 24.678199 Si / 1000 Ang^3
#
#
#
# Elastic Constant Matrix: (Units=GPa)
#
#
# Indices 1 2 3 4 5 6 
#
# 1 231.2118 22.2466 47.7395 0.0000 -13.3205 0.0000
# 2 22.2466 83.2097 22.9884 -0.0001 -2.7108 0.0000
# 3 47.7395 22.9884 117.3154 -0.0003 -8.4103 0.0000
# 4 0.0000 -0.0001 -0.0003 61.3263 -0.0001 1.9596
# 5 -13.3205 -2.7108 -8.4103 -0.0001 21.2090 0.0000
# 6 0.0000 0.0000 0.0000 1.9596 0.0000 2.6316
#
#
#
# Elastic Compliance Matrix: (Units=1/GPa)
#
#
# Indices 1 2 3 4 5 6 
#
# 1 0.004876 -0.000768 -0.001669 0.000000 0.002303 0.000000
# 2 -0.000768 0.012835 -0.002182 0.000000 0.000293 0.000000
# 3 -0.001669 -0.002182 0.009815 0.000000 0.002565 0.000000
# 4 0.000000 0.000000 0.000000 0.016704 0.000000 -0.012438
# 5 0.002303 0.000293 0.002565 0.000000 0.049651 0.000000
# 6 0.000000 0.000000 0.000000 -0.012438 0.000000 0.389263
#
#
# Mechanical properties :
#
#
# Convention : Reuss Voigt Hill
#
# Bulk Modulus (GPa) = 54.67545 68.63178 61.65361
# Shear Modulus (GPa) = 10.03057 39.61754 24.82405
#
# Velocity S-wave (km/s) = 2.01826 4.01105 3.17505
# Velocity P-wave (km/s) = 5.25686 7.02299 6.20311
#
# Compressibility (1/GPa) = 0.01828975
#
# Stress axis : x y z
#
# Youngs Moduli (GPa) = 205.08145 77.90976 101.89003
#
# Poissons Ratio (x) = 0.05980 0.17003
# Poissons Ratio (y) = 0.15742 0.22230
# Poissons Ratio (z) = 0.34223 0.16998
#
# Static dielectric constant tensor:
#      x y z
#    x 2.060470 0.000000 -0.002210 
#    y 0.000000 1.943120 0.000000 
#    z -0.002210 0.000000 1.916870 
# 
# From -- ./inp_files/336778.got.cif
#   From: 2010.05.17/outbox.cif.g08.bks.cpg/sg12_169_cif.got.tgz:336778.got - 2010.06.03 13:09:07.
