data_PCOD9183485
_publ_section_title
;
Structure prediction by ZEFSAII (Michael W. Deem and Ramdas Pophale) SiO2 
 PCOD9183485
Probable space group: C 2/M
;
_chemical_formula_sum "Si O2"
_cell_formula_units_Z 42
_cell_length_a 15.001049
_cell_length_b 7.315859
_cell_length_c 15.312819
_cell_angle_alpha 90.000000
_cell_angle_beta 66.972112
_cell_angle_gamma 90.000000
_cell_volume 1546.601399
_symmetry_space_group_name_H-M "C 2/M"
_symmetry_group_IT_number 12
_symmetry_cell_setting 'monoclinic'
loop_
_space_group_symop_operation_xyz
x,y,z
-x,y,-z
-x,-y,-z
x,-y,z
1/2+x,1/2+y,z
1/2-x,1/2+y,-z
1/2-x,1/2-y,-z
1/2+x,1/2-y,z
loop_
_atom_site_type_symbol
_atom_site_label
_atom_site_fract_x
_atom_site_fract_y
_atom_site_fract_z
Si Si1 0.731465 0.204812 0.344099
Si Si2 0.000000 0.000000 0.500000
Si Si3 0.873125 0.720733 0.131759
Si Si4 0.604127 0.704845 0.609720
Si Si5 0.898864 0.290667 0.745879
Si Si6 0.100070 0.722015 0.067152
O O1 0.807513 0.203794 0.233754
O O2 0.643219 0.299620 0.325625
O O3 0.793740 0.289165 0.399453
O O4 0.699159 0.000000 0.383946
O O5 0.933004 0.840119 0.473312
O O6 0.865166 0.500000 0.138141
O O7 0.985964 0.766233 0.102526
O O8 0.849607 0.782317 0.041601
O O9 0.610432 0.500000 0.645916
O O10 0.514070 0.794880 0.692684
O O11 0.865595 0.500000 0.757954
O O12 0.868777 0.208434 0.849874
O O13 0.105673 0.500000 0.066824
#
# Coordination Sequence:
#
# PCOD9183485 Si02
#       6
#     8   2   8   8   8   8
#     4  10  20  32  51  79 110 135 170 222 265 293
#     4   8  20  40  66  68 102 142 162 196 288 332
#     4   9  16  29  49  72 103 146 187 209 241 303
#     4   9  19  38  58  75 102 137 170 202 265 332
#     4  10  19  33  55  80 106 137 174 217 257 298
#     4   8  15  28  47  72 103 144 180 213 250 291
#
# _framework density 27.156320000000001
#
# number of rings (size 3 to 8) (size 9 to 14) (size 15 to 20)
#    0.571    2.286    1.905    1.143    0.000    1.524 
#    0.000    4.286    0.000    0.000    0.000    0.000 
#    0.000    0.000    0.000    0.000    0.000    0.000 
#
# Total GULP energy -116942.992194 kJ/mol
# GULP energy per Si atom -5568.713914 kJ/mol
# Density = 2.709451 g / cm^3
# Si number density = 27.156320 Si / 1000 Ang^3
#
#
#
# Elastic Constant Matrix: (Units=GPa)
#
#
# Indices 1 2 3 4 5 6 
#
# 1 135.2145 -2.4991 34.8311 0.0000 51.2230 0.0000
# 2 -2.4991 119.8942 -4.6833 0.0000 10.6067 -0.0001
# 3 34.8311 -4.6833 184.3063 0.0000 46.3373 0.0000
# 4 0.0000 0.0000 0.0000 9.0117 0.0000 1.9883
# 5 51.2230 10.6067 46.3373 0.0000 61.1317 0.0000
# 6 0.0000 -0.0001 0.0000 1.9883 0.0000 -30.1324
#
#
#
# Elastic Compliance Matrix: (Units=1/GPa)
#
#
# Indices 1 2 3 4 5 6 
#
# 1 0.010988 0.001102 0.000388 0.000000 -0.009692 0.000000
# 2 0.001102 0.008660 0.000768 0.000000 -0.003008 0.000000
# 3 0.000388 0.000768 0.006779 0.000000 -0.005597 0.000000
# 4 0.000000 0.000000 0.000000 0.109375 0.000000 0.007217
# 5 -0.009692 -0.003008 -0.005597 0.000000 0.029244 0.000000
# 6 0.000000 0.000000 0.000000 0.007217 0.000000 -0.032711
#
#
# Mechanical properties :
#
#
# Convention : Reuss Voigt Hill
#
# Bulk Modulus (GPa) = 32.31827 54.96805 43.64316
# Shear Modulus (GPa) = 36.19719 35.45329 35.82524
#
# Velocity S-wave (km/s) = 3.65488 3.61713 3.63605
# Velocity P-wave (km/s) = 5.45321 6.14248 5.80808
#
# Compressibility (1/GPa) = 0.03094225
#
# Stress axis : x y z
#
# Youngs Moduli (GPa) = 91.01129 115.47697 147.51274
#
# Poissons Ratio (x) = -0.12721 -0.05727
# Poissons Ratio (y) = -0.10026 -0.11330
# Poissons Ratio (z) = -0.03533 -0.08869
#
# Static dielectric constant tensor:
#      x y z
#    x 2.218900 0.000000 0.072880 
#    y 0.000000 2.048260 0.000000 
#    z 0.072880 0.000000 2.182850 
# 
# From -- ./inp_files/211926.got.cif
#   From: 2010.05.17/outbox.cif.g08.bks.cpg/sg12_106_cif.got.tgz:211926.got - 2010.06.03 13:09:07.
