data_PCOD9183729
_publ_section_title
;
Structure prediction by ZEFSAII (Michael W. Deem and Ramdas Pophale) SiO2 
 PCOD9183729
Probable space group: C 2/M
;
_chemical_formula_sum "Si O2"
_cell_formula_units_Z 40
_cell_length_a 10.295603
_cell_length_b 23.549657
_cell_length_c 9.217264
_cell_angle_alpha 90.000000
_cell_angle_beta 133.471581
_cell_angle_gamma 90.000000
_cell_volume 1621.828488
_symmetry_space_group_name_H-M "C 2/M"
_symmetry_group_IT_number 12
_symmetry_cell_setting 'monoclinic'
loop_
_space_group_symop_operation_xyz
x,y,z
-x,y,-z
-x,-y,-z
x,-y,z
1/2+x,1/2+y,z
1/2-x,1/2+y,-z
1/2-x,1/2-y,-z
1/2+x,1/2-y,z
loop_
_atom_site_type_symbol
_atom_site_label
_atom_site_fract_x
_atom_site_fract_y
_atom_site_fract_z
Si Si1 0.304199 0.838238 0.220588
Si Si2 0.292481 0.223446 0.870935
Si Si3 0.107966 0.000000 0.927257
Si Si4 0.673359 0.118606 0.457040
Si Si5 0.430648 0.624089 0.219771
Si Si6 0.981005 0.500000 0.660376
O O1 0.285841 0.776422 0.279164
O O2 0.311521 0.883119 0.355427
O O3 0.496262 0.844331 0.288591
O O4 0.138855 0.854607 0.991676
O O5 0.206583 0.161637 0.791264
O O6 0.500000 0.221299 0.000000
O O7 0.250000 0.250000 0.000000
O O8 0.318447 0.000000 0.124992
O O9 0.071334 0.943582 0.803647
O O10 0.000000 0.000000 0.000000
O O11 0.871354 0.139823 0.575844
O O12 0.624696 0.055746 0.369424
O O13 0.000000 0.500000 0.500000
#
# Coordination Sequence:
#
# PCOD9183729 Si02
#       6
#     8   8   4   8   8   4
#     4  10  19  33  55  86 121 163 200 249 305 366
#     4  10  22  41  65  90 125 166 211 256 311 369
#     4  12  22  34  61  91 127 164 209 256 321 362
#     4  11  20  31  57  87 128 159 205 248 313 368
#     4  11  21  36  56  85 123 163 202 253 312 366
#     4  12  18  32  50  91 128 159 200 264 310 373
#
# _framework density 24.663519999999998
#
# number of rings (size 3 to 8) (size 9 to 14) (size 15 to 20)
#    0.000    1.200    4.000    6.000    0.000    1.600 
#    0.000    2.500    0.000    0.000    0.000    1.400 
#    0.000    0.000    0.000    0.000    0.000    0.000 
#
# Total GULP energy -111631.397385 kJ/mol
# GULP energy per Si atom -5581.569869 kJ/mol
# Density = 2.460738 g / cm^3
# Si number density = 24.663520 Si / 1000 Ang^3
#
#
#
# Elastic Constant Matrix: (Units=GPa)
#
#
# Indices 1 2 3 4 5 6 
#
# 1 84.8979 51.3943 68.0536 0.0000 47.6856 0.0000
# 2 51.3943 189.6888 26.2671 0.0000 35.5558 0.0000
# 3 68.0536 26.2671 125.2986 0.0000 38.1481 0.0000
# 4 0.0000 0.0000 0.0000 26.8393 0.0000 16.1469
# 5 47.6856 35.5558 38.1481 0.0000 65.5034 0.0000
# 6 0.0000 0.0000 0.0000 16.1469 0.0000 17.6054
#
#
#
# Elastic Compliance Matrix: (Units=1/GPa)
#
#
# Indices 1 2 3 4 5 6 
#
# 1 0.032010 -0.004392 -0.012272 0.000000 -0.013772 0.000000
# 2 -0.004392 0.006482 0.001367 0.000000 -0.001117 0.000000
# 3 -0.012272 0.001367 0.014423 0.000000 -0.000208 0.000000
# 4 0.000000 0.000000 0.000000 0.083125 0.000000 -0.076238
# 5 -0.013772 -0.001117 -0.000208 0.000000 0.026019 0.000000
# 6 0.000000 0.000000 0.000000 -0.076238 0.000000 0.126723
#
#
# Mechanical properties :
#
#
# Convention : Reuss Voigt Hill
#
# Bulk Modulus (GPa) = 44.80218 76.81283 60.80751
# Shear Modulus (GPa) = 15.29906 38.93431 27.11668
#
# Velocity S-wave (km/s) = 2.49331 3.97749 3.31942
# Velocity P-wave (km/s) = 5.14719 7.23228 6.27692
#
# Compressibility (1/GPa) = 0.02232034
#
# Stress axis : x y z
#
# Youngs Moduli (GPa) = 31.23989 154.27583 69.33362
#
# Poissons Ratio (x) = 0.67759 0.85087
# Poissons Ratio (y) = 0.13721 -0.09476
# Poissons Ratio (z) = 0.38338 -0.21085
#
# Static dielectric constant tensor:
#      x y z
#    x 2.126280 0.000000 -0.061610 
#    y 0.000000 2.162650 0.000000 
#    z -0.061610 0.000000 1.970570 
# 
# From -- ./inp_files/135633.got.cif
#   From: 2010.05.17/outbox.cif.g08.bks.cpg/sg12_68_cif.got.tgz:135633.got - 2010.06.03 13:09:07.
