data_PCOD9183985
_publ_section_title
;
Structure prediction by ZEFSAII (Michael W. Deem and Ramdas Pophale) SiO2 
 PCOD9183985
Probable space group: C 2/M
;
_chemical_formula_sum "Si O2"
_cell_formula_units_Z 56
_cell_length_a 14.372703
_cell_length_b 23.145209
_cell_length_c 9.042249
_cell_angle_alpha 90.000000
_cell_angle_beta 76.916764
_cell_angle_gamma 90.000000
_cell_volume 2929.906839
_symmetry_space_group_name_H-M "C 2/M"
_symmetry_group_IT_number 12
_symmetry_cell_setting 'monoclinic'
loop_
_space_group_symop_operation_xyz
x,y,z
-x,y,-z
-x,-y,-z
x,-y,z
1/2+x,1/2+y,z
1/2-x,1/2+y,-z
1/2-x,1/2-y,-z
1/2+x,1/2-y,z
loop_
_atom_site_type_symbol
_atom_site_label
_atom_site_fract_x
_atom_site_fract_y
_atom_site_fract_z
Si Si1 0.905406 0.352259 0.131208
Si Si2 0.089336 0.067295 0.075747
Si Si3 0.856986 0.233540 0.290835
Si Si4 0.197195 0.566364 0.055604
Si Si5 0.857619 0.724019 0.630336
Si Si6 0.464917 0.893565 0.666484
Si Si7 0.966809 0.164065 0.681856
O O1 0.870575 0.288562 0.181917
O O2 0.943072 0.385781 0.262074
O O3 0.832459 0.389896 0.063327
O O4 0.000000 0.345856 0.000000
O O5 0.079082 0.110253 0.217868
O O6 0.086504 0.000000 0.124211
O O7 0.190562 0.075876 0.955930
O O8 0.000000 0.076990 0.000000
O O9 0.861669 0.259952 0.455519
O O10 0.752102 0.208907 0.298601
O O11 0.941257 0.187067 0.260065
O O12 0.185576 0.500000 0.010550
O O13 0.122095 0.576179 0.215794
O O14 0.924671 0.670777 0.646806
O O15 0.894441 0.781568 0.698589
O O16 0.500000 0.920093 0.500000
O O17 0.000000 0.151856 0.500000
#
# Coordination Sequence:
#
# PCOD9183985 Si02
#       7
#     8   8   8   8   8   8   8
#     4  10  20  36  58  84 120 158 191 242 297 359
#     4  10  23  44  63  84 122 162 201 252 298 343
#     4  10  19  33  56  86 122 158 191 235 297 355
#     4  10  24  43  61  85 118 161 203 246 304 360
#     4  10  19  34  57  86 123 155 187 244 300 347
#     4  11  20  38  62  87 121 152 197 251 306 351
#     4  10  20  37  61  91 121 156 200 241 293 358
#
# _framework density 19.113236000000001
#
# number of rings (size 3 to 8) (size 9 to 14) (size 15 to 20)
#    0.000    1.857    2.857    1.286    2.000    3.714 
#    0.000    2.143    0.000    3.429    0.000    0.000 
#    0.000    0.000    0.000    0.000    0.000    0.000 
#
# Total GULP energy -156279.334380 kJ/mol
# GULP energy per Si atom -5581.404799 kJ/mol
# Density = 1.906973 g / cm^3
# Si number density = 19.113236 Si / 1000 Ang^3
#
#
#
# Elastic Constant Matrix: (Units=GPa)
#
#
# Indices 1 2 3 4 5 6 
#
# 1 112.9253 30.0705 26.6266 0.0000 -4.6658 0.0000
# 2 30.0705 79.7536 28.2664 0.0000 -2.8624 0.0000
# 3 26.6266 28.2664 59.9499 0.0000 -1.4252 0.0000
# 4 0.0000 0.0000 0.0000 35.7028 0.0000 -14.3586
# 5 -4.6658 -2.8624 -1.4252 0.0000 16.0326 0.0000
# 6 0.0000 0.0000 0.0000 -14.3586 0.0000 27.2713
#
#
#
# Elastic Compliance Matrix: (Units=1/GPa)
#
#
# Indices 1 2 3 4 5 6 
#
# 1 0.010446 -0.002680 -0.003322 0.000000 0.002266 0.000000
# 2 -0.002680 0.015810 -0.006229 0.000000 0.001489 0.000000
# 3 -0.003322 -0.006229 0.021088 0.000000 -0.000204 0.000000
# 4 0.000000 0.000000 0.000000 0.035533 0.000000 0.018708
# 5 0.002266 0.001489 -0.000204 0.000000 0.063280 0.000000
# 6 0.000000 0.000000 0.000000 0.018708 0.000000 0.046519
#
#
# Mechanical properties :
#
#
# Convention : Reuss Voigt Hill
#
# Bulk Modulus (GPa) = 43.70124 46.95065 45.32594
# Shear Modulus (GPa) = 22.24542 26.97901 24.61222
#
# Velocity S-wave (km/s) = 3.41526 3.76112 3.59235
# Velocity P-wave (km/s) = 6.20210 6.59387 6.40098
#
# Compressibility (1/GPa) = 0.02288265
#
# Stress axis : x y z
#
# Youngs Moduli (GPa) = 95.73066 63.25077 47.41996
#
# Poissons Ratio (x) = 0.16950 0.15754
# Poissons Ratio (y) = 0.25654 0.29537
# Poissons Ratio (z) = 0.31803 0.39398
#
# Static dielectric constant tensor:
#      x y z
#    x 1.689410 0.000000 0.013670 
#    y 0.000000 1.638990 0.000000 
#    z 0.013670 0.000000 1.701390 
# 
# From -- ./inp_files/65320.got.cif
#   From: 2010.05.17/outbox.cif.g08.bks.cpg/sg12_33_cif.got.tgz:65320.got - 2010.06.03 13:09:07.
