data_PCOD9183659
_publ_section_title
;
Structure prediction by ZEFSAII (Michael W. Deem and Ramdas Pophale) SiO2 
 PCOD9183659
Probable space group: C 2/M
;
_chemical_formula_sum "Si O2"
_cell_formula_units_Z 56
_cell_length_a 14.281250
_cell_length_b 15.354605
_cell_length_c 17.901741
_cell_angle_alpha 90.000000
_cell_angle_beta 129.972898
_cell_angle_gamma 90.000000
_cell_volume 3008.336407
_symmetry_space_group_name_H-M "C 2/M"
_symmetry_group_IT_number 12
_symmetry_cell_setting 'monoclinic'
loop_
_space_group_symop_operation_xyz
x,y,z
-x,y,-z
-x,-y,-z
x,-y,z
1/2+x,1/2+y,z
1/2-x,1/2+y,-z
1/2-x,1/2-y,-z
1/2+x,1/2-y,z
loop_
_atom_site_type_symbol
_atom_site_label
_atom_site_fract_x
_atom_site_fract_y
_atom_site_fract_z
Si Si1 0.874788 0.000000 0.829739
Si Si2 0.835034 0.000000 0.980104
Si Si3 0.616819 0.309338 0.207737
Si Si4 0.883437 0.902129 0.400670
Si Si5 0.185968 0.206737 0.777010
Si Si6 0.911235 0.751628 0.641647
Si Si7 0.328245 0.331607 0.063424
Si Si8 0.743014 0.600481 0.509800
O O1 0.846380 0.088602 0.771339
O O2 0.019912 0.000000 0.924243
O O3 0.815566 0.000000 0.881668
O O4 0.786531 0.086225 0.994215
O O5 0.696799 0.265090 0.183599
O O6 0.634176 0.260582 0.295720
O O7 0.470956 0.311579 0.120135
O O8 0.832701 0.855839 0.302757
O O9 0.787413 0.907287 0.418176
O O10 0.000000 0.857276 0.500000
O O11 0.922871 0.000000 0.398994
O O12 0.191677 0.156345 0.858285
O O13 0.057207 0.258017 0.716231
O O14 0.852394 0.671606 0.565466
O O15 0.867723 0.845008 0.585076
O O16 0.250000 0.250000 0.000000
O O17 0.759215 0.500000 0.490673
#
# Coordination Sequence:
#
# PCOD9183659 Si02
#       8
#     4   4   8   8   8   8   8   8
#     4   9  18  34  58  80 106 144 181 229 280 329
#     4   9  18  36  58  85 106 137 186 231 275 337
#     4  10  21  37  57  85 114 146 187 232 284 338
#     4  10  19  33  55  84 109 149 193 230 278 332
#     4  11  21  35  58  82 117 148 186 237 284 333
#     4  10  21  35  55  84 115 149 193 232 281 336
#     4  10  22  38  61  85 111 148 189 235 287 337
#     4  10  20  36  56  78 114 156 190 237 279 328
#
# _framework density 18.614940000000001
#
# number of rings (size 3 to 8) (size 9 to 14) (size 15 to 20)
#    0.000    2.000    2.857    0.857    2.000    1.714 
#    1.286    0.000    6.286    1.714    0.000    0.000 
#    0.000    0.000    0.000    0.000    0.000    0.000 
#
# Total GULP energy -155936.641728 kJ/mol
# GULP energy per Si atom -5569.165776 kJ/mol
# Density = 1.857257 g / cm^3
# Si number density = 18.614940 Si / 1000 Ang^3
#
#
#
# Elastic Constant Matrix: (Units=GPa)
#
#
# Indices 1 2 3 4 5 6 
#
# 1 89.1475 31.6315 14.5862 0.0000 -8.7657 0.0000
# 2 31.6315 116.8056 21.6834 0.0000 6.5648 0.0000
# 3 14.5862 21.6834 38.5936 0.0000 -5.5794 0.0000
# 4 0.0000 0.0000 0.0000 21.6095 0.0000 -0.5462
# 5 -8.7657 6.5648 -5.5794 0.0000 14.4218 0.0000
# 6 0.0000 0.0000 0.0000 -0.5462 0.0000 19.4167
#
#
#
# Elastic Compliance Matrix: (Units=1/GPa)
#
#
# Indices 1 2 3 4 5 6 
#
# 1 0.013840 -0.003991 -0.001599 0.000000 0.009610 0.000000
# 2 -0.003991 0.011385 -0.006343 0.000000 -0.010062 0.000000
# 3 -0.001599 -0.006343 0.032154 0.000000 0.014355 0.000000
# 4 0.000000 0.000000 0.000000 0.046309 0.000000 0.001303
# 5 0.009610 -0.010062 0.014355 0.000000 0.085315 0.000000
# 6 0.000000 0.000000 0.000000 0.001303 0.000000 0.051539
#
#
# Mechanical properties :
#
#
# Convention : Reuss Voigt Hill
#
# Bulk Modulus (GPa) = 29.83878 42.26099 36.04988
# Shear Modulus (GPa) = 18.14359 22.86597 20.50478
#
# Velocity S-wave (km/s) = 3.12537 3.50861 3.32252
# Velocity P-wave (km/s) = 5.39335 6.25826 5.84183
#
# Compressibility (1/GPa) = 0.03351344
#
# Stress axis : x y z
#
# Youngs Moduli (GPa) = 72.25358 87.83423 31.09999
#
# Poissons Ratio (x) = 0.35057 0.04973
# Poissons Ratio (y) = 0.28838 0.19726
# Poissons Ratio (z) = 0.11553 0.55712
#
# Static dielectric constant tensor:
#      x y z
#    x 1.678270 0.000000 -0.008290 
#    y 0.000000 1.665980 0.000000 
#    z -0.008290 0.000000 1.652460 
# 
# From -- ./inp_files/270416.got.cif
#   From: 2010.05.17/outbox.cif.g08.bks.cpg/sg12_136_cif.got.tgz:270416.got - 2010.06.03 13:09:07.
