data_PCOD9183081
_publ_section_title
;
Structure prediction by ZEFSAII (Michael W. Deem and Ramdas Pophale) SiO2 
 PCOD9183081
Probable space group: C 2/M
;
_chemical_formula_sum "Si O2"
_cell_formula_units_Z 56
_cell_length_a 21.627203
_cell_length_b 9.091752
_cell_length_c 16.195163
_cell_angle_alpha 90.000000
_cell_angle_beta 83.908450
_cell_angle_gamma 90.000000
_cell_volume 3166.460783
_symmetry_space_group_name_H-M "C 2/M"
_symmetry_group_IT_number 12
_symmetry_cell_setting 'monoclinic'
loop_
_space_group_symop_operation_xyz
x,y,z
-x,y,-z
-x,-y,-z
x,-y,z
1/2+x,1/2+y,z
1/2-x,1/2+y,-z
1/2-x,1/2-y,-z
1/2+x,1/2-y,z
loop_
_atom_site_type_symbol
_atom_site_label
_atom_site_fract_x
_atom_site_fract_y
_atom_site_fract_z
Si Si1 0.452173 0.822379 0.933183
Si Si2 0.980979 0.328215 0.411322
Si Si3 0.230745 0.670076 0.372256
Si Si4 0.691515 0.825580 0.052054
Si Si5 0.835068 0.332415 0.453006
Si Si6 0.185783 0.167176 0.222296
Si Si7 0.537966 0.330588 0.244246
O O1 0.379733 0.780348 0.962362
O O2 0.471044 0.751172 0.842540
O O3 0.453325 0.000000 0.924187
O O4 0.500000 0.782542 0.000000
O O5 0.000990 0.500000 0.404354
O O6 0.906494 0.322100 0.419742
O O7 0.000000 0.271902 0.500000
O O8 0.007423 0.245322 0.328060
O O9 0.231947 0.500000 0.346364
O O10 0.176152 0.688637 0.447766
O O11 0.293034 0.716402 0.411111
O O12 0.220540 0.776892 0.297762
O O13 0.697312 0.778051 0.146168
O O14 0.695579 0.000000 0.040390
O O15 0.750000 0.750000 0.000000
O O16 0.812942 0.500000 0.438260
O O17 0.112062 0.170097 0.248744
O O18 0.203233 0.000000 0.197192
O O19 0.517345 0.500000 0.239921
#
# Coordination Sequence:
#
# PCOD9183081 Si02
#       7
#     8   8   8   8   8   8   8
#     4   9  19  38  62  84 108 146 190 228 275 335
#     4  10  20  35  55  78 107 145 185 223 266 320
#     4  10  19  33  54  77 102 136 180 224 268 317
#     4  10  20  36  58  84 112 141 180 228 277 330
#     4   9  19  34  51  74 106 142 177 219 268 319
#     4  10  20  35  55  78 106 140 178 218 269 325
#     4  10  21  35  54  82 112 142 179 226 274 321
#
# _framework density 17.685361
#
# number of rings (size 3 to 8) (size 9 to 14) (size 15 to 20)
#    0.000    2.286    0.000    2.571    0.000    5.143 
#    2.571    0.000    0.000    0.000    0.000    0.000 
#    0.000    0.000    0.000    0.000    0.000    0.000 
#
# Total GULP energy -156119.426756 kJ/mol
# GULP energy per Si atom -5575.693813 kJ/mol
# Density = 1.764511 g / cm^3
# Si number density = 17.685361 Si / 1000 Ang^3
#
#
#
# Elastic Constant Matrix: (Units=GPa)
#
#
# Indices 1 2 3 4 5 6 
#
# 1 59.5995 32.7240 58.1742 0.0000 -13.0139 0.0000
# 2 32.7240 53.4513 39.9564 0.0000 -7.3509 0.0000
# 3 58.1742 39.9564 104.2024 0.0000 -4.1289 0.0000
# 4 0.0000 0.0000 0.0000 30.9778 0.0000 -1.4315
# 5 -13.0139 -7.3509 -4.1289 0.0000 28.1566 0.0000
# 6 0.0000 0.0000 0.0000 -1.4315 0.0000 19.7683
#
#
#
# Elastic Compliance Matrix: (Units=1/GPa)
#
#
# Indices 1 2 3 4 5 6 
#
# 1 0.047169 -0.010484 -0.021684 0.000000 0.015885 0.000000
# 2 -0.010484 0.029400 -0.005339 0.000000 0.002047 0.000000
# 3 -0.021684 -0.005339 0.023434 0.000000 -0.007980 0.000000
# 4 0.000000 0.000000 0.000000 0.032390 0.000000 0.002345
# 5 0.015885 0.002047 -0.007980 0.000000 0.042222 0.000000
# 6 0.000000 0.000000 0.000000 0.002345 0.000000 0.050756
#
#
# Mechanical properties :
#
#
# Convention : Reuss Voigt Hill
#
# Bulk Modulus (GPa) = 40.01924 53.21806 46.61865
# Shear Modulus (GPa) = 16.19626 21.54045 18.86836
#
# Velocity S-wave (km/s) = 3.02950 3.49375 3.26987
# Velocity P-wave (km/s) = 5.90887 6.81410 6.37757
#
# Compressibility (1/GPa) = 0.02498798
#
# Stress axis : x y z
#
# Youngs Moduli (GPa) = 21.20042 34.01378 42.67366
#
# Poissons Ratio (x) = 0.35659 0.92534
# Poissons Ratio (y) = 0.22226 0.22785
# Poissons Ratio (z) = 0.45971 0.18161
#
# Static dielectric constant tensor:
#      x y z
#    x 1.601400 0.000000 -0.004670 
#    y 0.000000 1.607690 0.000000 
#    z -0.004670 0.000000 1.592850 
# 
# From -- ./inp_files/231062.got.cif
#   From: 2010.05.17/outbox.cif.g08.bks.cpg/sg12_116_cif.got.tgz:231062.got - 2010.06.03 13:09:07.
