data_PCOD9183173
_publ_section_title
;
Structure prediction by ZEFSAII (Michael W. Deem and Ramdas Pophale) SiO2 
 PCOD9183173
Probable space group: C 2/M
;
_chemical_formula_sum "Si O2"
_cell_formula_units_Z 56
_cell_length_a 24.861623
_cell_length_b 15.415417
_cell_length_c 28.898039
_cell_angle_alpha 90.000000
_cell_angle_beta 164.444002
_cell_angle_gamma 90.000000
_cell_volume 2970.158306
_symmetry_space_group_name_H-M "C 2/M"
_symmetry_group_IT_number 12
_symmetry_cell_setting 'monoclinic'
loop_
_space_group_symop_operation_xyz
x,y,z
-x,y,-z
-x,-y,-z
x,-y,z
1/2+x,1/2+y,z
1/2-x,1/2+y,-z
1/2-x,1/2-y,-z
1/2+x,1/2-y,z
loop_
_atom_site_type_symbol
_atom_site_label
_atom_site_fract_x
_atom_site_fract_y
_atom_site_fract_z
Si Si1 0.288646 0.598338 0.350253
Si Si2 0.666020 0.325026 0.333710
Si Si3 0.203871 0.237624 0.148097
Si Si4 0.426141 0.597495 0.218447
Si Si5 0.961361 0.602350 0.414643
Si Si6 0.092028 0.846121 0.451694
Si Si7 0.431118 0.231055 0.060350
O O1 0.500000 0.618511 0.500000
O O2 0.230270 0.500000 0.288312
O O3 0.323057 0.601847 0.434268
O O4 0.120080 0.670913 0.201587
O O5 0.565627 0.380298 0.290625
O O6 0.840952 0.374983 0.451224
O O7 0.767300 0.238027 0.438552
O O8 0.505243 0.291792 0.163013
O O9 0.283988 0.158060 0.244861
O O10 0.377968 0.308586 0.290856
O O11 0.153054 0.215368 0.052878
O O12 0.000000 0.273358 0.000000
O O13 0.346653 0.500000 0.149227
O O14 0.552224 0.606873 0.370502
O O15 0.245172 0.666171 0.070319
O O16 0.920380 0.500000 0.379541
O O17 0.000000 0.628431 0.500000
#
# Coordination Sequence:
#
# PCOD9183173 Si02
#       7
#     8   8   8   8   8   8   8
#     4  10  19  33  54  80 111 145 180 220 267 315
#     4  10  20  37  58  76 103 144 184 216 261 323
#     4  10  19  33  54  79 107 139 172 212 264 317
#     4  11  21  35  54  77 107 139 177 226 275 314
#     4  10  21  37  57  82 109 137 175 221 266 314
#     4   9  20  34  53  78 105 140 184 223 258 314
#     4  10  21  35  53  79 108 139 178 220 262 318
#
# _framework density 18.854213999999999
#
# number of rings (size 3 to 8) (size 9 to 14) (size 15 to 20)
#    0.000    2.000    0.000    3.857    0.000    4.286 
#    0.000    1.429    0.000    6.857    0.000    0.000 
#    0.000    0.000    0.000    0.000    0.000    0.000 
#
# Total GULP energy -156324.559554 kJ/mol
# GULP energy per Si atom -5583.019984 kJ/mol
# Density = 1.881130 g / cm^3
# Si number density = 18.854214 Si / 1000 Ang^3
#
#
#
# Elastic Constant Matrix: (Units=GPa)
#
#
# Indices 1 2 3 4 5 6 
#
# 1 79.3191 21.6331 24.2343 0.0739 -8.4810 0.0268
# 2 21.6331 51.4816 14.1122 0.0513 -17.6616 0.0139
# 3 24.2343 14.1122 71.0668 0.1005 -19.1620 0.0213
# 4 0.0739 0.0513 0.1005 -3.9521 -0.0145 -13.5153
# 5 -8.4810 -17.6616 -19.1620 -0.0145 25.9768 0.0012
# 6 0.0268 0.0139 0.0213 -13.5153 0.0012 14.0634
#
#
#
# Elastic Compliance Matrix: (Units=1/GPa)
#
#
# Indices 1 2 3 4 5 6 
#
# 1 0.015441 -0.006076 -0.004760 0.000036 -0.002601 0.000018
# 2 -0.006076 0.027737 0.001390 0.000066 0.017901 0.000044
# 3 -0.004760 0.001390 0.019041 0.000103 0.013437 0.000076
# 4 0.000036 0.000066 0.000103 -0.059028 0.000102 -0.056728
# 5 -0.002601 0.017901 0.013437 0.000102 0.059729 0.000060
# 6 0.000018 0.000044 0.000076 -0.056728 0.000060 0.016589
#
#
# Mechanical properties :
#
#
# Convention : Reuss Voigt Hill
#
# Bulk Modulus (GPa) = 23.07979 35.75852 29.41916
# Shear Modulus (GPa) = 44.30910 16.67681 30.49296
#
# Velocity S-wave (km/s) = 4.85303 2.97730 4.02593
# Velocity P-wave (km/s) = 6.60835 5.55212 6.10313
#
# Compressibility (1/GPa) = 0.04332794
#
# Stress axis : x y z
#
# Youngs Moduli (GPa) = 64.76417 36.05238 52.51704
#
# Poissons Ratio (x) = 0.21905 0.25000
# Poissons Ratio (y) = 0.39350 -0.07302
# Poissons Ratio (z) = 0.30830 -0.05013
#
# Static dielectric constant tensor:
#      x y z
#    x 1.654670 -0.000010 -0.012010 
#    y -0.000010 1.631430 -0.000040 
#    z -0.012010 -0.000040 1.649520 
# 
# From -- ./inp_files/347819.got.cif
#   From: 2010.05.17/outbox.cif.g08.bks.cpg/sg12_174_cif.got.tgz:347819.got - 2010.06.03 13:09:07.
