data_PCOD9183036
_publ_section_title
;
Structure prediction by ZEFSAII (Michael W. Deem and Ramdas Pophale) SiO2 
 PCOD9183036
Probable space group: C 2/M
;
_chemical_formula_sum "Si O2"
_cell_formula_units_Z 32
_cell_length_a 19.172328
_cell_length_b 14.506351
_cell_length_c 5.381078
_cell_angle_alpha 90.000000
_cell_angle_beta 69.010744
_cell_angle_gamma 90.000000
_cell_volume 1397.286005
_symmetry_space_group_name_H-M "C 2/M"
_symmetry_group_IT_number 12
_symmetry_cell_setting 'monoclinic'
loop_
_space_group_symop_operation_xyz
x,y,z
-x,y,-z
-x,-y,-z
x,-y,z
1/2+x,1/2+y,z
1/2-x,1/2+y,-z
1/2-x,1/2-y,-z
1/2+x,1/2-y,z
loop_
_atom_site_type_symbol
_atom_site_label
_atom_site_fract_x
_atom_site_fract_y
_atom_site_fract_z
Si Si1 0.212419 0.352580 0.523024
Si Si2 0.273400 0.357957 0.945763
Si Si3 0.953616 0.703879 0.299534
Si Si4 0.579027 0.399039 0.535415
O O1 0.250000 0.250000 0.500000
O O2 0.225147 0.394766 0.776977
O O3 0.125249 0.346987 0.572891
O O4 0.255460 0.396896 0.237958
O O5 0.357519 0.373007 0.746384
O O6 0.250000 0.250000 0.000000
O O7 0.928900 0.810503 0.279506
O O8 0.000000 0.699846 0.500000
O O9 0.000000 0.672278 0.000000
O O10 0.500000 0.405090 0.500000
O O11 0.595279 0.500000 0.624538
#
# Coordination Sequence:
#
# PCOD9183036 Si02
#       4
#     8   8   8   8
#     4  10  19  33  54  76 100 142 183 239 267 304
#     4  10  19  35  56  74 103 147 189 233 263 310
#     4  11  22  34  54  79 113 147 183 224 276 332
#     4  10  22  36  53  81 121 157 181 216 274 342
#
# _framework density 22.901539
#
# number of rings (size 3 to 8) (size 9 to 14) (size 15 to 20)
#    0.000    1.750    5.000    1.500   10.500    0.500 
#    0.000    6.250    0.000    0.000    0.000    0.000 
#    0.000   27.000    0.000    0.000    0.000    0.000 
#
# Total GULP energy -89288.436311 kJ/mol
# GULP energy per Si atom -5580.527269 kJ/mol
# Density = 2.284941 g / cm^3
# Si number density = 22.901539 Si / 1000 Ang^3
#
#
#
# Elastic Constant Matrix: (Units=GPa)
#
#
# Indices 1 2 3 4 5 6 
#
# 1 157.3298 16.3967 71.7281 0.0000 -17.1751 0.0000
# 2 16.3967 54.8539 -6.1405 0.0000 -2.2811 0.0000
# 3 71.7281 -6.1405 139.6867 0.0000 8.1460 0.0000
# 4 0.0000 0.0000 0.0000 -81.2392 0.0000 109.1195
# 5 -17.1751 -2.2811 8.1460 0.0000 57.2170 0.0000
# 6 0.0000 0.0000 0.0000 109.1195 0.0000 -161.9449
#
#
#
# Elastic Compliance Matrix: (Units=1/GPa)
#
#
# Indices 1 2 3 4 5 6 
#
# 1 0.009438 -0.003259 -0.005190 0.000000 0.003442 0.000000
# 2 -0.003259 0.019468 0.002562 0.000000 -0.000567 0.000000
# 3 -0.005190 0.002562 0.010105 0.000000 -0.002895 0.000000
# 4 0.000000 0.000000 0.000000 -0.129638 0.000000 -0.087351
# 5 0.003442 -0.000567 -0.002895 0.000000 0.018900 0.000000
# 6 0.000000 0.000000 0.000000 -0.087351 0.000000 -0.065033
#
#
# Mechanical properties :
#
#
# Convention : Reuss Voigt Hill
#
# Bulk Modulus (GPa) = 36.71464 57.31545 47.01504
# Shear Modulus (GPa) = -43.13798 -19.20101 -31.16949
#
# Velocity S-wave (km/s) = -4.34479 -2.89868 -3.69321
# Velocity P-wave (km/s) = 3.01716 3.72533 1.54513
#
# Compressibility (1/GPa) = 0.02723709
#
# Stress axis : x y z
#
# Youngs Moduli (GPa) = 105.95780 51.36730 98.95666
#
# Poissons Ratio (x) = 0.16740 0.51360
# Poissons Ratio (y) = 0.34531 -0.25355
# Poissons Ratio (z) = 0.54994 -0.13162
#
# Static dielectric constant tensor:
#      x y z
#    x 2.050080 0.000000 0.091370 
#    y 0.000000 1.849200 0.000000 
#    z 0.091370 0.000000 1.885770 
# 
# From -- ./inp_files/10221.got.cif
#   From: 2010.05.17/outbox.cif.g08.bks.cpg/sg12_6_cif.got.tgz:10221.got - 2010.06.03 13:09:07.
