data_PCOD9183217
_publ_section_title
;
Structure prediction by ZEFSAII (Michael W. Deem and Ramdas Pophale) SiO2 
 PCOD9183217
Probable space group: C 2/M
;
_chemical_formula_sum "Si O2"
_cell_formula_units_Z 56
_cell_length_a 32.537410
_cell_length_b 7.591398
_cell_length_c 12.111120
_cell_angle_alpha 90.000000
_cell_angle_beta 122.967124
_cell_angle_gamma 90.000000
_cell_volume 2509.817704
_symmetry_space_group_name_H-M "C 2/M"
_symmetry_group_IT_number 12
_symmetry_cell_setting 'monoclinic'
loop_
_space_group_symop_operation_xyz
x,y,z
-x,y,-z
-x,-y,-z
x,-y,z
1/2+x,1/2+y,z
1/2-x,1/2+y,-z
1/2-x,1/2-y,-z
1/2+x,1/2-y,z
loop_
_atom_site_type_symbol
_atom_site_label
_atom_site_fract_x
_atom_site_fract_y
_atom_site_fract_z
Si Si1 0.054015 0.798672 0.071619
Si Si2 0.571339 0.792926 0.339543
Si Si3 0.020244 0.213031 0.648640
Si Si4 0.244155 0.788478 0.362700
Si Si5 0.340256 0.210580 0.378083
Si Si6 0.868133 0.788726 0.172962
Si Si7 0.149741 0.216317 0.093208
O O1 0.074407 0.798414 0.225887
O O2 0.096444 0.722138 0.056924
O O3 0.046317 0.000000 0.020396
O O4 0.000000 0.715130 0.000000
O O5 0.517707 0.769635 0.313371
O O6 0.611382 0.724891 0.486110
O O7 0.579854 0.000000 0.333071
O O8 0.075657 0.276113 0.744262
O O9 0.000000 0.271639 0.500000
O O10 0.020767 0.000000 0.649770
O O11 0.250000 0.750000 0.500000
O O12 0.291137 0.720773 0.363779
O O13 0.193343 0.723151 0.236240
O O14 0.243613 0.000000 0.349743
O O15 0.343538 0.245076 0.253028
O O16 0.340504 0.000000 0.391285
O O17 0.870479 0.000000 0.171126
O O18 0.842663 0.730133 0.022642
O O19 0.148771 0.000000 0.096803
#
# Coordination Sequence:
#
# PCOD9183217 Si02
#       7
#     8   8   8   8   8   8   8
#     4  10  20  36  58  81 108 141 182 230 276 322
#     4  11  22  34  52  79 113 147 181 223 273 329
#     4  10  19  33  54  80 109 144 185 226 266 314
#     4  10  21  39  60  81 108 142 182 226 273 323
#     4  10  22  37  53  79 114 146 177 222 275 322
#     4  10  20  36  58  83 110 141 184 227 268 324
#     4   9  19  36  58  82 108 142 181 228 276 318
#
# _framework density 22.312377000000001
#
# number of rings (size 3 to 8) (size 9 to 14) (size 15 to 20)
#    0.000    2.000    1.429    2.143    0.000    5.143 
#    0.000    1.429    0.000    0.000    0.000    0.000 
#    0.000    0.000    0.000    0.000    0.000    0.000 
#
# Total GULP energy -156504.637887 kJ/mol
# GULP energy per Si atom -5589.451353 kJ/mol
# Density = 2.226159 g / cm^3
# Si number density = 22.312377 Si / 1000 Ang^3
#
#
#
# Elastic Constant Matrix: (Units=GPa)
#
#
# Indices 1 2 3 4 5 6 
#
# 1 166.8994 -2.1578 73.8230 0.0000 -3.5388 0.0000
# 2 -2.1578 50.8552 -1.2601 0.0000 7.1357 0.0000
# 3 73.8230 -1.2601 154.0978 0.0000 -5.5622 0.0000
# 4 0.0000 0.0000 0.0000 19.6328 0.0000 -5.7079
# 5 -3.5388 7.1357 -5.5622 0.0000 36.4892 0.0000
# 6 0.0000 0.0000 0.0000 -5.7079 0.0000 -5.8613
#
#
#
# Elastic Compliance Matrix: (Units=1/GPa)
#
#
# Indices 1 2 3 4 5 6 
#
# 1 0.007606 0.000213 -0.003637 0.000000 0.000142 0.000000
# 2 0.000213 0.020224 -0.000079 0.000000 -0.003946 0.000000
# 3 -0.003637 -0.000079 0.008264 0.000000 0.000922 0.000000
# 4 0.000000 0.000000 0.000000 0.039696 0.000000 -0.038657
# 5 0.000142 -0.003946 0.000922 0.000000 0.028331 0.000000
# 6 0.000000 0.000000 0.000000 -0.038657 0.000000 -0.132966
#
#
# Mechanical properties :
#
#
# Convention : Reuss Voigt Hill
#
# Bulk Modulus (GPa) = 34.37782 56.96253 45.67017
# Shear Modulus (GPa) = -411.83049 30.14865 -190.84092
#
# Velocity S-wave (km/s) = -13.60057 3.67986 -9.25835
# Velocity P-wave (km/s) = 15.20504 6.60607 9.68383
#
# Compressibility (1/GPa) = 0.02908852
#
# Stress axis : x y z
#
# Youngs Moduli (GPa) = 131.47363 49.44503 121.00115
#
# Poissons Ratio (x) = -0.01052 0.44008
# Poissons Ratio (y) = -0.02797 0.00956
# Poissons Ratio (z) = 0.47816 0.00391
#
# Static dielectric constant tensor:
#      x y z
#    x 1.793550 0.000000 0.018760 
#    y 0.000000 1.868550 0.000000 
#    z 0.018760 0.000000 1.808470 
# 
# From -- ./inp_files/187776.got.cif
#   From: 2010.05.17/outbox.cif.g08.bks.cpg/sg12_94_cif.got.tgz:187776.got - 2010.06.03 13:09:07.
