data_PCOD9183548
_publ_section_title
;
Structure prediction by ZEFSAII (Michael W. Deem and Ramdas Pophale) SiO2 
 PCOD9183548
Probable space group: C 2/M
;
_chemical_formula_sum "Si O2"
_cell_formula_units_Z 56
_cell_length_a 20.789545
_cell_length_b 11.008589
_cell_length_c 25.601649
_cell_angle_alpha 90.000000
_cell_angle_beta 29.561984
_cell_angle_gamma 90.000000
_cell_volume 2890.764955
_symmetry_space_group_name_H-M "C 2/M"
_symmetry_group_IT_number 12
_symmetry_cell_setting 'monoclinic'
loop_
_space_group_symop_operation_xyz
x,y,z
-x,y,-z
-x,-y,-z
x,-y,z
1/2+x,1/2+y,z
1/2-x,1/2+y,-z
1/2-x,1/2-y,-z
1/2+x,1/2-y,z
loop_
_atom_site_type_symbol
_atom_site_label
_atom_site_fract_x
_atom_site_fract_y
_atom_site_fract_z
Si Si1 0.370285 0.251979 0.980860
Si Si2 0.952272 0.221572 0.335563
Si Si3 0.131119 0.873361 0.124158
Si Si4 0.853670 0.358700 0.579752
Si Si5 0.636054 0.356977 0.824543
Si Si6 0.278695 0.359408 0.552594
Si Si7 0.705754 0.861745 0.184578
O O1 0.383718 0.273431 0.909614
O O2 0.514843 0.268204 0.900198
O O3 0.271170 0.138759 0.053420
O O4 0.282566 0.346794 0.075889
O O5 0.863145 0.320075 0.368675
O O6 0.869508 0.152420 0.437279
O O7 0.016301 0.138004 0.246369
O O8 0.075188 0.284710 0.275803
O O9 0.122177 0.000000 0.101491
O O10 0.844028 0.500000 0.565822
O O11 0.745759 0.348447 0.701988
O O12 0.824169 0.248682 0.560103
O O13 0.000000 0.346301 0.500000
O O14 0.593620 0.500000 0.856092
O O15 0.699945 0.325936 0.834851
O O16 0.281204 0.500000 0.570048
O O17 0.669002 0.000000 0.219579
#
# Coordination Sequence:
#
# PCOD9183548 Si02
#       7
#     8   8   8   8   8   8   8
#     4  10  20  32  52  82 108 137 178 226 278 331
#     4  10  22  37  56  81 113 151 189 229 282 346
#     4  10  20  36  55  76 109 148 184 225 278 338
#     4  10  22  40  61  85 115 154 196 237 286 344
#     4  10  19  33  55  81 110 144 183 229 283 337
#     4  11  23  38  59  87 117 150 192 242 292 341
#     4  10  19  33  55  81 110 142 181 232 280 329
#
# _framework density 19.372035
#
# number of rings (size 3 to 8) (size 9 to 14) (size 15 to 20)
#    0.000    1.857    0.000    4.286    0.000    7.143 
#    0.000    5.714    0.000    8.571    0.000    0.000 
#    0.000    0.000    0.000    0.000    0.000    0.000 
#
# Total GULP energy -155983.660736 kJ/mol
# GULP energy per Si atom -5570.845026 kJ/mol
# Density = 1.932794 g / cm^3
# Si number density = 19.372035 Si / 1000 Ang^3
#
#
#
# Elastic Constant Matrix: (Units=GPa)
#
#
# Indices 1 2 3 4 5 6 
#
# 1 84.6020 38.4398 23.1159 0.0001 -2.7081 0.0000
# 2 38.4398 85.7377 24.3875 0.0000 -0.8219 0.0000
# 3 23.1159 24.3875 93.1183 -0.0002 -6.5297 0.0000
# 4 0.0001 0.0000 -0.0002 -14.6215 0.0001 13.2383
# 5 -2.7081 -0.8219 -6.5297 0.0001 28.7748 0.0000
# 6 0.0000 0.0000 0.0000 13.2383 0.0000 19.4611
#
#
#
# Elastic Compliance Matrix: (Units=1/GPa)
#
#
# Indices 1 2 3 4 5 6 
#
# 1 0.015251 -0.006233 -0.002099 0.000000 0.000781 0.000000
# 2 -0.006233 0.015154 -0.002472 0.000000 -0.000715 0.000000
# 3 -0.002099 -0.002472 0.012081 0.000000 0.002473 0.000000
# 4 0.000000 0.000000 0.000000 -0.042325 0.000000 0.028791
# 5 0.000781 -0.000715 0.002473 0.000000 0.035367 0.000000
# 6 0.000000 0.000000 0.000000 0.028791 0.000000 0.031799
#
#
# Mechanical properties :
#
#
# Convention : Reuss Voigt Hill
#
# Bulk Modulus (GPa) = 47.89542 48.37160 48.13351
# Shear Modulus (GPa) = 52.14126 18.55719 35.34923
#
# Velocity S-wave (km/s) = 5.19367 3.09841 4.27635
# Velocity P-wave (km/s) = 7.79379 6.15014 7.02024
#
# Compressibility (1/GPa) = 0.02087882
#
# Stress axis : x y z
#
# Youngs Moduli (GPa) = 65.57159 65.98824 82.77620
#
# Poissons Ratio (x) = 0.41131 0.17372
# Poissons Ratio (y) = 0.40871 0.20460
# Poissons Ratio (z) = 0.13761 0.16310
#
# Static dielectric constant tensor:
#      x y z
#    x 1.700440 0.000000 -0.008530 
#    y 0.000000 1.711980 0.000000 
#    z -0.008530 0.000000 1.679080 
# 
# From -- ./inp_files/346982.got.cif
#   From: 2010.05.17/outbox.cif.g08.bks.cpg/sg12_174_cif.got.tgz:346982.got - 2010.06.03 13:09:07.
