data_PCOD9183675
_publ_section_title
;
Structure prediction by ZEFSAII (Michael W. Deem and Ramdas Pophale) SiO2 
 PCOD9183675
Probable space group: C 2/M
;
_chemical_formula_sum "Si O2"
_cell_formula_units_Z 56
_cell_length_a 22.938585
_cell_length_b 8.797958
_cell_length_c 30.426553
_cell_angle_alpha 90.000000
_cell_angle_beta 27.861981
_cell_angle_gamma 90.000000
_cell_volume 2869.705088
_symmetry_space_group_name_H-M "C 2/M"
_symmetry_group_IT_number 12
_symmetry_cell_setting 'monoclinic'
loop_
_space_group_symop_operation_xyz
x,y,z
-x,y,-z
-x,-y,-z
x,-y,z
1/2+x,1/2+y,z
1/2-x,1/2+y,-z
1/2-x,1/2-y,-z
1/2+x,1/2-y,z
loop_
_atom_site_type_symbol
_atom_site_label
_atom_site_fract_x
_atom_site_fract_y
_atom_site_fract_z
Si Si1 0.874002 0.681127 0.222080
Si Si2 0.250949 0.682246 0.385631
Si Si3 0.259741 0.818112 0.871851
Si Si4 0.746969 0.682452 0.216553
Si Si5 0.140971 0.818922 0.043094
Si Si6 0.534699 0.317447 0.687176
Si Si7 0.971834 0.317153 0.402099
O O1 0.883355 0.500000 0.217768
O O2 0.773670 0.738125 0.324267
O O3 0.833356 0.725316 0.199935
O O4 0.006933 0.753480 0.144736
O O5 0.251552 0.500000 0.379018
O O6 0.366090 0.720593 0.341314
O O7 0.124287 0.723506 0.495385
O O8 0.212828 0.750617 0.857052
O O9 0.397258 0.748270 0.788359
O O10 0.271677 0.000000 0.860129
O O11 0.172920 0.782081 0.971084
O O12 0.741320 0.500000 0.217056
O O13 0.608418 0.746965 0.317656
O O14 0.140269 0.000000 0.048720
O O15 0.250000 0.750000 0.000000
O O16 0.527389 0.500000 0.688194
O O17 0.574221 0.246969 0.614074
O O18 0.980119 0.500000 0.393931
#
# Coordination Sequence:
#
# PCOD9183675 Si02
#       7
#     8   8   8   8   8   8   8
#     4  11  25  41  59  83 113 150 192 236 282 334
#     4  10  22  37  55  82 115 152 192 234 286 339
#     4  10  21  37  59  86 113 147 187 230 280 334
#     4  10  22  40  59  83 113 148 191 236 282 334
#     4  11  24  41  63  90 119 149 185 228 279 337
#     4  10  19  33  55  84 116 149 185 230 282 337
#     4  10  20  35  57  84 113 149 191 235 283 338
#
# _framework density 19.514201
#
# number of rings (size 3 to 8) (size 9 to 14) (size 15 to 20)
#    0.000    1.714    0.000    5.571    0.000   10.286 
#    0.000    5.714    0.000    0.000    0.000    0.000 
#    0.000    0.000    0.000    0.000    0.000    0.000 
#
# Total GULP energy -156534.757944 kJ/mol
# GULP energy per Si atom -5590.527069 kJ/mol
# Density = 1.946979 g / cm^3
# Si number density = 19.514201 Si / 1000 Ang^3
#
#
#
# Elastic Constant Matrix: (Units=GPa)
#
#
# Indices 1 2 3 4 5 6 
#
# 1 80.1179 28.0861 14.2632 -0.0029 5.8606 0.0033
# 2 28.0861 44.5715 18.8009 -0.0046 9.9864 0.0024
# 3 14.2632 18.8009 56.9760 -0.0015 24.1554 0.0029
# 4 -0.0029 -0.0046 -0.0015 20.5238 0.0009 6.0775
# 5 5.8606 9.9864 24.1554 0.0009 25.0040 -0.0019
# 6 0.0033 0.0024 0.0029 6.0775 -0.0019 30.5182
#
#
#
# Elastic Compliance Matrix: (Units=1/GPa)
#
#
# Indices 1 2 3 4 5 6 
#
# 1 0.016086 -0.009884 -0.001424 0.000000 0.001553 -0.000001
# 2 -0.009884 0.032325 -0.006268 0.000006 -0.004538 -0.000002
# 3 -0.001424 -0.006268 0.031796 0.000003 -0.027880 -0.000005
# 4 0.000000 0.000006 0.000003 0.051777 -0.000008 -0.010311
# 5 0.001553 -0.004538 -0.027880 -0.000008 0.068376 0.000009
# 6 -0.000001 -0.000002 -0.000005 -0.010311 0.000009 0.034821
#
#
# Mechanical properties :
#
#
# Convention : Reuss Voigt Hill
#
# Bulk Modulus (GPa) = 22.19497 33.77399 27.98448
# Shear Modulus (GPa) = 17.52229 23.24356 20.38293
#
# Velocity S-wave (km/s) = 2.99979 3.45499 3.23541
# Velocity P-wave (km/s) = 4.83702 5.76723 5.32248
#
# Compressibility (1/GPa) = 0.04505525
#
# Stress axis : x y z
#
# Youngs Moduli (GPa) = 62.16429 30.93590 31.45070
#
# Poissons Ratio (x) = 0.30577 0.04478
# Poissons Ratio (y) = 0.61443 0.19714
# Poissons Ratio (z) = 0.08851 0.19391
#
# Static dielectric constant tensor:
#      x y z
#    x 1.678830 0.000000 0.010490 
#    y 0.000000 1.651100 0.000000 
#    z 0.010490 0.000000 1.663580 
# 
# From -- ./inp_files/380568.got.cif
#   From: 2010.05.17/outbox.cif.g08.bks.cpg/sg12_191_cif.got.tgz:380568.got - 2010.06.03 13:09:07.
