data_PCOD9183762
_publ_section_title
;
Structure prediction by ZEFSAII (Michael W. Deem and Ramdas Pophale) SiO2 
 PCOD9183762
Probable space group: C 2/M
;
_chemical_formula_sum "Si O2"
_cell_formula_units_Z 48
_cell_length_a 9.562438
_cell_length_b 13.943566
_cell_length_c 23.515512
_cell_angle_alpha 90.000000
_cell_angle_beta 34.791774
_cell_angle_gamma 90.000000
_cell_volume 1789.062031
_symmetry_space_group_name_H-M "C 2/M"
_symmetry_group_IT_number 12
_symmetry_cell_setting 'monoclinic'
loop_
_space_group_symop_operation_xyz
x,y,z
-x,y,-z
-x,-y,-z
x,-y,z
1/2+x,1/2+y,z
1/2-x,1/2+y,-z
1/2-x,1/2-y,-z
1/2+x,1/2-y,z
loop_
_atom_site_type_symbol
_atom_site_label
_atom_site_fract_x
_atom_site_fract_y
_atom_site_fract_z
Si Si1 0.705191 0.397495 0.602701
Si Si2 0.211941 0.311622 0.598611
Si Si3 0.055753 0.605319 0.762801
Si Si4 0.499663 0.109220 0.090223
Si Si5 0.718673 0.606335 0.730398
Si Si6 0.052563 0.181248 0.899964
O O1 0.616189 0.500000 0.609037
O O2 0.646130 0.294254 0.596984
O O3 0.641325 0.391602 0.690904
O O4 0.000000 0.400491 0.500000
O O5 0.500000 0.331922 0.500000
O O6 0.156665 0.318746 0.684500
O O7 0.013137 0.379666 0.635460
O O8 0.118605 0.500000 0.719078
O O9 0.121173 0.609072 0.806797
O O10 0.764195 0.618609 0.856712
O O11 0.411092 0.208687 0.091545
O O12 0.467826 0.000000 0.078083
O O13 0.788404 0.135346 0.998865
O O14 0.656101 0.500000 0.772747
O O15 0.600035 0.677237 0.815839
#
# Coordination Sequence:
#
# PCOD9183762 Si02
#       6
#     8   8   8   8   8   8
#     4   9  19  35  52  71  99 136 174 210 254 308
#     4  10  20  33  54  78 103 134 175 218 256 298
#     4  10  20  35  54  77 106 138 173 211 255 308
#     4  10  20  34  55  81 106 134 171 214 256 302
#     4  10  20  35  54  76 104 137 173 211 255 309
#     4  10  19  33  56  79 105 137 172 209 255 309
#
# _framework density 26.829702000000001
#
# number of rings (size 3 to 8) (size 9 to 14) (size 15 to 20)
#    0.000    2.167    0.000    4.500    0.000    5.333 
#    0.000    3.333    0.000   24.000    0.000    0.000 
#    0.000    0.000    0.000    0.000    0.000    0.000 
#
# Total GULP energy -134281.466448 kJ/mol
# GULP energy per Si atom -5595.061102 kJ/mol
# Density = 2.676864 g / cm^3
# Si number density = 26.829702 Si / 1000 Ang^3
#
#
#
# Elastic Constant Matrix: (Units=GPa)
#
#
# Indices 1 2 3 4 5 6 
#
# 1 88.3657 -6.2079 21.1784 -0.0010 -9.8226 0.0015
# 2 -6.2079 194.3467 6.4051 0.0005 -0.2901 -0.0009
# 3 21.1784 6.4051 92.8482 -0.0010 -3.9497 0.0035
# 4 -0.0010 0.0005 -0.0010 34.0274 0.0024 -2.8375
# 5 -9.8226 -0.2901 -3.9497 0.0024 43.2169 -0.0022
# 6 0.0015 -0.0009 0.0035 -2.8375 -0.0022 5.6871
#
#
#
# Elastic Compliance Matrix: (Units=1/GPa)
#
#
# Indices 1 2 3 4 5 6 
#
# 1 0.012288 0.000486 -0.002728 0.000000 0.002547 0.000000
# 2 0.000486 0.005176 -0.000464 0.000000 0.000103 0.000001
# 3 -0.002728 -0.000464 0.011442 0.000000 0.000423 -0.000006
# 4 0.000000 0.000000 0.000000 0.030664 -0.000001 0.015299
# 5 0.002547 0.000103 0.000423 -0.000001 0.023757 0.000008
# 6 0.000000 0.000001 -0.000006 0.015299 0.000008 0.183468
#
#
# Mechanical properties :
#
#
# Convention : Reuss Voigt Hill
#
# Bulk Modulus (GPa) = 42.56087 46.47908 44.51997
# Shear Modulus (GPa) = 17.85468 40.19863 29.02666
#
# Velocity S-wave (km/s) = 2.58249 3.87497 3.29277
# Velocity P-wave (km/s) = 4.97897 6.11407 5.57548
#
# Compressibility (1/GPa) = 0.02349576
#
# Stress axis : x y z
#
# Youngs Moduli (GPa) = 81.38242 193.18423 87.39367
#
# Poissons Ratio (x) = -0.09393 0.23841
# Poissons Ratio (y) = -0.03957 0.04052
# Poissons Ratio (z) = 0.22201 0.08956
#
# Static dielectric constant tensor:
#      x y z
#    x 2.075230 0.000000 0.002210 
#    y 0.000000 2.050460 0.000000 
#    z 0.002210 0.000000 2.071450 
# 
# From -- ./inp_files/358336.got.cif
#   From: 2010.05.17/outbox.cif.g08.bks.cpg/sg12_180_cif.got.tgz:358336.got - 2010.06.03 13:09:07.
