data_PCOD9183857
_publ_section_title
;
Structure prediction by ZEFSAII (Michael W. Deem and Ramdas Pophale) SiO2 
 PCOD9183857
Probable space group: C 2/M
;
_chemical_formula_sum "Si O2"
_cell_formula_units_Z 44
_cell_length_a 29.182286
_cell_length_b 9.832379
_cell_length_c 15.985899
_cell_angle_alpha 90.000000
_cell_angle_beta 26.278142
_cell_angle_gamma 90.000000
_cell_volume 2030.734311
_symmetry_space_group_name_H-M "C 2/M"
_symmetry_group_IT_number 12
_symmetry_cell_setting 'monoclinic'
loop_
_space_group_symop_operation_xyz
x,y,z
-x,y,-z
-x,-y,-z
x,-y,z
1/2+x,1/2+y,z
1/2-x,1/2+y,-z
1/2-x,1/2-y,-z
1/2+x,1/2-y,z
loop_
_atom_site_type_symbol
_atom_site_label
_atom_site_fract_x
_atom_site_fract_y
_atom_site_fract_z
Si Si1 0.233053 0.500000 0.969175
Si Si2 0.854030 0.265094 0.508149
Si Si3 0.914608 0.300890 0.878119
Si Si4 0.612986 0.500000 0.138672
Si Si5 0.896150 0.846308 0.257168
Si Si6 0.129547 0.776543 0.878579
Si Si7 0.611511 0.500000 0.436235
O O1 0.160923 0.372753 0.063311
O O2 0.328281 0.500000 0.748695
O O3 0.281579 0.500000 0.981348
O O4 0.855295 0.211744 0.410709
O O5 0.744420 0.336612 0.704388
O O6 0.857938 0.133400 0.561340
O O7 0.965579 0.335783 0.335469
O O8 0.899008 0.138337 0.893971
O O9 0.884930 0.332629 0.023030
O O10 0.512954 0.500000 0.363596
O O11 0.872318 0.747873 0.218036
O O12 0.857728 0.000000 0.303171
O O13 0.020717 0.855041 0.063047
#
# Coordination Sequence:
#
# PCOD9183857 Si02
#       7
#     4   8   8   4   8   8   4
#     4  12  21  42  61  88 119 148 192 251 300 342
#     4  10  19  37  56  84 119 151 193 238 285 342
#     4  10  23  37  63  89 118 154 192 241 296 349
#     4  10  23  40  64  88 112 152 199 242 289 356
#     4  10  20  33  56  83 111 155 202 237 275 337
#     4  10  19  33  56  82 115 151 194 236 286 330
#     4  10  19  36  63  86 107 155 203 232 281 361
#
# _framework density 21.667038999999999
#
# number of rings (size 3 to 8) (size 9 to 14) (size 15 to 20)
#    0.000    1.818    2.727    2.455    5.091    0.000 
#    3.273    0.000    0.000    6.545    0.000    0.000 
#    0.000    0.000    0.000    0.000    0.000    0.000 
#
# Total GULP energy -122561.002676 kJ/mol
# GULP energy per Si atom -5570.954667 kJ/mol
# Density = 2.161772 g / cm^3
# Si number density = 21.667039 Si / 1000 Ang^3
#
#
#
# Elastic Constant Matrix: (Units=GPa)
#
#
# Indices 1 2 3 4 5 6 
#
# 1 89.6501 11.0192 32.5479 0.0000 -21.4527 0.0000
# 2 11.0192 68.7371 17.3163 0.0000 -9.7252 0.0000
# 3 32.5479 17.3163 150.8142 0.0000 -23.7270 0.0000
# 4 0.0000 0.0000 0.0000 5.8567 0.0000 0.0234
# 5 -21.4527 -9.7252 -23.7270 0.0000 38.8844 0.0000
# 6 0.0000 0.0000 0.0000 0.0234 0.0000 2.9968
#
#
#
# Elastic Compliance Matrix: (Units=1/GPa)
#
#
# Indices 1 2 3 4 5 6 
#
# 1 0.013371 -0.000824 -0.001839 0.000000 0.006048 0.000000
# 2 -0.000824 0.015352 -0.001164 0.000000 0.002675 0.000000
# 3 -0.001839 -0.001164 0.007695 0.000000 0.003389 0.000000
# 4 0.000000 0.000000 0.000000 0.170751 0.000000 -0.001333
# 5 0.006048 0.002675 0.003389 0.000000 0.031791 0.000000
# 6 0.000000 0.000000 0.000000 -0.001333 0.000000 0.333704
#
#
# Mechanical properties :
#
#
# Convention : Reuss Voigt Hill
#
# Bulk Modulus (GPa) = 34.76838 47.88534 41.32686
# Shear Modulus (GPa) = 8.47591 26.10211 17.28901
#
# Velocity S-wave (km/s) = 1.98000 3.47463 2.82785
# Velocity P-wave (km/s) = 4.61613 6.18433 5.45686
#
# Compressibility (1/GPa) = 0.02876176
#
# Stress axis : x y z
#
# Youngs Moduli (GPa) = 74.78915 65.13820 129.96282
#
# Poissons Ratio (x) = 0.05370 0.23906
# Poissons Ratio (y) = 0.06165 0.15128
# Poissons Ratio (z) = 0.13757 0.07582
#
# Static dielectric constant tensor:
#      x y z
#    x 1.780520 0.000000 -0.007150 
#    y 0.000000 1.821730 0.000000 
#    z -0.007150 0.000000 1.816530 
# 
# From -- ./inp_files/296402.got.cif
#   From: 2010.05.17/outbox.cif.g08.bks.cpg/sg12_149_cif.got.tgz:296402.got - 2010.06.03 13:09:07.
