data_PCOD9183384
_publ_section_title
;
Structure prediction by ZEFSAII (Michael W. Deem and Ramdas Pophale) SiO2 
 PCOD9183384
Probable space group: C 2/M
;
_chemical_formula_sum "Si O2"
_cell_formula_units_Z 48
_cell_length_a 15.020150
_cell_length_b 20.962237
_cell_length_c 21.436196
_cell_angle_alpha 90.000000
_cell_angle_beta 160.939938
_cell_angle_gamma 90.000000
_cell_volume 2204.050109
_symmetry_space_group_name_H-M "C 2/M"
_symmetry_group_IT_number 12
_symmetry_cell_setting 'monoclinic'
loop_
_space_group_symop_operation_xyz
x,y,z
-x,y,-z
-x,-y,-z
x,-y,z
1/2+x,1/2+y,z
1/2-x,1/2+y,-z
1/2-x,1/2-y,-z
1/2+x,1/2-y,z
loop_
_atom_site_type_symbol
_atom_site_label
_atom_site_fract_x
_atom_site_fract_y
_atom_site_fract_z
Si Si1 0.186899 0.432475 0.813868
Si Si2 0.725322 0.837060 0.048897
Si Si3 0.406768 0.362866 0.370394
Si Si4 0.826558 0.805883 0.971317
Si Si5 0.043889 0.711814 0.600967
Si Si6 0.189745 0.885655 0.430748
O O1 0.140566 0.500000 0.818037
O O2 0.167358 0.364759 0.835649
O O3 0.958573 0.429267 0.608679
O O4 0.500000 0.433951 0.000000
O O5 0.749702 0.766756 0.097781
O O6 0.940386 0.887730 0.217390
O O7 0.419617 0.863068 0.852921
O O8 0.780375 0.818440 0.013984
O O9 0.500000 0.387300 0.500000
O O10 0.480054 0.287714 0.416538
O O11 0.558254 0.392924 0.411845
O O12 0.152646 0.808016 0.177007
O O13 0.000000 0.689564 0.500000
O O14 0.821820 0.682037 0.499005
#
# Coordination Sequence:
#
# PCOD9183384 Si02
#       6
#     8   8   8   8   8   8
#     4  11  25  41  59  86 122 169 219 257 296 364
#     4  10  22  35  62  97 125 158 194 252 322 383
#     4  10  22  36  54  90 131 160 197 240 307 387
#     4  10  20  38  59  88 129 159 200 251 312 374
#     4  10  19  33  54  90 125 158 194 250 310 371
#     4  12  22  36  62  85 124 160 206 250 316 359
#
# _framework density 21.778089000000001
#
# number of rings (size 3 to 8) (size 9 to 14) (size 15 to 20)
#    0.000    1.500    3.333    2.000    7.000    0.000 
#    0.000    0.833    0.000    9.500    0.000    0.000 
#    0.000    0.000    0.000    0.000    0.000    0.000 
#
# Total GULP energy -133881.211169 kJ/mol
# GULP energy per Si atom -5578.383799 kJ/mol
# Density = 2.172852 g / cm^3
# Si number density = 21.778089 Si / 1000 Ang^3
#
#
#
# Elastic Constant Matrix: (Units=GPa)
#
#
# Indices 1 2 3 4 5 6 
#
# 1 64.5327 -9.1069 21.2870 0.0490 5.6790 0.0171
# 2 -9.1069 42.6630 34.6720 0.0344 -14.7421 0.0372
# 3 21.2870 34.6720 132.4043 -0.0744 8.9186 -0.0048
# 4 0.0490 0.0344 -0.0744 -15.8176 0.0081 -9.9757
# 5 5.6790 -14.7421 8.9186 0.0081 36.8856 -0.0046
# 6 0.0171 0.0372 -0.0048 -9.9757 -0.0046 -9.3776
#
#
#
# Elastic Compliance Matrix: (Units=1/GPa)
#
#
# Indices 1 2 3 4 5 6 
#
# 1 0.018410 0.009140 -0.005498 0.000178 0.002148 -0.000118
# 2 0.009140 0.043682 -0.014221 0.000248 0.019490 -0.000077
# 3 -0.005498 -0.014221 0.012693 -0.000207 -0.007906 0.000151
# 4 0.000178 0.000248 -0.000207 -0.192091 0.000190 0.204343
# 5 0.002148 0.019490 -0.007906 0.000190 0.036481 -0.000134
# 6 -0.000118 -0.000077 0.000151 0.204343 -0.000134 -0.324012
#
#
# Mechanical properties :
#
#
# Convention : Reuss Voigt Hill
#
# Bulk Modulus (GPa) = 18.64692 37.03379 27.84035
# Shear Modulus (GPa) = -13.66857 15.18792 0.75968
#
# Velocity S-wave (km/s) = -2.50797 2.64369 0.59126
# Velocity P-wave (km/s) = 0.44076 5.13427 3.64383
#
# Compressibility (1/GPa) = 0.05362817
#
# Stress axis : x y z
#
# Youngs Moduli (GPa) = 54.31732 22.89247 78.78376
#
# Poissons Ratio (x) = -0.20924 0.43315
# Poissons Ratio (y) = -0.49647 1.12039
# Poissons Ratio (z) = 0.29863 0.32555
#
# Static dielectric constant tensor:
#      x y z
#    x 1.840510 0.000000 -0.023240 
#    y 0.000000 1.809850 -0.000050 
#    z -0.023240 -0.000050 1.848440 
# 
# From -- ./inp_files/312508.got.cif
#   From: 2010.05.17/outbox.cif.g08.bks.cpg/sg12_157_cif.got.tgz:312508.got - 2010.06.03 13:09:07.
