data_PCOD9183957
_publ_section_title
;
Structure prediction by ZEFSAII (Michael W. Deem and Ramdas Pophale) SiO2 
 PCOD9183957
Probable space group: C 2/M
;
_chemical_formula_sum "Si O2"
_cell_formula_units_Z 56
_cell_length_a 14.447622
_cell_length_b 28.465587
_cell_length_c 11.999013
_cell_angle_alpha 90.000000
_cell_angle_beta 140.573199
_cell_angle_gamma 90.000000
_cell_volume 3133.997267
_symmetry_space_group_name_H-M "C 2/M"
_symmetry_group_IT_number 12
_symmetry_cell_setting 'monoclinic'
loop_
_space_group_symop_operation_xyz
x,y,z
-x,y,-z
-x,-y,-z
x,-y,z
1/2+x,1/2+y,z
1/2-x,1/2+y,-z
1/2-x,1/2-y,-z
1/2+x,1/2-y,z
loop_
_atom_site_type_symbol
_atom_site_label
_atom_site_fract_x
_atom_site_fract_y
_atom_site_fract_z
Si Si1 0.945587 0.352496 0.700146
Si Si2 0.157287 0.711720 0.597307
Si Si3 0.661437 0.799175 0.197986
Si Si4 0.827336 0.949052 0.850447
Si Si5 0.586267 0.054164 0.462799
Si Si6 0.245399 0.195765 0.957797
Si Si7 0.143737 0.149940 0.057917
O O1 0.871474 0.321572 0.534308
O O2 0.863003 0.341740 0.739385
O O3 0.947556 0.405815 0.657946
O O4 0.106438 0.331068 0.868815
O O5 0.261438 0.755655 0.669537
O O6 0.239517 0.681569 0.768331
O O7 0.000000 0.726382 0.500000
O O8 0.500000 0.785695 0.000000
O O9 0.758286 0.808258 0.178387
O O10 0.752705 0.941509 0.661066
O O11 0.797372 0.903162 0.894682
O O12 0.774152 0.000000 0.842646
O O13 0.000000 0.951630 0.000000
O O14 0.500000 0.062149 0.500000
O O15 0.562136 0.000000 0.405571
O O16 0.120155 0.171600 0.914474
O O17 0.250000 0.250000 0.000000
O O18 0.000000 0.150032 0.000000
#
# Coordination Sequence:
#
# PCOD9183957 Si02
#       7
#     8   8   8   8   8   8   8
#     4  11  21  35  57  79 112 142 184 229 270 330
#     4  12  20  35  52  80 111 138 176 229 278 314
#     4  10  23  38  53  73 104 154 187 216 264 327
#     4   9  18  33  52  81 111 137 171 218 275 330
#     4  10  19  33  56  85 115 143 177 229 289 329
#     4  11  21  37  54  73 108 147 184 225 267 326
#     4  11  21  33  57  79 108 140 179 219 273 333
#
# _framework density 17.868552999999999
#
# number of rings (size 3 to 8) (size 9 to 14) (size 15 to 20)
#    0.000    1.429    4.286    2.143    2.000    0.000 
#    2.571    0.000    0.000    4.714    0.000    0.000 
#    0.000    6.857    0.000    0.000    0.000    0.000 
#
# Total GULP energy -156149.775582 kJ/mol
# GULP energy per Si atom -5576.777699 kJ/mol
# Density = 1.782788 g / cm^3
# Si number density = 17.868553 Si / 1000 Ang^3
#
#
#
# Elastic Constant Matrix: (Units=GPa)
#
#
# Indices 1 2 3 4 5 6 
#
# 1 96.6944 44.5893 14.3264 0.0000 -18.3534 0.0000
# 2 44.5893 150.6131 23.4564 0.0000 -10.8418 0.0000
# 3 14.3264 23.4564 56.8154 0.0000 7.4044 0.0000
# 4 0.0000 0.0000 0.0000 26.3605 0.0000 -5.1183
# 5 -18.3534 -10.8418 7.4044 0.0000 29.6577 0.0000
# 6 0.0000 0.0000 0.0000 -5.1183 0.0000 14.9870
#
#
#
# Elastic Compliance Matrix: (Units=1/GPa)
#
#
# Indices 1 2 3 4 5 6 
#
# 1 0.013771 -0.002964 -0.003327 0.000000 0.008269 0.000000
# 2 -0.002964 0.008090 -0.002831 0.000000 0.001830 0.000000
# 3 -0.003327 -0.002831 0.020685 0.000000 -0.008258 0.000000
# 4 0.000000 0.000000 0.000000 0.040630 0.000000 0.013876
# 5 0.008269 0.001830 -0.008258 0.000000 0.041566 0.000000
# 6 0.000000 0.000000 0.000000 0.013876 0.000000 0.071463
#
#
# Mechanical properties :
#
#
# Convention : Reuss Voigt Hill
#
# Bulk Modulus (GPa) = 41.14755 52.09634 46.62195
# Shear Modulus (GPa) = 22.46713 28.98442 25.72578
#
# Velocity S-wave (km/s) = 3.54977 4.03189 3.79849
# Velocity P-wave (km/s) = 6.31499 7.13396 6.73693
#
# Compressibility (1/GPa) = 0.02430278
#
# Stress axis : x y z
#
# Youngs Moduli (GPa) = 72.61695 123.61647 48.34506
#
# Poissons Ratio (x) = 0.36635 0.16082
# Poissons Ratio (y) = 0.21521 0.13686
# Poissons Ratio (z) = 0.24156 0.34996
#
# Static dielectric constant tensor:
#      x y z
#    x 1.673090 0.000000 0.036610 
#    y 0.000000 1.643430 0.000000 
#    z 0.036610 0.000000 1.637360 
# 
# From -- ./inp_files/149506.got.cif
#   From: 2010.05.17/outbox.cif.g08.bks.cpg/sg12_75_cif.got.tgz:149506.got - 2010.06.03 13:09:07.
