data_PCOD9183938
_publ_section_title
;
Structure prediction by ZEFSAII (Michael W. Deem and Ramdas Pophale) SiO2 
 PCOD9183938
Probable space group: C 2/M
;
_chemical_formula_sum "Si O2"
_cell_formula_units_Z 64
_cell_length_a 29.049195
_cell_length_b 17.947337
_cell_length_c 11.436634
_cell_angle_alpha 90.000000
_cell_angle_beta 32.130237
_cell_angle_gamma 90.000000
_cell_volume 3171.158006
_symmetry_space_group_name_H-M "C 2/M"
_symmetry_group_IT_number 12
_symmetry_cell_setting 'monoclinic'
loop_
_space_group_symop_operation_xyz
x,y,z
-x,y,-z
-x,-y,-z
x,-y,z
1/2+x,1/2+y,z
1/2-x,1/2+y,-z
1/2-x,1/2-y,-z
1/2+x,1/2-y,z
loop_
_atom_site_type_symbol
_atom_site_label
_atom_site_fract_x
_atom_site_fract_y
_atom_site_fract_z
Si Si1 0.585951 0.639318 0.594506
Si Si2 0.053198 0.079132 0.263947
Si Si3 0.221368 0.413217 0.815029
Si Si4 0.148575 0.413141 0.225781
Si Si5 0.278124 0.243139 0.284530
Si Si6 0.402461 0.727911 0.208177
Si Si7 0.573609 0.766889 0.436671
Si Si8 0.202000 0.186466 0.000162
O O1 0.512890 0.586965 0.700078
O O2 0.679085 0.604499 0.362467
O O3 0.584902 0.656476 0.734412
O O4 0.567685 0.717831 0.565832
O O5 0.000000 0.081659 0.500000
O O6 0.099211 0.000000 0.160106
O O7 0.119600 0.144930 0.123713
O O8 0.215779 0.500000 0.788611
O O9 0.204416 0.346428 0.759172
O O10 0.159655 0.404602 0.061345
O O11 0.134907 0.500000 0.280392
O O12 0.079390 0.356162 0.430564
O O13 0.237226 0.379726 0.086604
O O14 0.361477 0.280609 0.167227
O O15 0.185815 0.262962 0.543939
O O16 0.263921 0.266570 0.181672
O O17 0.500000 0.762507 0.000000
O O18 0.500000 0.750418 0.500000
O O19 0.662664 0.738981 0.185121
#
# Coordination Sequence:
#
# PCOD9183938 Si02
#       8
#     8   8   8   8   8   8   8   8
#     4  11  19  35  57  86 116 153 193 233 293 358
#     4  11  20  31  53  90 131 157 182 228 298 369
#     4  10  19  33  56  84 116 149 186 240 298 352
#     4  11  22  34  53  83 122 156 185 232 296 354
#     4  10  22  38  61  87 112 152 204 247 291 350
#     4  10  22  38  60  83 111 148 200 252 292 333
#     4  12  22  35  57  87 117 154 192 241 289 354
#     4  12  19  37  57  86 118 150 191 241 289 361
#
# _framework density 20.181902000000001
#
# number of rings (size 3 to 8) (size 9 to 14) (size 15 to 20)
#    0.000    1.125    5.000    3.375    0.000    2.250 
#    0.000    0.000    0.000   41.250    0.000    0.000 
#    0.000    0.000    0.000    0.000    0.000    0.000 
#
# Total GULP energy -178272.860407 kJ/mol
# GULP energy per Si atom -5571.026888 kJ/mol
# Density = 2.013597 g / cm^3
# Si number density = 20.181902 Si / 1000 Ang^3
#
#
#
# Elastic Constant Matrix: (Units=GPa)
#
#
# Indices 1 2 3 4 5 6 
#
# 1 98.2896 14.8172 16.5459 0.0000 -2.3936 0.0000
# 2 14.8172 127.9866 16.1775 0.0000 11.7161 0.0000
# 3 16.5459 16.1775 53.2466 0.0000 -3.5544 0.0000
# 4 0.0000 0.0000 0.0000 48.0392 0.0000 38.9206
# 5 -2.3936 11.7161 -3.5544 0.0000 30.2787 0.0000
# 6 0.0000 0.0000 0.0000 38.9206 0.0000 76.4563
#
#
#
# Elastic Compliance Matrix: (Units=1/GPa)
#
#
# Indices 1 2 3 4 5 6 
#
# 1 0.010848 -0.000954 -0.003023 0.000000 0.000872 0.000000
# 2 -0.000954 0.008586 -0.002559 0.000000 -0.003698 0.000000
# 3 -0.003023 -0.002559 0.020710 0.000000 0.003182 0.000000
# 4 0.000000 0.000000 0.000000 0.035428 0.000000 -0.018035
# 5 0.000872 -0.003698 0.003182 0.000000 0.034900 0.000000
# 6 0.000000 0.000000 0.000000 -0.018035 0.000000 0.022260
#
#
# Mechanical properties :
#
#
# Convention : Reuss Voigt Hill
#
# Bulk Modulus (GPa) = 36.93829 41.62268 39.28049
# Shear Modulus (GPa) = 32.29418 46.42029 39.35724
#
# Velocity S-wave (km/s) = 4.00453 4.80113 4.42081
# Velocity P-wave (km/s) = 6.30271 7.16959 6.75008
#
# Compressibility (1/GPa) = 0.02707218
#
# Stress axis : x y z
#
# Youngs Moduli (GPa) = 92.18390 116.47274 48.28625
#
# Poissons Ratio (x) = 0.11106 0.14597
# Poissons Ratio (y) = 0.08790 0.12357
# Poissons Ratio (z) = 0.27867 0.29806
#
# Static dielectric constant tensor:
#      x y z
#    x 1.800400 0.000000 -0.009460 
#    y 0.000000 1.717510 0.000000 
#    z -0.009460 0.000000 1.788070 
# 
# From -- ./inp_files/190049.got.cif
#   From: 2010.05.17/outbox.cif.g08.bks.cpg/sg12_96_cif.got.tgz:190049.got - 2010.06.03 13:09:07.
