data_PCOD9183536
_publ_section_title
;
Structure prediction by ZEFSAII (Michael W. Deem and Ramdas Pophale) SiO2 
 PCOD9183536
Probable space group: C 2/M
;
_chemical_formula_sum "Si O2"
_cell_formula_units_Z 64
_cell_length_a 24.905421
_cell_length_b 7.691873
_cell_length_c 16.716232
_cell_angle_alpha 90.000000
_cell_angle_beta 116.529426
_cell_angle_gamma 90.000000
_cell_volume 2865.129710
_symmetry_space_group_name_H-M "C 2/M"
_symmetry_group_IT_number 12
_symmetry_cell_setting 'monoclinic'
loop_
_space_group_symop_operation_xyz
x,y,z
-x,y,-z
-x,-y,-z
x,-y,z
1/2+x,1/2+y,z
1/2-x,1/2+y,-z
1/2-x,1/2-y,-z
1/2+x,1/2-y,z
loop_
_atom_site_type_symbol
_atom_site_label
_atom_site_fract_x
_atom_site_fract_y
_atom_site_fract_z
Si Si1 0.685071 0.291647 0.994020
Si Si2 0.687761 0.191265 0.424839
Si Si3 0.098806 0.303431 0.516255
Si Si4 0.870880 0.205923 0.201758
Si Si5 0.407209 0.789614 0.751731
Si Si6 0.005619 0.289751 0.330825
Si Si7 0.327170 0.708942 0.833531
Si Si8 0.700205 0.199350 0.698355
O O1 0.680398 0.500000 0.996657
O O2 0.637326 0.233989 0.895074
O O3 0.750000 0.250000 0.000000
O O4 0.675608 0.223401 0.077289
O O5 0.750000 0.250000 0.500000
O O6 0.641539 0.182089 0.467145
O O7 0.651144 0.288541 0.332807
O O8 0.699398 0.000000 0.400413
O O9 0.083551 0.500000 0.535968
O O10 0.039472 0.225785 0.434335
O O11 0.144540 0.220058 0.610963
O O12 0.822898 0.299020 0.226278
O O13 0.936839 0.239611 0.279202
O O14 0.858359 0.000000 0.197099
O O15 0.461770 0.731858 0.730536
O O16 0.390066 0.747254 0.831111
O O17 0.409069 0.000000 0.748071
O O18 0.010353 0.500000 0.337670
O O19 0.320179 0.500000 0.831184
O O20 0.267167 0.775902 0.746970
O O21 0.705028 0.000000 0.670873
#
# Coordination Sequence:
#
# PCOD9183536 Si02
#       8
#     8   8   8   8   8   8   8   8
#     4  10  21  38  58  82 109 138 174 217 270 328
#     4   9  16  28  46  70 102 138 177 217 261 310
#     4   8  16  31  51  74 101 139 183 222 253 299
#     4  11  23  37  55  80 109 139 175 225 277 317
#     4   9  19  34  53  78 107 141 179 222 267 310
#     4   9  19  38  58  75 104 147 190 220 254 313
#     4  10  20  34  56  84 110 138 175 218 270 330
#     4  10  19  33  55  81 108 141 183 221 262 320
#
# _framework density 22.337558000000001
#
# number of rings (size 3 to 8) (size 9 to 14) (size 15 to 20)
#    0.000    2.500    1.250    2.625    0.000    4.000 
#    0.000    6.250    0.000    3.750    0.000    0.000 
#    0.000    0.000    0.000    0.000    0.000    0.000 
#
# Total GULP energy -178280.311949 kJ/mol
# GULP energy per Si atom -5571.259748 kJ/mol
# Density = 2.228672 g / cm^3
# Si number density = 22.337558 Si / 1000 Ang^3
#
#
#
# Elastic Constant Matrix: (Units=GPa)
#
#
# Indices 1 2 3 4 5 6 
#
# 1 61.9590 -4.6509 2.7798 0.0000 -8.0163 0.0000
# 2 -4.6509 39.3553 3.7708 0.0000 1.8969 0.0000
# 3 2.7798 3.7708 87.0936 0.0000 -8.1382 0.0000
# 4 0.0000 0.0000 0.0000 13.7098 0.0000 -2.3669
# 5 -8.0163 1.8969 -8.1382 0.0000 41.7576 0.0000
# 6 0.0000 0.0000 0.0000 -2.3669 0.0000 10.1565
#
#
#
# Elastic Compliance Matrix: (Units=1/GPa)
#
#
# Indices 1 2 3 4 5 6 
#
# 1 0.016689 0.001856 -0.000328 0.000000 0.003056 0.000000
# 2 0.001856 0.025802 -0.001276 0.000000 -0.001064 0.000000
# 3 -0.000328 -0.001276 0.011761 0.000000 0.002287 0.000000
# 4 0.000000 0.000000 0.000000 0.075998 0.000000 0.017711
# 5 0.003056 -0.001064 0.002287 0.000000 0.025028 0.000000
# 6 0.000000 0.000000 0.000000 0.017711 0.000000 0.102586
#
#
# Mechanical properties :
#
#
# Convention : Reuss Voigt Hill
#
# Bulk Modulus (GPa) = 18.26185 21.35635 19.80910
# Shear Modulus (GPa) = 18.14140 25.55866 21.85003
#
# Velocity S-wave (km/s) = 2.85291 3.38627 3.13097
# Velocity P-wave (km/s) = 4.36409 4.98705 4.68593
#
# Compressibility (1/GPa) = 0.05475896
#
# Stress axis : x y z
#
# Youngs Moduli (GPa) = 59.91934 38.75597 85.02449
#
# Poissons Ratio (x) = -0.07195 0.02785
# Poissons Ratio (y) = -0.11123 0.10848
# Poissons Ratio (z) = 0.01962 0.04945
#
# Static dielectric constant tensor:
#      x y z
#    x 1.798220 0.000000 -0.014190 
#    y 0.000000 1.939880 0.000000 
#    z -0.014190 0.000000 1.896160 
# 
# From -- ./inp_files/244164.got.cif
#   From: 2010.05.17/outbox.cif.g08.bks.cpg/sg12_123_cif.got.tgz:244164.got - 2010.06.03 13:09:07.
