data_PCOD9183462
_publ_section_title
;
Structure prediction by ZEFSAII (Michael W. Deem and Ramdas Pophale) SiO2 
 PCOD9183462
Probable space group: C 2/M
;
_chemical_formula_sum "Si O2"
_cell_formula_units_Z 56
_cell_length_a 21.296808
_cell_length_b 26.412752
_cell_length_c 5.388815
_cell_angle_alpha 90.000000
_cell_angle_beta 111.938975
_cell_angle_gamma 90.000000
_cell_volume 2811.731877
_symmetry_space_group_name_H-M "C 2/M"
_symmetry_group_IT_number 12
_symmetry_cell_setting 'monoclinic'
loop_
_space_group_symop_operation_xyz
x,y,z
-x,y,-z
-x,-y,-z
x,-y,z
1/2+x,1/2+y,z
1/2-x,1/2+y,-z
1/2-x,1/2-y,-z
1/2+x,1/2-y,z
loop_
_atom_site_type_symbol
_atom_site_label
_atom_site_fract_x
_atom_site_fract_y
_atom_site_fract_z
Si Si1 0.275325 0.590329 0.853326
Si Si2 0.678640 0.390465 0.578587
Si Si3 0.115808 0.000000 0.021786
Si Si4 0.044195 0.172027 0.318010
Si Si5 0.882464 0.000000 0.475554
Si Si6 0.872322 0.441897 0.212191
Si Si7 0.044254 0.287162 0.316307
Si Si8 0.577322 0.892232 0.213820
O O1 0.271808 0.616675 0.580364
O O2 0.205647 0.563790 0.821007
O O3 0.295179 0.625961 0.113194
O O4 0.335034 0.548823 0.909350
O O5 0.607675 0.365020 0.407759
O O6 0.665166 0.450674 0.591575
O O7 0.075726 0.000000 0.711148
O O8 0.075748 0.000000 0.214002
O O9 0.070615 0.230032 0.384900
O O10 0.000000 0.161635 0.500000
O O11 0.000000 0.167323 0.000000
O O12 0.889007 0.500000 0.180698
O O13 0.912946 0.424335 0.519111
O O14 0.882657 0.410683 0.971729
O O15 0.091928 0.334792 0.327918
O O16 0.000000 0.298532 0.500000
O O17 0.000000 0.283904 0.000000
O O18 0.500000 0.894169 0.000000
#
# Coordination Sequence:
#
# PCOD9183462 Si02
#       8
#     8   8   4   8   4   8   8   8
#     4  10  19  34  52  76 108 144 191 225 262 314
#     4  10  19  33  55  79 112 148 185 230 275 322
#     4   8  14  28  46  65  91 128 182 222 229 294
#     4  10  20  35  58  87 111 139 189 238 279 328
#     4   8  16  26  46  71  96 140 173 208 259 310
#     4  12  24  37  58  85 114 147 189 231 264 329
#     4   9  18  36  60  80 104 144 190 230 266 328
#     4  11  23  39  58  82 114 147 180 225 289 337
#
# _framework density 19.916549
#
# number of rings (size 3 to 8) (size 9 to 14) (size 15 to 20)
#    0.000    2.000    0.714    4.286    0.000    1.714 
#    0.000    0.714    0.000    5.143    0.000    0.000 
#    0.000    0.000    0.000    0.000    0.000    0.000 
#
# Total GULP energy -155909.485920 kJ/mol
# GULP energy per Si atom -5568.195926 kJ/mol
# Density = 1.987122 g / cm^3
# Si number density = 19.916549 Si / 1000 Ang^3
#
#
#
# Elastic Constant Matrix: (Units=GPa)
#
#
# Indices 1 2 3 4 5 6 
#
# 1 51.0397 28.5725 29.0172 0.0000 -21.3477 0.0000
# 2 28.5725 74.7222 14.9760 0.0000 -6.7165 0.0000
# 3 29.0172 14.9760 150.4587 0.0000 -40.9123 0.0000
# 4 0.0000 0.0000 0.0000 11.7484 0.0000 -13.2435
# 5 -21.3477 -6.7165 -40.9123 0.0000 44.5243 0.0000
# 6 0.0000 0.0000 0.0000 -13.2435 0.0000 0.4289
#
#
#
# Elastic Compliance Matrix: (Units=1/GPa)
#
#
# Indices 1 2 3 4 5 6 
#
# 1 0.031525 -0.010628 -0.001797 0.000000 0.011861 0.000000
# 2 -0.010628 0.017278 -0.000462 0.000000 -0.002914 0.000000
# 3 -0.001797 -0.000462 0.009046 0.000000 0.007381 0.000000
# 4 0.000000 0.000000 0.000000 -0.002518 0.000000 -0.077742
# 5 0.011861 -0.002914 0.007381 0.000000 0.034489 0.000000
# 6 0.000000 0.000000 0.000000 -0.077742 0.000000 -0.068965
#
#
# Mechanical properties :
#
#
# Convention : Reuss Voigt Hill
#
# Bulk Modulus (GPa) = 31.17886 46.81691 38.99788
# Shear Modulus (GPa) = 87.22957 24.91732 56.07345
#
# Velocity S-wave (km/s) = 6.62515 3.54091 5.31181
# Velocity P-wave (km/s) = 8.61465 6.34625 7.56595
#
# Compressibility (1/GPa) = 0.03207302
#
# Stress axis : x y z
#
# Youngs Moduli (GPa) = 31.72123 57.87817 110.54785
#
# Poissons Ratio (x) = 0.61514 0.19864
# Poissons Ratio (y) = 0.33714 0.05113
# Poissons Ratio (z) = 0.05700 0.02677
#
# Static dielectric constant tensor:
#      x y z
#    x 1.687680 0.000000 -0.042740 
#    y 0.000000 1.796630 0.000000 
#    z -0.042740 0.000000 1.755660 
# 
# From -- ./inp_files/21946.got.cif
#   From: 2010.05.17/outbox.cif.g08.bks.cpg/sg12_11_cif.got.tgz:21946.got - 2010.06.03 13:09:07.
