data_PCOD9183308
_publ_section_title
;
Structure prediction by ZEFSAII (Michael W. Deem and Ramdas Pophale) SiO2 
 PCOD9183308
Probable space group: C 2/M
;
_chemical_formula_sum "Si O2"
_cell_formula_units_Z 60
_cell_length_a 19.014423
_cell_length_b 9.269094
_cell_length_c 26.382421
_cell_angle_alpha 90.000000
_cell_angle_beta 34.328033
_cell_angle_gamma 90.000000
_cell_volume 2622.167377
_symmetry_space_group_name_H-M "C 2/M"
_symmetry_group_IT_number 12
_symmetry_cell_setting 'monoclinic'
loop_
_space_group_symop_operation_xyz
x,y,z
-x,y,-z
-x,-y,-z
x,-y,z
1/2+x,1/2+y,z
1/2-x,1/2+y,-z
1/2-x,1/2-y,-z
1/2+x,1/2-y,z
loop_
_atom_site_type_symbol
_atom_site_label
_atom_site_fract_x
_atom_site_fract_y
_atom_site_fract_z
Si Si1 0.301380 0.726122 0.540136
Si Si2 0.459000 0.666973 0.186227
Si Si3 0.836994 0.672132 0.989486
Si Si4 0.353272 0.329154 0.081489
Si Si5 0.799247 0.000000 0.461351
Si Si6 0.659299 0.169682 0.375969
Si Si7 0.368017 0.826200 0.717412
Si Si8 0.983579 0.663732 0.271273
O O1 0.268302 0.876705 0.533873
O O2 0.357563 0.624593 0.464233
O O3 0.364771 0.750446 0.556863
O O4 0.164636 0.656784 0.632323
O O5 0.493933 0.500000 0.156331
O O6 0.524639 0.769922 0.106675
O O7 0.309733 0.674886 0.277831
O O8 0.505491 0.724625 0.213101
O O9 0.828269 0.500000 0.991909
O O10 0.750000 0.750000 0.000000
O O11 0.805600 0.733442 0.063462
O O12 0.335862 0.500000 0.080564
O O13 0.272349 0.297132 0.179535
O O14 0.500000 0.304273 0.000000
O O15 0.606351 0.227884 0.354283
O O16 0.628194 0.000000 0.400412
O O17 0.453810 0.786410 0.713865
O O18 0.380560 0.000000 0.705831
O O19 0.027714 0.500000 0.232789
#
# Coordination Sequence:
#
# PCOD9183308 Si02
#       8
#     8   8   8   8   4   8   8   8
#     4  10  19  34  58  85 113 142 181 225 265 328
#     4  10  20  34  56  80 106 140 185 236 281 335
#     4  12  24  37  54  77 110 146 190 244 297 345
#     4  10  20  36  58  82 111 151 195 237 291 350
#     4  10  20  34  58  86 112 142 178 222 272 322
#     4   9  17  33  57  83 106 138 183 221 265 315
#     4   9  18  32  54  79 108 143 183 230 269 325
#     4  10  19  33  54  82 112 145 187 226 275 324
#
# _framework density 22.881834999999999
#
# number of rings (size 3 to 8) (size 9 to 14) (size 15 to 20)
#    0.000    2.000    1.333    3.200    0.933    3.467 
#    0.000    0.000    2.933    4.800    0.000    0.000 
#    0.000    0.000    0.000    0.000    0.000    0.000 
#
# Total GULP energy -167199.223653 kJ/mol
# GULP energy per Si atom -5573.307455 kJ/mol
# Density = 2.282976 g / cm^3
# Si number density = 22.881835 Si / 1000 Ang^3
#
#
#
# Elastic Constant Matrix: (Units=GPa)
#
#
# Indices 1 2 3 4 5 6 
#
# 1 135.3779 37.7986 31.5809 0.0000 35.4479 -0.0001
# 2 37.7986 120.1087 19.8250 -0.0001 22.5641 -0.0002
# 3 31.5809 19.8250 92.7200 0.0000 11.7848 0.0000
# 4 0.0000 -0.0001 0.0000 -32.0296 0.0000 4.9086
# 5 35.4479 22.5641 11.7848 0.0000 44.6092 0.0000
# 6 -0.0001 -0.0002 0.0000 4.9086 0.0000 20.2151
#
#
#
# Elastic Compliance Matrix: (Units=1/GPa)
#
#
# Indices 1 2 3 4 5 6 
#
# 1 0.010084 -0.001555 -0.002260 0.000000 -0.006630 0.000000
# 2 -0.001555 0.009625 -0.001104 0.000000 -0.003341 0.000000
# 3 -0.002260 -0.001104 0.011891 0.000000 -0.000788 0.000000
# 4 0.000000 0.000000 0.000000 -0.030101 0.000000 0.007309
# 5 -0.006630 -0.003341 -0.000788 0.000000 0.029583 0.000000
# 6 0.000000 0.000000 0.000000 0.007309 0.000000 0.047693
#
#
# Mechanical properties :
#
#
# Convention : Reuss Voigt Hill
#
# Bulk Modulus (GPa) = 45.94876 58.51283 52.23080
# Shear Modulus (GPa) = 52.15614 23.82574 37.99094
#
# Velocity S-wave (km/s) = 4.77945 3.23034 4.07911
# Velocity P-wave (km/s) = 7.11211 6.28814 6.71278
#
# Compressibility (1/GPa) = 0.02176337
#
# Stress axis : x y z
#
# Youngs Moduli (GPa) = 99.16789 103.89570 84.09830
#
# Poissons Ratio (x) = 0.16156 0.19002
# Poissons Ratio (y) = 0.15421 0.09282
# Poissons Ratio (z) = 0.22407 0.11466
#
# Static dielectric constant tensor:
#      x y z
#    x 1.879970 0.000000 -0.033620 
#    y 0.000000 1.792620 0.000000 
#    z -0.033620 0.000000 1.960500 
# 
# From -- ./inp_files/365472.got.cif
#   From: 2010.05.17/outbox.cif.g08.bks.cpg/sg12_183_cif.got.tgz:365472.got - 2010.06.03 13:09:07.
