data_PCOD9183593
_publ_section_title
;
Structure prediction by ZEFSAII (Michael W. Deem and Ramdas Pophale) SiO2 
 PCOD9183593
Probable space group: C 2/M
;
_chemical_formula_sum "Si O2"
_cell_formula_units_Z 40
_cell_length_a 18.561610
_cell_length_b 8.627471
_cell_length_c 26.823929
_cell_angle_alpha 90.000000
_cell_angle_beta 30.310785
_cell_angle_gamma 90.000000
_cell_volume 2167.935507
_symmetry_space_group_name_H-M "C 2/M"
_symmetry_group_IT_number 12
_symmetry_cell_setting 'monoclinic'
loop_
_space_group_symop_operation_xyz
x,y,z
-x,y,-z
-x,-y,-z
x,-y,z
1/2+x,1/2+y,z
1/2-x,1/2+y,-z
1/2-x,1/2-y,-z
1/2+x,1/2-y,z
loop_
_atom_site_type_symbol
_atom_site_label
_atom_site_fract_x
_atom_site_fract_y
_atom_site_fract_z
Si Si1 0.561278 0.186249 0.217686
Si Si2 0.097734 0.812287 0.785487
Si Si3 0.072882 0.687237 0.404073
Si Si4 0.909890 0.184145 0.405862
Si Si5 0.670412 0.313443 0.998624
O O1 0.469049 0.241663 0.225020
O O2 0.496531 0.256541 0.306135
O O3 0.555167 0.000000 0.224217
O O4 0.726427 0.234643 0.108245
O O5 0.261106 0.765556 0.695057
O O6 0.993892 0.768188 0.893837
O O7 0.094141 0.000000 0.782647
O O8 0.067108 0.500000 0.403142
O O9 0.000000 0.729875 0.500000
O O10 0.988109 0.759042 0.408922
O O11 0.750000 0.250000 0.500000
O O12 0.902951 0.000000 0.408960
O O13 0.674172 0.500000 0.997050
O O14 0.750000 0.250000 0.000000
#
# Coordination Sequence:
#
# PCOD9183593 Si02
#       5
#     8   8   8   8   8
#     4  10  19  33  55  82 112 144 182 224 265 313
#     4   9  17  32  55  82 113 147 183 222 266 315
#     4  10  21  37  57  81 109 141 177 219 269 323
#     4  12  25  40  58  79 106 139 177 221 270 324
#     4   8  15  28  49  78 109 144 182 219 260 309
#
# _framework density 18.450734000000001
#
# number of rings (size 3 to 8) (size 9 to 14) (size 15 to 20)
#    0.000    2.200    0.000    3.600    0.000    3.600 
#    0.000    1.000    0.000    6.000    0.000    0.000 
#    0.000    0.000    0.000    0.000    0.000    0.000 
#
# Total GULP energy -111549.994172 kJ/mol
# GULP energy per Si atom -5577.499709 kJ/mol
# Density = 1.840874 g / cm^3
# Si number density = 18.450734 Si / 1000 Ang^3
#
#
#
# Elastic Constant Matrix: (Units=GPa)
#
#
# Indices 1 2 3 4 5 6 
#
# 1 112.5894 44.6313 104.6725 0.0000 3.6752 0.0000
# 2 44.6313 41.4153 59.6633 0.0001 1.0961 0.0000
# 3 104.6725 59.6633 244.6334 0.0003 2.6779 -0.0001
# 4 0.0000 0.0001 0.0003 21.5222 0.0000 4.5019
# 5 3.6752 1.0961 2.6779 0.0000 32.7659 0.0000
# 6 0.0000 0.0000 -0.0001 4.5019 0.0000 30.5540
#
#
#
# Elastic Compliance Matrix: (Units=1/GPa)
#
#
# Indices 1 2 3 4 5 6 
#
# 1 0.018495 -0.013131 -0.004697 0.000000 -0.001251 0.000000
# 2 -0.013131 0.046555 -0.005740 0.000000 0.000385 0.000000
# 3 -0.004697 -0.005740 0.007496 0.000000 0.000106 0.000000
# 4 0.000000 0.000000 0.000000 0.047941 0.000000 -0.007064
# 5 -0.001251 0.000385 0.000106 0.000000 0.030638 0.000000
# 6 0.000000 0.000000 0.000000 -0.007064 0.000000 0.033770
#
#
# Mechanical properties :
#
#
# Convention : Reuss Voigt Hill
#
# Bulk Modulus (GPa) = 39.35481 90.73025 65.04253
# Shear Modulus (GPa) = 20.78980 29.61317 25.20148
#
# Velocity S-wave (km/s) = 3.36039 4.01057 3.69979
# Velocity P-wave (km/s) = 6.03591 8.40996 7.31982
#
# Compressibility (1/GPa) = 0.02540985
#
# Stress axis : x y z
#
# Youngs Moduli (GPa) = 54.06893 21.47981 133.39737
#
# Poissons Ratio (x) = 0.28205 0.62661
# Poissons Ratio (y) = 0.70998 0.76572
# Poissons Ratio (z) = 0.25398 0.12330
#
# Static dielectric constant tensor:
#      x y z
#    x 1.582210 0.000000 -0.003440 
#    y 0.000000 1.624600 0.000000 
#    z -0.003440 0.000000 1.684450 
# 
# From -- ./inp_files/242841.got.cif
#   From: 2010.05.17/outbox.cif.g08.bks.cpg/sg12_122_cif.got.tgz:242841.got - 2010.06.03 13:09:07.
