data_PCOD9183413
_publ_section_title
;
Structure prediction by ZEFSAII (Michael W. Deem and Ramdas Pophale) SiO2 
 PCOD9183413
Probable space group: C 2/M
;
_chemical_formula_sum "Si O2"
_cell_formula_units_Z 56
_cell_length_a 16.432619
_cell_length_b 13.640962
_cell_length_c 16.908978
_cell_angle_alpha 90.000000
_cell_angle_beta 44.430680
_cell_angle_gamma 90.000000
_cell_volume 2653.356525
_symmetry_space_group_name_H-M "C 2/M"
_symmetry_group_IT_number 12
_symmetry_cell_setting 'monoclinic'
loop_
_space_group_symop_operation_xyz
x,y,z
-x,y,-z
-x,-y,-z
x,-y,z
1/2+x,1/2+y,z
1/2-x,1/2+y,-z
1/2-x,1/2-y,-z
1/2+x,1/2-y,z
loop_
_atom_site_type_symbol
_atom_site_label
_atom_site_fract_x
_atom_site_fract_y
_atom_site_fract_z
Si Si1 0.843119 0.676113 0.666932
Si Si2 0.481295 0.319837 0.259669
Si Si3 0.076423 0.820321 0.868081
Si Si4 0.603876 0.102637 0.866059
Si Si5 0.996894 0.608439 0.702640
Si Si6 0.271315 0.112358 0.546477
Si Si7 0.134701 0.892637 0.293120
O O1 0.710840 0.652460 0.787778
O O2 0.838174 0.645518 0.579414
O O3 0.874971 0.792187 0.650168
O O4 0.929035 0.620893 0.666366
O O5 0.480302 0.363349 0.171683
O O6 0.529901 0.208296 0.231761
O O7 0.346123 0.325593 0.380690
O O8 0.556400 0.379509 0.270540
O O9 0.089110 0.705475 0.834304
O O10 0.000000 0.831136 0.000000
O O11 0.728162 0.107025 0.822800
O O12 0.603455 0.000000 0.819786
O O13 0.500000 0.099590 0.000000
O O14 0.967932 0.500000 0.754680
O O15 0.134440 0.612733 0.588276
O O16 0.233059 0.000000 0.584206
O O17 0.110351 0.000000 0.347184
#
# Coordination Sequence:
#
# PCOD9183413 Si02
#       7
#     8   8   8   8   8   8   8
#     4   9  18  32  53  77 100 134 176 214 249 300
#     4  10  20  33  52  77 105 136 171 212 255 307
#     4   9  18  33  51  71  99 137 174 211 257 300
#     4   8  14  27  47  68  91 124 168 209 245 294
#     4  10  20  34  53  78 106 134 168 213 261 305
#     4  10  19  33  55  78 103 137 170 206 256 309
#     4   9  17  31  50  72 101 134 166 207 259 302
#
# _framework density 21.105343000000001
#
# number of rings (size 3 to 8) (size 9 to 14) (size 15 to 20)
#    0.000    2.714    0.000    1.714    0.000    1.714 
#    0.000   13.571    0.000   28.286    0.000    0.000 
#    0.000    0.000    0.000    0.000    0.000    0.000 
#
# Total GULP energy -155915.921559 kJ/mol
# GULP energy per Si atom -5568.425770 kJ/mol
# Density = 2.105731 g / cm^3
# Si number density = 21.105343 Si / 1000 Ang^3
#
#
#
# Elastic Constant Matrix: (Units=GPa)
#
#
# Indices 1 2 3 4 5 6 
#
# 1 71.5278 9.0369 -3.9660 0.0000 -14.9099 0.0000
# 2 9.0369 94.3708 -8.1742 0.0000 -3.0582 0.0000
# 3 -3.9660 -8.1742 42.2595 0.0000 -10.8246 0.0000
# 4 0.0000 0.0000 0.0000 7.2759 0.0000 -12.3698
# 5 -14.9099 -3.0582 -10.8246 0.0000 10.2805 0.0000
# 6 0.0000 0.0000 0.0000 -12.3698 0.0000 12.4150
#
#
#
# Elastic Compliance Matrix: (Units=1/GPa)
#
#
# Indices 1 2 3 4 5 6 
#
# 1 0.026814 0.000799 0.017381 0.000000 0.057427 0.000000
# 2 0.000799 0.011228 0.004654 0.000000 0.009399 0.000000
# 3 0.017381 0.004654 0.045195 0.000000 0.074180 0.000000
# 4 0.000000 0.000000 0.000000 -0.198064 0.000000 -0.197342
# 5 0.057427 0.009399 0.074180 0.000000 0.261461 0.000000
# 6 0.000000 0.000000 0.000000 -0.197342 0.000000 -0.116076
#
#
# Mechanical properties :
#
#
# Convention : Reuss Voigt Hill
#
# Bulk Modulus (GPa) = 7.75768 22.43905 15.09836
# Shear Modulus (GPa) = 179.47381 20.07838 99.77610
#
# Velocity S-wave (km/s) = 9.23156 3.08773 6.88316
# Velocity P-wave (km/s) = 10.83110 4.83395 8.38689
#
# Compressibility (1/GPa) = 0.12890457
#
# Stress axis : x y z
#
# Youngs Moduli (GPa) = 37.29393 89.06514 22.12611
#
# Poissons Ratio (x) = -0.07114 -0.38457
# Poissons Ratio (y) = -0.02979 -0.10298
# Poissons Ratio (z) = -0.64819 -0.41453
#
# Static dielectric constant tensor:
#      x y z
#    x 1.744700 0.000000 -0.000300 
#    y 0.000000 1.867700 0.000000 
#    z -0.000300 0.000000 1.748070 
# 
# From -- ./inp_files/270192.got.cif
#   From: 2010.05.17/outbox.cif.g08.bks.cpg/sg12_136_cif.got.tgz:270192.got - 2010.06.03 13:09:07.
