data_PCOD9183756
_publ_section_title
;
Structure prediction by ZEFSAII (Michael W. Deem and Ramdas Pophale) SiO2 
 PCOD9183756
Probable space group: C 2/M
;
_chemical_formula_sum "Si O2"
_cell_formula_units_Z 48
_cell_length_a 16.281059
_cell_length_b 7.478487
_cell_length_c 19.534500
_cell_angle_alpha 90.000000
_cell_angle_beta 48.144816
_cell_angle_gamma 90.000000
_cell_volume 1771.568722
_symmetry_space_group_name_H-M "C 2/M"
_symmetry_group_IT_number 12
_symmetry_cell_setting 'monoclinic'
loop_
_space_group_symop_operation_xyz
x,y,z
-x,y,-z
-x,-y,-z
x,-y,z
1/2+x,1/2+y,z
1/2-x,1/2+y,-z
1/2-x,1/2-y,-z
1/2+x,1/2-y,z
loop_
_atom_site_type_symbol
_atom_site_label
_atom_site_fract_x
_atom_site_fract_y
_atom_site_fract_z
Si Si1 0.871343 0.290996 0.312406
Si Si2 0.344911 0.283153 0.027993
Si Si3 0.078319 0.784729 0.861155
Si Si4 0.092747 0.296541 0.359496
Si Si5 0.145928 0.797063 0.481657
Si Si6 0.883010 0.719197 0.804779
O O1 0.875951 0.500000 0.327703
O O2 0.851589 0.278643 0.241937
O O3 0.769123 0.216911 0.412646
O O4 0.993727 0.213086 0.250887
O O5 0.343821 0.500000 0.023656
O O6 0.377912 0.237890 0.088230
O O7 0.218788 0.219480 0.091418
O O8 0.450847 0.218414 0.926593
O O9 0.077354 0.000000 0.859617
O O10 0.130264 0.500000 0.348736
O O11 0.118715 0.198632 0.415201
O O12 0.139544 0.231278 0.261751
O O13 0.958806 0.297993 0.426893
O O14 0.145740 0.000000 0.506340
O O15 0.884847 0.500000 0.806316
#
# Coordination Sequence:
#
# PCOD9183756 Si02
#       6
#     8   8   8   8   8   8
#     4  10  21  34  48  70 102 136 162 191 242 298
#     4   8  15  30  52  74  97 126 162 205 246 283
#     4   9  17  31  53  77  96 123 166 208 243 280
#     4  10  19  33  56  78  93 121 168 209 236 278
#     4  10  20  34  51  72 101 131 157 196 250 295
#     4   9  18  32  49  71 100 132 163 197 241 291
#
# _framework density 27.094631
#
# number of rings (size 3 to 8) (size 9 to 14) (size 15 to 20)
#    0.000    2.667    0.000    4.000    0.000    4.000 
#    0.000    3.333    0.000    3.000    0.000    0.000 
#    0.000    0.000    0.000    0.000    0.000    0.000 
#
# Total GULP energy -134264.008376 kJ/mol
# GULP energy per Si atom -5594.333682 kJ/mol
# Density = 2.703296 g / cm^3
# Si number density = 27.094631 Si / 1000 Ang^3
#
#
#
# Elastic Constant Matrix: (Units=GPa)
#
#
# Indices 1 2 3 4 5 6 
#
# 1 76.3148 7.3729 19.8139 -0.0010 -20.0660 -0.0006
# 2 7.3729 86.3689 -0.9019 -0.0002 2.1144 -0.0004
# 3 19.8139 -0.9019 186.1957 -0.0017 -28.0463 -0.0009
# 4 -0.0010 -0.0002 -0.0017 3626.0405 0.0006 1802.1035
# 5 -20.0660 2.1144 -28.0463 0.0006 61.1989 0.0003
# 6 -0.0006 -0.0004 -0.0009 1802.1035 0.0003 909.4000
#
#
#
# Elastic Compliance Matrix: (Units=1/GPa)
#
#
# Indices 1 2 3 4 5 6 
#
# 1 0.014634 -0.001367 -0.000896 0.000000 0.004435 0.000000
# 2 -0.001367 0.011716 0.000079 0.000000 -0.000817 0.000000
# 3 -0.000896 0.000079 0.005824 0.000000 0.002372 0.000000
# 4 0.000000 0.000000 0.000000 0.018208 0.000000 -0.036082
# 5 0.004435 -0.000817 0.002372 0.000000 0.018910 0.000000
# 6 0.000000 0.000000 0.000000 -0.036082 0.000000 0.072602
#
#
# Mechanical properties :
#
#
# Convention : Reuss Voigt Hill
#
# Bulk Modulus (GPa) = 35.96320 44.60548 40.28434
# Shear Modulus (GPa) = 32.14797 940.83419 486.49108
#
# Velocity S-wave (km/s) = 3.44831 18.65459 13.41426
# Velocity P-wave (km/s) = 5.39967 21.92009 15.96319
#
# Compressibility (1/GPa) = 0.02780621
#
# Stress axis : x y z
#
# Youngs Moduli (GPa) = 68.33193 85.35503 171.71008
#
# Poissons Ratio (x) = 0.11670 0.15383
# Poissons Ratio (y) = 0.09342 -0.01360
# Poissons Ratio (z) = 0.06122 -0.00676
#
# Static dielectric constant tensor:
#      x y z
#    x 2.257960 0.000000 -0.048840 
#    y 0.000000 1.971090 0.000000 
#    z -0.048840 0.000000 2.054190 
# 
# From -- ./inp_files/345396.got.cif
#   From: 2010.05.17/outbox.cif.g08.bks.cpg/sg12_173_cif.got.tgz:345396.got - 2010.06.03 13:09:07.
