data_PCOD9183454
_publ_section_title
;
Structure prediction by ZEFSAII (Michael W. Deem and Ramdas Pophale) SiO2 
 PCOD9183454
Probable space group: C 2/M
;
_chemical_formula_sum "Si O2"
_cell_formula_units_Z 64
_cell_length_a 20.437818
_cell_length_b 8.792461
_cell_length_c 25.117719
_cell_angle_alpha 90.000000
_cell_angle_beta 51.689026
_cell_angle_gamma 90.000000
_cell_volume 3541.647942
_symmetry_space_group_name_H-M "C 2/M"
_symmetry_group_IT_number 12
_symmetry_cell_setting 'monoclinic'
loop_
_space_group_symop_operation_xyz
x,y,z
-x,y,-z
-x,-y,-z
x,-y,z
1/2+x,1/2+y,z
1/2-x,1/2+y,-z
1/2-x,1/2-y,-z
1/2+x,1/2-y,z
loop_
_atom_site_type_symbol
_atom_site_label
_atom_site_fract_x
_atom_site_fract_y
_atom_site_fract_z
Si Si1 0.992650 0.819507 0.134228
Si Si2 0.165139 0.680353 0.065236
Si Si3 0.440091 0.816909 0.577265
Si Si4 0.084351 0.682494 0.719262
Si Si5 0.462052 0.183027 0.686675
Si Si6 0.333037 0.817936 0.168002
Si Si7 0.241918 0.818182 0.324895
Si Si8 0.183456 0.181384 0.171025
O O1 0.961846 0.762538 0.208088
O O2 0.921149 0.763949 0.129823
O O3 0.082764 0.746779 0.078988
O O4 0.998884 0.000000 0.131138
O O5 0.165880 0.500000 0.059759
O O6 0.161570 0.729708 0.128712
O O7 0.250000 0.750000 0.000000
O O8 0.500000 0.760486 0.500000
O O9 0.472568 0.774293 0.619802
O O10 0.345566 0.759610 0.619811
O O11 0.438962 0.000000 0.575533
O O12 0.077571 0.500000 0.731720
O O13 0.182119 0.721471 0.673712
O O14 0.039368 0.718236 0.686581
O O15 0.382602 0.268790 0.751028
O O16 0.447996 0.000000 0.696518
O O17 0.278213 0.778043 0.248105
O O18 0.275876 0.782341 0.146154
O O19 0.346396 0.000000 0.163093
O O20 0.230082 0.000000 0.331743
O O21 0.178132 0.000000 0.164757
#
# Coordination Sequence:
#
# PCOD9183454 Si02
#       8
#     8   8   8   8   8   8   8   8
#     4  11  21  34  56  86 116 148 188 232 279 333
#     4  12  25  42  61  84 118 155 190 229 281 337
#     4  10  21  35  51  76 111 148 188 234 286 340
#     4   9  18  33  53  78 107 142 184 233 283 332
#     4  10  19  33  55  79 107 148 190 231 280 335
#     4   9  19  35  56  83 116 148 182 233 286 332
#     4   9  17  32  52  76 105 141 184 229 281 334
#     4  11  21  36  59  88 116 144 188 239 282 332
#
# _framework density 18.070682999999999
#
# number of rings (size 3 to 8) (size 9 to 14) (size 15 to 20)
#    0.000    1.875    2.500    3.375    0.000    3.250 
#    0.000    1.250    0.000    3.750    0.000    0.000 
#    0.000    0.000    0.000    0.000    0.000    0.000 
#
# Total GULP energy -178640.536731 kJ/mol
# GULP energy per Si atom -5582.516773 kJ/mol
# Density = 1.802955 g / cm^3
# Si number density = 18.070683 Si / 1000 Ang^3
#
#
#
# Elastic Constant Matrix: (Units=GPa)
#
#
# Indices 1 2 3 4 5 6 
#
# 1 88.4091 24.0141 -23.9066 0.0000 -17.4821 0.0002
# 2 24.0141 47.1304 -3.2036 -0.0001 -7.3349 0.0003
# 3 -23.9066 -3.2036 -3.0337 0.0000 -12.2309 -0.0001
# 4 0.0000 -0.0001 0.0000 23.7812 0.0000 -7.2323
# 5 -17.4821 -7.3349 -12.2309 0.0000 22.5111 0.0000
# 6 0.0002 0.0003 -0.0001 -7.2323 0.0000 28.3799
#
#
#
# Elastic Compliance Matrix: (Units=1/GPa)
#
#
# Indices 1 2 3 4 5 6 
#
# 1 0.006537 -0.005629 -0.018379 0.000000 -0.006744 0.000000
# 2 -0.005629 0.024816 0.000997 0.000000 0.004256 0.000000
# 3 -0.018379 0.000997 -0.040625 0.000000 -0.036021 0.000000
# 4 0.000000 0.000000 0.000000 0.045583 0.000000 0.011616
# 5 -0.006744 0.004256 -0.036021 0.000000 0.021001 0.000000
# 6 0.000000 0.000000 0.000000 0.011616 0.000000 0.038196
#
#
# Mechanical properties :
#
#
# Convention : Reuss Voigt Hill
#
# Bulk Modulus (GPa) = -18.08494 14.03483 -2.02505
# Shear Modulus (GPa) = 40.61766 23.97458 32.29612
#
# Velocity S-wave (km/s) = 4.74615 3.64636 4.23213
# Velocity P-wave (km/s) = 4.47269 5.05088 4.77055
#
# Compressibility (1/GPa) = -0.05529463
#
# Stress axis : x y z
#
# Youngs Moduli (GPa) = 152.97974 40.29619 -24.61539
#
# Poissons Ratio (x) = 0.22685 -0.45241
# Poissons Ratio (y) = 0.86120 0.02455
# Poissons Ratio (z) = 2.81162 -0.04018
#
# Static dielectric constant tensor:
#      x y z
#    x 1.641050 0.000000 0.012080 
#    y 0.000000 1.603710 0.000000 
#    z 0.012080 0.000000 1.611090 
# 
# From -- ./inp_files/346007.got.cif
#   From: 2010.05.17/outbox.cif.g08.bks.cpg/sg12_174_cif.got.tgz:346007.got - 2010.06.03 13:09:07.
