data_PCOD9183995
_publ_section_title
;
Structure prediction by ZEFSAII (Michael W. Deem and Ramdas Pophale) SiO2 
 PCOD9183995
Probable space group: C 2/M
;
_chemical_formula_sum "Si O2"
_cell_formula_units_Z 52
_cell_length_a 21.492940
_cell_length_b 11.611915
_cell_length_c 12.444658
_cell_angle_alpha 90.000000
_cell_angle_beta 48.056809
_cell_angle_gamma 90.000000
_cell_volume 2310.167291
_symmetry_space_group_name_H-M "C 2/M"
_symmetry_group_IT_number 12
_symmetry_cell_setting 'monoclinic'
loop_
_space_group_symop_operation_xyz
x,y,z
-x,y,-z
-x,-y,-z
x,-y,z
1/2+x,1/2+y,z
1/2-x,1/2+y,-z
1/2-x,1/2-y,-z
1/2+x,1/2-y,z
loop_
_atom_site_type_symbol
_atom_site_label
_atom_site_fract_x
_atom_site_fract_y
_atom_site_fract_z
Si Si1 0.525838 0.636097 0.091861
Si Si2 0.113954 0.000000 0.497617
Si Si3 0.352967 0.137406 0.797804
Si Si4 0.808242 0.269610 0.080686
Si Si5 0.682128 0.874873 0.476189
Si Si6 0.974443 0.768780 0.374137
Si Si7 0.778875 0.341702 0.335282
O O1 0.510160 0.500000 0.127443
O O2 0.479654 0.705474 0.239202
O O3 0.500000 0.664406 0.000000
O O4 0.622237 0.670081 0.995730
O O5 0.188274 0.097716 0.437428
O O6 0.046558 0.105083 0.556506
O O7 0.281684 0.206952 0.815067
O O8 0.439739 0.207967 0.688990
O O9 0.359786 0.000000 0.769077
O O10 0.321885 0.157247 0.957108
O O11 0.817897 0.351177 0.173006
O O12 0.599623 0.821198 0.521374
O O13 0.761625 0.793737 0.369611
O O14 0.671477 0.880069 0.617792
O O15 0.699469 0.000000 0.412937
#
# Coordination Sequence:
#
# PCOD9183995 Si02
#       7
#     8   4   8   8   8   8   8
#     4  10  19  33  56  88 118 156 193 242 297 351
#     4  10  20  38  60  82 119 156 196 242 287 352
#     4  10  22  40  62  86 115 159 201 251 299 351
#     4  10  22  39  58  89 120 154 199 245 301 356
#     4  10  20  35  57  87 120 158 195 238 293 353
#     4  10  20  37  58  84 121 157 201 244 295 352
#     4  10  21  37  58  87 121 158 193 242 297 352
#
# _framework density 22.509191999999999
#
# number of rings (size 3 to 8) (size 9 to 14) (size 15 to 20)
#    0.000    2.000    1.538    1.846    1.077    1.231 
#    1.385    3.846    0.000    9.692    0.000    0.000 
#    0.000    0.000    0.000    0.000    0.000    0.000 
#
# Total GULP energy -144734.865278 kJ/mol
# GULP energy per Si atom -5566.725588 kJ/mol
# Density = 2.245796 g / cm^3
# Si number density = 22.509192 Si / 1000 Ang^3
#
#
#
# Elastic Constant Matrix: (Units=GPa)
#
#
# Indices 1 2 3 4 5 6 
#
# 1 64.4749 17.1643 17.5773 0.0000 9.6089 0.0000
# 2 17.1643 157.0540 5.3441 0.0000 -22.3151 0.0000
# 3 17.5773 5.3441 37.3043 0.0000 -0.4768 0.0000
# 4 0.0000 0.0000 0.0000 7.3930 0.0000 -9.6752
# 5 9.6089 -22.3151 -0.4768 0.0000 45.5898 0.0000
# 6 0.0000 0.0000 0.0000 -9.6752 0.0000 15.9627
#
#
#
# Elastic Compliance Matrix: (Units=1/GPa)
#
#
# Indices 1 2 3 4 5 6 
#
# 1 0.019428 -0.002598 -0.008852 0.000000 -0.005459 0.000000
# 2 -0.002598 0.007223 0.000241 0.000000 0.004086 0.000000
# 3 -0.008852 0.000241 0.030972 0.000000 0.002308 0.000000
# 4 0.000000 0.000000 0.000000 0.654130 0.000000 0.396476
# 5 -0.005459 0.004086 0.002308 0.000000 0.025109 0.000000
# 6 0.000000 0.000000 0.000000 0.396476 0.000000 0.302955
#
#
# Mechanical properties :
#
#
# Convention : Reuss Voigt Hill
#
# Bulk Modulus (GPa) = 28.40298 37.66717 33.03507
# Shear Modulus (GPa) = 4.65562 28.37226 16.51394
#
# Velocity S-wave (km/s) = 1.43973 3.55417 2.71154
# Velocity P-wave (km/s) = 3.92550 5.79769 4.95090
#
# Compressibility (1/GPa) = 0.03520758
#
# Stress axis : x y z
#
# Youngs Moduli (GPa) = 51.47133 138.43802 32.28677
#
# Poissons Ratio (x) = 0.35962 0.28580
# Poissons Ratio (y) = 0.13371 -0.00780
# Poissons Ratio (z) = 0.45562 -0.03342
#
# Static dielectric constant tensor:
#      x y z
#    x 1.833840 0.000000 0.062310 
#    y 0.000000 1.823410 0.000000 
#    z 0.062310 0.000000 1.881310 
# 
# From -- ./inp_files/232329.got.cif
#   From: 2010.05.17/outbox.cif.g08.bks.cpg/sg12_117_cif.got.tgz:232329.got - 2010.06.03 13:09:07.
