data_PCOD9183160
_publ_section_title
;
Structure prediction by ZEFSAII (Michael W. Deem and Ramdas Pophale) SiO2 
 PCOD9183160
Probable space group: C 2/M
;
_chemical_formula_sum "Si O2"
_cell_formula_units_Z 60
_cell_length_a 23.884713
_cell_length_b 13.578780
_cell_length_c 12.478679
_cell_angle_alpha 90.000000
_cell_angle_beta 58.060467
_cell_angle_gamma 90.000000
_cell_volume 3434.440029
_symmetry_space_group_name_H-M "C 2/M"
_symmetry_group_IT_number 12
_symmetry_cell_setting 'monoclinic'
loop_
_space_group_symop_operation_xyz
x,y,z
-x,y,-z
-x,-y,-z
x,-y,z
1/2+x,1/2+y,z
1/2-x,1/2+y,-z
1/2-x,1/2-y,-z
1/2+x,1/2-y,z
loop_
_atom_site_type_symbol
_atom_site_label
_atom_site_fract_x
_atom_site_fract_y
_atom_site_fract_z
Si Si1 0.375697 0.115354 0.679620
Si Si2 0.281983 0.388612 0.532360
Si Si3 0.245945 0.685510 0.336764
Si Si4 0.528949 0.382353 0.085954
Si Si5 0.325478 0.691546 0.048187
Si Si6 0.000000 0.255330 0.500000
Si Si7 0.560094 0.385780 0.618641
Si Si8 0.287750 0.111546 0.981562
O O1 0.323769 0.157094 0.645616
O O2 0.442387 0.176892 0.606650
O O3 0.339540 0.123466 0.831151
O O4 0.387461 0.000000 0.646918
O O5 0.266447 0.500000 0.583050
O O6 0.257681 0.371556 0.435433
O O7 0.253125 0.301123 0.633991
O O8 0.361199 0.376193 0.451993
O O9 0.299926 0.660819 0.191524
O O10 0.542437 0.500000 0.069089
O O11 0.475533 0.364607 0.232622
O O12 0.500000 0.353415 0.000000
O O13 0.597485 0.328246 0.040362
O O14 0.283217 0.633275 0.001166
O O15 0.304889 0.804762 0.049330
O O16 0.031615 0.186413 0.558535
O O17 0.545643 0.500000 0.605644
O O18 0.290234 0.000000 0.019043
#
# Coordination Sequence:
#
# PCOD9183160 Si02
#       8
#     8   8   8   8   8   4   8   8
#     4  10  20  34  52  76 102 137 177 217 261 306
#     4  10  20  36  55  78 105 137 175 217 265 311
#     4  10  20  35  55  77 104 135 173 223 263 309
#     4  10  20  34  54  80 106 137 176 216 261 316
#     4  10  19  33  54  79 104 137 173 213 266 307
#     4  12  20  34  52  76 110 140 174 216 256 322
#     4  10  21  35  53  78 109 142 173 213 266 319
#     4   9  19  34  52  75 105 135 173 217 259 309
#
# _framework density 17.470096000000002
#
# number of rings (size 3 to 8) (size 9 to 14) (size 15 to 20)
#    0.000    2.000    1.333    2.800    0.000    3.200 
#    0.000    0.000    0.000    0.400    0.000    0.000 
#    0.000    0.000    0.000    0.000    0.000    0.000 
#
# Total GULP energy -167471.312838 kJ/mol
# GULP energy per Si atom -5582.377095 kJ/mol
# Density = 1.743033 g / cm^3
# Si number density = 17.470096 Si / 1000 Ang^3
#
#
#
# Elastic Constant Matrix: (Units=GPa)
#
#
# Indices 1 2 3 4 5 6 
#
# 1 40.8359 -1.7917 -3.1561 0.0000 -1.3505 0.0000
# 2 -1.7917 48.2348 -3.6581 0.0000 -0.2857 0.0000
# 3 -3.1561 -3.6581 16.3087 0.0000 3.6090 0.0000
# 4 0.0000 0.0000 0.0000 41.9102 0.0000 -1.8088
# 5 -1.3505 -0.2857 3.6090 0.0000 19.2282 0.0000
# 6 0.0000 0.0000 0.0000 -1.8088 0.0000 20.2772
#
#
#
# Elastic Compliance Matrix: (Units=1/GPa)
#
#
# Indices 1 2 3 4 5 6 
#
# 1 0.024955 0.001306 0.004935 0.000000 0.000846 0.000000
# 2 0.001306 0.021166 0.005123 0.000000 -0.000555 0.000000
# 3 0.004935 0.005123 0.066072 0.000000 -0.011979 0.000000
# 4 0.000000 0.000000 0.000000 0.023953 0.000000 0.002137
# 5 0.000846 -0.000555 -0.011979 0.000000 0.054306 0.000000
# 6 0.000000 0.000000 0.000000 0.002137 0.000000 0.049507
#
#
# Mechanical properties :
#
#
# Convention : Reuss Voigt Hill
#
# Bulk Modulus (GPa) = 7.41171 9.79641 8.60406
# Shear Modulus (GPa) = 19.06915 23.88213 21.47564
#
# Velocity S-wave (km/s) = 3.30742 3.70135 3.50991
# Velocity P-wave (km/s) = 4.34017 4.88736 4.62187
#
# Compressibility (1/GPa) = 0.13492155
#
# Stress axis : x y z
#
# Youngs Moduli (GPa) = 40.07219 47.24625 15.13503
#
# Poissons Ratio (x) = -0.06172 -0.07469
# Poissons Ratio (y) = -0.05234 -0.07754
# Poissons Ratio (z) = -0.19776 -0.24205
#
# Static dielectric constant tensor:
#      x y z
#    x 1.562530 0.000000 0.002930 
#    y 0.000000 1.593370 0.000000 
#    z 0.002930 0.000000 1.572630 
# 
# From -- ./inp_files/176456.got.cif
#   From: 2010.05.17/outbox.cif.g08.bks.cpg/sg12_89_cif.got.tgz:176456.got - 2010.06.03 13:09:07.
