data_PCOD9183235
_publ_section_title
;
Structure prediction by ZEFSAII (Michael W. Deem and Ramdas Pophale) SiO2 
 PCOD9183235
Probable space group: C 2/M
;
_chemical_formula_sum "Si O2"
_cell_formula_units_Z 48
_cell_length_a 12.997880
_cell_length_b 12.992700
_cell_length_c 11.914085
_cell_angle_alpha 90.000000
_cell_angle_beta 104.911365
_cell_angle_gamma 90.000000
_cell_volume 1944.266838
_symmetry_space_group_name_H-M "C 2/M"
_symmetry_group_IT_number 12
_symmetry_cell_setting 'monoclinic'
loop_
_space_group_symop_operation_xyz
x,y,z
-x,y,-z
-x,-y,-z
x,-y,z
1/2+x,1/2+y,z
1/2-x,1/2+y,-z
1/2-x,1/2-y,-z
1/2+x,1/2-y,z
loop_
_atom_site_type_symbol
_atom_site_label
_atom_site_fract_x
_atom_site_fract_y
_atom_site_fract_z
Si Si1 0.659979 0.656990 0.565859
Si Si2 0.230407 0.385072 0.897631
Si Si3 0.118684 0.693968 0.085130
Si Si4 0.367688 0.886422 0.497965
Si Si5 0.998316 0.659062 0.742983
Si Si6 0.493736 0.610564 0.689243
O O1 0.655056 0.781000 0.574633
O O2 0.774735 0.620117 0.565450
O O3 0.608270 0.611165 0.661287
O O4 0.587996 0.626244 0.437755
O O5 0.273020 0.500000 0.896795
O O6 0.314114 0.299350 0.879961
O O7 0.116892 0.375814 0.803148
O O8 0.193209 0.364348 0.015757
O O9 0.088078 0.628501 0.187056
O O10 0.000000 0.713354 0.000000
O O11 0.469714 0.872724 0.607862
O O12 0.360824 0.000000 0.444998
O O13 0.990694 0.783179 0.753473
O O14 0.473489 0.500000 0.737718
#
# Coordination Sequence:
#
# PCOD9183235 Si02
#       6
#     8   8   8   8   8   8
#     4   9  19  34  53  78 111 148 199 237 273 339
#     4  10  21  40  63  85 117 155 185 229 294 346
#     4   9  21  41  61  86 117 147 191 236 277 347
#     4  10  19  33  54  80 112 151 191 236 284 333
#     4  10  22  35  57  88 120 143 190 240 282 346
#     4  10  19  35  56  78 110 151 191 235 286 330
#
# _framework density 24.68797
#
# number of rings (size 3 to 8) (size 9 to 14) (size 15 to 20)
#    0.000    2.333    0.000    2.500    2.333    4.667 
#    0.000   14.167    0.000    0.000    0.000    0.000 
#    0.000    0.000    0.000    0.000    0.000    0.000 
#
# Total GULP energy -134148.467604 kJ/mol
# GULP energy per Si atom -5589.519484 kJ/mol
# Density = 2.463178 g / cm^3
# Si number density = 24.687970 Si / 1000 Ang^3
#
#
#
# Elastic Constant Matrix: (Units=GPa)
#
#
# Indices 1 2 3 4 5 6 
#
# 1 78.1480 10.9435 -13.1391 0.0000 -4.3080 0.0000
# 2 10.9435 189.5592 13.7616 0.0000 2.3314 0.0000
# 3 -13.1391 13.7616 51.1839 0.0000 -11.4588 0.0000
# 4 0.0000 0.0000 0.0000 -9.6573 0.0000 -73.9802
# 5 -4.3080 2.3314 -11.4588 0.0000 21.2651 0.0000
# 6 0.0000 0.0000 0.0000 -73.9802 0.0000 -359.7465
#
#
#
# Elastic Compliance Matrix: (Units=1/GPa)
#
#
# Indices 1 2 3 4 5 6 
#
# 1 0.014190 -0.001276 0.005300 0.000000 0.005870 0.000000
# 2 -0.001276 0.005541 -0.002287 0.000000 -0.002098 0.000000
# 3 0.005300 -0.002287 0.024801 0.000000 0.014689 0.000000
# 4 0.000000 0.000000 0.000000 0.179974 0.000000 -0.037011
# 5 0.005870 -0.002098 0.014689 0.000000 0.056360 0.000000
# 6 0.000000 0.000000 0.000000 -0.037011 0.000000 0.004831
#
#
# Mechanical properties :
#
#
# Convention : Reuss Voigt Hill
#
# Bulk Modulus (GPa) = 20.83121 38.00259 29.41690
# Shear Modulus (GPa) = 16.76582 -49.13941 -16.18680
#
# Velocity S-wave (km/s) = 2.60880 -4.46625 -2.56335
# Velocity P-wave (km/s) = 4.18695 3.34215 1.78334
#
# Compressibility (1/GPa) = 0.04800490
#
# Stress axis : x y z
#
# Youngs Moduli (GPa) = 70.47407 180.47531 40.32057
#
# Poissons Ratio (x) = 0.23031 -0.21369
# Poissons Ratio (y) = 0.08994 0.09222
# Poissons Ratio (z) = -0.37350 0.41277
#
# Static dielectric constant tensor:
#      x y z
#    x 1.991200 0.000000 0.001740 
#    y 0.000000 1.952920 0.000000 
#    z 0.001740 0.000000 1.993750 
# 
# From -- ./inp_files/212934.got.cif
#   From: 2010.05.17/outbox.cif.g08.bks.cpg/sg12_107_cif.got.tgz:212934.got - 2010.06.03 13:09:07.
