data_PCOD9183791
_publ_section_title
;
Structure prediction by ZEFSAII (Michael W. Deem and Ramdas Pophale) SiO2 
 PCOD9183791
Probable space group: C 2/M
;
_chemical_formula_sum "Si O2"
_cell_formula_units_Z 64
_cell_length_a 14.907638
_cell_length_b 8.525926
_cell_length_c 29.186929
_cell_angle_alpha 90.000000
_cell_angle_beta 116.104877
_cell_angle_gamma 90.000000
_cell_volume 3331.274034
_symmetry_space_group_name_H-M "C 2/M"
_symmetry_group_IT_number 12
_symmetry_cell_setting 'monoclinic'
loop_
_space_group_symop_operation_xyz
x,y,z
-x,y,-z
-x,-y,-z
x,-y,z
1/2+x,1/2+y,z
1/2-x,1/2+y,-z
1/2-x,1/2-y,-z
1/2+x,1/2-y,z
loop_
_atom_site_type_symbol
_atom_site_label
_atom_site_fract_x
_atom_site_fract_y
_atom_site_fract_z
Si Si1 0.052019 0.688727 0.875737
Si Si2 0.268942 0.688172 0.905653
Si Si3 0.341697 0.687017 0.825262
Si Si4 0.517365 0.811729 0.360287
Si Si5 0.445180 0.689862 0.441419
Si Si6 0.307608 0.312308 0.283051
Si Si7 0.726872 0.190556 0.363844
Si Si8 0.907963 0.311420 0.011211
O O1 0.040021 0.500000 0.873164
O O2 0.153323 0.728385 0.872162
O O3 0.951695 0.763574 0.834364
O O4 0.073095 0.741916 0.932840
O O5 0.276127 0.500000 0.910283
O O6 0.329934 0.744300 0.875204
O O7 0.310756 0.753484 0.962578
O O8 0.332059 0.500000 0.823077
O O9 0.256103 0.757805 0.774439
O O10 0.499441 0.751422 0.407962
O O11 0.419281 0.755948 0.310654
O O12 0.622231 0.755098 0.361921
O O13 0.518703 0.000000 0.361018
O O14 0.500000 0.741304 0.500000
O O15 0.447471 0.500000 0.440106
O O16 0.328297 0.737748 0.413247
O O17 0.314945 0.500000 0.285676
O O18 0.248425 0.262055 0.316101
O O19 0.723509 0.000000 0.363653
O O20 0.905272 0.500000 0.011631
O O21 0.000000 0.259625 0.000000
#
# Coordination Sequence:
#
# PCOD9183791 Si02
#       8
#     8   8   8   8   8   8   8   8
#     4  10  21  38  56  77 106 141 175 210 262 322
#     4  10  22  37  55  78 107 141 174 211 263 323
#     4  11  23  38  55  80 108 135 173 221 267 313
#     4  10  19  34  56  81 109 140 180 228 271 314
#     4   9  18  34  54  79 115 155 190 221 260 316
#     4  10  21  39  59  77 103 141 179 218 270 327
#     4   8  17  34  55  78 106 143 181 219 270 320
#     4  10  19  33  56  81 105 135 174 218 259 309
#
# _framework density 19.211867999999999
#
# number of rings (size 3 to 8) (size 9 to 14) (size 15 to 20)
#    0.000    2.250    1.250    2.250    0.000    3.500 
#    0.000   11.250    0.000    0.000    0.000    0.000 
#    0.000    0.000    0.000    0.000    0.000    0.000 
#
# Total GULP energy -178561.508064 kJ/mol
# GULP energy per Si atom -5580.047127 kJ/mol
# Density = 1.916814 g / cm^3
# Si number density = 19.211868 Si / 1000 Ang^3
#
#
#
# Elastic Constant Matrix: (Units=GPa)
#
#
# Indices 1 2 3 4 5 6 
#
# 1 120.5111 15.5020 30.4844 0.0000 20.4621 0.0000
# 2 15.5020 17.1592 11.7104 0.0000 4.7295 0.0000
# 3 30.4844 11.7104 98.2938 0.0000 19.4266 0.0000
# 4 0.0000 0.0000 0.0000 27.5562 0.0000 3.5896
# 5 20.4621 4.7295 19.4266 0.0000 16.4399 0.0000
# 6 0.0000 0.0000 0.0000 3.5896 0.0000 24.0930
#
#
#
# Elastic Compliance Matrix: (Units=1/GPa)
#
#
# Indices 1 2 3 4 5 6 
#
# 1 0.011223 -0.006677 -0.000397 0.000000 -0.011580 0.000000
# 2 -0.006677 0.069327 -0.005074 0.000000 -0.005637 0.000000
# 3 -0.000397 -0.005074 0.013719 0.000000 -0.014258 0.000000
# 4 0.000000 0.000000 0.000000 0.037008 0.000000 -0.005514
# 5 -0.011580 -0.005637 -0.014258 0.000000 0.093711 0.000000
# 6 0.000000 0.000000 0.000000 -0.005514 0.000000 0.042327
#
#
# Mechanical properties :
#
#
# Convention : Reuss Voigt Hill
#
# Bulk Modulus (GPa) = 14.29131 39.03976 26.66554
# Shear Modulus (GPa) = 15.87626 25.50229 20.68928
#
# Velocity S-wave (km/s) = 2.87780 3.64734 3.28518
# Velocity P-wave (km/s) = 4.30084 6.17270 5.31975
#
# Compressibility (1/GPa) = 0.06997257
#
# Stress axis : x y z
#
# Youngs Moduli (GPa) = 89.09921 14.42446 72.89116
#
# Poissons Ratio (x) = 0.09631 0.02892
# Poissons Ratio (y) = 0.59493 0.36988
# Poissons Ratio (z) = 0.03534 0.07320
#
# Static dielectric constant tensor:
#      x y z
#    x 1.684890 0.000000 -0.001130 
#    y 0.000000 1.656140 0.000000 
#    z -0.001130 0.000000 1.655450 
# 
# From -- ./inp_files/375100.got.cif
#   From: 2010.05.17/outbox.cif.g08.bks.cpg/sg12_188_cif.got.tgz:375100.got - 2010.06.03 13:09:07.
