data_PCOD9183946
_publ_section_title
;
Structure prediction by ZEFSAII (Michael W. Deem and Ramdas Pophale) SiO2 
 PCOD9183946
Probable space group: C 2/M
;
_chemical_formula_sum "Si O2"
_cell_formula_units_Z 64
_cell_length_a 20.270112
_cell_length_b 8.567191
_cell_length_c 21.386148
_cell_angle_alpha 90.000000
_cell_angle_beta 65.376557
_cell_angle_gamma 90.000000
_cell_volume 3376.155501
_symmetry_space_group_name_H-M "C 2/M"
_symmetry_group_IT_number 12
_symmetry_cell_setting 'monoclinic'
loop_
_space_group_symop_operation_xyz
x,y,z
-x,y,-z
-x,-y,-z
x,-y,z
1/2+x,1/2+y,z
1/2-x,1/2+y,-z
1/2-x,1/2-y,-z
1/2+x,1/2-y,z
loop_
_atom_site_type_symbol
_atom_site_label
_atom_site_fract_x
_atom_site_fract_y
_atom_site_fract_z
Si Si1 0.333893 0.312422 0.388892
Si Si2 0.570097 0.323421 0.429817
Si Si3 0.454892 0.310521 0.830112
Si Si4 0.293842 0.312706 0.923767
Si Si5 0.883267 0.808850 0.231142
Si Si6 0.901177 0.814096 0.716925
Si Si7 0.752094 0.813553 0.192516
Si Si8 0.828717 0.680295 0.517682
O O1 0.335254 0.500000 0.385577
O O2 0.365306 0.258455 0.309834
O O3 0.250815 0.257004 0.432075
O O4 0.365924 0.262924 0.443378
O O5 0.500000 0.322969 0.500000
O O6 0.601666 0.500000 0.419874
O O7 0.555828 0.287686 0.363489
O O8 0.624413 0.203379 0.439321
O O9 0.455939 0.500000 0.833416
O O10 0.378875 0.260098 0.891571
O O11 0.534914 0.258179 0.819319
O O12 0.443943 0.265164 0.761838
O O13 0.293767 0.500000 0.924050
O O14 0.257363 0.256873 0.873224
O O15 0.250000 0.250000 0.000000
O O16 0.820853 0.759628 0.206843
O O17 0.882390 0.000000 0.231878
O O18 0.823189 0.732519 0.744260
O O19 0.888117 0.000000 0.729173
O O20 0.756788 0.000000 0.184923
O O21 0.820611 0.500000 0.504543
#
# Coordination Sequence:
#
# PCOD9183946 Si02
#       8
#     8   8   8   8   8   8   8   8
#     4   9  18  32  52  71  94 133 175 217 262 320
#     4  10  21  33  49  71  94 131 182 229 272 318
#     4   8  16  31  53  80 105 132 173 221 259 300
#     4  10  20  37  61  85 111 144 177 212 252 301
#     4   9  17  30  53  80 104 133 175 221 261 304
#     4   9  18  33  52  74 101 137 181 227 269 314
#     4  10  19  33  56  85 111 139 173 210 259 317
#     4  10  20  33  46  68  99 131 171 220 279 329
#
# _framework density 18.956472999999999
#
# number of rings (size 3 to 8) (size 9 to 14) (size 15 to 20)
#    0.000    2.625    0.000    2.625    1.750    2.250 
#    0.000    1.875    0.000   12.000    0.000    0.000 
#    0.000    0.000    0.000    0.000    0.000    0.000 
#
# Total GULP energy -178263.914339 kJ/mol
# GULP energy per Si atom -5570.747323 kJ/mol
# Density = 1.891333 g / cm^3
# Si number density = 18.956473 Si / 1000 Ang^3
#
#
#
# Elastic Constant Matrix: (Units=GPa)
#
#
# Indices 1 2 3 4 5 6 
#
# 1 95.2732 12.6434 32.7939 0.0001 -15.1579 -0.0003
# 2 12.6434 14.7385 18.2767 0.0000 -1.8660 -0.0006
# 3 32.7939 18.2767 122.9695 0.0001 -10.6518 -0.0001
# 4 0.0001 0.0000 0.0001 18.7685 0.0000 5.9766
# 5 -15.1579 -1.8660 -10.6518 0.0000 13.2462 0.0000
# 6 -0.0003 -0.0006 -0.0001 5.9766 0.0000 21.1187
#
#
#
# Elastic Compliance Matrix: (Units=1/GPa)
#
#
# Indices 1 2 3 4 5 6 
#
# 1 0.014378 -0.008959 -0.001276 0.000000 0.014165 0.000000
# 2 -0.008959 0.088807 -0.011409 -0.000001 -0.006916 0.000002
# 3 -0.001276 -0.011409 0.010644 0.000000 0.005492 0.000000
# 4 0.000000 -0.000001 0.000000 0.058558 0.000000 -0.016572
# 5 0.014165 -0.006916 0.005492 0.000000 0.095145 0.000000
# 6 0.000000 0.000002 0.000000 -0.016572 0.000000 0.052041
#
#
# Mechanical properties :
#
#
# Convention : Reuss Voigt Hill
#
# Bulk Modulus (GPa) = 14.17601 40.04546 27.11073
# Shear Modulus (GPa) = 12.94083 21.91115 17.42599
#
# Velocity S-wave (km/s) = 2.61561 3.40349 3.03522
# Velocity P-wave (km/s) = 4.07631 6.05110 5.15908
#
# Compressibility (1/GPa) = 0.07054171
#
# Stress axis : x y z
#
# Youngs Moduli (GPa) = 69.55180 11.26034 93.95150
#
# Poissons Ratio (x) = 0.10088 0.11987
# Poissons Ratio (y) = 0.62308 1.07191
# Poissons Ratio (z) = 0.08874 0.12847
#
# Static dielectric constant tensor:
#      x y z
#    x 1.692930 0.000000 -0.001460 
#    y 0.000000 1.672830 0.000000 
#    z -0.001460 0.000000 1.662810 
# 
# From -- ./inp_files/319938.got.cif
#   From: 2010.05.17/outbox.cif.g08.bks.cpg/sg12_160_cif.got.tgz:319938.got - 2010.06.03 13:09:07.
