data_PCOD9183990
_publ_section_title
;
Structure prediction by ZEFSAII (Michael W. Deem and Ramdas Pophale) SiO2 
 PCOD9183990
Probable space group: C 2/M
;
_chemical_formula_sum "Si O2"
_cell_formula_units_Z 56
_cell_length_a 14.817617
_cell_length_b 19.944609
_cell_length_c 8.992752
_cell_angle_alpha 90.000000
_cell_angle_beta 124.155164
_cell_angle_gamma 90.000000
_cell_volume 2199.252515
_symmetry_space_group_name_H-M "C 2/M"
_symmetry_group_IT_number 12
_symmetry_cell_setting 'monoclinic'
loop_
_space_group_symop_operation_xyz
x,y,z
-x,y,-z
-x,-y,-z
x,-y,z
1/2+x,1/2+y,z
1/2-x,1/2+y,-z
1/2-x,1/2-y,-z
1/2+x,1/2-y,z
loop_
_atom_site_type_symbol
_atom_site_label
_atom_site_fract_x
_atom_site_fract_y
_atom_site_fract_z
Si Si1 0.397591 0.743017 0.256820
Si Si2 0.831134 0.224625 0.850770
Si Si3 0.557675 0.829977 0.271807
Si Si4 0.246302 0.579605 0.410625
Si Si5 0.493963 0.399661 0.654202
Si Si6 0.853613 0.422155 0.006636
Si Si7 0.159263 0.925112 0.062718
O O1 0.297506 0.760264 0.270019
O O2 0.498962 0.792135 0.349302
O O3 0.442102 0.668982 0.314783
O O4 0.361458 0.745209 0.048273
O O5 0.855169 0.144973 0.862952
O O6 0.105489 0.272290 0.205748
O O7 0.655133 0.878261 0.410752
O O8 0.461293 0.877482 0.117987
O O9 0.240350 0.500000 0.429241
O O10 0.365601 0.605216 0.559741
O O11 0.213614 0.591834 0.206772
O O12 0.500000 0.435038 0.500000
O O13 0.558717 0.429165 0.853525
O O14 0.886505 0.500000 0.032783
O O15 0.769151 0.413707 0.065066
O O16 0.167625 0.000000 0.141548
#
# Coordination Sequence:
#
# PCOD9183990 Si02
#       7
#     8   8   8   8   8   8   8
#     4  10  21  35  55  82 114 154 199 239 291 354
#     4  10  20  35  58  85 117 154 193 243 299 351
#     4  12  22  37  59  86 122 154 196 249 300 350
#     4  11  22  33  52  83 117 156 190 232 302 361
#     4  11  21  35  54  82 118 157 193 240 292 358
#     4  10  19  33  56  87 121 150 186 245 305 352
#     4  10  20  35  59  89 117 153 200 244 295 355
#
# _framework density 25.463197000000001
#
# number of rings (size 3 to 8) (size 9 to 14) (size 15 to 20)
#    0.000    1.429    2.857    4.286    2.000    2.286 
#    0.000    0.000    0.000    7.714    0.000    0.000 
#    0.000    4.000    0.000    1.857    0.000    3.000 
#
# Total GULP energy -156856.502185 kJ/mol
# GULP energy per Si atom -5602.017935 kJ/mol
# Density = 2.540524 g / cm^3
# Si number density = 25.463197 Si / 1000 Ang^3
#
#
#
# Elastic Constant Matrix: (Units=GPa)
#
#
# Indices 1 2 3 4 5 6 
#
# 1 132.9847 66.7086 79.4922 0.0000 29.7071 0.0000
# 2 66.7086 197.0927 70.9058 0.0000 31.4541 0.0000
# 3 79.4922 70.9058 141.1996 0.0000 39.6435 0.0000
# 4 0.0000 0.0000 0.0000 -18.6490 0.0000 82.6814
# 5 29.7071 31.4541 39.6435 0.0000 52.9817 0.0000
# 6 0.0000 0.0000 0.0000 82.6814 0.0000 -3.9145
#
#
#
# Elastic Compliance Matrix: (Units=1/GPa)
#
#
# Indices 1 2 3 4 5 6 
#
# 1 0.012040 -0.001883 -0.005382 0.000000 -0.001606 0.000000
# 2 -0.001883 0.006611 -0.001841 0.000000 -0.001492 0.000000
# 3 -0.005382 -0.001841 0.012511 0.000000 -0.005250 0.000000
# 4 0.000000 0.000000 0.000000 0.000579 0.000000 0.012225
# 5 -0.001606 -0.001492 -0.005250 0.000000 0.024589 0.000000
# 6 0.000000 0.000000 0.000000 0.012225 0.000000 0.002757
#
#
# Mechanical properties :
#
#
# Convention : Reuss Voigt Hill
#
# Bulk Modulus (GPa) = 77.21700 100.61004 88.91352
# Shear Modulus (GPa) = 61.26251 23.02832 42.14541
#
# Velocity S-wave (km/s) = 4.91034 3.01055 4.07277
# Velocity P-wave (km/s) = 7.90819 7.18904 7.55717
#
# Compressibility (1/GPa) = 0.01295052
#
# Stress axis : x y z
#
# Youngs Moduli (GPa) = 83.05772 151.25271 79.93073
#
# Poissons Ratio (x) = 0.28474 0.43017
# Poissons Ratio (y) = 0.15636 0.14719
# Poissons Ratio (z) = 0.44700 0.27852
#
# Static dielectric constant tensor:
#      x y z
#    x 2.015640 0.000000 -0.049460 
#    y 0.000000 2.004470 0.000000 
#    z -0.049460 0.000000 2.156690 
# 
# From -- ./inp_files/290344.got.cif
#   From: 2010.05.17/outbox.cif.g08.bks.cpg/sg12_146_cif.got.tgz:290344.got - 2010.06.03 13:09:07.
