data_PCOD9183676
_publ_section_title
;
Structure prediction by ZEFSAII (Michael W. Deem and Ramdas Pophale) SiO2 
 PCOD9183676
Probable space group: C 2/M
;
_chemical_formula_sum "Si O2"
_cell_formula_units_Z 58
_cell_length_a 23.641279
_cell_length_b 7.683010
_cell_length_c 25.604520
_cell_angle_alpha 90.000000
_cell_angle_beta 143.577696
_cell_angle_gamma 90.000000
_cell_volume 2761.274522
_symmetry_space_group_name_H-M "C 2/M"
_symmetry_group_IT_number 12
_symmetry_cell_setting 'monoclinic'
loop_
_space_group_symop_operation_xyz
x,y,z
-x,y,-z
-x,-y,-z
x,-y,z
1/2+x,1/2+y,z
1/2-x,1/2+y,-z
1/2-x,1/2-y,-z
1/2+x,1/2-y,z
loop_
_atom_site_type_symbol
_atom_site_label
_atom_site_fract_x
_atom_site_fract_y
_atom_site_fract_z
Si Si1 0.298027 0.208723 0.263198
Si Si2 0.340971 0.204206 0.000894
Si Si3 0.375742 0.289723 0.138610
Si Si4 0.971671 0.792168 0.314722
Si Si5 0.318101 0.707710 0.502082
Si Si6 0.602996 0.300552 0.069115
Si Si7 0.500000 0.500000 0.500000
Si Si8 0.363290 0.797411 0.427553
O O1 0.386782 0.261893 0.292892
O O2 0.197501 0.277190 0.166243
O O3 0.316572 0.255671 0.337256
O O4 0.294674 0.000000 0.257992
O O5 0.398374 0.229497 0.097080
O O6 0.337065 0.000000 0.985401
O O7 0.232936 0.266690 0.930698
O O8 0.379753 0.300805 0.979734
O O9 0.376572 0.500000 0.138862
O O10 0.439325 0.226470 0.233735
O O11 0.074944 0.723033 0.407044
O O12 0.981398 0.000000 0.317433
O O13 0.319394 0.500000 0.498788
O O14 0.250000 0.750000 0.500000
O O15 0.295314 0.780235 0.427431
O O16 0.596170 0.500000 0.083915
O O17 0.500000 0.215282 0.000000
O O18 0.447132 0.655463 0.495263
O O19 0.393911 0.000000 0.446550
#
# Coordination Sequence:
#
# PCOD9183676 Si02
#       8
#     8   8   8   8   8   8   2   8
#     4  10  22  38  62  93 124 158 207 265 320 380
#     4  10  19  33  55  84 116 150 191 244 297 355
#     4   9  18  34  55  83 114 151 191 241 301 360
#     4  10  21  37  62  90 117 157 205 257 315 375
#     4  11  24  44  67  93 129 173 217 267 334 402
#     4  10  21  39  60  85 119 164 205 250 313 382
#     4  12  22  40  68 106 134 172 222 270 344 388
#     4  11  24  42  65 100 137 173 219 276 333 400
#
# _framework density 21.004795000000001
#
# number of rings (size 3 to 8) (size 9 to 14) (size 15 to 20)
#    0.000    1.793    2.069    1.862    2.897    3.586 
#    2.483    0.000    0.000    0.000    0.000    0.000 
#    0.000    0.000    0.000    0.000    0.000    0.000 
#
# Total GULP energy -161628.957023 kJ/mol
# GULP energy per Si atom -5573.412311 kJ/mol
# Density = 2.095699 g / cm^3
# Si number density = 21.004795 Si / 1000 Ang^3
#
#
#
# Elastic Constant Matrix: (Units=GPa)
#
#
# Indices 1 2 3 4 5 6 
#
# 1 107.9077 4.8622 60.6862 0.0000 -8.3723 0.0000
# 2 4.8622 69.5177 6.5562 0.0000 -1.3470 0.0002
# 3 60.6862 6.5562 122.6460 0.0000 -11.6948 0.0000
# 4 0.0000 0.0000 0.0000 7.7616 0.0000 -0.9276
# 5 -8.3723 -1.3470 -11.6948 0.0000 36.2982 0.0000
# 6 0.0000 0.0002 0.0000 -0.9276 0.0000 26.8125
#
#
#
# Elastic Compliance Matrix: (Units=1/GPa)
#
#
# Indices 1 2 3 4 5 6 
#
# 1 0.012878 -0.000291 -0.006267 0.000000 0.000940 0.000000
# 2 -0.000291 0.014467 -0.000603 0.000000 0.000275 0.000000
# 3 -0.006267 -0.000603 0.011500 0.000000 0.002237 0.000000
# 4 0.000000 0.000000 0.000000 0.129374 0.000000 0.004476
# 5 0.000940 0.000275 0.002237 0.000000 0.028498 0.000000
# 6 0.000000 0.000000 0.000000 0.004476 0.000000 0.037451
#
#
# Mechanical properties :
#
#
# Convention : Reuss Voigt Hill
#
# Bulk Modulus (GPa) = 40.77827 49.36449 45.07138
# Shear Modulus (GPa) = 19.48072 29.37225 24.42648
#
# Velocity S-wave (km/s) = 3.04870 3.74352 3.41383
# Velocity P-wave (km/s) = 5.64346 6.49906 6.08632
#
# Compressibility (1/GPa) = 0.02452286
#
# Stress axis : x y z
#
# Youngs Moduli (GPa) = 77.65424 69.12086 86.95718
#
# Poissons Ratio (x) = 0.02015 0.54493
# Poissons Ratio (y) = 0.02263 0.05243
# Poissons Ratio (z) = 0.48663 0.04167
#
# Static dielectric constant tensor:
#      x y z
#    x 1.753430 0.000000 -0.016230 
#    y 0.000000 1.751360 0.000000 
#    z -0.016230 0.000000 1.822020 
# 
# From -- ./inp_files/346554.got.cif
#   From: 2010.05.17/outbox.cif.g08.bks.cpg/sg12_174_cif.got.tgz:346554.got - 2010.06.03 13:09:07.
