data_PCOD9183812
_publ_section_title
;
Structure prediction by ZEFSAII (Michael W. Deem and Ramdas Pophale) SiO2 
 PCOD9183812
Probable space group: C 2/M
;
_chemical_formula_sum "Si O2"
_cell_formula_units_Z 56
_cell_length_a 15.168056
_cell_length_b 25.539832
_cell_length_c 11.259491
_cell_angle_alpha 90.000000
_cell_angle_beta 141.684000
_cell_angle_gamma 90.000000
_cell_volume 2704.314005
_symmetry_space_group_name_H-M "C 2/M"
_symmetry_group_IT_number 12
_symmetry_cell_setting 'monoclinic'
loop_
_space_group_symop_operation_xyz
x,y,z
-x,y,-z
-x,-y,-z
x,-y,z
1/2+x,1/2+y,z
1/2-x,1/2+y,-z
1/2-x,1/2-y,-z
1/2+x,1/2-y,z
loop_
_atom_site_type_symbol
_atom_site_label
_atom_site_fract_x
_atom_site_fract_y
_atom_site_fract_z
Si Si1 0.420217 0.184811 0.170115
Si Si2 0.346278 0.287941 0.810391
Si Si3 0.656725 0.273611 0.745318
Si Si4 0.150223 0.560158 0.594576
Si Si5 0.804448 0.884661 0.952981
Si Si6 0.511655 0.380512 0.384825
Si Si7 0.225470 0.353603 0.477084
O O1 0.426033 0.224527 0.286852
O O2 0.336588 0.132681 0.123389
O O3 0.576123 0.173250 0.286612
O O4 0.306611 0.214067 0.967719
O O5 0.218379 0.246682 0.686604
O O6 0.335285 0.333426 0.902022
O O7 0.324992 0.315666 0.661940
O O8 0.500000 0.264861 0.000000
O O9 0.565249 0.324723 0.671578
O O10 0.148240 0.500000 0.554262
O O11 0.267437 0.570534 0.820324
O O12 0.181884 0.599460 0.520654
O O13 0.000000 0.572444 0.500000
O O14 0.926431 0.898903 0.176798
O O15 0.500000 0.409313 0.500000
O O16 0.675927 0.373422 0.524583
#
# Coordination Sequence:
#
# PCOD9183812 Si02
#       7
#     8   8   8   8   8   8   8
#     4   9  18  34  55  75 112 160 192 235 292 350
#     4  10  19  33  56  81 111 155 198 251 306 349
#     4   9  21  35  50  75 115 155 213 247 274 331
#     4  10  20  37  70 105 118 134 183 248 317 388
#     4   9  18  38  56  82 123 153 177 236 319 349
#     4  11  24  39  53  80 119 169 209 245 271 346
#     4  11  22  36  62  87 119 159 188 246 319 352
#
# _framework density 20.707654000000002
#
# number of rings (size 3 to 8) (size 9 to 14) (size 15 to 20)
#    0.000    2.143    2.857    0.857    2.000    1.714 
#    0.000    3.571    0.000    1.714    0.000    2.000 
#    0.000    0.000    0.000    0.000    0.000    0.000 
#
# Total GULP energy -156158.664051 kJ/mol
# GULP energy per Si atom -5577.095145 kJ/mol
# Density = 2.066052 g / cm^3
# Si number density = 20.707654 Si / 1000 Ang^3
#
#
#
# Elastic Constant Matrix: (Units=GPa)
#
#
# Indices 1 2 3 4 5 6 
#
# 1 103.3327 10.8369 38.0127 0.0000 16.5718 0.0000
# 2 10.8369 37.6162 5.5289 0.0000 5.1238 0.0000
# 3 38.0127 5.5289 115.2383 0.0000 19.0614 0.0000
# 4 0.0000 0.0000 0.0000 13.2590 0.0000 2.7882
# 5 16.5718 5.1238 19.0614 0.0000 35.6243 0.0000
# 6 0.0000 0.0000 0.0000 2.7882 0.0000 11.1709
#
#
#
# Elastic Compliance Matrix: (Units=1/GPa)
#
#
# Indices 1 2 3 4 5 6 
#
# 1 0.011637 -0.002428 -0.003164 0.000000 -0.003371 0.000000
# 2 -0.002428 0.027677 -0.000061 0.000000 -0.002819 0.000000
# 3 -0.003164 -0.000061 0.010400 0.000000 -0.004084 0.000000
# 4 0.000000 0.000000 0.000000 0.079598 0.000000 -0.019867
# 5 -0.003371 -0.002819 -0.004084 0.000000 0.032229 0.000000
# 6 0.000000 0.000000 0.000000 -0.019867 0.000000 0.094477
#
#
# Mechanical properties :
#
#
# Convention : Reuss Voigt Hill
#
# Bulk Modulus (GPa) = 26.03711 40.54936 33.29324
# Shear Modulus (GPa) = 17.84906 25.46477 21.65691
#
# Velocity S-wave (km/s) = 2.93909 3.51055 3.23745
# Velocity P-wave (km/s) = 4.91107 6.00469 5.48520
#
# Compressibility (1/GPa) = 0.03840671
#
# Stress axis : x y z
#
# Youngs Moduli (GPa) = 85.93403 36.13151 96.15447
#
# Poissons Ratio (x) = 0.08773 0.30428
# Poissons Ratio (y) = 0.20867 0.00583
# Poissons Ratio (z) = 0.27194 0.00219
#
# Static dielectric constant tensor:
#      x y z
#    x 1.793710 0.000000 -0.025550 
#    y 0.000000 1.716280 0.000000 
#    z -0.025550 0.000000 1.822240 
# 
# From -- ./inp_files/149487.got.cif
#   From: 2010.05.17/outbox.cif.g08.bks.cpg/sg12_75_cif.got.tgz:149487.got - 2010.06.03 13:09:07.
