data_PCOD9183524
_publ_section_title
;
Structure prediction by ZEFSAII (Michael W. Deem and Ramdas Pophale) SiO2 
 PCOD9183524
Probable space group: C 2/M
;
_chemical_formula_sum "Si O2"
_cell_formula_units_Z 32
_cell_length_a 9.986221
_cell_length_b 34.130355
_cell_length_c 8.399724
_cell_angle_alpha 90.000000
_cell_angle_beta 32.740254
_cell_angle_gamma 90.000000
_cell_volume 1548.349133
_symmetry_space_group_name_H-M "C 2/M"
_symmetry_group_IT_number 12
_symmetry_cell_setting 'monoclinic'
loop_
_space_group_symop_operation_xyz
x,y,z
-x,y,-z
-x,-y,-z
x,-y,z
1/2+x,1/2+y,z
1/2-x,1/2+y,-z
1/2-x,1/2-y,-z
1/2+x,1/2-y,z
loop_
_atom_site_type_symbol
_atom_site_label
_atom_site_fract_x
_atom_site_fract_y
_atom_site_fract_z
Si Si1 0.750000 0.242677 0.809943
Si Si2 0.250000 0.169292 0.674174
Si Si3 0.750000 0.542146 0.357090
Si Si4 0.250000 0.371595 0.646206
O O1 0.750000 0.284494 0.717039
O O2 0.000000 0.222603 0.500000
O O3 0.500000 0.222603 0.000000
O O4 0.750000 0.250000 0.000000
O O5 0.500000 0.152792 0.500000
O O6 0.250000 0.160780 0.489529
O O7 0.000000 0.152792 0.000000
O O8 0.500000 0.542012 0.500000
O O9 0.750000 0.500000 0.445576
O O10 0.750000 0.584958 0.436390
O O11 0.000000 0.542012 0.000000
O O12 0.500000 0.369319 0.500000
O O13 0.000000 0.369319 0.000000
#
# Coordination Sequence:
#
# PCOD9183524 Si02
#       4
#     8   8   8   8
#     4  10  21  40  60  81 106 137 175 215 265 319
#     4  10  21  38  55  78 109 142 173 215 267 315
#     4   8  14  25  44  72 103 133 170 215 256 298
#     4  10  19  33  55  81 106 138 180 221 261 308
#
# _framework density 20.667172999999998
#
# number of rings (size 3 to 8) (size 9 to 14) (size 15 to 20)
#    0.000    2.500    0.000    2.250    0.000    0.000 
#    0.000   30.000    0.000    1.500    0.000    0.000 
#    0.000    0.000    0.000    0.000    0.000    0.000 
#
# Total GULP energy -89202.667377 kJ/mol
# GULP energy per Si atom -5575.166711 kJ/mol
# Density = 2.062013 g / cm^3
# Si number density = 20.667173 Si / 1000 Ang^3
#
#
#
# Elastic Constant Matrix: (Units=GPa)
#
#
# Indices 1 2 3 4 5 6 
#
# 1 109.8201 46.2123 64.6406 0.0000 -25.8255 0.0000
# 2 46.2123 109.7612 30.2319 0.0000 26.9290 0.0000
# 3 64.6406 30.2319 148.6621 0.0000 -39.6285 0.0000
# 4 0.0000 0.0000 0.0000 30.1780 0.0000 -17.9713
# 5 -25.8255 26.9290 -39.6285 0.0000 53.5126 0.0000
# 6 0.0000 0.0000 0.0000 -17.9713 0.0000 19.5130
#
#
#
# Elastic Compliance Matrix: (Units=1/GPa)
#
#
# Indices 1 2 3 4 5 6 
#
# 1 0.017059 -0.009100 -0.002681 0.000000 0.010827 0.000000
# 2 -0.009100 0.018168 -0.004169 0.000000 -0.016622 0.000000
# 3 -0.002681 -0.004169 0.011157 0.000000 0.009066 0.000000
# 4 0.000000 0.000000 0.000000 0.073386 0.000000 0.067588
# 5 0.010827 -0.016622 0.009066 0.000000 0.038991 0.000000
# 6 0.000000 0.000000 0.000000 0.067588 0.000000 0.113496
#
#
# Mechanical properties :
#
#
# Convention : Reuss Voigt Hill
#
# Bulk Modulus (GPa) = 69.03725 72.26811 70.65268
# Shear Modulus (GPa) = 16.18204 35.78462 25.98333
#
# Velocity S-wave (km/s) = 2.80122 4.16561 3.54959
# Velocity P-wave (km/s) = 6.62867 7.62757 7.14560
#
# Compressibility (1/GPa) = 0.01448493
#
# Stress axis : x y z
#
# Youngs Moduli (GPa) = 58.61884 55.04075 89.63197
#
# Poissons Ratio (x) = 0.50089 0.24029
# Poissons Ratio (y) = 0.53346 0.37363
# Poissons Ratio (z) = 0.15715 0.22944
#
# Static dielectric constant tensor:
#      x y z
#    x 1.772710 0.000000 -0.087930 
#    y 0.000000 1.879650 0.000000 
#    z -0.087930 0.000000 1.824890 
# 
# From -- ./inp_files/53951.got.cif
#   From: 2010.05.17/outbox.cif.g08.bks.cpg/sg12_27_cif.got.tgz:53951.got - 2010.06.03 13:09:07.
