data_PCOD9183006
_publ_section_title
;
Structure prediction by ZEFSAII (Michael W. Deem and Ramdas Pophale) SiO2 
 PCOD9183006
Probable space group: C 2/M
;
_chemical_formula_sum "Si O2"
_cell_formula_units_Z 56
_cell_length_a 31.189832
_cell_length_b 21.514828
_cell_length_c 9.403494
_cell_angle_alpha 90.000000
_cell_angle_beta 150.209072
_cell_angle_gamma 90.000000
_cell_volume 3135.116679
_symmetry_space_group_name_H-M "C 2/M"
_symmetry_group_IT_number 12
_symmetry_cell_setting 'monoclinic'
loop_
_space_group_symop_operation_xyz
x,y,z
-x,y,-z
-x,-y,-z
x,-y,z
1/2+x,1/2+y,z
1/2-x,1/2+y,-z
1/2-x,1/2-y,-z
1/2+x,1/2-y,z
loop_
_atom_site_type_symbol
_atom_site_label
_atom_site_fract_x
_atom_site_fract_y
_atom_site_fract_z
Si Si1 0.903719 0.931003 0.156647
Si Si2 0.758043 0.427348 0.104402
Si Si3 0.283469 0.176923 0.944018
Si Si4 0.963562 0.808748 0.234464
Si Si5 0.114367 0.750483 0.534194
Si Si6 0.095381 0.634364 0.284382
Si Si7 0.328521 0.203511 0.767245
O O1 0.909562 0.872443 0.068702
O O2 0.000000 0.934445 0.500000
O O3 0.883855 0.000000 0.041041
O O4 0.831972 0.916861 0.070050
O O5 0.763131 0.500000 0.083711
O O6 0.835544 0.407355 0.432631
O O7 0.765589 0.383149 0.989233
O O8 0.199560 0.220600 0.711310
O O9 0.304958 0.166186 0.842376
O O10 0.357389 0.216755 0.237749
O O11 0.000000 0.805123 0.500000
O O12 0.045404 0.803507 0.367348
O O13 0.905509 0.749961 0.031246
O O14 0.080795 0.696583 0.336002
O O15 0.139444 0.658437 0.265916
O O16 0.000000 0.605023 0.000000
O O17 0.250000 0.250000 0.500000
#
# Coordination Sequence:
#
# PCOD9183006 Si02
#       7
#     8   8   8   8   8   8   8
#     4   9  18  32  54  85 112 143 190 240 285 335
#     4  10  22  41  61  81 113 159 204 242 279 344
#     4  10  20  34  56  82 113 144 193 236 291 343
#     4  11  19  31  54  82 115 148 189 233 288 346
#     4  10  19  33  53  83 113 150 183 237 290 349
#     4  11  22  37  56  84 121 154 193 238 297 351
#     4  12  22  33  53  88 119 144 181 242 305 347
#
# _framework density 17.862174
#
# number of rings (size 3 to 8) (size 9 to 14) (size 15 to 20)
#    0.000    1.571    4.286    2.571    2.000    0.286 
#    0.000    0.714    0.000    1.714    0.000    1.000 
#    0.000    0.429    0.000    0.000    0.000    0.000 
#
# Total GULP energy -156166.345197 kJ/mol
# GULP energy per Si atom -5577.369471 kJ/mol
# Density = 1.782152 g / cm^3
# Si number density = 17.862174 Si / 1000 Ang^3
#
#
#
# Elastic Constant Matrix: (Units=GPa)
#
#
# Indices 1 2 3 4 5 6 
#
# 1 91.9326 15.7160 20.9056 0.0000 8.6642 0.0000
# 2 15.7160 69.7113 -1.1586 0.0000 8.5977 0.0000
# 3 20.9056 -1.1586 67.8274 0.0000 13.3095 0.0000
# 4 0.0000 0.0000 0.0000 15.4872 0.0000 7.3993
# 5 8.6642 8.5977 13.3095 0.0000 18.8200 0.0000
# 6 0.0000 0.0000 0.0000 7.3993 0.0000 23.6978
#
#
#
# Elastic Compliance Matrix: (Units=1/GPa)
#
#
# Indices 1 2 3 4 5 6 
#
# 1 0.012291 -0.002574 -0.003429 0.000000 -0.002058 0.000000
# 2 -0.002574 0.015951 0.002628 0.000000 -0.007960 0.000000
# 3 -0.003429 0.002628 0.018312 0.000000 -0.012572 0.000000
# 4 0.000000 0.000000 0.000000 0.075891 0.000000 -0.023696
# 5 -0.002058 -0.007960 -0.012572 0.000000 0.066610 0.000000
# 6 0.000000 0.000000 0.000000 -0.023696 0.000000 0.049597
#
#
# Mechanical properties :
#
#
# Convention : Reuss Voigt Hill
#
# Bulk Modulus (GPa) = 25.12299 33.37749 29.25024
# Shear Modulus (GPa) = 19.32969 24.53486 21.93227
#
# Velocity S-wave (km/s) = 3.29319 3.71018 3.50789
# Velocity P-wave (km/s) = 5.34374 6.08939 5.72871
#
# Compressibility (1/GPa) = 0.03980418
#
# Stress axis : x y z
#
# Youngs Moduli (GPa) = 81.35909 62.69336 54.60914
#
# Poissons Ratio (x) = 0.16138 0.18723
# Poissons Ratio (y) = 0.20943 -0.14351
# Poissons Ratio (z) = 0.27894 -0.16475
#
# Static dielectric constant tensor:
#      x y z
#    x 1.615860 0.000000 0.017490 
#    y 0.000000 1.607280 0.000000 
#    z 0.017490 0.000000 1.645750 
# 
# From -- ./inp_files/77392.got.cif
#   From: 2010.05.17/outbox.cif.g08.bks.cpg/sg12_39_cif.got.tgz:77392.got - 2010.06.03 13:09:07.
