data_PCOD9183747
_publ_section_title
;
Structure prediction by ZEFSAII (Michael W. Deem and Ramdas Pophale) SiO2 
 PCOD9183747
Probable space group: C 2/M
;
_chemical_formula_sum "Si O2"
_cell_formula_units_Z 44
_cell_length_a 9.852545
_cell_length_b 26.515277
_cell_length_c 8.303666
_cell_angle_alpha 90.000000
_cell_angle_beta 117.013193
_cell_angle_gamma 90.000000
_cell_volume 1932.610720
_symmetry_space_group_name_H-M "C 2/M"
_symmetry_group_IT_number 12
_symmetry_cell_setting 'monoclinic'
loop_
_space_group_symop_operation_xyz
x,y,z
-x,y,-z
-x,-y,-z
x,-y,z
1/2+x,1/2+y,z
1/2-x,1/2+y,-z
1/2-x,1/2-y,-z
1/2+x,1/2-y,z
loop_
_atom_site_type_symbol
_atom_site_label
_atom_site_fract_x
_atom_site_fract_y
_atom_site_fract_z
Si Si1 0.323174 0.738060 0.367156
Si Si2 0.500000 0.390425 0.000000
Si Si3 0.672222 0.557983 0.640774
Si Si4 0.234173 0.647228 0.089291
Si Si5 0.894740 0.341015 0.287854
Si Si6 0.252642 0.943509 0.321672
O O1 0.500000 0.726085 0.500000
O O2 0.250000 0.750000 0.500000
O O3 0.258545 0.691393 0.231270
O O4 0.298619 0.789228 0.252795
O O5 0.621717 0.358129 0.961020
O O6 0.414690 0.427201 0.828919
O O7 0.500000 0.574839 0.500000
O O8 0.661647 0.500000 0.692162
O O9 0.753300 0.594731 0.808646
O O10 0.759475 0.558604 0.517689
O O11 0.088287 0.655759 0.895234
O O12 0.847383 0.398095 0.300604
O O13 0.000000 0.330923 0.500000
O O14 0.290969 0.000000 0.289224
#
# Coordination Sequence:
#
# PCOD9183747 Si02
#       6
#     8   4   8   8   8   8
#     4  11  25  44  70  99 136 178 223 281 341 406
#     4  10  21  32  60 100 134 156 217 272 348 400
#     4  10  19  33  55  90 129 162 202 267 338 396
#     4  11  22  38  66  95 129 174 220 278 336 409
#     4  10  24  44  58  89 128 173 226 275 332 396
#     4  10  20  36  61  89 129 169 215 272 334 399
#
# _framework density 22.767130999999999
#
# number of rings (size 3 to 8) (size 9 to 14) (size 15 to 20)
#    0.000    1.636    1.818    2.455    5.091    3.273 
#    0.000    7.273    0.000    2.182    0.000    0.000 
#    0.000    0.000    0.000    0.000    0.000    0.000 
#
# Total GULP energy -122594.285076 kJ/mol
# GULP energy per Si atom -5572.467503 kJ/mol
# Density = 2.271531 g / cm^3
# Si number density = 22.767131 Si / 1000 Ang^3
#
#
#
# Elastic Constant Matrix: (Units=GPa)
#
#
# Indices 1 2 3 4 5 6 
#
# 1 42.7660 14.7394 22.6018 0.0000 -14.8471 0.0000
# 2 14.7394 151.5071 69.8651 0.0000 -7.2774 0.0000
# 3 22.6018 69.8651 179.7628 0.0000 -12.9504 0.0000
# 4 0.0000 0.0000 0.0000 33.4856 0.0000 -11.5215
# 5 -14.8471 -7.2774 -12.9504 0.0000 31.3442 0.0000
# 6 0.0000 0.0000 0.0000 -11.5215 0.0000 20.6110
#
#
#
# Elastic Compliance Matrix: (Units=1/GPa)
#
#
# Indices 1 2 3 4 5 6 
#
# 1 0.029430 -0.001180 -0.002326 0.000000 0.012705 0.000000
# 2 -0.001180 0.008100 -0.002993 0.000000 0.000085 0.000000
# 3 -0.002326 -0.002993 0.007101 0.000000 0.001137 0.000000
# 4 0.000000 0.000000 0.000000 0.036975 0.000000 0.020669
# 5 0.012705 0.000085 0.001137 0.000000 0.038411 0.000000
# 6 0.000000 0.000000 0.000000 0.020669 0.000000 0.060072
#
#
# Mechanical properties :
#
#
# Convention : Reuss Voigt Hill
#
# Bulk Modulus (GPa) = 31.61487 65.38316 48.49901
# Shear Modulus (GPa) = 24.55411 34.87681 29.71546
#
# Velocity S-wave (km/s) = 3.28760 3.91819 3.61666
# Velocity P-wave (km/s) = 5.32235 7.01785 6.22806
#
# Compressibility (1/GPa) = 0.03163069
#
# Stress axis : x y z
#
# Youngs Moduli (GPa) = 33.97878 123.46283 140.83157
#
# Poissons Ratio (x) = 0.14570 0.32762
# Poissons Ratio (y) = 0.04010 0.42157
# Poissons Ratio (z) = 0.07905 0.36958
#
# Static dielectric constant tensor:
#      x y z
#    x 1.951640 0.000000 0.070390 
#    y 0.000000 1.787390 0.000000 
#    z 0.070390 0.000000 1.899200 
# 
# From -- ./inp_files/51570.got.cif
#   From: 2010.05.17/outbox.cif.g08.bks.cpg/sg12_26_cif.got.tgz:51570.got - 2010.06.03 13:09:07.
