data_PCOD9183109
_publ_section_title
;
Structure prediction by ZEFSAII (Michael W. Deem and Ramdas Pophale) SiO2 
 PCOD9183109
Probable space group: C 2/M
;
_chemical_formula_sum "Si O2"
_cell_formula_units_Z 48
_cell_length_a 16.713381
_cell_length_b 14.286882
_cell_length_c 10.232665
_cell_angle_alpha 90.000000
_cell_angle_beta 81.605647
_cell_angle_gamma 90.000000
_cell_volume 2417.200689
_symmetry_space_group_name_H-M "C 2/M"
_symmetry_group_IT_number 12
_symmetry_cell_setting 'monoclinic'
loop_
_space_group_symop_operation_xyz
x,y,z
-x,y,-z
-x,-y,-z
x,-y,z
1/2+x,1/2+y,z
1/2-x,1/2+y,-z
1/2-x,1/2-y,-z
1/2+x,1/2-y,z
loop_
_atom_site_type_symbol
_atom_site_label
_atom_site_fract_x
_atom_site_fract_y
_atom_site_fract_z
Si Si1 0.473423 0.788954 0.806152
Si Si2 0.557521 0.604284 0.857969
Si Si3 0.663775 0.298798 0.020924
Si Si4 0.090447 0.256094 0.447965
Si Si5 0.621500 0.891019 0.684056
Si Si6 0.696093 0.391358 0.285732
O O1 0.518271 0.687316 0.783659
O O2 0.409500 0.774858 0.937684
O O3 0.421710 0.808377 0.687999
O O4 0.545577 0.862683 0.792266
O O5 0.562632 0.500000 0.799457
O O6 0.500000 0.598107 0.000000
O O7 0.641762 0.642124 0.897654
O O8 0.663353 0.363920 0.150242
O O9 0.750000 0.250000 0.000000
O O10 0.115836 0.325314 0.557504
O O11 0.152745 0.173732 0.402681
O O12 0.000000 0.220643 0.500000
O O13 0.707624 0.875010 0.731992
O O14 0.616362 0.000000 0.649227
O O15 0.680302 0.500000 0.314654
#
# Coordination Sequence:
#
# PCOD9183109 Si02
#       6
#     8   8   8   8   8   8
#     4   9  19  33  52  78 103 136 177 219 262 307
#     4   9  17  31  52  75 101 135 173 211 256 308
#     4  10  19  33  54  77 109 144 176 216 260 311
#     4   9  19  34  54  78 104 135 174 219 268 319
#     4  10  20  36  56  76 104 142 180 218 265 322
#     4  10  20  34  54  79 107 139 174 216 267 319
#
# _framework density 19.857680999999999
#
# number of rings (size 3 to 8) (size 9 to 14) (size 15 to 20)
#    0.000    2.500    0.000    2.000    0.000    7.333 
#    0.000    4.167    0.000   21.500    0.000    0.000 
#    0.000    0.000    0.000    0.000    0.000    0.000 
#
# Total GULP energy -133814.559391 kJ/mol
# GULP energy per Si atom -5575.606641 kJ/mol
# Density = 1.981248 g / cm^3
# Si number density = 19.857681 Si / 1000 Ang^3
#
#
#
# Elastic Constant Matrix: (Units=GPa)
#
#
# Indices 1 2 3 4 5 6 
#
# 1 109.8410 50.7308 9.0596 0.0000 -3.1282 0.0000
# 2 50.7308 78.9431 20.5088 0.0000 -1.3063 0.0000
# 3 9.0596 20.5088 45.1251 0.0000 12.7110 0.0000
# 4 0.0000 0.0000 0.0000 28.4621 0.0000 0.8092
# 5 -3.1282 -1.3063 12.7110 0.0000 34.8750 0.0000
# 6 0.0000 0.0000 0.0000 0.8092 0.0000 24.2744
#
#
#
# Elastic Compliance Matrix: (Units=1/GPa)
#
#
# Indices 1 2 3 4 5 6 
#
# 1 0.013023 -0.008679 0.001217 0.000000 0.000399 0.000000
# 2 -0.008679 0.020485 -0.008430 0.000000 0.003061 0.000000
# 3 0.001217 -0.008430 0.028758 0.000000 -0.010688 0.000000
# 4 0.000000 0.000000 0.000000 0.035168 0.000000 -0.001172
# 5 0.000399 0.003061 -0.010688 0.000000 0.032720 0.000000
# 6 0.000000 0.000000 0.000000 -0.001172 0.000000 0.041235
#
#
# Mechanical properties :
#
#
# Convention : Reuss Voigt Hill
#
# Bulk Modulus (GPa) = 32.80473 43.83419 38.31946
# Shear Modulus (GPa) = 23.43740 27.76297 25.60018
#
# Velocity S-wave (km/s) = 3.43923 3.74317 3.59441
# Velocity P-wave (km/s) = 5.68567 6.38779 6.04693
#
# Compressibility (1/GPa) = 0.03048341
#
# Stress axis : x y z
#
# Youngs Moduli (GPa) = 76.78486 48.81540 34.77253
#
# Poissons Ratio (x) = 0.42366 -0.04233
# Poissons Ratio (y) = 0.66640 0.29314
# Poissons Ratio (z) = -0.09346 0.41153
#
# Static dielectric constant tensor:
#      x y z
#    x 1.725940 0.000000 0.004970 
#    y 0.000000 1.694930 0.000000 
#    z 0.004970 0.000000 1.736760 
# 
# From -- ./inp_files/153554.got.cif
#   From: 2010.05.17/outbox.cif.g08.bks.cpg/sg12_77_cif.got.tgz:153554.got - 2010.06.03 13:09:07.
