data_PCOD9183192
_publ_section_title
;
Structure prediction by ZEFSAII (Michael W. Deem and Ramdas Pophale) SiO2 
 PCOD9183192
Probable space group: C 2/M
;
_chemical_formula_sum "Si O2"
_cell_formula_units_Z 50
_cell_length_a 14.950425
_cell_length_b 8.928610
_cell_length_c 19.318145
_cell_angle_alpha 90.000000
_cell_angle_beta 73.432156
_cell_angle_gamma 90.000000
_cell_volume 2471.650838
_symmetry_space_group_name_H-M "C 2/M"
_symmetry_group_IT_number 12
_symmetry_cell_setting 'monoclinic'
loop_
_space_group_symop_operation_xyz
x,y,z
-x,y,-z
-x,-y,-z
x,-y,z
1/2+x,1/2+y,z
1/2-x,1/2+y,-z
1/2-x,1/2-y,-z
1/2+x,1/2-y,z
loop_
_atom_site_type_symbol
_atom_site_label
_atom_site_fract_x
_atom_site_fract_y
_atom_site_fract_z
Si Si1 0.189438 0.833552 0.955815
Si Si2 0.471282 0.321668 0.255590
Si Si3 0.358562 0.325655 0.549577
Si Si4 0.500000 0.500000 0.000000
Si Si5 0.367717 0.172624 0.405817
Si Si6 0.648020 0.682020 0.297028
Si Si7 0.663461 0.178918 0.815568
O O1 0.185981 0.740660 0.885919
O O2 0.081502 0.871689 0.997750
O O3 0.230771 0.000000 0.933628
O O4 0.250000 0.750000 0.000000
O O5 0.467513 0.500000 0.248099
O O6 0.410821 0.271479 0.335413
O O7 0.575855 0.276082 0.253253
O O8 0.429792 0.246390 0.196727
O O9 0.386460 0.500000 0.536288
O O10 0.393222 0.234347 0.475984
O O11 0.245167 0.322169 0.573674
O O12 0.383936 0.265846 0.620081
O O13 0.395924 0.000000 0.390180
O O14 0.648089 0.500000 0.301602
O O15 0.751776 0.727542 0.253686
O O16 0.659453 0.000000 0.816441
#
# Coordination Sequence:
#
# PCOD9183192 Si02
#       7
#     8   8   8   2   8   8   8
#     4  10  22  45  72 104 136 180 220 269 326 392
#     4  11  22  37  58  87 122 165 214 262 323 390
#     4   9  17  34  56  76 105 156 215 258 319 391
#     4   8  24  44  74 102 152 172 226 272 328 388
#     4  10  19  33  54  79 113 156 204 272 330 374
#     4   9  20  38  59  84 118 164 209 256 318 387
#     4  11  22  42  66  95 132 168 209 264 323 380
#
# _framework density 20.229395
#
# number of rings (size 3 to 8) (size 9 to 14) (size 15 to 20)
#    0.480    1.600    1.600    1.920    0.000    2.560 
#    2.880   11.200    0.000    0.000    0.000    0.000 
#    0.000    0.000    0.000    0.000    0.000    0.000 
#
# Total GULP energy -139250.801950 kJ/mol
# GULP energy per Si atom -5570.032078 kJ/mol
# Density = 2.018335 g / cm^3
# Si number density = 20.229395 Si / 1000 Ang^3
#
#
#
# Elastic Constant Matrix: (Units=GPa)
#
#
# Indices 1 2 3 4 5 6 
#
# 1 98.0903 30.5990 35.4019 0.0000 26.1869 0.0000
# 2 30.5990 74.0689 24.8093 0.0000 18.6353 0.0000
# 3 35.4019 24.8093 75.4824 0.0000 42.4970 0.0000
# 4 0.0000 0.0000 0.0000 28.0539 0.0000 3.7879
# 5 26.1869 18.6353 42.4970 0.0000 38.2094 0.0000
# 6 0.0000 0.0000 0.0000 3.7879 0.0000 20.9350
#
#
#
# Elastic Compliance Matrix: (Units=1/GPa)
#
#
# Indices 1 2 3 4 5 6 
#
# 1 0.013459 -0.003536 -0.002482 0.000000 -0.004739 0.000000
# 2 -0.003536 0.016460 -0.001595 0.000000 -0.003830 0.000000
# 3 -0.002482 -0.001595 0.036223 0.000000 -0.037808 0.000000
# 4 0.000000 0.000000 0.000000 0.036538 0.000000 -0.006611
# 5 -0.004739 -0.003830 -0.037808 0.000000 0.073338 0.000000
# 6 0.000000 0.000000 0.000000 -0.006611 0.000000 0.048963
#
#
# Mechanical properties :
#
#
# Convention : Reuss Voigt Hill
#
# Bulk Modulus (GPa) = 19.64088 47.69578 33.66833
# Shear Modulus (GPa) = 19.44169 27.89509 23.66839
#
# Velocity S-wave (km/s) = 3.10346 3.71743 3.42424
# Velocity P-wave (km/s) = 4.75101 6.48494 5.68448
#
# Compressibility (1/GPa) = 0.05091422
#
# Stress axis : x y z
#
# Youngs Moduli (GPa) = 74.30121 60.75432 27.60693
#
# Poissons Ratio (x) = 0.21485 0.06852
# Poissons Ratio (y) = 0.26276 0.04403
# Poissons Ratio (z) = 0.18442 0.09691
#
# Static dielectric constant tensor:
#      x y z
#    x 1.762240 0.000000 0.010530 
#    y 0.000000 1.682320 0.000000 
#    z 0.010530 0.000000 1.723880 
# 
# From -- ./inp_files/308424.got.cif
#   From: 2010.05.17/outbox.cif.g08.bks.cpg/sg12_155_cif.got.tgz:308424.got - 2010.06.03 13:09:07.
