data_PCOD9183970
_publ_section_title
;
Structure prediction by ZEFSAII (Michael W. Deem and Ramdas Pophale) SiO2 
 PCOD9183970
Probable space group: C 2/M
;
_chemical_formula_sum "Si O2"
_cell_formula_units_Z 48
_cell_length_a 24.397691
_cell_length_b 9.475571
_cell_length_c 11.593099
_cell_angle_alpha 90.000000
_cell_angle_beta 111.387014
_cell_angle_gamma 90.000000
_cell_volume 2495.559568
_symmetry_space_group_name_H-M "C 2/M"
_symmetry_group_IT_number 12
_symmetry_cell_setting 'monoclinic'
loop_
_space_group_symop_operation_xyz
x,y,z
-x,y,-z
-x,-y,-z
x,-y,z
1/2+x,1/2+y,z
1/2-x,1/2+y,-z
1/2-x,1/2-y,-z
1/2+x,1/2-y,z
loop_
_atom_site_type_symbol
_atom_site_label
_atom_site_fract_x
_atom_site_fract_y
_atom_site_fract_z
Si Si1 0.868176 0.167784 0.661097
Si Si2 0.917172 0.331754 0.220811
Si Si3 0.769491 0.666335 0.698510
Si Si4 0.696460 0.833671 0.014785
Si Si5 0.028133 0.332487 0.146748
Si Si6 0.868734 0.167507 0.397239
O O1 0.804955 0.238062 0.636677
O O2 0.915251 0.240447 0.780729
O O3 0.886516 0.195486 0.542779
O O4 0.864916 0.000000 0.675130
O O5 0.913755 0.500000 0.237473
O O6 0.905183 0.251574 0.330297
O O7 0.978660 0.302944 0.205230
O O8 0.864715 0.292522 0.091763
O O9 0.772187 0.500000 0.668790
O O10 0.801129 0.685790 0.846331
O O11 0.700950 0.703258 0.663190
O O12 0.705291 0.000000 0.000215
O O13 0.750000 0.750000 0.000000
O O14 0.043027 0.500000 0.161148
O O15 0.000000 0.304164 0.000000
O O16 0.873960 0.000000 0.379256
#
# Coordination Sequence:
#
# PCOD9183970 Si02
#       6
#     8   8   8   8   8   8
#     4  11  24  39  58  87 118 152 197 244 291 341
#     4  10  21  36  59  89 116 149 196 242 284 340
#     4  10  20  37  60  84 117 160 197 234 289 348
#     4  10  19  33  56  86 116 146 185 233 286 340
#     4  10  22  43  66  85 113 153 194 238 289 349
#     4  10  22  39  58  84 120 158 192 236 295 347
#
# _framework density 19.234164
#
# number of rings (size 3 to 8) (size 9 to 14) (size 15 to 20)
#    0.000    1.833    1.667    2.000    0.000    7.000 
#    0.000    5.000    0.000    0.000    0.000    0.000 
#    0.000    0.000    0.000    0.000    0.000    0.000 
#
# Total GULP energy -134096.834381 kJ/mol
# GULP energy per Si atom -5587.368099 kJ/mol
# Density = 1.919039 g / cm^3
# Si number density = 19.234164 Si / 1000 Ang^3
#
#
#
# Elastic Constant Matrix: (Units=GPa)
#
#
# Indices 1 2 3 4 5 6 
#
# 1 87.3476 50.6855 31.1455 0.0000 -16.4023 0.0000
# 2 50.6855 45.1063 44.2141 0.0000 -11.8995 0.0000
# 3 31.1455 44.2141 70.3574 0.0000 -9.2528 0.0000
# 4 0.0000 0.0000 0.0000 28.7839 0.0000 -4.0105
# 5 -16.4023 -11.8995 -9.2528 0.0000 28.0742 0.0000
# 6 0.0000 0.0000 0.0000 -4.0105 0.0000 25.0011
#
#
#
# Elastic Compliance Matrix: (Units=1/GPa)
#
#
# Indices 1 2 3 4 5 6 
#
# 1 0.056826 -0.100962 0.038707 0.000000 0.003164 0.000000
# 2 -0.100962 0.242101 -0.106319 0.000000 0.008589 0.000000
# 3 0.038707 -0.106319 0.063700 0.000000 -0.001455 0.000000
# 4 0.000000 0.000000 0.000000 0.035536 0.000000 0.005700
# 5 0.003164 0.008589 -0.001455 0.000000 0.040630 0.000000
# 6 0.000000 0.000000 0.000000 0.005700 0.000000 0.040913
#
#
# Mechanical properties :
#
#
# Convention : Reuss Voigt Hill
#
# Bulk Modulus (GPa) = 39.24536 50.54461 44.89498
# Shear Modulus (GPa) = 6.05806 21.48958 13.77382
#
# Velocity S-wave (km/s) = 1.77665 3.34617 2.67893
# Velocity P-wave (km/s) = 4.96557 6.42377 5.74115
#
# Compressibility (1/GPa) = 0.02548072
#
# Stress axis : x y z
#
# Youngs Moduli (GPa) = 17.59745 4.13050 15.69857
#
# Poissons Ratio (x) = 0.41702 -0.60765
# Poissons Ratio (y) = 1.77667 1.66905
# Poissons Ratio (z) = -0.68115 0.43915
#
# Static dielectric constant tensor:
#      x y z
#    x 1.659610 0.000000 0.009060 
#    y 0.000000 1.634560 0.000000 
#    z 0.009060 0.000000 1.686300 
# 
# From -- ./inp_files/172959.got.cif
#   From: 2010.05.17/outbox.cif.g08.bks.cpg/sg12_87_cif.got.tgz:172959.got - 2010.06.03 13:09:07.
