data_PCOD9183445
_publ_section_title
;
Structure prediction by ZEFSAII (Michael W. Deem and Ramdas Pophale) SiO2 
 PCOD9183445
Probable space group: C 2/M
;
_chemical_formula_sum "Si O2"
_cell_formula_units_Z 56
_cell_length_a 27.185153
_cell_length_b 8.651392
_cell_length_c 14.927412
_cell_angle_alpha 90.000000
_cell_angle_beta 123.623165
_cell_angle_gamma 90.000000
_cell_volume 2923.408584
_symmetry_space_group_name_H-M "C 2/M"
_symmetry_group_IT_number 12
_symmetry_cell_setting 'monoclinic'
loop_
_space_group_symop_operation_xyz
x,y,z
-x,y,-z
-x,-y,-z
x,-y,z
1/2+x,1/2+y,z
1/2-x,1/2+y,-z
1/2-x,1/2-y,-z
1/2+x,1/2-y,z
loop_
_atom_site_type_symbol
_atom_site_label
_atom_site_fract_x
_atom_site_fract_y
_atom_site_fract_z
Si Si1 0.498270 0.811263 0.395305
Si Si2 0.383884 0.814891 0.166824
Si Si3 0.854484 0.183415 0.954494
Si Si4 0.722490 0.684633 0.827610
Si Si5 0.889284 0.313988 0.605186
Si Si6 0.146696 0.686739 0.239352
Si Si7 0.784451 0.184398 0.383855
O O1 0.500000 0.759126 0.500000
O O2 0.438598 0.765743 0.284162
O O3 0.555296 0.757922 0.397033
O O4 0.499425 0.000000 0.397512
O O5 0.324013 0.746157 0.148008
O O6 0.380006 0.000000 0.163824
O O7 0.390723 0.757391 0.072349
O O8 0.786699 0.239014 0.899988
O O9 0.872397 0.241369 0.873975
O O10 0.857199 0.000000 0.961892
O O11 0.729569 0.500000 0.842637
O O12 0.699797 0.719372 0.703856
O O13 0.891294 0.500000 0.608348
O O14 0.888638 0.263547 0.708067
O O15 0.828932 0.264972 0.496032
O O16 0.144629 0.500000 0.228680
O O17 0.215731 0.728707 0.325146
O O18 0.788348 0.000000 0.400417
#
# Coordination Sequence:
#
# PCOD9183445 Si02
#       7
#     8   8   8   8   8   8   8
#     4   9  19  35  55  81 109 137 176 220 259 308
#     4  11  21  35  56  79 107 142 178 220 267 312
#     4  11  22  36  55  79 107 139 177 219 267 322
#     4  10  20  35  54  80 113 143 176 217 263 317
#     4  10  19  33  55  79 105 142 184 224 264 311
#     4   9  19  35  53  77 109 141 178 222 267 316
#     4   9  18  31  49  77 111 141 170 216 271 320
#
# _framework density 19.155721
#
# number of rings (size 3 to 8) (size 9 to 14) (size 15 to 20)
#    0.000    2.143    0.000    4.714    0.000    4.571 
#    0.000    2.143    0.000    8.143    0.000    0.000 
#    0.000    0.000    0.000    0.000    0.000    0.000 
#
# Total GULP energy -156375.220448 kJ/mol
# GULP energy per Si atom -5584.829302 kJ/mol
# Density = 1.911212 g / cm^3
# Si number density = 19.155721 Si / 1000 Ang^3
#
#
#
# Elastic Constant Matrix: (Units=GPa)
#
#
# Indices 1 2 3 4 5 6 
#
# 1 90.3418 12.4409 47.1983 0.0000 -35.0880 0.0000
# 2 12.4409 24.7632 11.4914 0.0000 -6.9575 0.0000
# 3 47.1983 11.4914 117.7018 0.0000 -24.2647 0.0000
# 4 0.0000 0.0000 0.0000 26.0555 0.0000 -6.0588
# 5 -35.0880 -6.9575 -24.2647 0.0000 25.6163 0.0000
# 6 0.0000 0.0000 0.0000 -6.0588 0.0000 14.9413
#
#
#
# Elastic Compliance Matrix: (Units=1/GPa)
#
#
# Indices 1 2 3 4 5 6 
#
# 1 0.024994 -0.002418 -0.003559 0.000000 0.030207 0.000000
# 2 -0.002418 0.044443 -0.001943 0.000000 0.006918 0.000000
# 3 -0.003559 -0.001943 0.011183 0.000000 0.005190 0.000000
# 4 0.000000 0.000000 0.000000 0.042375 0.000000 0.017183
# 5 0.030207 0.006918 0.005190 0.000000 0.087209 0.000000
# 6 0.000000 0.000000 0.000000 0.017183 0.000000 0.073897
#
#
# Mechanical properties :
#
#
# Convention : Reuss Voigt Hill
#
# Bulk Modulus (GPa) = 15.43717 41.67419 28.55568
# Shear Modulus (GPa) = 15.55047 24.10106 19.82577
#
# Velocity S-wave (km/s) = 2.85229 3.55091 3.22060
# Velocity P-wave (km/s) = 4.35013 6.21407 5.36369
#
# Compressibility (1/GPa) = 0.06477870
#
# Stress axis : x y z
#
# Youngs Moduli (GPa) = 40.01018 22.50083 89.42244
#
# Poissons Ratio (x) = 0.05441 0.31826
# Poissons Ratio (y) = 0.09675 0.17377
# Poissons Ratio (z) = 0.14240 0.04372
#
# Static dielectric constant tensor:
#      x y z
#    x 1.662990 0.000000 -0.021750 
#    y 0.000000 1.643900 0.000000 
#    z -0.021750 0.000000 1.662460 
# 
# From -- ./inp_files/238916.got.cif
#   From: 2010.05.17/outbox.cif.g08.bks.cpg/sg12_120_cif.got.tgz:238916.got - 2010.06.03 13:09:07.
