data_PCOD9183647
_publ_section_title
;
Structure prediction by ZEFSAII (Michael W. Deem and Ramdas Pophale) SiO2 
 PCOD9183647
Probable space group: C 2/M
;
_chemical_formula_sum "Si O2"
_cell_formula_units_Z 58
_cell_length_a 30.406491
_cell_length_b 7.704691
_cell_length_c 12.246563
_cell_angle_alpha 90.000000
_cell_angle_beta 81.772310
_cell_angle_gamma 90.000000
_cell_volume 2839.503931
_symmetry_space_group_name_H-M "C 2/M"
_symmetry_group_IT_number 12
_symmetry_cell_setting 'monoclinic'
loop_
_space_group_symop_operation_xyz
x,y,z
-x,y,-z
-x,-y,-z
x,-y,z
1/2+x,1/2+y,z
1/2-x,1/2+y,-z
1/2-x,1/2-y,-z
1/2+x,1/2-y,z
loop_
_atom_site_type_symbol
_atom_site_label
_atom_site_fract_x
_atom_site_fract_y
_atom_site_fract_z
Si Si1 0.509882 0.213231 0.828231
Si Si2 0.281568 0.698447 0.586831
Si Si3 0.879717 0.791511 0.590985
Si Si4 0.821103 0.709584 0.974624
Si Si5 0.000000 0.000000 0.000000
Si Si6 0.464817 0.795987 0.424182
Si Si7 0.746630 0.705165 0.829052
Si Si8 0.907758 0.706697 0.828315
O O1 0.530670 0.261240 0.702759
O O2 0.457572 0.264142 0.834567
O O3 0.514216 0.000000 0.845370
O O4 0.524855 0.342623 0.918210
O O5 0.291942 0.500000 0.563412
O O6 0.250000 0.750000 0.500000
O O7 0.330395 0.781438 0.583979
O O8 0.254821 0.717200 0.708526
O O9 0.916410 0.726715 0.492877
O O10 0.893909 0.742825 0.708800
O O11 0.880317 0.000000 0.586764
O O12 0.821581 0.500000 0.970092
O O13 0.785035 0.772170 0.897621
O O14 0.869326 0.775352 0.921993
O O15 0.800505 0.759783 0.097779
O O16 0.500000 0.719728 0.500000
O O17 0.475723 0.000000 0.412822
O O18 0.752581 0.500000 0.817027
O O19 0.908755 0.500000 0.840778
#
# Coordination Sequence:
#
# PCOD9183647 Si02
#       8
#     8   8   8   8   2   8   8   8
#     4  10  23  42  66  97 128 167 221 263 310 394
#     4  11  24  41  59  84 118 163 208 254 306 378
#     4  11  23  35  59  95 129 154 200 261 317 379
#     4   9  18  32  55  85 117 151 191 243 306 359
#     4  12  26  44  66  86 124 184 210 250 328 370
#     4  10  20  37  64  97 131 162 201 262 324 378
#     4  10  19  33  55  83 114 152 192 246 301 357
#     4  10  19  36  61  91 124 156 200 254 312 370
#
# _framework density 20.426103999999999
#
# number of rings (size 3 to 8) (size 9 to 14) (size 15 to 20)
#    0.000    1.793    2.759    1.448    1.931    3.034 
#    0.000    1.379    0.000    1.655    0.000    0.000 
#    0.000    0.000    0.000    0.000    0.000    0.000 
#
# Total GULP energy -161521.861029 kJ/mol
# GULP energy per Si atom -5569.719346 kJ/mol
# Density = 2.037961 g / cm^3
# Si number density = 20.426104 Si / 1000 Ang^3
#
#
#
# Elastic Constant Matrix: (Units=GPa)
#
#
# Indices 1 2 3 4 5 6 
#
# 1 77.3513 -20.0969 18.3161 0.0000 -15.9677 0.0000
# 2 -20.0969 49.9722 8.3534 0.0000 5.3252 0.0000
# 3 18.3161 8.3534 114.3379 0.0000 -1.8377 0.0000
# 4 0.0000 0.0000 0.0000 20.6586 0.0000 -4.5583
# 5 -15.9677 5.3252 -1.8377 0.0000 21.2028 0.0000
# 6 0.0000 0.0000 0.0000 -4.5583 0.0000 15.6063
#
#
#
# Elastic Compliance Matrix: (Units=1/GPa)
#
#
# Indices 1 2 3 4 5 6 
#
# 1 0.017697 0.006419 -0.003120 0.000000 0.011445 0.000000
# 2 0.006419 0.023182 -0.002742 0.000000 -0.001226 0.000000
# 3 -0.003120 -0.002742 0.009433 0.000000 -0.000844 0.000000
# 4 0.000000 0.000000 0.000000 0.051741 0.000000 0.015113
# 5 0.011445 -0.001226 -0.000844 0.000000 0.056018 0.000000
# 6 0.000000 0.000000 0.000000 0.015113 0.000000 0.068491
#
#
# Mechanical properties :
#
#
# Convention : Reuss Voigt Hill
#
# Bulk Modulus (GPa) = 19.44533 28.31184 23.87858
# Shear Modulus (GPa) = 20.61113 27.16612 23.88863
#
# Velocity S-wave (km/s) = 3.18001 3.65083 3.42353
# Velocity P-wave (km/s) = 4.79832 5.62691 5.22905
#
# Compressibility (1/GPa) = 0.05142623
#
# Stress axis : x y z
#
# Youngs Moduli (GPa) = 56.50615 43.13778 106.01598
#
# Poissons Ratio (x) = -0.27690 0.33077
# Poissons Ratio (y) = -0.36272 0.29065
# Poissons Ratio (z) = 0.17630 0.11827
#
# Static dielectric constant tensor:
#      x y z
#    x 2.314420 0.000000 0.092460 
#    y 0.000000 1.767550 0.000000 
#    z 0.092460 0.000000 1.735110 
# 
# From -- ./inp_files/186562.got.cif
#   From: 2010.05.17/outbox.cif.g08.bks.cpg/sg12_94_cif.got.tgz:186562.got - 2010.06.03 13:09:07.
