data_PCOD9183364
_publ_section_title
;
Structure prediction by ZEFSAII (Michael W. Deem and Ramdas Pophale) SiO2 
 PCOD9183364
Probable space group: C 2/M
;
_chemical_formula_sum "Si O2"
_cell_formula_units_Z 64
_cell_length_a 24.275053
_cell_length_b 17.353263
_cell_length_c 22.490461
_cell_angle_alpha 90.000000
_cell_angle_beta 18.902198
_cell_angle_gamma 90.000000
_cell_volume 3069.182080
_symmetry_space_group_name_H-M "C 2/M"
_symmetry_group_IT_number 12
_symmetry_cell_setting 'monoclinic'
loop_
_space_group_symop_operation_xyz
x,y,z
-x,y,-z
-x,-y,-z
x,-y,z
1/2+x,1/2+y,z
1/2-x,1/2+y,-z
1/2-x,1/2-y,-z
1/2+x,1/2-y,z
loop_
_atom_site_type_symbol
_atom_site_label
_atom_site_fract_x
_atom_site_fract_y
_atom_site_fract_z
Si Si1 0.451349 0.407557 0.692954
Si Si2 0.177884 0.805867 0.799568
Si Si3 0.992450 0.589835 0.324532
Si Si4 0.147427 0.094316 0.077772
Si Si5 0.633172 0.593294 0.729273
Si Si6 0.858482 0.416959 0.695765
Si Si7 0.766647 0.354204 0.293638
Si Si8 0.635164 0.091876 0.937401
O O1 0.440062 0.500000 0.705618
O O2 0.445712 0.380969 0.766922
O O3 0.619498 0.387694 0.484815
O O4 0.280857 0.380501 0.833518
O O5 0.148682 0.868635 0.778050
O O6 0.247002 0.846909 0.787511
O O7 0.282588 0.734770 0.667629
O O8 0.000000 0.769287 0.000000
O O9 0.979663 0.500000 0.319285
O O10 0.051164 0.592155 0.333624
O O11 0.799964 0.619574 0.521260
O O12 0.157243 0.622775 0.122887
O O13 0.037109 0.114937 0.132448
O O14 0.154196 0.000000 0.069828
O O15 0.641602 0.500000 0.726279
O O16 0.765424 0.500000 0.792118
O O17 0.000000 0.421194 0.500000
O O18 0.790163 0.393921 0.205114
O O19 0.953862 0.366491 0.130828
O O20 0.606594 0.000000 0.973533
#
# Coordination Sequence:
#
# PCOD9183364 Si02
#       8
#     8   8   8   8   8   8   8   8
#     4  10  21  38  64  91 113 148 195 240 297 359
#     4  12  23  36  54  84 119 159 195 239 292 349
#     4   9  17  33  54  80 116 150 192 246 285 324
#     4   9  19  35  57  87 115 145 196 251 287 333
#     4  10  20  36  58  83 115 158 200 239 283 328
#     4  10  19  33  54  84 116 152 202 244 283 338
#     4  11  22  39  56  89 123 151 184 240 300 358
#     4  10  20  39  65  88 114 147 187 241 304 363
#
# _framework density 20.852461999999999
#
# number of rings (size 3 to 8) (size 9 to 14) (size 15 to 20)
#    0.000    1.875    2.500    3.000    0.000    5.000 
#    0.000    4.375    0.000    1.500    0.000    0.000 
#    0.000    0.000    0.000    0.000    0.000    0.000 
#
# Total GULP energy -178529.323106 kJ/mol
# GULP energy per Si atom -5579.041347 kJ/mol
# Density = 2.080500 g / cm^3
# Si number density = 20.852462 Si / 1000 Ang^3
#
#
#
# Elastic Constant Matrix: (Units=GPa)
#
#
# Indices 1 2 3 4 5 6 
#
# 1 38.7915 5.4472 15.4875 0.0185 2.3454 0.0024
# 2 5.4472 33.3403 3.5602 -0.0315 -5.2145 0.0149
# 3 15.4875 3.5602 83.4950 -0.0367 -6.7171 0.0033
# 4 0.0185 -0.0315 -0.0367 10.8621 0.0081 5.5487
# 5 2.3454 -5.2145 -6.7171 0.0081 23.2965 -0.0099
# 6 0.0024 0.0149 0.0033 5.5487 -0.0099 -18.3083
#
#
#
# Elastic Compliance Matrix: (Units=1/GPa)
#
#
# Indices 1 2 3 4 5 6 
#
# 1 0.029080 -0.005038 -0.005636 -0.000069 -0.005680 -0.000019
# 2 -0.005038 0.032005 0.000191 0.000074 0.007726 0.000044
# 3 -0.005636 0.000191 0.013373 0.000045 0.004466 0.000013
# 4 -0.000069 0.000074 0.000045 0.079722 0.000019 0.024161
# 5 -0.005680 0.007726 0.004466 0.000019 0.046514 -0.000013
# 6 -0.000019 0.000044 0.000013 0.024161 -0.000013 -0.047298
#
#
# Mechanical properties :
#
#
# Convention : Reuss Voigt Hill
#
# Bulk Modulus (GPa) = 18.69408 22.73519 20.71463
# Shear Modulus (GPa) = 26.01561 11.91219 18.96390
#
# Velocity S-wave (km/s) = 3.53598 2.39270 3.01895
# Velocity P-wave (km/s) = 5.06510 4.30812 4.70187
#
# Compressibility (1/GPa) = 0.05349288
#
# Stress axis : x y z
#
# Youngs Moduli (GPa) = 34.38792 31.24533 74.77536
#
# Poissons Ratio (x) = 0.15741 0.42145
# Poissons Ratio (y) = 0.17324 -0.01431
# Poissons Ratio (z) = 0.19382 -0.00598
#
# Static dielectric constant tensor:
#      x y z
#    x 1.738600 -0.000010 -0.015580 
#    y -0.000010 1.751030 0.000000 
#    z -0.015580 0.000000 1.805800 
# 
# From -- ./inp_files/326095.got.cif
#   From: 2010.05.17/outbox.cif.g08.bks.cpg/sg12_164_cif.got.tgz:326095.got - 2010.06.03 13:09:07.
