data_PCOD9183195
_publ_section_title
;
Structure prediction by ZEFSAII (Michael W. Deem and Ramdas Pophale) SiO2 
 PCOD9183195
Probable space group: C 2/M
;
_chemical_formula_sum "Si O2"
_cell_formula_units_Z 56
_cell_length_a 15.567024
_cell_length_b 21.588215
_cell_length_c 7.483212
_cell_angle_alpha 90.000000
_cell_angle_beta 107.396157
_cell_angle_gamma 90.000000
_cell_volume 2399.812290
_symmetry_space_group_name_H-M "C 2/M"
_symmetry_group_IT_number 12
_symmetry_cell_setting 'monoclinic'
loop_
_space_group_symop_operation_xyz
x,y,z
-x,y,-z
-x,-y,-z
x,-y,z
1/2+x,1/2+y,z
1/2-x,1/2+y,-z
1/2-x,1/2-y,-z
1/2+x,1/2-y,z
loop_
_atom_site_type_symbol
_atom_site_label
_atom_site_fract_x
_atom_site_fract_y
_atom_site_fract_z
Si Si1 0.355125 0.744282 0.351418
Si Si2 0.765531 0.627341 0.659297
Si Si3 0.401781 0.567069 0.521613
Si Si4 0.981753 0.740669 0.762144
Si Si5 0.420616 0.886200 0.048518
Si Si6 0.092703 0.855843 0.131767
Si Si7 0.712006 0.877163 0.747192
O O1 0.281406 0.694485 0.358841
O O2 0.432807 0.720421 0.263925
O O3 0.412598 0.768339 0.556329
O O4 0.307329 0.804001 0.241289
O O5 0.683618 0.580612 0.656303
O O6 0.791707 0.611216 0.469140
O O7 0.846284 0.626362 0.849369
O O8 0.500000 0.566618 0.500000
O O9 0.387438 0.500000 0.601013
O O10 0.401892 0.622818 0.660231
O O11 0.923304 0.781596 0.864819
O O12 0.025919 0.675601 0.846761
O O13 0.363722 0.910513 0.182193
O O14 0.500000 0.923592 0.000000
O O15 0.186003 0.881953 0.116073
O O16 0.000000 0.882682 0.000000
#
# Coordination Sequence:
#
# PCOD9183195 Si02
#       7
#     8   8   8   8   8   8   8
#     4  10  19  33  54  79 122 170 206 241 290 355
#     4  11  22  38  63  84 119 164 201 253 307 356
#     4  10  22  42  65  90 119 158 206 254 311 368
#     4  10  20  34  52  83 124 168 204 243 286 362
#     4  11  25  38  57  87 124 166 210 249 297 360
#     4  11  23  34  57  88 126 160 199 248 301 366
#     4  10  23  36  54  85 121 168 206 243 294 365
#
# _framework density 23.335158
#
# number of rings (size 3 to 8) (size 9 to 14) (size 15 to 20)
#    0.000    1.571    2.857    2.571    8.000    3.143 
#    0.000    0.000    0.000    0.429    0.000    4.000 
#    0.000    0.000    0.000    0.000    0.000    0.000 
#
# Total GULP energy -156176.033931 kJ/mol
# GULP energy per Si atom -5577.715498 kJ/mol
# Density = 2.328205 g / cm^3
# Si number density = 23.335158 Si / 1000 Ang^3
#
#
#
# Elastic Constant Matrix: (Units=GPa)
#
#
# Indices 1 2 3 4 5 6 
#
# 1 155.9405 0.7088 54.7160 0.0000 4.6935 0.0000
# 2 0.7088 33.3228 -3.2211 0.0000 9.7187 0.0000
# 3 54.7160 -3.2211 105.6921 0.0000 16.4160 0.0000
# 4 0.0000 0.0000 0.0000 -0.3652 0.0000 0.8426
# 5 4.6935 9.7187 16.4160 0.0000 47.9292 0.0000
# 6 0.0000 0.0000 0.0000 0.8426 0.0000 -15.6793
#
#
#
# Elastic Compliance Matrix: (Units=1/GPa)
#
#
# Indices 1 2 3 4 5 6 
#
# 1 0.007877 -0.000824 -0.004234 0.000000 0.000846 0.000000
# 2 -0.000824 0.032424 0.002559 0.000000 -0.007371 0.000000
# 3 -0.004234 0.002559 0.012408 0.000000 -0.004354 0.000000
# 4 0.000000 0.000000 0.000000 -3.125767 0.000000 -0.167974
# 5 0.000846 -0.007371 -0.004354 0.000000 0.023767 0.000000
# 6 0.000000 0.000000 0.000000 -0.167974 0.000000 -0.072805
#
#
# Mechanical properties :
#
#
# Convention : Reuss Voigt Hill
#
# Bulk Modulus (GPa) = 20.95929 44.37365 32.66647
# Shear Modulus (GPa) = -1.61228 22.56038 10.47405
#
# Velocity S-wave (km/s) = -0.83212 3.11271 2.12091
# Velocity P-wave (km/s) = 2.84220 5.65471 4.47514
#
# Compressibility (1/GPa) = 0.04771154
#
# Stress axis : x y z
#
# Youngs Moduli (GPa) = 126.95738 30.84134 80.59515
#
# Poissons Ratio (x) = 0.02540 0.34125
# Poissons Ratio (y) = 0.10455 -0.20627
# Poissons Ratio (z) = 0.53756 -0.07893
#
# Static dielectric constant tensor:
#      x y z
#    x 2.015260 0.000000 -0.051190 
#    y 0.000000 1.868540 0.000000 
#    z -0.051190 0.000000 1.981080 
# 
# From -- ./inp_files/65452.got.cif
#   From: 2010.05.17/outbox.cif.g08.bks.cpg/sg12_33_cif.got.tgz:65452.got - 2010.06.03 13:09:07.
