data_PCOD9183976
_publ_section_title
;
Structure prediction by ZEFSAII (Michael W. Deem and Ramdas Pophale) SiO2 
 PCOD9183976
Probable space group: C 2/M
;
_chemical_formula_sum "Si O2"
_cell_formula_units_Z 56
_cell_length_a 20.880548
_cell_length_b 8.760019
_cell_length_c 17.953063
_cell_angle_alpha 90.000000
_cell_angle_beta 71.275005
_cell_angle_gamma 90.000000
_cell_volume 3110.052518
_symmetry_space_group_name_H-M "C 2/M"
_symmetry_group_IT_number 12
_symmetry_cell_setting 'monoclinic'
loop_
_space_group_symop_operation_xyz
x,y,z
-x,y,-z
-x,-y,-z
x,-y,z
1/2+x,1/2+y,z
1/2-x,1/2+y,-z
1/2-x,1/2-y,-z
1/2+x,1/2-y,z
loop_
_atom_site_type_symbol
_atom_site_label
_atom_site_fract_x
_atom_site_fract_y
_atom_site_fract_z
Si Si1 0.299814 0.317259 0.580593
Si Si2 0.923907 0.682298 0.241791
Si Si3 0.321504 0.682100 0.159243
Si Si4 0.580035 0.816367 0.174822
Si Si5 0.676821 0.317800 0.260666
Si Si6 0.154434 0.818575 0.597051
Si Si7 0.322346 0.816572 0.997809
O O1 0.285816 0.500000 0.583242
O O2 0.331755 0.282386 0.648560
O O3 0.228637 0.230811 0.598641
O O4 0.344425 0.280859 0.491311
O O5 0.917372 0.500000 0.236507
O O6 0.873877 0.761007 0.201775
O O7 0.899927 0.732309 0.332720
O O8 0.001571 0.726578 0.199164
O O9 0.320303 0.500000 0.156661
O O10 0.246902 0.742593 0.207856
O O11 0.339815 0.750109 0.071908
O O12 0.616935 0.742205 0.231475
O O13 0.583583 0.000000 0.181201
O O14 0.622376 0.775211 0.085206
O O15 0.683045 0.500000 0.250406
O O16 0.146187 0.000000 0.608977
O O17 0.317765 0.000000 0.003550
O O18 0.250000 0.750000 0.000000
#
# Coordination Sequence:
#
# PCOD9183976 Si02
#       7
#     8   8   8   8   8   8   8
#     4   9  19  34  55  86 119 152 194 240 291 346
#     4  11  23  41  60  84 119 159 197 241 297 352
#     4  12  24  38  60  89 119 153 196 245 292 349
#     4  10  24  42  61  84 118 157 196 241 295 355
#     4  11  21  36  61  89 117 153 196 242 290 348
#     4  10  19  33  56  86 118 153 193 243 293 345
#     4  11  22  39  62  89 118 153 195 246 297 345
#
# _framework density 18.006128
#
# number of rings (size 3 to 8) (size 9 to 14) (size 15 to 20)
#    0.000    1.429    2.857    3.000    0.000    3.429 
#    0.000    3.571    0.000    4.286    0.000    0.000 
#    0.000    0.000    0.000    0.000    0.000    0.000 
#
# Total GULP energy -156453.593017 kJ/mol
# GULP energy per Si atom -5587.628322 kJ/mol
# Density = 1.796515 g / cm^3
# Si number density = 18.006128 Si / 1000 Ang^3
#
#
#
# Elastic Constant Matrix: (Units=GPa)
#
#
# Indices 1 2 3 4 5 6 
#
# 1 71.8437 26.1375 32.3130 0.0000 -5.4889 0.0000
# 2 26.1375 43.5784 31.4593 0.0000 -0.2234 0.0000
# 3 32.3130 31.4593 113.4542 0.0000 3.1633 0.0000
# 4 0.0000 0.0000 0.0000 31.1692 0.0000 2.9364
# 5 -5.4889 -0.2234 3.1633 0.0000 31.4055 0.0000
# 6 0.0000 0.0000 0.0000 2.9364 0.0000 28.0884
#
#
#
# Elastic Compliance Matrix: (Units=1/GPa)
#
#
# Indices 1 2 3 4 5 6 
#
# 1 0.018839 -0.009173 -0.002920 0.000000 0.003521 0.000000
# 2 -0.009173 0.033189 -0.006570 0.000000 -0.000705 0.000000
# 3 -0.002920 -0.006570 0.011516 0.000000 -0.001717 0.000000
# 4 0.000000 0.000000 0.000000 0.032402 0.000000 -0.003387
# 5 0.003521 -0.000705 -0.001717 0.000000 0.032625 0.000000
# 6 0.000000 0.000000 0.000000 -0.003387 0.000000 0.035956
#
#
# Mechanical properties :
#
#
# Convention : Reuss Voigt Hill
#
# Bulk Modulus (GPa) = 38.14514 45.41065 41.77789
# Shear Modulus (GPa) = 23.74262 27.39705 25.56984
#
# Velocity S-wave (km/s) = 3.63517 3.90492 3.77246
# Velocity P-wave (km/s) = 6.23296 6.75319 6.49828
#
# Compressibility (1/GPa) = 0.02621566
#
# Stress axis : x y z
#
# Youngs Moduli (GPa) = 53.08210 30.13084 86.83884
#
# Poissons Ratio (x) = 0.27639 0.25358
# Poissons Ratio (y) = 0.48692 0.57057
# Poissons Ratio (z) = 0.15501 0.19797
#
# Static dielectric constant tensor:
#      x y z
#    x 1.576310 0.000000 0.005100 
#    y 0.000000 1.605100 0.000000 
#    z 0.005100 0.000000 1.628050 
# 
# From -- ./inp_files/275272.got.cif
#   From: 2010.05.17/outbox.cif.g08.bks.cpg/sg12_138_cif.got.tgz:275272.got - 2010.06.03 13:09:07.
