data_PCOD9183365
_publ_section_title
;
Structure prediction by ZEFSAII (Michael W. Deem and Ramdas Pophale) SiO2 
 PCOD9183365
Probable space group: C 2/M
;
_chemical_formula_sum "Si O2"
_cell_formula_units_Z 56
_cell_length_a 23.053577
_cell_length_b 8.745765
_cell_length_c 18.397108
_cell_angle_alpha 90.000000
_cell_angle_beta 123.358620
_cell_angle_gamma 90.000000
_cell_volume 3098.130281
_symmetry_space_group_name_H-M "C 2/M"
_symmetry_group_IT_number 12
_symmetry_cell_setting 'monoclinic'
loop_
_space_group_symop_operation_xyz
x,y,z
-x,y,-z
-x,-y,-z
x,-y,z
1/2+x,1/2+y,z
1/2-x,1/2+y,-z
1/2-x,1/2-y,-z
1/2+x,1/2-y,z
loop_
_atom_site_type_symbol
_atom_site_label
_atom_site_fract_x
_atom_site_fract_y
_atom_site_fract_z
Si Si1 0.416598 0.316118 0.156315
Si Si2 0.455146 0.680850 0.539119
Si Si3 0.807553 0.180492 0.364015
Si Si4 0.315077 0.184136 0.211060
Si Si5 0.199419 0.816595 0.026575
Si Si6 0.051184 0.681070 0.310788
Si Si7 0.295528 0.681727 0.597294
O O1 0.418116 0.500000 0.163347
O O2 0.369792 0.249691 0.190205
O O3 0.493196 0.250112 0.217833
O O4 0.377112 0.272409 0.053909
O O5 0.500000 0.726436 0.500000
O O6 0.468151 0.500000 0.561734
O O7 0.374884 0.699907 0.461715
O O8 0.470924 0.773347 0.622405
O O9 0.825296 0.244052 0.296871
O O10 0.744088 0.269413 0.356778
O O11 0.792616 0.000000 0.349862
O O12 0.237494 0.225663 0.127748
O O13 0.321614 0.000000 0.218199
O O14 0.202054 0.000000 0.024918
O O15 0.250000 0.750000 0.000000
O O16 0.054373 0.500000 0.305852
O O17 0.127012 0.752334 0.351197
O O18 0.297954 0.500000 0.591222
O O19 0.250000 0.750000 0.500000
#
# Coordination Sequence:
#
# PCOD9183365 Si02
#       7
#     8   8   8   8   8   8   8
#     4  10  19  34  55  81 114 150 186 225 276 329
#     4  10  21  36  54  77 109 145 179 218 270 325
#     4  11  22  36  56  81 111 146 185 226 272 324
#     4  10  19  33  54  84 117 147 184 227 274 327
#     4   8  16  30  51  78 110 147 183 222 269 326
#     4  12  24  37  56  81 109 142 184 229 276 326
#     4  12  24  41  61  80 105 141 187 232 274 322
#
# _framework density 18.075419
#
# number of rings (size 3 to 8) (size 9 to 14) (size 15 to 20)
#    0.000    1.571    1.429    4.714    0.000    3.143 
#    0.000    0.000    0.000    0.857    0.000    6.000 
#    0.000    0.000    0.000    0.000    0.000    0.000 
#
# Total GULP energy -156327.910117 kJ/mol
# GULP energy per Si atom -5583.139647 kJ/mol
# Density = 1.803428 g / cm^3
# Si number density = 18.075419 Si / 1000 Ang^3
#
#
#
# Elastic Constant Matrix: (Units=GPa)
#
#
# Indices 1 2 3 4 5 6 
#
# 1 57.3151 15.7625 -1.0659 0.0000 23.8461 0.0000
# 2 15.7625 85.5932 31.7159 0.0000 18.8864 0.0000
# 3 -1.0659 31.7159 69.6567 0.0000 29.8659 0.0000
# 4 0.0000 0.0000 0.0000 24.0778 0.0000 2.5388
# 5 23.8461 18.8864 29.8659 0.0000 31.3310 0.0000
# 6 0.0000 0.0000 0.0000 2.5388 0.0000 27.5709
#
#
#
# Elastic Compliance Matrix: (Units=1/GPa)
#
#
# Indices 1 2 3 4 5 6 
#
# 1 0.041371 -0.005531 0.025744 0.000000 -0.052694 0.000000
# 2 -0.005531 0.015098 -0.008222 0.000000 0.002946 0.000000
# 3 0.025744 -0.008222 0.041891 0.000000 -0.054570 0.000000
# 4 0.000000 0.000000 0.000000 0.041939 0.000000 -0.003862
# 5 -0.052694 0.002946 -0.054570 0.000000 0.122265 0.000000
# 6 0.000000 0.000000 0.000000 -0.003862 0.000000 0.036626
#
#
# Mechanical properties :
#
#
# Convention : Reuss Voigt Hill
#
# Bulk Modulus (GPa) = 8.17381 33.93221 21.05301
# Shear Modulus (GPa) = 15.82335 27.67275 21.74805
#
# Velocity S-wave (km/s) = 2.96194 3.91699 3.47246
# Velocity P-wave (km/s) = 4.02856 6.26661 5.26782
#
# Compressibility (1/GPa) = 0.12234204
#
# Stress axis : x y z
#
# Youngs Moduli (GPa) = 24.17171 66.23227 23.87144
#
# Poissons Ratio (x) = 0.36633 -0.61455
# Poissons Ratio (y) = 0.13369 0.19628
# Poissons Ratio (z) = -0.62228 0.54458
#
# Static dielectric constant tensor:
#      x y z
#    x 1.606610 0.000000 0.024100 
#    y 0.000000 1.601280 0.000000 
#    z 0.024100 0.000000 1.644410 
# 
# From -- ./inp_files/288207.got.cif
#   From: 2010.05.17/outbox.cif.g08.bks.cpg/sg12_145_cif.got.tgz:288207.got - 2010.06.03 13:09:07.
