data_PCOD9183463
_publ_section_title
;
Structure prediction by ZEFSAII (Michael W. Deem and Ramdas Pophale) SiO2 
 PCOD9183463
Probable space group: C 2/M
;
_chemical_formula_sum "Si O2"
_cell_formula_units_Z 56
_cell_length_a 24.174717
_cell_length_b 8.210296
_cell_length_c 19.536316
_cell_angle_alpha 90.000000
_cell_angle_beta 127.441290
_cell_angle_gamma 90.000000
_cell_volume 3078.723231
_symmetry_space_group_name_H-M "C 2/M"
_symmetry_group_IT_number 12
_symmetry_cell_setting 'monoclinic'
loop_
_space_group_symop_operation_xyz
x,y,z
-x,y,-z
-x,-y,-z
x,-y,z
1/2+x,1/2+y,z
1/2-x,1/2+y,-z
1/2-x,1/2-y,-z
1/2+x,1/2-y,z
loop_
_atom_site_type_symbol
_atom_site_label
_atom_site_fract_x
_atom_site_fract_y
_atom_site_fract_z
Si Si1 0.249426 0.803502 0.335596
Si Si2 0.535012 0.688909 0.795580
Si Si3 0.686841 0.191741 0.752594
Si Si4 0.686038 0.306997 0.906385
Si Si5 0.883975 0.199906 0.680153
Si Si6 0.883660 0.197094 0.520969
Si Si7 0.463845 0.687831 0.370160
O O1 0.261742 0.744671 0.267465
O O2 0.180099 0.744638 0.321668
O O3 0.318039 0.756734 0.429456
O O4 0.245782 0.000000 0.330654
O O5 0.535425 0.500000 0.818500
O O6 0.609872 0.764030 0.870015
O O7 0.460459 0.758896 0.761315
O O8 0.532685 0.686769 0.710617
O O9 0.696039 0.269985 0.833693
O O10 0.607456 0.221116 0.667270
O O11 0.697271 0.000000 0.769011
O O12 0.680655 0.500000 0.909379
O O13 0.750000 0.250000 0.000000
O O14 0.874633 0.247308 0.593626
O O15 0.885280 0.000000 0.681802
O O16 0.959997 0.251753 0.551337
O O17 0.886017 0.000000 0.521346
O O18 0.456232 0.500000 0.387230
#
# Coordination Sequence:
#
# PCOD9183463 Si02
#       7
#     8   8   8   8   8   8   8
#     4  10  20  30  43  65  95 127 158 194 234 271
#     4   7  12  25  47  70  89 112 147 187 226 265
#     4  10  20  32  45  67  97 126 153 184 228 282
#     4  10  19  33  55  79  97 115 142 182 229 279
#     4   8  14  28  47  66  90 122 159 198 231 263
#     4   9  17  29  47  67  88 120 166 208 238 269
#     4   8  15  29  46  64  87 120 159 198 235 272
#
# _framework density 18.189359
#
# number of rings (size 3 to 8) (size 9 to 14) (size 15 to 20)
#    0.000    3.143    0.000    3.857    0.000    2.286 
#    0.000    2.857    0.000    5.143    0.000    6.000 
#    0.000    0.000    0.000    0.000    0.000    0.000 
#
# Total GULP energy -155968.890167 kJ/mol
# GULP energy per Si atom -5570.317506 kJ/mol
# Density = 1.814796 g / cm^3
# Si number density = 18.189359 Si / 1000 Ang^3
#
#
#
# Elastic Constant Matrix: (Units=GPa)
#
#
# Indices 1 2 3 4 5 6 
#
# 1 120.3171 7.6701 67.6416 0.0000 10.1961 0.0000
# 2 7.6701 9.1559 6.8882 0.0000 1.2125 0.0000
# 3 67.6416 6.8882 97.2180 0.0000 25.1102 0.0000
# 4 0.0000 0.0000 0.0000 22.5324 0.0000 5.2343
# 5 10.1961 1.2125 25.1102 0.0000 23.3465 0.0000
# 6 0.0000 0.0000 0.0000 5.2343 0.0000 16.2665
#
#
#
# Elastic Compliance Matrix: (Units=1/GPa)
#
#
# Indices 1 2 3 4 5 6 
#
# 1 0.014427 -0.004392 -0.011297 0.000000 0.006077 0.000000
# 2 -0.004392 0.116960 -0.005757 0.000000 0.002036 0.000000
# 3 -0.011297 -0.005757 0.023819 0.000000 -0.020386 0.000000
# 4 0.000000 0.000000 0.000000 0.047966 0.000000 -0.015435
# 5 0.006077 0.002036 -0.020386 0.000000 0.061999 0.000000
# 6 0.000000 0.000000 0.000000 -0.015435 0.000000 0.066442
#
#
# Mechanical properties :
#
#
# Convention : Reuss Voigt Hill
#
# Bulk Modulus (GPa) = 8.90346 43.45452 26.17899
# Shear Modulus (GPa) = 12.13755 22.06184 17.09969
#
# Velocity S-wave (km/s) = 2.58600 3.48645 3.06942
# Velocity P-wave (km/s) = 3.71779 6.33633 5.19476
#
# Compressibility (1/GPa) = 0.11231593
#
# Stress axis : x y z
#
# Youngs Moduli (GPa) = 69.31348 8.54990 41.98262
#
# Poissons Ratio (x) = 0.03755 0.47426
# Poissons Ratio (y) = 0.30443 0.24169
# Poissons Ratio (z) = 0.78300 0.04922
#
# Static dielectric constant tensor:
#      x y z
#    x 1.675410 0.000000 0.015830 
#    y 0.000000 1.650770 0.000000 
#    z 0.015830 0.000000 1.622340 
# 
# From -- ./inp_files/287857.got.cif
#   From: 2010.05.17/outbox.cif.g08.bks.cpg/sg12_144_cif.got.tgz:287857.got - 2010.06.03 13:09:07.
