data_PCOD9183268
_publ_section_title
;
Structure prediction by ZEFSAII (Michael W. Deem and Ramdas Pophale) SiO2 
 PCOD9183268
Probable space group: C 2/M
;
_chemical_formula_sum "Si O2"
_cell_formula_units_Z 48
_cell_length_a 24.052925
_cell_length_b 10.823447
_cell_length_c 29.879483
_cell_angle_alpha 90.000000
_cell_angle_beta 17.509420
_cell_angle_gamma 90.000000
_cell_volume 2340.317441
_symmetry_space_group_name_H-M "C 2/M"
_symmetry_group_IT_number 12
_symmetry_cell_setting 'monoclinic'
loop_
_space_group_symop_operation_xyz
x,y,z
-x,y,-z
-x,-y,-z
x,-y,z
1/2+x,1/2+y,z
1/2-x,1/2+y,-z
1/2-x,1/2-y,-z
1/2+x,1/2-y,z
loop_
_atom_site_type_symbol
_atom_site_label
_atom_site_fract_x
_atom_site_fract_y
_atom_site_fract_z
Si Si1 0.193084 0.146693 0.775905
Si Si2 0.410642 0.141508 0.843931
Si Si3 0.286908 0.645354 0.094117
Si Si4 0.014097 0.277684 0.381779
Si Si5 0.715431 0.628107 0.498060
Si Si6 0.628626 0.642131 0.719928
O O1 0.357367 0.219320 0.673551
O O2 0.185503 0.157893 0.728203
O O3 0.220255 0.000000 0.765828
O O4 0.992432 0.190928 0.947446
O O5 0.282749 0.187954 0.901010
O O6 0.604530 0.120150 0.670145
O O7 0.469645 0.257326 0.830000
O O8 0.358818 0.000000 0.899950
O O9 0.311936 0.500000 0.068189
O O10 0.136556 0.661062 0.248395
O O11 0.955432 0.149632 0.403899
O O12 0.816885 0.337819 0.546618
O O13 0.694075 0.500000 0.540684
O O14 0.750000 0.750000 0.500000
O O15 0.567609 0.500000 0.760865
#
# Coordination Sequence:
#
# PCOD9183268 Si02
#       6
#     8   8   8   8   8   8
#     4  10  21  35  53  80 114 149 191 232 274 330
#     4   9  19  35  54  80 111 144 183 228 278 332
#     4  10  19  33  54  81 111 147 189 231 275 334
#     4  11  20  34  56  83 110 145 180 233 281 330
#     4  10  20  34  55  85 116 144 180 230 281 331
#     4  10  21  35  55  84 112 142 185 237 282 324
#
# _framework density 20.510038000000002
#
# number of rings (size 3 to 8) (size 9 to 14) (size 15 to 20)
#    0.000    2.000    1.667    2.500    0.000    6.667 
#    0.000    0.833    0.000    8.000    0.000    0.000 
#    0.000    0.000    0.000    0.000    0.000    0.000 
#
# Total GULP energy -133668.072495 kJ/mol
# GULP energy per Si atom -5569.503021 kJ/mol
# Density = 2.046336 g / cm^3
# Si number density = 20.510038 Si / 1000 Ang^3
#
#
#
# Elastic Constant Matrix: (Units=GPa)
#
#
# Indices 1 2 3 4 5 6 
#
# 1 97.1852 50.6746 30.3967 -0.0805 -6.4097 0.0418
# 2 50.6746 110.5814 11.5867 -0.0305 -7.2748 0.0300
# 3 30.3967 11.5867 93.1021 0.0614 -0.4069 -0.0366
# 4 -0.0805 -0.0305 0.0614 81.6012 0.0013 -59.7247
# 5 -6.4097 -7.2748 -0.4069 0.0013 38.9846 0.0104
# 6 0.0418 0.0300 -0.0366 -59.7247 0.0104 71.6349
#
#
#
# Elastic Compliance Matrix: (Units=1/GPa)
#
#
# Indices 1 2 3 4 5 6 
#
# 1 0.014958 -0.006345 -0.004089 0.000024 0.001233 0.000012
# 2 -0.006345 0.011968 0.000587 -0.000008 0.001196 -0.000008
# 3 -0.004089 0.000587 0.012001 -0.000017 -0.000437 -0.000006
# 4 0.000024 -0.000008 -0.000017 0.031440 -0.000006 0.026213
# 5 0.001233 0.001196 -0.000437 -0.000006 0.026072 -0.000010
# 6 0.000012 -0.000008 -0.000006 0.026213 -0.000010 0.035814
#
#
# Mechanical properties :
#
#
# Convention : Reuss Voigt Hill
#
# Bulk Modulus (GPa) = 51.99078 54.02053 53.00565
# Shear Modulus (GPa) = 31.57396 52.32485 41.94940
#
# Velocity S-wave (km/s) = 3.92783 5.05640 4.52742
# Velocity P-wave (km/s) = 6.78044 7.77723 7.29588
#
# Compressibility (1/GPa) = 0.01923418
#
# Stress axis : x y z
#
# Youngs Moduli (GPa) = 66.85249 83.55615 83.32794
#
# Poissons Ratio (x) = 0.53018 0.34070
# Poissons Ratio (y) = 0.42420 -0.04895
# Poissons Ratio (z) = 0.27334 -0.04908
#
# Static dielectric constant tensor:
#      x y z
#    x 1.769240 0.000030 -0.012980 
#    y 0.000030 1.806990 0.000050 
#    z -0.012980 0.000050 1.798960 
# 
# From -- ./inp_files/366144.got.cif
#   From: 2010.05.17/outbox.cif.g08.bks.cpg/sg12_184_cif.got.tgz:366144.got - 2010.06.03 13:09:07.
