data_PCOD9183368
_publ_section_title
;
Structure prediction by ZEFSAII (Michael W. Deem and Ramdas Pophale) SiO2 
 PCOD9183368
Probable space group: C 2/M
;
_chemical_formula_sum "Si O2"
_cell_formula_units_Z 56
_cell_length_a 27.653458
_cell_length_b 11.984831
_cell_length_c 15.361562
_cell_angle_alpha 90.000000
_cell_angle_beta 37.207804
_cell_angle_gamma 90.000000
_cell_volume 3078.663101
_symmetry_space_group_name_H-M "C 2/M"
_symmetry_group_IT_number 12
_symmetry_cell_setting 'monoclinic'
loop_
_space_group_symop_operation_xyz
x,y,z
-x,y,-z
-x,-y,-z
x,-y,z
1/2+x,1/2+y,z
1/2-x,1/2+y,-z
1/2-x,1/2-y,-z
1/2+x,1/2-y,z
loop_
_atom_site_type_symbol
_atom_site_label
_atom_site_fract_x
_atom_site_fract_y
_atom_site_fract_z
Si Si1 0.068958 0.377742 0.828949
Si Si2 0.774195 0.370800 0.922735
Si Si3 0.496734 0.748103 0.233554
Si Si4 0.833732 0.875949 0.451986
Si Si5 0.794628 0.797150 0.321780
Si Si6 0.534151 0.129706 0.357018
Si Si7 0.151992 0.124575 0.941916
O O1 0.104810 0.500000 0.775044
O O2 0.135806 0.291491 0.759592
O O3 0.032268 0.346079 0.788873
O O4 0.000000 0.373760 0.000000
O O5 0.756498 0.500000 0.984980
O O6 0.869641 0.367112 0.777486
O O7 0.726378 0.368792 0.900796
O O8 0.750000 0.250000 0.000000
O O9 0.427595 0.654697 0.322303
O O10 0.505558 0.792954 0.318683
O O11 0.581651 0.705724 0.074948
O O12 0.800158 0.871813 0.400719
O O13 0.786736 0.774208 0.565137
O O14 0.819817 0.000000 0.507565
O O15 0.816404 0.854233 0.200361
O O16 0.500000 0.163608 0.500000
O O17 0.510125 0.000000 0.376067
O O18 0.117879 0.000000 0.995138
#
# Coordination Sequence:
#
# PCOD9183368 Si02
#       7
#     8   8   8   8   8   8   8
#     4  10  19  33  54  84 118 151 188 234 284 344
#     4  10  21  40  64  89 120 152 197 249 301 356
#     4  11  21  37  60  85 119 151 195 242 294 354
#     4  10  22  38  57  84 119 157 191 235 292 352
#     4  10  21  38  57  83 116 155 194 237 283 353
#     4  10  22  40  62  86 116 156 200 249 296 353
#     4  11  22  37  61  88 114 151 196 244 296 352
#
# _framework density 18.189713000000001
#
# number of rings (size 3 to 8) (size 9 to 14) (size 15 to 20)
#    0.000    1.714    2.857    1.714    2.000    0.000 
#    0.000    5.000    0.000    2.143    0.000    0.000 
#    0.000    0.000    0.000    0.000    0.000    0.000 
#
# Total GULP energy -156027.316752 kJ/mol
# GULP energy per Si atom -5572.404170 kJ/mol
# Density = 1.814831 g / cm^3
# Si number density = 18.189713 Si / 1000 Ang^3
#
#
#
# Elastic Constant Matrix: (Units=GPa)
#
#
# Indices 1 2 3 4 5 6 
#
# 1 71.0321 12.7656 21.6168 0.0000 2.8141 0.0000
# 2 12.7656 78.0541 12.8641 0.0000 6.5746 0.0000
# 3 21.6168 12.8641 56.5341 0.0000 10.6129 0.0000
# 4 0.0000 0.0000 0.0000 21.7946 0.0000 8.9352
# 5 2.8141 6.5746 10.6129 0.0000 30.2400 0.0000
# 6 0.0000 0.0000 0.0000 8.9352 0.0000 13.8480
#
#
#
# Elastic Compliance Matrix: (Units=1/GPa)
#
#
# Indices 1 2 3 4 5 6 
#
# 1 0.016169 -0.001742 -0.005968 0.000000 0.000969 0.000000
# 2 -0.001742 0.013608 -0.002040 0.000000 -0.002081 0.000000
# 3 -0.005968 -0.002040 0.021675 0.000000 -0.006608 0.000000
# 4 0.000000 0.000000 0.000000 0.062386 0.000000 -0.040253
# 5 0.000969 -0.002081 -0.006608 0.000000 0.035750 0.000000
# 6 0.000000 0.000000 0.000000 -0.040253 0.000000 0.098186
#
#
# Mechanical properties :
#
#
# Convention : Reuss Voigt Hill
#
# Bulk Modulus (GPa) = 31.29675 33.34593 32.32134
# Shear Modulus (GPa) = 17.99053 23.73478 20.86266
#
# Velocity S-wave (km/s) = 3.14833 3.61618 3.39034
# Velocity P-wave (km/s) = 5.51897 5.98396 5.75617
#
# Compressibility (1/GPa) = 0.03195219
#
# Stress axis : x y z
#
# Youngs Moduli (GPa) = 61.84648 73.48618 46.13617
#
# Poissons Ratio (x) = 0.12805 0.27533
# Poissons Ratio (y) = 0.10776 0.09410
# Poissons Ratio (z) = 0.36909 0.14988
#
# Static dielectric constant tensor:
#      x y z
#    x 1.595550 0.000000 -0.000080 
#    y 0.000000 1.644700 0.000000 
#    z -0.000080 0.000000 1.640170 
# 
# From -- ./inp_files/223354.got.cif
#   From: 2010.05.17/outbox.cif.g08.bks.cpg/sg12_112_cif.got.tgz:223354.got - 2010.06.03 13:09:07.
