data_PCOD9183935
_publ_section_title
;
Structure prediction by ZEFSAII (Michael W. Deem and Ramdas Pophale) SiO2 
 PCOD9183935
Probable space group: C 2/M
;
_chemical_formula_sum "Si O2"
_cell_formula_units_Z 58
_cell_length_a 19.484794
_cell_length_b 7.378866
_cell_length_c 17.518547
_cell_angle_alpha 90.000000
_cell_angle_beta 110.756605
_cell_angle_gamma 90.000000
_cell_volume 2355.260578
_symmetry_space_group_name_H-M "C 2/M"
_symmetry_group_IT_number 12
_symmetry_cell_setting 'monoclinic'
loop_
_space_group_symop_operation_xyz
x,y,z
-x,y,-z
-x,-y,-z
x,-y,z
1/2+x,1/2+y,z
1/2-x,1/2+y,-z
1/2-x,1/2-y,-z
1/2+x,1/2-y,z
loop_
_atom_site_type_symbol
_atom_site_label
_atom_site_fract_x
_atom_site_fract_y
_atom_site_fract_z
Si Si1 0.000000 0.500000 0.500000
Si Si2 0.833244 0.789989 0.121083
Si Si3 0.836437 0.718571 0.954210
Si Si4 0.944357 0.281674 0.684576
Si Si5 0.371439 0.778462 0.802643
Si Si6 0.596624 0.797016 0.698011
Si Si7 0.625139 0.714805 0.489542
Si Si8 0.766706 0.795058 0.348602
O O1 0.940844 0.340174 0.505683
O O2 0.749027 0.722968 0.084675
O O3 0.876733 0.691602 0.204288
O O4 0.830732 0.000000 0.142925
O O5 0.864716 0.776505 0.048124
O O6 0.836933 0.500000 0.955573
O O7 0.874852 0.781061 0.891560
O O8 0.951185 0.500000 0.688804
O O9 0.933521 0.222581 0.767173
O O10 0.877287 0.233810 0.603060
O O11 0.017451 0.208423 0.673644
O O12 0.296489 0.716629 0.730769
O O13 0.370369 0.000000 0.805354
O O14 0.660211 0.705687 0.675471
O O15 0.585584 0.000000 0.659831
O O16 0.615915 0.500000 0.503814
O O17 0.699983 0.779738 0.559984
O O18 0.742115 0.000000 0.354347
#
# Coordination Sequence:
#
# PCOD9183935 Si02
#       8
#     2   8   8   8   8   8   8   8
#     4  12  22  40  64  86 128 160 204 254 310 362
#     4  10  19  33  56  84 115 147 186 243 307 352
#     4   9  17  33  57  84 112 146 193 244 296 356
#     4  10  22  40  61  85 122 166 202 248 305 364
#     4   9  18  38  63  86 117 160 203 245 303 361
#     4  11  22  34  55  87 117 151 197 244 298 357
#     4  11  24  39  61  92 124 165 207 254 310 365
#     4  10  21  38  61  89 117 152 205 258 298 355
#
# _framework density 24.625724999999999
#
# number of rings (size 3 to 8) (size 9 to 14) (size 15 to 20)
#    0.000    1.931    2.069    1.862    2.897    3.310 
#    0.000    2.069    0.000    4.138    0.000    0.000 
#    0.000    0.000    0.000    0.000    0.000    0.000 
#
# Total GULP energy -161822.519306 kJ/mol
# GULP energy per Si atom -5580.086873 kJ/mol
# Density = 2.456968 g / cm^3
# Si number density = 24.625725 Si / 1000 Ang^3
#
#
#
# Elastic Constant Matrix: (Units=GPa)
#
#
# Indices 1 2 3 4 5 6 
#
# 1 47.7053 2.5182 -1.1621 0.0000 -10.9399 0.0000
# 2 2.5182 117.1152 -12.0361 0.0000 -6.1880 0.0000
# 3 -1.1621 -12.0361 112.4517 0.0000 -30.2128 0.0000
# 4 0.0000 0.0000 0.0000 25.4116 0.0000 -5.5513
# 5 -10.9399 -6.1880 -30.2128 0.0000 28.7886 0.0000
# 6 0.0000 0.0000 0.0000 -5.5513 0.0000 -0.3936
#
#
#
# Elastic Compliance Matrix: (Units=1/GPa)
#
#
# Indices 1 2 3 4 5 6 
#
# 1 0.024096 0.000591 0.003909 0.000000 0.013385 0.000000
# 2 0.000591 0.008980 0.002153 0.000000 0.004415 0.000000
# 3 0.003909 0.002153 0.013491 0.000000 0.016107 0.000000
# 4 0.000000 0.000000 0.000000 0.009642 0.000000 -0.135999
# 5 0.013385 0.004415 0.016107 0.000000 0.057675 0.000000
# 6 0.000000 0.000000 0.000000 -0.135999 0.000000 -0.622547
#
#
# Mechanical properties :
#
#
# Convention : Reuss Voigt Hill
#
# Bulk Modulus (GPa) = 16.70206 28.43470 22.56838
# Shear Modulus (GPa) = -9.95994 29.95814 9.99910
#
# Velocity S-wave (km/s) = -2.01328 3.49167 2.01724
# Velocity P-wave (km/s) = 1.18012 5.27518 3.82232
#
# Compressibility (1/GPa) = 0.05987287
#
# Stress axis : x y z
#
# Youngs Moduli (GPa) = 41.50128 111.35259 74.12345
#
# Poissons Ratio (x) = -0.06579 -0.28972
# Poissons Ratio (y) = -0.02452 -0.15962
# Poissons Ratio (z) = -0.16221 -0.23980
#
# Static dielectric constant tensor:
#      x y z
#    x 1.958720 0.000000 0.016930 
#    y 0.000000 1.974780 0.000000 
#    z 0.016930 0.000000 2.055560 
# 
# From -- ./inp_files/281567.got.cif
#   From: 2010.05.17/outbox.cif.g08.bks.cpg/sg12_141_cif.got.tgz:281567.got - 2010.06.03 13:09:07.
