data_PCOD9183881
_publ_section_title
;
Structure prediction by ZEFSAII (Michael W. Deem and Ramdas Pophale) SiO2 
 PCOD9183881
Probable space group: C 2/M
;
_chemical_formula_sum "Si O2"
_cell_formula_units_Z 56
_cell_length_a 30.300970
_cell_length_b 7.605236
_cell_length_c 22.196214
_cell_angle_alpha 90.000000
_cell_angle_beta 150.989942
_cell_angle_gamma 90.000000
_cell_volume 2480.600736
_symmetry_space_group_name_H-M "C 2/M"
_symmetry_group_IT_number 12
_symmetry_cell_setting 'monoclinic'
loop_
_space_group_symop_operation_xyz
x,y,z
-x,y,-z
-x,-y,-z
x,-y,z
1/2+x,1/2+y,z
1/2-x,1/2+y,-z
1/2-x,1/2-y,-z
1/2+x,1/2-y,z
loop_
_atom_site_type_symbol
_atom_site_label
_atom_site_fract_x
_atom_site_fract_y
_atom_site_fract_z
Si Si1 0.225449 0.289111 0.565955
Si Si2 0.592450 0.202658 0.082470
Si Si3 0.295541 0.199954 0.331436
Si Si4 0.770516 0.212128 0.094741
Si Si5 0.410912 0.298763 0.359158
Si Si6 0.414059 0.797282 0.068604
Si Si7 0.612396 0.787704 0.316732
O O1 0.216246 0.500000 0.557726
O O2 0.182924 0.221079 0.577312
O O3 0.331111 0.253331 0.676382
O O4 0.170684 0.221986 0.442848
O O5 0.686435 0.300439 0.204772
O O6 0.602653 0.000000 0.116646
O O7 0.500000 0.275803 0.000000
O O8 0.582697 0.197491 0.999219
O O9 0.333246 0.297468 0.318248
O O10 0.329152 0.000000 0.366568
O O11 0.860951 0.276709 0.239321
O O12 0.775340 0.000000 0.106934
O O13 0.750000 0.250000 0.000000
O O14 0.680444 0.280691 0.021577
O O15 0.500000 0.220869 0.500000
O O16 0.436962 0.500000 0.375313
O O17 0.510699 0.716852 0.201323
O O18 0.413641 0.000000 0.090542
O O19 0.607844 0.000000 0.313463
#
# Coordination Sequence:
#
# PCOD9183881 Si02
#       7
#     8   8   8   8   8   8   8
#     4   9  19  33  48  75 114 147 179 224 277 333
#     4  10  19  33  56  83 111 148 192 231 274 340
#     4  11  22  35  54  82 117 151 184 233 295 352
#     4  10  21  39  61  85 115 148 190 245 302 355
#     4  10  22  42  65  86 113 152 199 252 300 354
#     4   9  17  32  54  79 105 136 179 231 277 325
#     4   9  17  32  54  76 102 144 190 225 270 333
#
# _framework density 22.575177
#
# number of rings (size 3 to 8) (size 9 to 14) (size 15 to 20)
#    0.000    2.286    1.429    1.286    0.000    4.571 
#    0.000    2.857    0.000    0.000    0.000    0.000 
#    0.000    0.000    0.000    0.000    0.000    0.000 
#
# Total GULP energy -156081.963025 kJ/mol
# GULP energy per Si atom -5574.355822 kJ/mol
# Density = 2.252379 g / cm^3
# Si number density = 22.575177 Si / 1000 Ang^3
#
#
#
# Elastic Constant Matrix: (Units=GPa)
#
#
# Indices 1 2 3 4 5 6 
#
# 1 87.9097 -2.1894 42.8187 0.0000 -4.9706 0.0000
# 2 -2.1894 53.6126 4.0073 0.0000 0.0763 0.0000
# 3 42.8187 4.0073 137.7389 0.0000 -1.8379 0.0000
# 4 0.0000 0.0000 0.0000 10.3706 0.0000 0.2261
# 5 -4.9706 0.0763 -1.8379 0.0000 30.7634 0.0000
# 6 0.0000 0.0000 0.0000 0.2261 0.0000 -1.0487
#
#
#
# Elastic Compliance Matrix: (Units=1/GPa)
#
#
# Indices 1 2 3 4 5 6 
#
# 1 0.013559 0.000866 -0.004214 0.000000 0.001937 0.000000
# 2 0.000866 0.018748 -0.000814 0.000000 0.000045 0.000000
# 3 -0.004214 -0.000814 0.008592 0.000000 -0.000166 0.000000
# 4 0.000000 0.000000 0.000000 0.095975 0.000000 0.020694
# 5 0.001937 0.000045 -0.000166 0.000000 0.032809 0.000000
# 6 0.000000 0.000000 0.000000 0.020694 0.000000 -0.949092
#
#
# Mechanical properties :
#
#
# Convention : Reuss Voigt Hill
#
# Bulk Modulus (GPa) = 30.69906 40.94826 35.82366
# Shear Modulus (GPa) = -6.57700 23.65871 8.54085
#
# Velocity S-wave (km/s) = -1.70871 3.24079 1.94718
# Velocity P-wave (km/s) = 3.12012 5.67288 4.57803
#
# Compressibility (1/GPa) = 0.03257428
#
# Stress axis : x y z
#
# Youngs Moduli (GPa) = 73.75088 53.33762 116.39098
#
# Poissons Ratio (x) = -0.04619 0.49053
# Poissons Ratio (y) = -0.06387 0.09475
# Poissons Ratio (z) = 0.31082 0.04342
#
# Static dielectric constant tensor:
#      x y z
#    x 1.820130 0.000000 -0.026300 
#    y 0.000000 2.018350 0.000000 
#    z -0.026300 0.000000 1.935330 
# 
# From -- ./inp_files/329714.got.cif
#   From: 2010.05.17/outbox.cif.g08.bks.cpg/sg12_165_cif.got.tgz:329714.got - 2010.06.03 13:09:07.
