data_PCOD9183906
_publ_section_title
;
Structure prediction by ZEFSAII (Michael W. Deem and Ramdas Pophale) SiO2 
 PCOD9183906
Probable space group: C 2/M
;
_chemical_formula_sum "Si O2"
_cell_formula_units_Z 64
_cell_length_a 17.537275
_cell_length_b 17.168381
_cell_length_c 14.592028
_cell_angle_alpha 90.000000
_cell_angle_beta 48.875091
_cell_angle_gamma 90.000000
_cell_volume 3309.497996
_symmetry_space_group_name_H-M "C 2/M"
_symmetry_group_IT_number 12
_symmetry_cell_setting 'monoclinic'
loop_
_space_group_symop_operation_xyz
x,y,z
-x,y,-z
-x,-y,-z
x,-y,z
1/2+x,1/2+y,z
1/2-x,1/2+y,-z
1/2-x,1/2-y,-z
1/2+x,1/2-y,z
loop_
_atom_site_type_symbol
_atom_site_label
_atom_site_fract_x
_atom_site_fract_y
_atom_site_fract_z
Si Si1 0.704376 0.906746 0.302339
Si Si2 0.201493 0.586977 0.681715
Si Si3 0.099256 0.909210 0.983535
Si Si4 0.046701 0.683755 0.301295
Si Si5 0.192219 0.323986 0.502714
Si Si6 0.037187 0.411020 0.122119
Si Si7 0.662038 0.309861 0.102782
Si Si8 0.286364 0.093449 0.138231
O O1 0.800239 0.900549 0.158371
O O2 0.610736 0.861769 0.327738
O O3 0.728083 0.863207 0.379605
O O4 0.683408 0.000000 0.332674
O O5 0.242398 0.500000 0.645711
O O6 0.206314 0.617715 0.576209
O O7 0.245426 0.627953 0.737742
O O8 0.081988 0.587486 0.800777
O O9 0.096904 0.000000 0.017790
O O10 0.105397 0.846744 0.060543
O O11 0.000000 0.897071 0.000000
O O12 0.055853 0.633727 0.200817
O O13 0.094132 0.765041 0.230968
O O14 0.927749 0.691454 0.416263
O O15 0.250000 0.250000 0.500000
O O16 0.069731 0.500000 0.111068
O O17 0.104076 0.379729 0.985933
O O18 0.713192 0.380935 0.115706
O O19 0.750000 0.250000 0.000000
O O20 0.288918 0.000000 0.146679
#
# Coordination Sequence:
#
# PCOD9183906 Si02
#       8
#     8   8   8   8   8   8   8   8
#     4  11  23  43  69  94 123 166 217 265 315 377
#     4   9  19  35  56  82 113 153 198 241 294 361
#     4  10  23  43  68  96 128 169 214 256 308 382
#     4  11  23  39  59  92 122 159 204 255 315 369
#     4  11  26  41  60  87 123 163 206 259 315 367
#     4   9  16  31  54  85 119 148 186 237 297 365
#     4  12  22  37  59  93 128 158 199 254 315 370
#     4  10  19  33  56  83 118 160 196 238 293 362
#
# _framework density 19.338280000000001
#
# number of rings (size 3 to 8) (size 9 to 14) (size 15 to 20)
#    0.000    1.625    2.500    1.875    3.500    5.500 
#    2.250    0.000    0.000    0.000    0.000    1.750 
#    0.000    0.000    0.000    0.000    0.000    0.000 
#
# Total GULP energy -178344.419084 kJ/mol
# GULP energy per Si atom -5573.263096 kJ/mol
# Density = 1.929426 g / cm^3
# Si number density = 19.338280 Si / 1000 Ang^3
#
#
#
# Elastic Constant Matrix: (Units=GPa)
#
#
# Indices 1 2 3 4 5 6 
#
# 1 103.8757 40.1999 17.7079 0.0000 12.8060 0.0000
# 2 40.1999 62.0524 21.4681 0.0000 4.3505 0.0000
# 3 17.7079 21.4681 38.1032 0.0000 10.4795 0.0000
# 4 0.0000 0.0000 0.0000 19.2757 0.0000 1.8952
# 5 12.8060 4.3505 10.4795 0.0000 27.3016 0.0000
# 6 0.0000 0.0000 0.0000 1.8952 0.0000 34.3481
#
#
#
# Elastic Compliance Matrix: (Units=1/GPa)
#
#
# Indices 1 2 3 4 5 6 
#
# 1 0.013490 -0.008314 -0.000234 0.000000 -0.004913 0.000000
# 2 -0.008314 0.025181 -0.011507 0.000000 0.004304 0.000000
# 3 -0.000234 -0.011507 0.036115 0.000000 -0.011919 0.000000
# 4 0.000000 0.000000 0.000000 0.052162 0.000000 -0.002878
# 5 -0.004913 0.004304 -0.011919 0.000000 0.042822 0.000000
# 6 0.000000 0.000000 0.000000 -0.002878 0.000000 0.029273
#
#
# Mechanical properties :
#
#
# Convention : Reuss Voigt Hill
#
# Bulk Modulus (GPa) = 28.83899 40.30925 34.57412
# Shear Modulus (GPa) = 19.94334 24.49544 22.21939
#
# Velocity S-wave (km/s) = 3.21485 3.56291 3.39335
# Velocity P-wave (km/s) = 5.35963 6.14941 5.76806
#
# Compressibility (1/GPa) = 0.03467527
#
# Stress axis : x y z
#
# Youngs Moduli (GPa) = 74.12936 39.71252 27.68949
#
# Poissons Ratio (x) = 0.33017 0.00647
# Poissons Ratio (y) = 0.61631 0.31864
# Poissons Ratio (z) = 0.01733 0.45699
#
# Static dielectric constant tensor:
#      x y z
#    x 1.696430 0.000000 0.009390 
#    y 0.000000 1.721730 0.000000 
#    z 0.009390 0.000000 1.713220 
# 
# From -- ./inp_files/216762.got.cif
#   From: 2010.05.17/outbox.cif.g08.bks.cpg/sg12_109_cif.got.tgz:216762.got - 2010.06.03 13:09:07.
