data_PCOD9183919
_publ_section_title
;
Structure prediction by ZEFSAII (Michael W. Deem and Ramdas Pophale) SiO2 
 PCOD9183919
Probable space group: C 2/M
;
_chemical_formula_sum "Si O2"
_cell_formula_units_Z 56
_cell_length_a 17.094874
_cell_length_b 19.637765
_cell_length_c 12.298916
_cell_angle_alpha 90.000000
_cell_angle_beta 130.789024
_cell_angle_gamma 90.000000
_cell_volume 3126.004800
_symmetry_space_group_name_H-M "C 2/M"
_symmetry_group_IT_number 12
_symmetry_cell_setting 'monoclinic'
loop_
_space_group_symop_operation_xyz
x,y,z
-x,y,-z
-x,-y,-z
x,-y,z
1/2+x,1/2+y,z
1/2-x,1/2+y,-z
1/2-x,1/2-y,-z
1/2+x,1/2-y,z
loop_
_atom_site_type_symbol
_atom_site_label
_atom_site_fract_x
_atom_site_fract_y
_atom_site_fract_z
Si Si1 0.122216 0.576489 0.311678
Si Si2 0.130180 0.735208 0.910457
Si Si3 0.138570 0.077205 0.410319
Si Si4 0.108171 0.202703 0.535974
Si Si5 0.482944 0.166378 0.611685
Si Si6 0.339498 0.195467 0.820588
Si Si7 0.540685 0.328156 0.153288
O O1 0.094321 0.500000 0.252741
O O2 0.238430 0.575567 0.464347
O O3 0.052957 0.604455 0.346619
O O4 0.123841 0.629939 0.213898
O O5 0.082985 0.696254 0.764354
O O6 0.056476 0.800810 0.863959
O O7 0.250000 0.750000 0.000000
O O8 0.124713 0.695887 0.021547
O O9 0.102766 0.132705 0.465609
O O10 0.102279 0.111861 0.266458
O O11 0.099774 0.000000 0.388991
O O12 0.103245 0.272684 0.461550
O O13 0.214856 0.200869 0.699274
O O14 0.000000 0.207701 0.500000
O O15 0.500000 0.149548 0.500000
O O16 0.388186 0.262072 0.806955
O O17 0.500000 0.351260 0.000000
#
# Coordination Sequence:
#
# PCOD9183919 Si02
#       7
#     8   8   8   8   8   8   8
#     4  10  21  38  60  84 115 151 195 240 282 342
#     4  11  21  35  57  86 117 144 187 243 291 335
#     4  10  20  34  54  81 112 149 187 229 281 341
#     4  10  19  33  56  84 112 144 186 238 285 338
#     4  11  21  35  58  85 113 149 192 237 295 341
#     4  10  20  36  60  85 112 146 196 241 288 336
#     4  10  20  35  57  81 110 149 189 237 285 331
#
# _framework density 17.914239999999999
#
# number of rings (size 3 to 8) (size 9 to 14) (size 15 to 20)
#    0.000    1.714    2.857    2.571    0.000    4.286 
#    0.000    1.429    0.000    0.857    0.000    0.000 
#    0.000    0.000    0.000    0.000    0.000    0.000 
#
# Total GULP energy -156130.011403 kJ/mol
# GULP energy per Si atom -5576.071836 kJ/mol
# Density = 1.787347 g / cm^3
# Si number density = 17.914240 Si / 1000 Ang^3
#
#
#
# Elastic Constant Matrix: (Units=GPa)
#
#
# Indices 1 2 3 4 5 6 
#
# 1 59.7984 5.4849 10.2407 0.0000 1.6080 0.0000
# 2 5.4849 90.0261 24.8054 0.0000 -4.7564 0.0000
# 3 10.2407 24.8054 97.8117 0.0000 -6.9737 0.0000
# 4 0.0000 0.0000 0.0000 10.1352 0.0000 12.9880
# 5 1.6080 -4.7564 -6.9737 0.0000 23.0072 0.0000
# 6 0.0000 0.0000 0.0000 12.9880 0.0000 8.0174
#
#
#
# Elastic Compliance Matrix: (Units=1/GPa)
#
#
# Indices 1 2 3 4 5 6 
#
# 1 0.017135 -0.000658 -0.001760 0.000000 -0.001867 0.000000
# 2 -0.000658 0.012024 -0.002862 0.000000 0.001664 0.000000
# 3 -0.001760 -0.002862 0.011346 0.000000 0.002970 0.000000
# 4 0.000000 0.000000 0.000000 -0.091701 0.000000 0.148553
# 5 -0.001867 0.001664 0.002970 0.000000 0.044840 0.000000
# 6 0.000000 0.000000 0.000000 0.148553 0.000000 -0.115924
#
#
# Mechanical properties :
#
#
# Convention : Reuss Voigt Hill
#
# Bulk Modulus (GPa) = 33.39430 36.52201 34.95815
# Shear Modulus (GPa) = -49.14541 22.03897 -13.55322
#
# Velocity S-wave (km/s) = -5.24340 3.51130 -2.75355
# Velocity P-wave (km/s) = 4.23981 6.07209 3.07362
#
# Compressibility (1/GPa) = 0.02994523
#
# Stress axis : x y z
#
# Youngs Moduli (GPa) = 58.36065 83.16387 88.13989
#
# Poissons Ratio (x) = 0.05468 0.15516
# Poissons Ratio (y) = 0.03838 0.25225
# Poissons Ratio (z) = 0.10273 0.23801
#
# Static dielectric constant tensor:
#      x y z
#    x 1.644030 0.000000 -0.014050 
#    y 0.000000 1.621250 0.000000 
#    z -0.014050 0.000000 1.633020 
# 
# From -- ./inp_files/158225.got.cif
#   From: 2010.05.17/outbox.cif.g08.bks.cpg/sg12_80_cif.got.tgz:158225.got - 2010.06.03 13:09:07.
