data_PCOD9183011
_publ_section_title
;
Structure prediction by ZEFSAII (Michael W. Deem and Ramdas Pophale) SiO2 
 PCOD9183011
Probable space group: C 2/M
;
_chemical_formula_sum "Si O2"
_cell_formula_units_Z 60
_cell_length_a 10.761096
_cell_length_b 22.189645
_cell_length_c 20.583385
_cell_angle_alpha 90.000000
_cell_angle_beta 149.182830
_cell_angle_gamma 90.000000
_cell_volume 2517.956508
_symmetry_space_group_name_H-M "C 2/M"
_symmetry_group_IT_number 12
_symmetry_cell_setting 'monoclinic'
loop_
_space_group_symop_operation_xyz
x,y,z
-x,y,-z
-x,-y,-z
x,-y,z
1/2+x,1/2+y,z
1/2-x,1/2+y,-z
1/2-x,1/2-y,-z
1/2+x,1/2-y,z
loop_
_atom_site_type_symbol
_atom_site_label
_atom_site_fract_x
_atom_site_fract_y
_atom_site_fract_z
Si Si1 0.987336 0.166640 0.599195
Si Si2 0.715994 0.613229 0.140411
Si Si3 0.811781 0.433454 0.673452
Si Si4 0.000000 0.740927 0.500000
Si Si5 0.760668 0.761791 0.810437
Si Si6 0.844539 0.565793 0.529610
Si Si7 0.410082 0.433997 0.780159
Si Si8 0.998968 0.802576 0.203467
O O1 0.156685 0.119076 0.636406
O O2 0.882212 0.214214 0.500537
O O3 0.135010 0.208523 0.713607
O O4 0.797723 0.125557 0.552893
O O5 0.852683 0.670978 0.232433
O O6 0.607102 0.573628 0.149378
O O7 0.907574 0.576797 0.184061
O O8 0.500000 0.637722 0.000000
O O9 0.725959 0.500000 0.654411
O O10 0.821496 0.432979 0.598681
O O11 0.765923 0.711275 0.357697
O O12 0.978930 0.780592 0.861121
O O13 0.720126 0.733875 0.862901
O O14 0.751394 0.500000 0.466220
O O15 0.123553 0.568991 0.633843
O O16 0.504849 0.500000 0.805107
O O17 0.537138 0.374372 0.810999
#
# Coordination Sequence:
#
# PCOD9183011 Si02
#       8
#     8   8   8   4   8   8   8   8
#     4  11  19  31  53  83 119 155 195 234 291 350
#     4  10  20  38  62  85 110 147 200 253 304 347
#     4  10  19  33  53  83 119 147 192 249 292 338
#     4  10  20  28  52  78 110 156 200 230 276 340
#     4  10  23  38  57  84 119 151 198 247 292 350
#     4   9  17  30  52  80 115 158 195 232 281 335
#     4   9  20  37  55  81 118 153 193 243 289 344
#     4  10  22  37  56  82 118 157 198 242 289 340
#
# _framework density 23.828847
#
# number of rings (size 3 to 8) (size 9 to 14) (size 15 to 20)
#    0.000    2.133    1.333    3.200    5.600    3.200 
#    0.000    7.667    0.000    0.000    0.000    0.000 
#    0.000   11.200    0.000    0.000    0.000    0.000 
#
# Total GULP energy -167351.605146 kJ/mol
# GULP energy per Si atom -5578.386838 kJ/mol
# Density = 2.377461 g / cm^3
# Si number density = 23.828847 Si / 1000 Ang^3
#
#
#
# Elastic Constant Matrix: (Units=GPa)
#
#
# Indices 1 2 3 4 5 6 
#
# 1 88.9447 30.7733 1.9843 -0.0006 -1.2782 0.0010
# 2 30.7733 178.1714 15.3252 -0.0008 2.2672 0.0008
# 3 1.9843 15.3252 47.4573 -0.0101 5.7977 -0.0029
# 4 -0.0006 -0.0008 -0.0101 6.4665 0.0061 -3.6799
# 5 -1.2782 2.2672 5.7977 0.0061 12.3485 0.0077
# 6 0.0010 0.0008 -0.0029 -3.6799 0.0077 18.3167
#
#
#
# Elastic Compliance Matrix: (Units=1/GPa)
#
#
# Indices 1 2 3 4 5 6 
#
# 1 0.011990 -0.002089 -0.000027 -0.000002 0.001637 -0.000002
# 2 -0.002089 0.006137 -0.001836 -0.000002 -0.000481 -0.000001
# 3 -0.000027 -0.001836 0.022940 0.000057 -0.010436 0.000019
# 4 -0.000002 -0.000002 0.000057 0.174604 -0.000134 0.035079
# 5 0.001637 -0.000481 -0.010436 -0.000134 0.086139 -0.000065
# 6 -0.000002 -0.000001 0.000019 0.035079 -0.000065 0.061642
#
#
# Mechanical properties :
#
#
# Convention : Reuss Voigt Hill
#
# Bulk Modulus (GPa) = 30.15292 45.63767 37.89529
# Shear Modulus (GPa) = 13.07490 25.19239 19.13364
#
# Velocity S-wave (km/s) = 2.34498 3.25502 2.83673
# Velocity P-wave (km/s) = 4.47362 5.77241 5.16401
#
# Compressibility (1/GPa) = 0.03316428
#
# Stress axis : x y z
#
# Youngs Moduli (GPa) = 83.40312 162.93330 43.59105
#
# Poissons Ratio (x) = 0.34044 0.00116
# Poissons Ratio (y) = 0.17426 0.08002
# Poissons Ratio (z) = 0.00222 0.29911
#
# Static dielectric constant tensor:
#      x y z
#    x 1.948710 0.000000 -0.043470 
#    y 0.000000 1.913060 0.000000 
#    z -0.043470 0.000000 1.968180 
# 
# From -- ./inp_files/336896.got.cif
#   From: 2010.05.17/outbox.cif.g08.bks.cpg/sg12_169_cif.got.tgz:336896.got - 2010.06.03 13:09:07.
