data_PCOD9183280
_publ_section_title
;
Structure prediction by ZEFSAII (Michael W. Deem and Ramdas Pophale) SiO2 
 PCOD9183280
Probable space group: C 2/M
;
_chemical_formula_sum "Si O2"
_cell_formula_units_Z 56
_cell_length_a 23.093984
_cell_length_b 8.926938
_cell_length_c 15.220629
_cell_angle_alpha 90.000000
_cell_angle_beta 84.838328
_cell_angle_gamma 90.000000
_cell_volume 3125.138360
_symmetry_space_group_name_H-M "C 2/M"
_symmetry_group_IT_number 12
_symmetry_cell_setting 'monoclinic'
loop_
_space_group_symop_operation_xyz
x,y,z
-x,y,-z
-x,-y,-z
x,-y,z
1/2+x,1/2+y,z
1/2-x,1/2+y,-z
1/2-x,1/2-y,-z
1/2+x,1/2-y,z
loop_
_atom_site_type_symbol
_atom_site_label
_atom_site_fract_x
_atom_site_fract_y
_atom_site_fract_z
Si Si1 0.430940 0.671775 0.531702
Si Si2 0.410561 0.820781 0.355869
Si Si3 0.754399 0.321668 0.902327
Si Si4 0.935377 0.823716 0.037959
Si Si5 0.374611 0.675578 0.859698
Si Si6 0.455379 0.821962 0.706472
Si Si7 0.147159 0.321458 0.815187
O O1 0.500000 0.674070 0.500000
O O2 0.414013 0.500000 0.550282
O O3 0.400919 0.738383 0.449284
O O4 0.424963 0.769786 0.620032
O O5 0.476149 0.785347 0.313440
O O6 0.366449 0.782047 0.283886
O O7 0.409073 0.000000 0.370461
O O8 0.751171 0.500000 0.910453
O O9 0.815978 0.268977 0.855040
O O10 0.702062 0.261267 0.849738
O O11 0.750000 0.250000 0.000000
O O12 0.908411 0.727424 0.119400
O O13 0.936935 0.000000 0.062926
O O14 0.894791 0.809018 0.957913
O O15 0.000000 0.779172 0.000000
O O16 0.364186 0.500000 0.844273
O O17 0.425417 0.735935 0.790344
O O18 0.450067 0.000000 0.718934
O O19 0.155012 0.500000 0.820464
#
# Coordination Sequence:
#
# PCOD9183280 Si02
#       7
#     8   8   8   8   8   8   8
#     4   9  17  30  51  79 110 145 183 223 267 320
#     4   9  19  34  53  81 114 147 181 220 270 325
#     4  12  24  40  59  78 103 140 187 232 274 322
#     4  10  21  35  52  77 110 145 178 219 271 323
#     4  11  22  36  55  79 109 143 182 227 270 321
#     4  10  19  33  54  81 114 148 181 221 270 325
#     4  11  22  36  56  80 108 143 183 227 271 323
#
# _framework density 17.919205000000002
#
# number of rings (size 3 to 8) (size 9 to 14) (size 15 to 20)
#    0.000    1.714    1.429    3.857    0.000    4.286 
#    0.000    0.000    0.000    0.857    0.000    0.000 
#    0.000    0.000    0.000    0.000    0.000    0.000 
#
# Total GULP energy -156391.890863 kJ/mol
# GULP energy per Si atom -5585.424674 kJ/mol
# Density = 1.787842 g / cm^3
# Si number density = 17.919205 Si / 1000 Ang^3
#
#
#
# Elastic Constant Matrix: (Units=GPa)
#
#
# Indices 1 2 3 4 5 6 
#
# 1 54.2511 19.7186 -3.5914 0.0000 22.5997 0.0000
# 2 19.7186 76.5978 27.7161 0.0000 18.9141 0.0000
# 3 -3.5914 27.7161 57.8609 0.0000 24.7890 0.0000
# 4 0.0000 0.0000 0.0000 25.2704 0.0000 -1.4049
# 5 22.5997 18.9141 24.7890 0.0000 26.5448 0.0000
# 6 0.0000 0.0000 0.0000 -1.4049 0.0000 27.0901
#
#
#
# Elastic Compliance Matrix: (Units=1/GPa)
#
#
# Indices 1 2 3 4 5 6 
#
# 1 0.064459 -0.011528 0.049199 0.000000 -0.092610 0.000000
# 2 -0.011528 0.018670 -0.013609 0.000000 0.009220 0.000000
# 3 0.049199 -0.013609 0.067754 0.000000 -0.095463 0.000000
# 4 0.000000 0.000000 0.000000 0.039686 0.000000 0.002058
# 5 -0.092610 0.009220 -0.095463 0.000000 0.199098 0.000000
# 6 0.000000 0.000000 0.000000 0.002058 0.000000 0.037021
#
#
# Mechanical properties :
#
#
# Convention : Reuss Voigt Hill
#
# Bulk Modulus (GPa) = 5.02491 30.71071 17.86781
# Shear Modulus (GPa) = 11.23849 25.43884 18.33866
#
# Velocity S-wave (km/s) = 2.50706 3.77190 3.20255
# Velocity P-wave (km/s) = 3.34526 6.01209 4.86498
#
# Compressibility (1/GPa) = 0.19900837
#
# Stress axis : x y z
#
# Youngs Moduli (GPa) = 15.51372 53.56071 14.75924
#
# Poissons Ratio (x) = 0.61745 -0.72615
# Poissons Ratio (y) = 0.17884 0.20086
# Poissons Ratio (z) = -0.76327 0.72891
#
# Static dielectric constant tensor:
#      x y z
#    x 1.612120 0.000000 0.008160 
#    y 0.000000 1.596670 0.000000 
#    z 0.008160 0.000000 1.599340 
# 
# From -- ./inp_files/230846.got.cif
#   From: 2010.05.17/outbox.cif.g08.bks.cpg/sg12_116_cif.got.tgz:230846.got - 2010.06.03 13:09:07.
