data_PCOD9183891
_publ_section_title
;
Structure prediction by ZEFSAII (Michael W. Deem and Ramdas Pophale) SiO2 
 PCOD9183891
Probable space group: C 2/M
;
_chemical_formula_sum "Si O2"
_cell_formula_units_Z 48
_cell_length_a 29.018810
_cell_length_b 8.969604
_cell_length_c 18.085573
_cell_angle_alpha 90.000000
_cell_angle_beta 153.887427
_cell_angle_gamma 90.000000
_cell_volume 2071.916522
_symmetry_space_group_name_H-M "C 2/M"
_symmetry_group_IT_number 12
_symmetry_cell_setting 'monoclinic'
loop_
_space_group_symop_operation_xyz
x,y,z
-x,y,-z
-x,-y,-z
x,-y,z
1/2+x,1/2+y,z
1/2-x,1/2+y,-z
1/2-x,1/2-y,-z
1/2+x,1/2-y,z
loop_
_atom_site_type_symbol
_atom_site_label
_atom_site_fract_x
_atom_site_fract_y
_atom_site_fract_z
Si Si1 0.626722 0.167810 0.192816
Si Si2 0.667589 0.325950 0.717252
Si Si3 0.891288 0.827162 0.683926
Si Si4 0.142609 0.830117 0.066814
Si Si5 0.138446 0.676175 0.822691
Si Si6 0.437846 0.677296 0.592978
O O1 0.648718 0.224681 0.307167
O O2 0.660056 0.280329 0.176684
O O3 0.668002 0.000000 0.239533
O O4 0.500000 0.160504 0.000000
O O5 0.655573 0.500000 0.718267
O O6 0.788821 0.279327 0.884306
O O7 0.615075 0.229141 0.705303
O O8 0.620722 0.298783 0.568612
O O9 0.873635 0.779166 0.573813
O O10 0.859901 0.000000 0.649887
O O11 0.018660 0.822798 0.874020
O O12 0.177347 0.000000 0.104245
O O13 0.145752 0.500000 0.838563
O O14 0.047294 0.738547 0.743307
O O15 0.250000 0.750000 0.000000
O O16 0.457908 0.500000 0.629359
#
# Coordination Sequence:
#
# PCOD9183891 Si02
#       6
#     8   8   8   8   8   8
#     4   9  17  30  51  80 112 144 183 234 287 335
#     4  11  23  39  59  84 117 153 188 230 283 340
#     4   9  18  34  56  81 109 144 187 233 282 335
#     4  10  19  33  56  83 112 148 192 238 282 335
#     4  12  25  41  63  88 114 146 188 235 281 334
#     4  10  22  40  60  84 117 153 187 230 285 340
#
# _framework density 23.166955000000002
#
# number of rings (size 3 to 8) (size 9 to 14) (size 15 to 20)
#    0.000    1.833    0.000    4.500    0.000    8.000 
#    0.000    0.833    0.000    0.000    0.000    0.000 
#    0.000    0.000    0.000    0.000    0.000    0.000 
#
# Total GULP energy -134374.762705 kJ/mol
# GULP energy per Si atom -5598.948446 kJ/mol
# Density = 2.311423 g / cm^3
# Si number density = 23.166955 Si / 1000 Ang^3
#
#
#
# Elastic Constant Matrix: (Units=GPa)
#
#
# Indices 1 2 3 4 5 6 
#
# 1 108.2800 30.6212 19.6583 0.0000 -15.2191 0.0000
# 2 30.6212 60.3955 36.8635 0.0000 -4.9799 0.0000
# 3 19.6583 36.8635 81.6033 0.0000 -10.3689 0.0000
# 4 0.0000 0.0000 0.0000 21.6502 0.0000 -2.3763
# 5 -15.2191 -4.9799 -10.3689 0.0000 46.7297 0.0000
# 6 0.0000 0.0000 0.0000 -2.3763 0.0000 39.1938
#
#
#
# Elastic Compliance Matrix: (Units=1/GPa)
#
#
# Indices 1 2 3 4 5 6 
#
# 1 0.011204 -0.005547 0.000201 0.000000 0.003102 0.000000
# 2 -0.005547 0.025609 -0.010408 0.000000 -0.001387 0.000000
# 3 0.000201 -0.010408 0.017262 0.000000 0.002787 0.000000
# 4 0.000000 0.000000 0.000000 0.046498 0.000000 0.002819
# 5 0.003102 -0.001387 0.002787 0.000000 0.022881 0.000000
# 6 0.000000 0.000000 0.000000 0.002819 0.000000 0.025685
#
#
# Mechanical properties :
#
#
# Convention : Reuss Voigt Hill
#
# Bulk Modulus (GPa) = 44.31617 47.17386 45.74502
# Shear Modulus (GPa) = 26.57188 32.39046 29.48117
#
# Velocity S-wave (km/s) = 3.39037 3.74322 3.57116
# Velocity P-wave (km/s) = 5.87339 6.25212 6.06571
#
# Compressibility (1/GPa) = 0.02256512
#
# Stress axis : x y z
#
# Youngs Moduli (GPa) = 89.25702 39.04932 57.93115
#
# Poissons Ratio (x) = 0.21662 -0.01166
# Poissons Ratio (y) = 0.49514 0.60297
# Poissons Ratio (z) = -0.01796 0.40644
#
# Static dielectric constant tensor:
#      x y z
#    x 1.875310 0.000000 -0.011910 
#    y 0.000000 1.771940 0.000000 
#    z -0.011910 0.000000 1.967580 
# 
# From -- ./inp_files/244628.got.cif
#   From: 2010.05.17/outbox.cif.g08.bks.cpg/sg12_123_cif.got.tgz:244628.got - 2010.06.03 13:09:07.
