data_PCOD9183775
_publ_section_title
;
Structure prediction by ZEFSAII (Michael W. Deem and Ramdas Pophale) SiO2 
 PCOD9183775
Probable space group: C 2/M
;
_chemical_formula_sum "Si O2"
_cell_formula_units_Z 40
_cell_length_a 13.964664
_cell_length_b 10.810925
_cell_length_c 14.053587
_cell_angle_alpha 90.000000
_cell_angle_beta 118.233899
_cell_angle_gamma 90.000000
_cell_volume 1869.253187
_symmetry_space_group_name_H-M "C 2/M"
_symmetry_group_IT_number 12
_symmetry_cell_setting 'monoclinic'
loop_
_space_group_symop_operation_xyz
x,y,z
-x,y,-z
-x,-y,-z
x,-y,z
1/2+x,1/2+y,z
1/2-x,1/2+y,-z
1/2-x,1/2-y,-z
1/2+x,1/2-y,z
loop_
_atom_site_type_symbol
_atom_site_label
_atom_site_fract_x
_atom_site_fract_y
_atom_site_fract_z
Si Si1 0.027359 0.647081 0.908714
Si Si2 0.534914 0.868575 0.404999
Si Si3 0.682056 0.144901 0.824267
Si Si4 0.380382 0.366761 0.493758
Si Si5 0.710261 0.142748 0.242789
O O1 0.045450 0.500000 0.927860
O O2 0.917120 0.660159 0.795840
O O3 0.132262 0.690344 0.901193
O O4 0.000000 0.698205 0.000000
O O5 0.500000 0.874289 0.500000
O O6 0.424080 0.857743 0.294277
O O7 0.611439 0.750061 0.433758
O O8 0.588081 0.000000 0.405234
O O9 0.758681 0.249002 0.816027
O O10 0.720414 0.000000 0.847172
O O11 0.500000 0.373071 0.500000
O O12 0.362430 0.500000 0.532559
O O13 0.291800 0.348804 0.369750
O O14 0.721082 0.000000 0.210648
#
# Coordination Sequence:
#
# PCOD9183775 Si02
#       5
#     8   8   8   8   8
#     4   9  20  38  56  77 105 137 179 225 262 311
#     4   9  15  25  45  72 103 136 166 203 250 302
#     4  10  19  33  56  80 105 139 178 216 261 313
#     4   9  15  25  45  72 103 136 166 203 250 302
#     4  10  19  33  56  80 105 139 178 216 261 313
#
# _framework density 21.398921999999999
#
# number of rings (size 3 to 8) (size 9 to 14) (size 15 to 20)
#    0.000    2.600    4.000    0.000    0.000    0.800 
#    0.000    2.000    0.000    1.200    0.000    0.000 
#    0.000    0.000    0.000    0.000    0.000    0.000 
#
# Total GULP energy -111507.993630 kJ/mol
# GULP energy per Si atom -5575.399681 kJ/mol
# Density = 2.135022 g / cm^3
# Si number density = 21.398922 Si / 1000 Ang^3
#
#
#
# Elastic Constant Matrix: (Units=GPa)
#
#
# Indices 1 2 3 4 5 6 
#
# 1 75.5808 35.7162 7.7042 0.0000 -2.6877 0.0000
# 2 35.7162 165.4241 4.4517 0.0000 -1.3302 0.0000
# 3 7.7042 4.4517 57.4021 0.0000 6.3998 0.0000
# 4 0.0000 0.0000 0.0000 0.6984 0.0000 -5.3200
# 5 -2.6877 -1.3302 6.3998 0.0000 29.6385 0.0000
# 6 0.0000 0.0000 0.0000 -5.3200 0.0000 10.0011
#
#
#
# Elastic Compliance Matrix: (Units=1/GPa)
#
#
# Indices 1 2 3 4 5 6 
#
# 1 0.014986 -0.003170 -0.001948 0.000000 0.001637 0.000000
# 2 -0.003170 0.006732 -0.000101 0.000000 0.000036 0.000000
# 3 -0.001948 -0.000101 0.018147 0.000000 -0.004100 0.000000
# 4 0.000000 0.000000 0.000000 -0.469160 0.000000 -0.249564
# 5 0.001637 0.000036 -0.004100 0.000000 0.034775 0.000000
# 6 0.000000 0.000000 0.000000 -0.249564 0.000000 -0.032764
#
#
# Mechanical properties :
#
#
# Convention : Reuss Voigt Hill
#
# Bulk Modulus (GPa) = 33.98110 43.79457 38.88783
# Shear Modulus (GPa) = -12.28392 24.76994 6.24301
#
# Velocity S-wave (km/s) = -2.39852 3.40594 1.70990
# Velocity P-wave (km/s) = 2.87119 5.99812 4.70219
#
# Compressibility (1/GPa) = 0.02942812
#
# Stress axis : x y z
#
# Youngs Moduli (GPa) = 66.73057 148.53365 55.10460
#
# Poissons Ratio (x) = 0.47084 0.10734
# Poissons Ratio (y) = 0.21153 0.00555
# Poissons Ratio (z) = 0.12999 0.01496
#
# Static dielectric constant tensor:
#      x y z
#    x 1.778820 0.000000 -0.037090 
#    y 0.000000 1.831620 0.000000 
#    z -0.037090 0.000000 1.813680 
# 
# From -- ./inp_files/211829.got.cif
#   From: 2010.05.17/outbox.cif.g08.bks.cpg/sg12_106_cif.got.tgz:211829.got - 2010.06.03 13:09:07.
