data_PCOD9183039
_publ_section_title
;
Structure prediction by ZEFSAII (Michael W. Deem and Ramdas Pophale) SiO2 
 PCOD9183039
Probable space group: C 2/M
;
_chemical_formula_sum "Si O2"
_cell_formula_units_Z 40
_cell_length_a 27.875836
_cell_length_b 8.714283
_cell_length_c 11.737408
_cell_angle_alpha 90.000000
_cell_angle_beta 126.093912
_cell_angle_gamma 90.000000
_cell_volume 2303.940886
_symmetry_space_group_name_H-M "C 2/M"
_symmetry_group_IT_number 12
_symmetry_cell_setting 'monoclinic'
loop_
_space_group_symop_operation_xyz
x,y,z
-x,y,-z
-x,-y,-z
x,-y,z
1/2+x,1/2+y,z
1/2-x,1/2+y,-z
1/2-x,1/2-y,-z
1/2+x,1/2-y,z
loop_
_atom_site_type_symbol
_atom_site_label
_atom_site_fract_x
_atom_site_fract_y
_atom_site_fract_z
Si Si1 0.800502 0.684826 0.921521
Si Si2 0.443228 0.314901 0.494852
Si Si3 0.970662 0.815528 0.792437
Si Si4 0.587733 0.184567 0.070878
Si Si5 0.825481 0.316664 0.216735
O O1 0.794885 0.500000 0.912551
O O2 0.849788 0.728814 0.898027
O O3 0.735872 0.756986 0.815020
O O4 0.822934 0.730134 0.079543
O O5 0.500000 0.264744 0.500000
O O6 0.440553 0.500000 0.486222
O O7 0.452811 0.270974 0.639831
O O8 0.383031 0.249720 0.358331
O O9 0.924639 0.755081 0.822554
O O10 0.974616 0.000000 0.804926
O O11 0.034035 0.744780 0.916609
O O12 0.584323 0.000000 0.072199
O O13 0.827013 0.500000 0.223303
#
# Coordination Sequence:
#
# PCOD9183039 Si02
#       5
#     8   8   8   8   8
#     4   9  19  35  53  75 103 134 167 205 251 300
#     4  10  21  36  53  74 103 137 167 202 252 302
#     4  10  20  33  51  76 104 133 168 208 249 297
#     4  10  19  33  54  76 101 134 169 207 250 295
#     4  10  20  33  53  79 103 130 167 210 251 295
#
# _framework density 17.361556
#
# number of rings (size 3 to 8) (size 9 to 14) (size 15 to 20)
#    0.000    2.200    0.000    4.200    0.000    4.400 
#    0.000    1.000    0.000    0.000    0.000    0.000 
#    0.000    0.000    0.000    0.000    0.000    0.000 
#
# Total GULP energy -111645.820404 kJ/mol
# GULP energy per Si atom -5582.291020 kJ/mol
# Density = 1.732204 g / cm^3
# Si number density = 17.361556 Si / 1000 Ang^3
#
#
#
# Elastic Constant Matrix: (Units=GPa)
#
#
# Indices 1 2 3 4 5 6 
#
# 1 180.3375 42.4227 99.9286 0.0000 9.9006 0.0000
# 2 42.4227 32.3750 37.7856 0.0000 -0.6396 0.0000
# 3 99.9286 37.7856 144.4737 0.0000 3.5612 0.0000
# 4 0.0000 0.0000 0.0000 29.7637 0.0000 1.0449
# 5 9.9006 -0.6396 3.5612 0.0000 16.4845 0.0000
# 6 0.0000 0.0000 0.0000 1.0449 0.0000 20.7763
#
#
#
# Elastic Compliance Matrix: (Units=1/GPa)
#
#
# Indices 1 2 3 4 5 6 
#
# 1 0.010536 -0.008017 -0.005054 0.000000 -0.005547 0.000000
# 2 -0.008017 0.050859 -0.007966 0.000000 0.008509 0.000000
# 3 -0.005054 -0.007966 0.012500 0.000000 0.000026 0.000000
# 4 0.000000 0.000000 0.000000 0.033657 0.000000 -0.001693
# 5 -0.005547 0.008509 0.000026 0.000000 0.064319 0.000000
# 6 0.000000 0.000000 0.000000 -0.001693 0.000000 0.048217
#
#
# Mechanical properties :
#
#
# Convention : Reuss Voigt Hill
#
# Bulk Modulus (GPa) = 31.42609 79.71779 55.57194
# Shear Modulus (GPa) = 18.33044 25.20820 21.76932
#
# Velocity S-wave (km/s) = 3.25284 3.81459 3.54486
# Velocity P-wave (km/s) = 5.67875 8.08810 6.98805
#
# Compressibility (1/GPa) = 0.03182069
#
# Stress axis : x y z
#
# Youngs Moduli (GPa) = 94.91065 19.66228 79.99791
#
# Poissons Ratio (x) = 0.15763 0.40432
# Poissons Ratio (y) = 0.76090 0.63728
# Poissons Ratio (z) = 0.47969 0.15663
#
# Static dielectric constant tensor:
#      x y z
#    x 1.584300 0.000000 -0.015370 
#    y 0.000000 1.585400 0.000000 
#    z -0.015370 0.000000 1.557700 
# 
# From -- ./inp_files/162644.got.cif
#   From: 2010.05.17/outbox.cif.g08.bks.cpg/sg12_82_cif.got.tgz:162644.got - 2010.06.03 13:09:07.
