data_PCOD9183045
_publ_section_title
;
Structure prediction by ZEFSAII (Michael W. Deem and Ramdas Pophale) SiO2 
 PCOD9183045
Probable space group: C 2/M
;
_chemical_formula_sum "Si O2"
_cell_formula_units_Z 48
_cell_length_a 19.886503
_cell_length_b 8.623825
_cell_length_c 30.905341
_cell_angle_alpha 90.000000
_cell_angle_beta 149.348334
_cell_angle_gamma 90.000000
_cell_volume 2702.131797
_symmetry_space_group_name_H-M "C 2/M"
_symmetry_group_IT_number 12
_symmetry_cell_setting 'monoclinic'
loop_
_space_group_symop_operation_xyz
x,y,z
-x,y,-z
-x,-y,-z
x,-y,z
1/2+x,1/2+y,z
1/2-x,1/2+y,-z
1/2-x,1/2-y,-z
1/2+x,1/2-y,z
loop_
_atom_site_type_symbol
_atom_site_label
_atom_site_fract_x
_atom_site_fract_y
_atom_site_fract_z
Si Si1 0.879442 0.686561 0.965910
Si Si2 0.466061 0.814309 0.864883
Si Si3 0.583717 0.685311 0.254496
Si Si4 0.383722 0.811265 0.404632
Si Si5 0.894283 0.684908 0.220820
Si Si6 0.176114 0.312479 0.723470
O O1 0.859840 0.500000 0.953893
O O2 0.746765 0.767645 0.877133
O O3 0.000000 0.722163 0.000000
O O4 0.925483 0.731988 0.039581
O O5 0.483860 0.749831 0.826541
O O6 0.324000 0.753784 0.802643
O O7 0.462416 0.000000 0.861478
O O8 0.581802 0.500000 0.250994
O O9 0.736973 0.736633 0.338184
O O10 0.507442 0.740715 0.254407
O O11 0.500000 0.754453 0.500000
O O12 0.395799 0.766319 0.360885
O O13 0.386098 0.000000 0.407255
O O14 0.908107 0.500000 0.227229
O O15 0.892168 0.736208 0.269816
O O16 0.186554 0.500000 0.729442
#
# Coordination Sequence:
#
# PCOD9183045 Si02
#       6
#     8   8   8   8   8   8
#     4  10  20  34  52  76 104 137 179 219 255 301
#     4  10  19  33  54  76 102 137 176 217 258 303
#     4  10  21  36  54  76 106 138 172 214 261 311
#     4   8  15  32  58  81  99 128 171 212 254 311
#     4  11  22  34  51  76 108 142 175 215 259 302
#     4   9  18  32  52  78 105 136 173 211 254 306
#
# _framework density 17.763750999999999
#
# number of rings (size 3 to 8) (size 9 to 14) (size 15 to 20)
#    0.000    2.333    1.667    2.500    0.000    3.000 
#    0.000    0.833    0.000   12.500    0.000    0.000 
#    0.000    0.000    0.000    0.000    0.000    0.000 
#
# Total GULP energy -133895.078725 kJ/mol
# GULP energy per Si atom -5578.961614 kJ/mol
# Density = 1.772332 g / cm^3
# Si number density = 17.763751 Si / 1000 Ang^3
#
#
#
# Elastic Constant Matrix: (Units=GPa)
#
#
# Indices 1 2 3 4 5 6 
#
# 1 160.5724 28.3187 67.0989 0.0000 -18.4632 0.0000
# 2 28.3187 21.8053 18.1931 -0.0001 -6.5452 0.0003
# 3 67.0989 18.1931 109.9245 0.0001 -28.3104 0.0000
# 4 0.0000 -0.0001 0.0001 5.7820 0.0000 4.1339
# 5 -18.4632 -6.5452 -28.3104 0.0000 21.4783 0.0000
# 6 0.0000 0.0003 0.0000 4.1339 0.0000 25.1597
#
#
#
# Elastic Compliance Matrix: (Units=1/GPa)
#
#
# Indices 1 2 3 4 5 6 
#
# 1 0.009631 -0.008857 -0.004505 0.000000 -0.000358 0.000000
# 2 -0.008857 0.062051 -0.002959 0.000002 0.007396 -0.000001
# 3 -0.004505 -0.002959 0.016816 0.000000 0.017390 0.000000
# 4 0.000000 0.000002 0.000000 0.195971 0.000000 -0.032199
# 5 -0.000358 0.007396 0.017390 0.000000 0.071426 0.000000
# 6 0.000000 -0.000001 0.000000 -0.032199 0.000000 0.045037
#
#
# Mechanical properties :
#
#
# Convention : Reuss Voigt Hill
#
# Bulk Modulus (GPa) = 17.90309 57.72485 37.81397
# Shear Modulus (GPa) = 11.05725 22.39678 16.72701
#
# Velocity S-wave (km/s) = 2.49762 3.55465 3.07194
# Velocity P-wave (km/s) = 4.29160 7.02949 5.82373
#
# Compressibility (1/GPa) = 0.05585628
#
# Stress axis : x y z
#
# Youngs Moduli (GPa) = 103.82965 16.11571 59.46815
#
# Poissons Ratio (x) = 0.14273 0.26793
# Poissons Ratio (y) = 0.91957 0.17596
# Poissons Ratio (z) = 0.46780 0.04769
#
# Static dielectric constant tensor:
#      x y z
#    x 1.613200 0.000000 -0.021010 
#    y 0.000000 1.599910 0.000000 
#    z -0.021010 0.000000 1.589840 
# 
# From -- ./inp_files/273685.got.cif
#   From: 2010.05.17/outbox.cif.g08.bks.cpg/sg12_137_cif.got.tgz:273685.got - 2010.06.03 13:09:07.
