data_PCOD9183587
_publ_section_title
;
Structure prediction by ZEFSAII (Michael W. Deem and Ramdas Pophale) SiO2 
 PCOD9183587
Probable space group: C 2/M
;
_chemical_formula_sum "Si O2"
_cell_formula_units_Z 48
_cell_length_a 8.890374
_cell_length_b 24.501285
_cell_length_c 10.745033
_cell_angle_alpha 90.000000
_cell_angle_beta 99.813170
_cell_angle_gamma 90.000000
_cell_volume 2306.298046
_symmetry_space_group_name_H-M "C 2/M"
_symmetry_group_IT_number 12
_symmetry_cell_setting 'monoclinic'
loop_
_space_group_symop_operation_xyz
x,y,z
-x,y,-z
-x,-y,-z
x,-y,z
1/2+x,1/2+y,z
1/2-x,1/2+y,-z
1/2-x,1/2-y,-z
1/2+x,1/2-y,z
loop_
_atom_site_type_symbol
_atom_site_label
_atom_site_fract_x
_atom_site_fract_y
_atom_site_fract_z
Si Si1 0.338856 0.597925 0.939096
Si Si2 0.661415 0.662317 0.457252
Si Si3 0.723116 0.937343 0.187918
Si Si4 0.085864 0.277096 0.378308
Si Si5 0.066179 0.939637 0.307968
Si Si6 0.030487 0.342695 0.861091
O O1 0.383876 0.560893 0.828964
O O2 0.204254 0.637690 0.879806
O O3 0.500000 0.625417 0.000000
O O4 0.272872 0.566858 0.049826
O O5 0.500000 0.658846 0.500000
O O6 0.785150 0.677889 0.577016
O O7 0.653907 0.716593 0.370363
O O8 0.671175 0.605651 0.387487
O O9 0.586840 0.893457 0.182966
O O10 0.883774 0.925756 0.282719
O O11 0.677355 0.000000 0.209238
O O12 0.995907 0.296693 0.245826
O O13 0.000000 0.275781 0.500000
O O14 0.085105 0.000000 0.364034
O O15 0.000000 0.325568 0.000000
#
# Coordination Sequence:
#
# PCOD9183587 Si02
#       6
#     8   8   8   8   8   8
#     4   9  18  32  52  79 113 151 187 224 279 345
#     4  10  21  37  59  80 108 150 192 227 275 342
#     4   9  18  32  52  80 115 152 186 225 282 345
#     4  10  21  39  60  82 112 153 192 226 277 342
#     4  10  19  33  55  82 111 143 185 236 281 327
#     4  10  20  35  58  85 114 146 189 240 280 323
#
# _framework density 20.812573
#
# number of rings (size 3 to 8) (size 9 to 14) (size 15 to 20)
#    0.000    2.333    0.000    2.500    0.000    6.000 
#    0.000    3.333    0.000   18.000    0.000    0.000 
#    0.000    0.000    0.000    0.000    0.000    0.000 
#
# Total GULP energy -133809.105524 kJ/mol
# GULP energy per Si atom -5575.379397 kJ/mol
# Density = 2.076520 g / cm^3
# Si number density = 20.812573 Si / 1000 Ang^3
#
#
#
# Elastic Constant Matrix: (Units=GPa)
#
#
# Indices 1 2 3 4 5 6 
#
# 1 75.7760 21.0608 18.8977 0.0000 6.0551 0.0000
# 2 21.0608 104.0669 67.7824 0.0000 17.5010 0.0000
# 3 18.8977 67.7824 79.8067 0.0000 16.5504 0.0000
# 4 0.0000 0.0000 0.0000 18.7251 0.0000 8.6099
# 5 6.0551 17.5010 16.5504 0.0000 27.8828 0.0000
# 6 0.0000 0.0000 0.0000 8.6099 0.0000 16.7894
#
#
#
# Elastic Compliance Matrix: (Units=1/GPa)
#
#
# Indices 1 2 3 4 5 6 
#
# 1 0.014158 -0.001449 -0.001908 0.000000 -0.001033 0.000000
# 2 -0.001449 0.021882 -0.017629 0.000000 -0.002956 0.000000
# 3 -0.001908 -0.017629 0.029164 0.000000 -0.005832 0.000000
# 4 0.000000 0.000000 0.000000 0.069882 0.000000 -0.035837
# 5 -0.001033 -0.002956 -0.005832 0.000000 0.041406 0.000000
# 6 0.000000 0.000000 0.000000 -0.035837 0.000000 0.077939
#
#
# Mechanical properties :
#
#
# Convention : Reuss Voigt Hill
#
# Bulk Modulus (GPa) = 43.04258 52.79235 47.91747
# Shear Modulus (GPa) = 16.43950 22.80670 19.62310
#
# Velocity S-wave (km/s) = 2.81354 3.31390 3.07391
# Velocity P-wave (km/s) = 5.59290 6.32955 5.97260
#
# Compressibility (1/GPa) = 0.02323281
#
# Stress axis : x y z
#
# Youngs Moduli (GPa) = 70.63253 45.70013 34.28878
#
# Poissons Ratio (x) = 0.06622 0.06541
# Poissons Ratio (y) = 0.10235 0.60447
# Poissons Ratio (z) = 0.13473 0.80564
#
# Static dielectric constant tensor:
#      x y z
#    x 1.771700 0.000000 0.007080 
#    y 0.000000 1.772500 0.000000 
#    z 0.007080 0.000000 1.785090 
# 
# From -- ./inp_files/122582.got.cif
#   From: 2010.05.17/outbox.cif.g08.bks.cpg/sg12_62_cif.got.tgz:122582.got - 2010.06.03 13:09:07.
