data_PCOD9183481
_publ_section_title
;
Structure prediction by ZEFSAII (Michael W. Deem and Ramdas Pophale) SiO2 
 PCOD9183481
Probable space group: C 2/M
;
_chemical_formula_sum "Si O2"
_cell_formula_units_Z 64
_cell_length_a 20.343586
_cell_length_b 8.610249
_cell_length_c 21.745774
_cell_angle_alpha 90.000000
_cell_angle_beta 45.241122
_cell_angle_gamma 90.000000
_cell_volume 2704.724877
_symmetry_space_group_name_H-M "C 2/M"
_symmetry_group_IT_number 12
_symmetry_cell_setting 'monoclinic'
loop_
_space_group_symop_operation_xyz
x,y,z
-x,y,-z
-x,-y,-z
x,-y,z
1/2+x,1/2+y,z
1/2-x,1/2+y,-z
1/2-x,1/2-y,-z
1/2+x,1/2-y,z
loop_
_atom_site_type_symbol
_atom_site_label
_atom_site_fract_x
_atom_site_fract_y
_atom_site_fract_z
Si Si1 0.384539 0.685004 0.894202
Si Si2 0.806379 0.186580 0.209723
Si Si3 0.866936 0.815904 0.604358
Si Si4 0.760667 0.183664 0.561023
Si Si5 0.569494 0.317493 0.694744
Si Si6 0.972174 0.679288 0.646293
Si Si7 0.486903 0.312347 0.940181
Si Si8 0.217644 0.678016 0.147136
O O1 0.376479 0.500000 0.903166
O O2 0.478857 0.720141 0.794013
O O3 0.406860 0.746615 0.947667
O O4 0.303626 0.742795 0.903302
O O5 0.730003 0.281486 0.296790
O O6 0.912527 0.208828 0.157439
O O7 0.794124 0.230130 0.145679
O O8 0.785649 0.000000 0.228629
O O9 0.842046 0.755260 0.552283
O O10 0.944401 0.740365 0.597112
O O11 0.884451 0.000000 0.590368
O O12 0.750000 0.250000 0.500000
O O13 0.660002 0.224647 0.654954
O O14 0.772360 0.000000 0.549590
O O15 0.589116 0.500000 0.687561
O O16 0.542024 0.278123 0.642141
O O17 0.001746 0.500000 0.624625
O O18 0.875935 0.685392 0.749265
O O19 0.473767 0.500000 0.954401
O O20 0.500000 0.249277 0.000000
O O21 0.237370 0.500000 0.119689
#
# Coordination Sequence:
#
# PCOD9183481 Si02
#       8
#     8   8   8   8   8   8   8   8
#     4   9  17  29  49  75  98 126 164 205 249 295
#     4   9  17  31  52  75  97 128 170 209 251 303
#     4  10  20  34  54  80 106 133 168 212 259 303
#     4  11  24  39  54  75 105 139 174 212 255 304
#     4  10  19  33  55  80 106 135 170 214 259 305
#     4   9  17  31  53  80 107 134 167 208 255 307
#     4   9  17  30  48  70  97 130 171 214 249 290
#     4   8  15  27  45  70  98 126 157 200 249 297
#
# _framework density 23.662296000000001
#
# number of rings (size 3 to 8) (size 9 to 14) (size 15 to 20)
#    0.000    2.625    0.000    3.000    0.000    6.500 
#    0.000    1.875    0.000    5.250    0.000    0.000 
#    0.000    0.000    0.000    0.000    0.000    0.000 
#
# Total GULP energy -178795.324427 kJ/mol
# GULP energy per Si atom -5587.353888 kJ/mol
# Density = 2.360844 g / cm^3
# Si number density = 23.662296 Si / 1000 Ang^3
#
#
#
# Elastic Constant Matrix: (Units=GPa)
#
#
# Indices 1 2 3 4 5 6 
#
# 1 190.1718 20.5598 38.6092 0.0000 30.7919 0.0000
# 2 20.5598 13.9682 9.0498 -0.0002 8.7915 0.0002
# 3 38.6092 9.0498 81.1763 0.0000 24.5509 0.0000
# 4 0.0000 -0.0002 0.0000 2.5596 0.0000 8.4398
# 5 30.7919 8.7915 24.5509 0.0000 52.2502 0.0000
# 6 0.0000 0.0002 0.0000 8.4398 0.0000 26.3997
#
#
#
# Elastic Compliance Matrix: (Units=1/GPa)
#
#
# Indices 1 2 3 4 5 6 
#
# 1 0.006745 -0.007596 -0.001802 0.000012 -0.001850 -0.000004
# 2 -0.007596 0.090917 -0.003789 -0.000167 -0.009041 0.000053
# 3 -0.001802 -0.003789 0.015252 0.000007 -0.005467 -0.000002
# 4 0.000012 -0.000167 0.000007 -7.214547 0.000015 2.306448
# 5 -0.001850 -0.009041 -0.005467 0.000015 0.024319 -0.000005
# 6 -0.000004 0.000053 -0.000002 2.306448 -0.000005 -0.699479
#
#
# Mechanical properties :
#
#
# Convention : Reuss Voigt Hill
#
# Bulk Modulus (GPa) = 11.55525 46.86156 29.20841
# Shear Modulus (GPa) = -0.64754 30.71507 15.03376
#
# Velocity S-wave (km/s) = -0.52369 3.60677 2.52334
# Velocity P-wave (km/s) = 2.12799 6.09855 4.56731
#
# Compressibility (1/GPa) = 0.08654076
#
# Stress axis : x y z
#
# Youngs Moduli (GPa) = 148.25803 10.99906 65.56701
#
# Poissons Ratio (x) = 0.08355 0.11813
# Poissons Ratio (y) = 1.12619 0.24840
# Poissons Ratio (z) = 0.26710 0.04167
#
# Static dielectric constant tensor:
#      x y z
#    x 1.939790 0.000000 -0.007750 
#    y 0.000000 1.805740 0.000000 
#    z -0.007750 0.000000 2.030680 
# 
# From -- ./inp_files/319791.got.cif
#   From: 2010.05.17/outbox.cif.g08.bks.cpg/sg12_160_cif.got.tgz:319791.got - 2010.06.03 13:09:07.
