data_PCOD9183315
_publ_section_title
;
Structure prediction by ZEFSAII (Michael W. Deem and Ramdas Pophale) SiO2 
 PCOD9183315
Probable space group: C 2/M
;
_chemical_formula_sum "Si O2"
_cell_formula_units_Z 56
_cell_length_a 27.470464
_cell_length_b 13.240361
_cell_length_c 14.801438
_cell_angle_alpha 90.000000
_cell_angle_beta 26.330541
_cell_angle_gamma 90.000000
_cell_volume 2387.873568
_symmetry_space_group_name_H-M "C 2/M"
_symmetry_group_IT_number 12
_symmetry_cell_setting 'monoclinic'
loop_
_space_group_symop_operation_xyz
x,y,z
-x,y,-z
-x,-y,-z
x,-y,z
1/2+x,1/2+y,z
1/2-x,1/2+y,-z
1/2-x,1/2-y,-z
1/2+x,1/2-y,z
loop_
_atom_site_type_symbol
_atom_site_label
_atom_site_fract_x
_atom_site_fract_y
_atom_site_fract_z
Si Si1 0.408101 0.301931 0.948173
Si Si2 0.811921 0.610461 0.350472
Si Si3 0.624192 0.384945 0.519341
Si Si4 0.738574 0.619474 0.962456
Si Si5 0.623957 0.669942 0.800070
Si Si6 0.930138 0.278197 0.535100
Si Si7 0.621946 0.118819 0.103912
O O1 0.364192 0.341052 0.923752
O O2 0.349942 0.335478 0.136204
O O3 0.532371 0.341091 0.740774
O O4 0.391501 0.182572 0.964339
O O5 0.866586 0.500000 0.267101
O O6 0.737030 0.612311 0.385374
O O7 0.722641 0.620545 0.580018
O O8 0.880030 0.713800 0.230079
O O9 0.596402 0.500000 0.538991
O O10 0.621794 0.307200 0.441047
O O11 0.728904 0.500000 0.982662
O O12 0.839765 0.651890 0.731256
O O13 0.773841 0.650490 0.005775
O O14 0.500000 0.627803 0.000000
O O15 0.000000 0.229356 0.500000
O O16 0.013982 0.348849 0.340014
O O17 0.627653 0.000000 0.079949
#
# Coordination Sequence:
#
# PCOD9183315 Si02
#       7
#     8   8   8   8   8   8   8
#     4  11  21  35  58  85 116 152 196 245 294 352
#     4  10  23  42  64  88 119 157 200 248 303 359
#     4  10  20  36  56  81 115 155 196 241 297 357
#     4  10  19  33  54  82 114 149 195 243 289 348
#     4  11  23  42  65  89 121 157 201 250 300 357
#     4   9  18  33  54  80 112 152 194 242 292 346
#     4   9  19  35  55  80 113 153 192 237 295 352
#
# _framework density 23.451827999999999
#
# number of rings (size 3 to 8) (size 9 to 14) (size 15 to 20)
#    0.000    2.000    1.429    2.143    0.000    4.286 
#    0.000    0.714    0.000    0.000    0.000    0.000 
#    0.000    0.000    0.000    0.000    0.000    0.000 
#
# Total GULP energy -156489.024673 kJ/mol
# GULP energy per Si atom -5588.893738 kJ/mol
# Density = 2.339845 g / cm^3
# Si number density = 23.451828 Si / 1000 Ang^3
#
#
#
# Elastic Constant Matrix: (Units=GPa)
#
#
# Indices 1 2 3 4 5 6 
#
# 1 36.6718 0.3203 -5.6978 0.0000 5.5476 0.0000
# 2 0.3203 84.5807 -15.9157 0.0000 -7.7573 0.0000
# 3 -5.6978 -15.9157 62.3319 0.0000 1.3468 0.0000
# 4 0.0000 0.0000 0.0000 7.6422 0.0000 -5.0468
# 5 5.5476 -7.7573 1.3468 0.0000 24.7145 0.0000
# 6 0.0000 0.0000 0.0000 -5.0468 0.0000 23.8069
#
#
#
# Elastic Compliance Matrix: (Units=1/GPa)
#
#
# Indices 1 2 3 4 5 6 
#
# 1 0.028699 -0.000208 0.002714 0.000000 -0.006655 0.000000
# 2 -0.000208 0.012774 0.003159 0.000000 0.003884 0.000000
# 3 0.002714 0.003159 0.017110 0.000000 -0.000550 0.000000
# 4 0.000000 0.000000 0.000000 0.152153 0.000000 0.032255
# 5 -0.006655 0.003884 -0.000550 0.000000 0.043205 0.000000
# 6 0.000000 0.000000 0.000000 0.032255 0.000000 0.048842
#
#
# Mechanical properties :
#
#
# Convention : Reuss Voigt Hill
#
# Bulk Modulus (GPa) = 14.30364 15.66644 14.98504
# Shear Modulus (GPa) = 15.88517 24.89122 20.38820
#
# Velocity S-wave (km/s) = 2.60542 3.26141 2.95170
# Velocity P-wave (km/s) = 3.89402 4.56916 4.24503
#
# Compressibility (1/GPa) = 0.06991226
#
# Stress axis : x y z
#
# Youngs Moduli (GPa) = 34.84418 78.28113 58.44645
#
# Poissons Ratio (x) = 0.01631 -0.15862
# Poissons Ratio (y) = 0.00726 -0.18462
# Poissons Ratio (z) = -0.09457 -0.24728
#
# Static dielectric constant tensor:
#      x y z
#    x 1.922390 0.000000 -0.019970 
#    y 0.000000 1.889990 0.000000 
#    z -0.019970 0.000000 1.893160 
# 
# From -- ./inp_files/240886.got.cif
#   From: 2010.05.17/outbox.cif.g08.bks.cpg/sg12_121_cif.got.tgz:240886.got - 2010.06.03 13:09:07.
