data_PCOD9183149
_publ_section_title
;
Structure prediction by ZEFSAII (Michael W. Deem and Ramdas Pophale) SiO2 
 PCOD9183149
Probable space group: C 2/M
;
_chemical_formula_sum "Si O2"
_cell_formula_units_Z 64
_cell_length_a 9.573607
_cell_length_b 32.622275
_cell_length_c 14.464281
_cell_angle_alpha 90.000000
_cell_angle_beta 48.556666
_cell_angle_gamma 90.000000
_cell_volume 3386.276855
_symmetry_space_group_name_H-M "C 2/M"
_symmetry_group_IT_number 12
_symmetry_cell_setting 'monoclinic'
loop_
_space_group_symop_operation_xyz
x,y,z
-x,y,-z
-x,-y,-z
x,-y,z
1/2+x,1/2+y,z
1/2-x,1/2+y,-z
1/2-x,1/2-y,-z
1/2+x,1/2-y,z
loop_
_atom_site_type_symbol
_atom_site_label
_atom_site_fract_x
_atom_site_fract_y
_atom_site_fract_z
Si Si1 0.335573 0.450890 0.500000
Si Si2 0.832569 0.105685 1.000000
Si Si3 0.797998 0.822867 0.364490
Si Si4 0.047745 0.750000 0.202255
Si Si5 0.026978 0.322867 0.635510
Si Si6 0.057758 0.589334 0.272586
Si Si7 0.897068 0.910666 0.272587
Si Si8 0.847982 0.687585 1.000000
O O1 0.500000 0.437807 0.500000
O O2 0.333192 0.500000 0.500000
O O3 0.375046 0.435126 0.377973
O O4 0.130992 0.435126 0.622027
O O5 0.670222 0.082334 0.127758
O O6 0.764121 0.151105 1.000000
O O7 0.000000 0.112060 0.000000
O O8 0.925740 0.082334 0.872241
O O9 0.728547 0.819233 0.500000
O O10 0.620515 0.831721 0.379486
O O11 0.919500 0.863134 0.294547
O O12 0.880066 0.781112 0.290067
O O13 0.052684 0.718707 0.114640
O O14 0.039801 0.718888 0.290067
O O15 0.218036 0.781293 0.114640
O O16 0.008593 0.363134 0.705454
O O17 0.211585 0.584192 0.288415
O O18 0.000000 0.668046 0.000000
#
# Coordination Sequence:
#
# PCOD9183149 Si02
#       8
#     8   8   8   8   8   8   8   8
#     4  11  25  45  69  98 129 156 185 236 307 377
#     4  10  21  39  63  88 123 165 205 258 310 351
#     4  10  19  33  54  78 110 153 204 257 303 346
#     4  11  21  34  48  72 119 163 208 256 300 348
#     4  10  19  33  54  78 110 153 204 257 303 346
#     4  10  20  39  66  94 121 160 207 250 300 361
#     4  10  20  39  66  94 121 160 207 250 300 361
#     4  11  23  33  50  79 112 160 214 257 305 359
#
# _framework density 18.899812000000001
#
# number of rings (size 3 to 8) (size 9 to 14) (size 15 to 20)
#    0.000    1.625    3.750    1.500    0.000    4.000 
#    0.000    0.625    0.000    3.750    0.000    0.000 
#    0.000    0.000    0.000    0.000    0.000    0.000 
#
# Total GULP energy -178155.632342 kJ/mol
# GULP energy per Si atom -5567.363511 kJ/mol
# Density = 1.885680 g / cm^3
# Si number density = 18.899812 Si / 1000 Ang^3
#
#
#
# Elastic Constant Matrix: (Units=GPa)
#
#
# Indices 1 2 3 4 5 6 
#
# 1 59.2756 23.5923 52.4838 0.0000 1.4048 0.0000
# 2 23.5923 62.7626 41.2416 0.0000 0.5227 0.0000
# 3 52.4838 41.2416 179.2175 0.0000 2.1479 0.0000
# 4 0.0000 0.0000 0.0000 14.3640 0.0000 -0.3084
# 5 1.4048 0.5227 2.1479 0.0000 27.1301 0.0000
# 6 0.0000 0.0000 0.0000 -0.3084 0.0000 24.7737
#
#
#
# Elastic Compliance Matrix: (Units=1/GPa)
#
#
# Indices 1 2 3 4 5 6 
#
# 1 0.024158 -0.005221 -0.005865 0.000000 -0.000686 0.000000
# 2 -0.005221 0.019900 -0.003052 0.000000 0.000129 0.000000
# 3 -0.005865 -0.003052 0.008003 0.000000 -0.000271 0.000000
# 4 0.000000 0.000000 0.000000 0.069637 0.000000 0.000867
# 5 -0.000686 0.000129 -0.000271 0.000000 0.036914 0.000000
# 6 0.000000 0.000000 0.000000 0.000867 0.000000 0.040376
#
#
# Mechanical properties :
#
#
# Convention : Reuss Voigt Hill
#
# Bulk Modulus (GPa) = 42.04411 59.54344 50.79377
# Shear Modulus (GPa) = 21.25924 25.51609 23.38767
#
# Velocity S-wave (km/s) = 3.35750 3.67832 3.52156
# Velocity P-wave (km/s) = 6.10938 7.04366 6.59309
#
# Compressibility (1/GPa) = 0.02378454
#
# Stress axis : x y z
#
# Youngs Moduli (GPa) = 41.39499 50.25109 124.95528
#
# Poissons Ratio (x) = 0.26237 0.73283
# Poissons Ratio (y) = 0.21613 0.38135
# Poissons Ratio (z) = 0.24277 0.15336
#
# Static dielectric constant tensor:
#      x y z
#    x 1.949750 0.000000 -0.006390 
#    y 0.000000 1.609570 0.000000 
#    z -0.006390 0.000000 1.733960 
# 
# From -- ./inp_files/201248.got.cif
#   From: 2010.05.17/outbox.cif.g08.bks.cpg/sg12_101_cif.got.tgz:201248.got - 2010.06.03 13:09:07.
