data_PCOD9183974
_publ_section_title
;
Structure prediction by ZEFSAII (Michael W. Deem and Ramdas Pophale) SiO2 
 PCOD9183974
Probable space group: C 2/M
;
_chemical_formula_sum "Si O2"
_cell_formula_units_Z 56
_cell_length_a 28.336937
_cell_length_b 17.006856
_cell_length_c 18.932861
_cell_angle_alpha 90.000000
_cell_angle_beta 160.968368
_cell_angle_gamma 90.000000
_cell_volume 2975.300338
_symmetry_space_group_name_H-M "C 2/M"
_symmetry_group_IT_number 12
_symmetry_cell_setting 'monoclinic'
loop_
_space_group_symop_operation_xyz
x,y,z
-x,y,-z
-x,-y,-z
x,-y,z
1/2+x,1/2+y,z
1/2-x,1/2+y,-z
1/2-x,1/2-y,-z
1/2+x,1/2-y,z
loop_
_atom_site_type_symbol
_atom_site_label
_atom_site_fract_x
_atom_site_fract_y
_atom_site_fract_z
Si Si1 0.490117 0.232958 0.570648
Si Si2 0.144855 0.591431 0.413555
Si Si3 0.402086 0.092779 0.184420
Si Si4 0.857829 0.217995 0.712268
Si Si5 0.818733 0.257754 0.817340
Si Si6 0.431594 0.589292 0.324965
Si Si7 0.556952 0.912815 0.000311
O O1 0.500000 0.231518 0.500000
O O2 0.584229 0.161996 0.737748
O O3 0.323955 0.217094 0.357329
O O4 0.524236 0.323720 0.643375
O O5 0.160961 0.500000 0.444574
O O6 0.298821 0.630840 0.640287
O O7 0.023574 0.615945 0.298489
O O8 0.076843 0.605900 0.240150
O O9 0.427215 0.000000 0.242061
O O10 0.243295 0.093159 0.924815
O O11 0.750000 0.250000 0.500000
O O12 0.828178 0.257531 0.745901
O O13 0.027996 0.223852 0.938442
O O14 0.821726 0.349058 0.842741
O O15 0.500000 0.588933 0.500000
O O16 0.467710 0.500000 0.345910
O O17 0.608467 0.000000 0.056602
O O18 0.500000 0.910421 0.000000
#
# Coordination Sequence:
#
# PCOD9183974 Si02
#       7
#     8   8   8   8   8   8   8
#     4  11  24  39  60  89 120 163 209 249 297 360
#     4  10  20  35  61  88 115 156 195 241 299 357
#     4  10  21  40  62  87 119 159 205 251 300 353
#     4  11  20  37  60  83 118 155 191 242 296 352
#     4  11  22  37  56  90 117 155 200 239 302 351
#     4   9  20  37  60  89 121 150 189 247 304 358
#     4  10  19  33  56  86 118 150 190 238 298 362
#
# _framework density 18.821629000000001
#
# number of rings (size 3 to 8) (size 9 to 14) (size 15 to 20)
#    0.000    1.714    4.286    0.429    4.000    0.857 
#    2.571    2.143    0.000    0.000    0.000    0.000 
#    0.000    0.000    0.000    0.000    0.000    0.000 
#
# Total GULP energy -155868.462711 kJ/mol
# GULP energy per Si atom -5566.730811 kJ/mol
# Density = 1.877879 g / cm^3
# Si number density = 18.821629 Si / 1000 Ang^3
#
#
#
# Elastic Constant Matrix: (Units=GPa)
#
#
# Indices 1 2 3 4 5 6 
#
# 1 47.0621 25.2740 31.8282 0.0000 -2.1227 0.0000
# 2 25.2740 88.7406 43.2869 0.0000 -14.7862 0.0000
# 3 31.8282 43.2869 112.4500 0.0000 1.5409 0.0000
# 4 0.0000 0.0000 0.0000 36.5575 0.0000 -1.0021
# 5 -2.1227 -14.7862 1.5409 0.0000 24.8419 0.0000
# 6 0.0000 0.0000 0.0000 -1.0021 0.0000 20.5488
#
#
#
# Elastic Compliance Matrix: (Units=1/GPa)
#
#
# Indices 1 2 3 4 5 6 
#
# 1 0.028012 -0.005122 -0.005953 0.000000 -0.000286 0.000000
# 2 -0.005122 0.016924 -0.005202 0.000000 0.009958 0.000000
# 3 -0.005953 -0.005202 0.012640 0.000000 -0.004389 0.000000
# 4 0.000000 0.000000 0.000000 0.027391 0.000000 0.001336
# 5 -0.000286 0.009958 -0.004389 0.000000 0.046430 0.000000
# 6 0.000000 0.000000 0.000000 0.001336 0.000000 0.048730
#
#
# Mechanical properties :
#
#
# Convention : Reuss Voigt Hill
#
# Bulk Modulus (GPa) = 39.96229 49.89234 44.92732
# Shear Modulus (GPa) = 22.62224 26.24722 24.43473
#
# Velocity S-wave (km/s) = 3.47064 3.73838 3.60700
# Velocity P-wave (km/s) = 6.11054 6.72306 6.42410
#
# Compressibility (1/GPa) = 0.02502359
#
# Stress axis : x y z
#
# Youngs Moduli (GPa) = 35.69851 59.08723 79.11189
#
# Poissons Ratio (x) = 0.30263 0.47097
# Poissons Ratio (y) = 0.18284 0.41151
# Poissons Ratio (z) = 0.21252 0.30735
#
# Static dielectric constant tensor:
#      x y z
#    x 1.673070 0.000000 0.001180 
#    y 0.000000 1.744850 0.000000 
#    z 0.001180 0.000000 1.685850 
# 
# From -- ./inp_files/293937.got.cif
#   From: 2010.05.17/outbox.cif.g08.bks.cpg/sg12_147_cif.got.tgz:293937.got - 2010.06.03 13:09:07.
