data_PCOD9183633
_publ_section_title
;
Structure prediction by ZEFSAII (Michael W. Deem and Ramdas Pophale) SiO2 
 PCOD9183633
Probable space group: C 2/M
;
_chemical_formula_sum "Si O2"
_cell_formula_units_Z 56
_cell_length_a 23.395674
_cell_length_b 14.950360
_cell_length_c 9.485397
_cell_angle_alpha 90.000000
_cell_angle_beta 61.021857
_cell_angle_gamma 90.000000
_cell_volume 2902.376679
_symmetry_space_group_name_H-M "C 2/M"
_symmetry_group_IT_number 12
_symmetry_cell_setting 'monoclinic'
loop_
_space_group_symop_operation_xyz
x,y,z
-x,y,-z
-x,-y,-z
x,-y,z
1/2+x,1/2+y,z
1/2-x,1/2+y,-z
1/2-x,1/2-y,-z
1/2+x,1/2-y,z
loop_
_atom_site_type_symbol
_atom_site_label
_atom_site_fract_x
_atom_site_fract_y
_atom_site_fract_z
Si Si1 0.694100 0.212609 0.870566
Si Si2 0.142689 0.399075 0.501926
Si Si3 0.236969 0.899487 0.439488
Si Si4 0.874559 0.771890 0.318998
Si Si5 0.990362 0.097669 0.177692
Si Si6 0.338107 0.775989 0.775526
Si Si7 0.928643 0.896754 0.660032
O O1 0.718871 0.127589 0.748297
O O2 0.648746 0.266289 0.814916
O O3 0.761950 0.261699 0.827588
O O4 0.659047 0.199680 0.062288
O O5 0.118114 0.500000 0.536771
O O6 0.216326 0.399814 0.478545
O O7 0.110670 0.326994 0.643508
O O8 0.138573 0.355641 0.353134
O O9 0.184489 0.821492 0.528430
O O10 0.210173 0.000000 0.455757
O O11 0.937674 0.829016 0.273508
O O12 0.054903 0.108234 0.192869
O O13 0.963335 0.000000 0.249253
O O14 0.000000 0.099307 0.000000
O O15 0.378195 0.684063 0.694329
O O16 0.000000 0.884255 0.500000
O O17 0.907313 0.000000 0.654876
#
# Coordination Sequence:
#
# PCOD9183633 Si02
#       7
#     8   8   8   8   8   8   8
#     4  10  21  33  54  83 115 150 189 230 284 355
#     4  10  20  35  55  79 108 141 187 234 278 331
#     4  10  19  33  55  83 111 146 185 227 280 345
#     4  11  18  37  58  82 114 150 191 237 285 340
#     4  10  21  36  57  87 117 149 189 231 283 347
#     4  11  20  37  55  78 119 152 185 235 291 335
#     4  10  22  38  57  85 117 154 194 230 279 349
#
# _framework density 19.294532
#
# number of rings (size 3 to 8) (size 9 to 14) (size 15 to 20)
#    0.000    1.714    2.857    3.000    0.000    1.143 
#    0.000    2.857    0.000    4.286    0.000    0.000 
#    0.000    0.000    0.000    0.000    0.000    0.000 
#
# Total GULP energy -156078.582129 kJ/mol
# GULP energy per Si atom -5574.235076 kJ/mol
# Density = 1.925062 g / cm^3
# Si number density = 19.294532 Si / 1000 Ang^3
#
#
#
# Elastic Constant Matrix: (Units=GPa)
#
#
# Indices 1 2 3 4 5 6 
#
# 1 46.5822 36.5883 19.7838 0.0000 15.8769 0.0000
# 2 36.5883 148.1353 32.0747 0.0000 4.2008 0.0000
# 3 19.7838 32.0747 98.8545 0.0000 31.1735 0.0000
# 4 0.0000 0.0000 0.0000 13.6359 0.0000 12.0241
# 5 15.8769 4.2008 31.1735 0.0000 29.3487 0.0000
# 6 0.0000 0.0000 0.0000 12.0241 0.0000 17.9253
#
#
#
# Elastic Compliance Matrix: (Units=1/GPa)
#
#
# Indices 1 2 3 4 5 6 
#
# 1 0.033547 -0.008166 0.001940 0.000000 -0.019040 0.000000
# 2 -0.008166 0.009344 -0.003562 0.000000 0.006864 0.000000
# 3 0.001940 -0.003562 0.016621 0.000000 -0.018194 0.000000
# 4 0.000000 0.000000 0.000000 0.179524 0.000000 -0.120423
# 5 -0.019040 0.006864 -0.018194 0.000000 0.062716 0.000000
# 6 0.000000 0.000000 0.000000 -0.120423 0.000000 0.136565
#
#
# Mechanical properties :
#
#
# Convention : Reuss Voigt Hill
#
# Bulk Modulus (GPa) = 25.04012 52.27394 38.65703
# Shear Modulus (GPa) = 10.61110 25.85698 18.23404
#
# Velocity S-wave (km/s) = 2.34765 3.66474 3.07748
# Velocity P-wave (km/s) = 4.51161 6.71256 5.71897
#
# Compressibility (1/GPa) = 0.03993590
#
# Stress axis : x y z
#
# Youngs Moduli (GPa) = 29.80889 107.01889 60.16572
#
# Poissons Ratio (x) = 0.87392 -0.11672
# Poissons Ratio (y) = 0.24342 0.21431
# Poissons Ratio (z) = -0.05783 0.38120
#
# Static dielectric constant tensor:
#      x y z
#    x 1.685190 0.000000 0.027740 
#    y 0.000000 1.674070 0.000000 
#    z 0.027740 0.000000 1.734040 
# 
# From -- ./inp_files/96279.got.cif
#   From: 2010.05.17/outbox.cif.g08.bks.cpg/sg12_49_cif.got.tgz:96279.got - 2010.06.03 13:09:07.
