data_PCOD9183491
_publ_section_title
;
Structure prediction by ZEFSAII (Michael W. Deem and Ramdas Pophale) SiO2 
 PCOD9183491
Probable space group: C 2/M
;
_chemical_formula_sum "Si O2"
_cell_formula_units_Z 64
_cell_length_a 23.773545
_cell_length_b 12.655124
_cell_length_c 10.553203
_cell_angle_alpha 90.000000
_cell_angle_beta 83.791441
_cell_angle_gamma 90.000000
_cell_volume 3156.384696
_symmetry_space_group_name_H-M "C 2/M"
_symmetry_group_IT_number 12
_symmetry_cell_setting 'monoclinic'
loop_
_space_group_symop_operation_xyz
x,y,z
-x,y,-z
-x,-y,-z
x,-y,z
1/2+x,1/2+y,z
1/2-x,1/2+y,-z
1/2-x,1/2-y,-z
1/2+x,1/2-y,z
loop_
_atom_site_type_symbol
_atom_site_label
_atom_site_fract_x
_atom_site_fract_y
_atom_site_fract_z
Si Si1 0.448815 0.830482 0.679603
Si Si2 0.938544 0.624702 0.974575
Si Si3 0.888413 0.877693 0.670039
Si Si4 0.315517 0.871736 0.068012
Si Si5 0.292706 0.734863 0.824432
Si Si6 0.227881 0.621108 0.396463
Si Si7 0.921918 0.383086 0.403059
Si Si8 0.663801 0.718041 0.572647
O O1 0.428782 0.861062 0.825466
O O2 0.439961 0.704426 0.671096
O O3 0.419197 0.875209 0.558566
O O4 0.513002 0.869138 0.650968
O O5 0.942010 0.500000 0.997470
O O6 0.881925 0.657871 0.063902
O O7 0.000000 0.670591 0.000000
O O8 0.843084 0.848754 0.791135
O O9 0.858121 0.846596 0.544604
O O10 0.903550 0.000000 0.668539
O O11 0.267342 0.826074 0.173222
O O12 0.311153 0.000000 0.059914
O O13 0.297740 0.808008 0.945929
O O14 0.300553 0.819094 0.711628
O O15 0.214162 0.500000 0.406882
O O16 0.295024 0.639682 0.364441
O O17 0.204326 0.683616 0.522840
O O18 0.902352 0.500000 0.367958
O O19 0.888397 0.282406 0.358363
#
# Coordination Sequence:
#
# PCOD9183491 Si02
#       8
#     8   8   8   8   8   8   8   8
#     4  10  19  34  52  79 105 136 178 225 265 331
#     4  10  20  34  54  79 108 141 171 215 277 331
#     4  10  19  34  54  76 105 144 177 220 270 314
#     4  10  20  35  54  80 108 135 176 228 274 321
#     4  10  20  34  54  80 105 138 184 224 267 325
#     4  10  19  34  53  76 110 147 178 217 267 321
#     4  10  19  33  55  80 107 137 176 227 277 317
#     4   9  20  33  50  80 110 140 179 218 263 328
#
# _framework density 20.276363
#
# number of rings (size 3 to 8) (size 9 to 14) (size 15 to 20)
#    0.000    2.125    1.250    3.000    0.000    1.000 
#    0.000    8.750    0.000    0.375    0.000    0.000 
#    0.000    0.000    0.000    0.000    0.000    0.000 
#
# Total GULP energy -178301.946167 kJ/mol
# GULP energy per Si atom -5571.935818 kJ/mol
# Density = 2.023021 g / cm^3
# Si number density = 20.276363 Si / 1000 Ang^3
#
#
#
# Elastic Constant Matrix: (Units=GPa)
#
#
# Indices 1 2 3 4 5 6 
#
# 1 69.9871 23.5474 1.7014 0.0000 -13.6764 0.0000
# 2 23.5474 113.0985 3.0235 0.0000 -16.0547 0.0000
# 3 1.7014 3.0235 47.1420 0.0000 -9.4570 0.0000
# 4 0.0000 0.0000 0.0000 16.6756 0.0000 -4.0116
# 5 -13.6764 -16.0547 -9.4570 0.0000 19.2867 0.0000
# 6 0.0000 0.0000 0.0000 -4.0116 0.0000 26.7992
#
#
#
# Elastic Compliance Matrix: (Units=1/GPa)
#
#
# Indices 1 2 3 4 5 6 
#
# 1 0.017139 -0.002003 0.001790 0.000000 0.011364 0.000000
# 2 -0.002003 0.010317 0.000941 0.000000 0.007629 0.000000
# 3 0.001790 0.000941 0.023845 0.000000 0.013744 0.000000
# 4 0.000000 0.000000 0.000000 0.062208 0.000000 0.009312
# 5 0.011364 0.007629 0.013744 0.000000 0.072997 0.000000
# 6 0.000000 0.000000 0.000000 0.009312 0.000000 0.038708
#
#
# Mechanical properties :
#
#
# Convention : Reuss Voigt Hill
#
# Bulk Modulus (GPa) = 18.95532 31.86358 25.40945
# Shear Modulus (GPa) = 20.71721 26.01597 23.36659
#
# Velocity S-wave (km/s) = 3.19994 3.58588 3.39839
# Velocity P-wave (km/s) = 4.79808 5.73528 5.28749
#
# Compressibility (1/GPa) = 0.05275563
#
# Stress axis : x y z
#
# Youngs Moduli (GPa) = 58.34484 96.93017 41.93795
#
# Poissons Ratio (x) = 0.19417 -0.07505
# Poissons Ratio (y) = 0.11688 -0.03946
# Poissons Ratio (z) = -0.10441 -0.09121
#
# Static dielectric constant tensor:
#      x y z
#    x 1.869400 0.000000 -0.024230 
#    y 0.000000 1.686370 0.000000 
#    z -0.024230 0.000000 1.786880 
# 
# From -- ./inp_files/174591.got.cif
#   From: 2010.05.17/outbox.cif.g08.bks.cpg/sg12_88_cif.got.tgz:174591.got - 2010.06.03 13:09:07.
