data_PCOD9183845
_publ_section_title
;
Structure prediction by ZEFSAII (Michael W. Deem and Ramdas Pophale) SiO2 
 PCOD9183845
Probable space group: C 2/M
;
_chemical_formula_sum "Si O2"
_cell_formula_units_Z 64
_cell_length_a 19.534607
_cell_length_b 7.765163
_cell_length_c 23.264292
_cell_angle_alpha 90.000000
_cell_angle_beta 58.469016
_cell_angle_gamma 90.000000
_cell_volume 3007.924114
_symmetry_space_group_name_H-M "C 2/M"
_symmetry_group_IT_number 12
_symmetry_cell_setting 'monoclinic'
loop_
_space_group_symop_operation_xyz
x,y,z
-x,y,-z
-x,-y,-z
x,-y,z
1/2+x,1/2+y,z
1/2-x,1/2+y,-z
1/2-x,1/2-y,-z
1/2+x,1/2-y,z
loop_
_atom_site_type_symbol
_atom_site_label
_atom_site_fract_x
_atom_site_fract_y
_atom_site_fract_z
Si Si1 0.830434 0.796724 0.709764
Si Si2 0.140448 0.303037 0.077686
Si Si3 0.502646 0.289956 0.652498
Si Si4 0.318766 0.798261 0.294777
Si Si5 0.995696 0.800931 0.214774
Si Si6 0.678726 0.294188 0.574148
Si Si7 0.089272 0.707575 0.977105
Si Si8 0.744116 0.206108 0.136915
O O1 0.758672 0.723135 0.703104
O O2 0.804492 0.777480 0.787506
O O3 0.920059 0.725860 0.661236
O O4 0.834424 0.000000 0.694524
O O5 0.166275 0.500000 0.055913
O O6 0.204772 0.226889 0.094377
O O7 0.056139 0.301515 0.148512
O O8 0.120872 0.221875 0.024644
O O9 0.500958 0.500000 0.651365
O O10 0.499541 0.241415 0.721218
O O11 0.590109 0.235661 0.591873
O O12 0.402449 0.713479 0.239724
O O13 0.308726 0.779688 0.367661
O O14 0.326358 0.000000 0.277210
O O15 0.020800 0.000000 0.201424
O O16 0.675171 0.500000 0.582292
O O17 0.750000 0.250000 0.500000
O O18 0.083152 0.500000 0.984531
O O19 0.161788 0.748586 0.901919
O O20 0.000000 0.770529 0.000000
O O21 0.734999 0.000000 0.141678
#
# Coordination Sequence:
#
# PCOD9183845 Si02
#       8
#     8   8   8   8   8   8   8   8
#     4  10  20  37  59  82 112 150 189 230 281 340
#     4  10  21  37  56  80 109 143 188 234 284 341
#     4   8  16  33  56  82 108 142 189 226 260 321
#     4  10  21  35  56  84 116 149 185 231 280 329
#     4  10  19  33  56  82 110 146 185 229 278 334
#     4  10  20  37  61  87 117 152 193 232 274 330
#     4  10  23  41  58  76 105 147 193 236 284 350
#     4  11  23  37  56  83 112 143 184 239 292 337
#
# _framework density 21.277131000000001
#
# number of rings (size 3 to 8) (size 9 to 14) (size 15 to 20)
#    0.000    2.125    1.250    2.625    1.750    2.250 
#    0.000    1.250    0.000    3.750    0.000    0.000 
#    0.000    0.000    0.000    0.000    0.000    0.000 
#
# Total GULP energy -178642.980964 kJ/mol
# GULP energy per Si atom -5582.593155 kJ/mol
# Density = 2.122870 g / cm^3
# Si number density = 21.277131 Si / 1000 Ang^3
#
#
#
# Elastic Constant Matrix: (Units=GPa)
#
#
# Indices 1 2 3 4 5 6 
#
# 1 157.9225 -4.4475 34.4345 0.0002 -34.8337 0.0009
# 2 -4.4475 36.1054 -14.5993 0.0005 1.7259 0.0014
# 3 34.4345 -14.5993 72.0443 0.0000 -34.2173 -0.0002
# 4 0.0002 0.0005 0.0000 21.5717 -0.0001 -0.5394
# 5 -34.8337 1.7259 -34.2173 -0.0001 33.5865 0.0000
# 6 0.0009 0.0014 -0.0002 -0.5394 0.0000 9.8552
#
#
#
# Elastic Compliance Matrix: (Units=1/GPa)
#
#
# Indices 1 2 3 4 5 6 
#
# 1 0.008232 0.000788 0.000505 0.000000 0.009012 -0.000001
# 2 0.000788 0.031739 0.010983 -0.000001 0.010375 -0.000004
# 3 0.000505 0.010983 0.030700 0.000000 0.031236 -0.000001
# 4 0.000000 -0.000001 0.000000 0.046421 0.000000 0.002541
# 5 0.009012 0.010375 0.031236 0.000000 0.070410 -0.000001
# 6 -0.000001 -0.000004 -0.000001 0.002541 -0.000001 0.101608
#
#
# Mechanical properties :
#
#
# Convention : Reuss Voigt Hill
#
# Bulk Modulus (GPa) = 10.50183 32.98307 21.74245
# Shear Modulus (GPa) = 16.87485 29.71499 23.29492
#
# Velocity S-wave (km/s) = 2.81925 3.74112 3.31242
# Velocity P-wave (km/s) = 3.94259 5.84779 4.98702
#
# Compressibility (1/GPa) = 0.09522153
#
# Stress axis : x y z
#
# Youngs Moduli (GPa) = 121.47655 31.50733 32.57322
#
# Poissons Ratio (x) = -0.02481 -0.01645
# Poissons Ratio (y) = -0.09566 -0.35774
# Poissons Ratio (z) = -0.06136 -0.34604
#
# Static dielectric constant tensor:
#      x y z
#    x 1.852160 0.000000 -0.077400 
#    y 0.000000 1.792270 0.000000 
#    z -0.077400 0.000000 1.852820 
# 
# From -- ./inp_files/346065.got.cif
#   From: 2010.05.17/outbox.cif.g08.bks.cpg/sg12_174_cif.got.tgz:346065.got - 2010.06.03 13:09:07.
