data_PCOD9183653
_publ_section_title
;
Structure prediction by ZEFSAII (Michael W. Deem and Ramdas Pophale) SiO2 
 PCOD9183653
Probable space group: C 2/M
;
_chemical_formula_sum "Si O2"
_cell_formula_units_Z 56
_cell_length_a 20.414048
_cell_length_b 8.693509
_cell_length_c 31.364203
_cell_angle_alpha 90.000000
_cell_angle_beta 32.843091
_cell_angle_gamma 90.000000
_cell_volume 3018.772026
_symmetry_space_group_name_H-M "C 2/M"
_symmetry_group_IT_number 12
_symmetry_cell_setting 'monoclinic'
loop_
_space_group_symop_operation_xyz
x,y,z
-x,y,-z
-x,-y,-z
x,-y,z
1/2+x,1/2+y,z
1/2-x,1/2+y,-z
1/2-x,1/2-y,-z
1/2+x,1/2-y,z
loop_
_atom_site_type_symbol
_atom_site_label
_atom_site_fract_x
_atom_site_fract_y
_atom_site_fract_z
Si Si1 0.450285 0.818300 0.333315
Si Si2 0.466265 0.317989 0.417433
Si Si3 0.620615 0.685017 0.840889
Si Si4 0.096908 0.822238 0.985985
Si Si5 0.728088 0.317180 0.314700
Si Si6 0.711067 0.681624 0.175974
Si Si7 0.279734 0.182331 0.586714
O O1 0.438467 0.772942 0.389459
O O2 0.583780 0.767691 0.245989
O O3 0.349486 0.727877 0.362104
O O4 0.433275 0.000000 0.337228
O O5 0.450160 0.500000 0.418491
O O6 0.604283 0.291396 0.356165
O O7 0.379733 0.263910 0.502665
O O8 0.630280 0.500000 0.838685
O O9 0.483985 0.726746 0.929502
O O10 0.663863 0.743324 0.771569
O O11 0.710700 0.759021 0.826496
O O12 0.135181 0.000000 0.969977
O O13 0.208759 0.721504 0.909366
O O14 0.000000 0.819087 0.000000
O O15 0.745506 0.500000 0.309332
O O16 0.714062 0.242634 0.368529
O O17 0.691875 0.500000 0.190641
O O18 0.297768 0.000000 0.575542
#
# Coordination Sequence:
#
# PCOD9183653 Si02
#       7
#     8   8   8   8   8   8   8
#     4  12  24  40  62  85 116 154 196 241 291 346
#     4  11  23  41  63  88 117 149 193 243 291 342
#     4  10  19  33  55  83 116 152 193 236 284 338
#     4   8  16  30  49  78 114 150 187 233 283 335
#     4  11  23  39  61  87 119 154 194 241 288 342
#     4  11  20  32  53  84 117 150 190 237 288 341
#     4  12  26  42  60  84 117 154 196 240 291 349
#
# _framework density 18.55059
#
# number of rings (size 3 to 8) (size 9 to 14) (size 15 to 20)
#    0.000    1.286    1.429    6.857    0.000    6.571 
#    0.000    0.000    0.000    0.857    0.000    0.000 
#    0.000    0.000    0.000    0.000    0.000    0.000 
#
# Total GULP energy -156507.821066 kJ/mol
# GULP energy per Si atom -5589.565038 kJ/mol
# Density = 1.850837 g / cm^3
# Si number density = 18.550590 Si / 1000 Ang^3
#
#
#
# Elastic Constant Matrix: (Units=GPa)
#
#
# Indices 1 2 3 4 5 6 
#
# 1 -10.9620 -6.5999 -61.8374 -0.0006 -36.4505 0.0029
# 2 -6.5999 38.4749 -16.7961 -0.0027 -12.2101 -0.0003
# 3 -61.8374 -16.7961 -4.9720 0.0028 -73.0624 0.0064
# 4 -0.0006 -0.0027 0.0028 33.0521 0.0019 0.5942
# 5 -36.4505 -12.2101 -73.0624 0.0019 -53.4778 0.0043
# 6 0.0029 -0.0003 0.0064 0.5942 0.0043 25.2133
#
#
#
# Elastic Compliance Matrix: (Units=1/GPa)
#
#
# Indices 1 2 3 4 5 6 
#
# 1 0.081406 -0.003370 0.010328 0.000004 -0.068828 0.000000
# 2 -0.003370 0.024374 -0.000398 0.000002 -0.002724 0.000001
# 3 0.010328 -0.000398 0.011854 0.000001 -0.023143 0.000000
# 4 0.000004 0.000002 0.000001 0.030268 -0.000003 -0.000713
# 5 -0.068828 -0.002724 -0.023143 -0.000003 0.060454 0.000003
# 6 0.000000 0.000001 0.000000 -0.000713 0.000003 0.039678
#
#
# Mechanical properties :
#
#
# Convention : Reuss Voigt Hill
#
# Bulk Modulus (GPa) = 7.64793 -16.43621 -4.39414
# Shear Modulus (GPa) = 17.95332 8.14247 13.04789
#
# Velocity S-wave (km/s) = 3.11433 2.09735 2.65499
# Velocity P-wave (km/s) = 4.13083 1.73617 2.65042
#
# Compressibility (1/GPa) = 0.13075437
#
# Stress axis : x y z
#
# Youngs Moduli (GPa) = 12.28406 41.02649 84.36244
#
# Poissons Ratio (x) = 0.13825 -0.87130
# Poissons Ratio (y) = 0.04139 0.03360
# Poissons Ratio (z) = -0.12687 0.01634
#
# Static dielectric constant tensor:
#      x y z
#    x 1.611650 0.000000 0.005720 
#    y 0.000000 1.615920 0.000000 
#    z 0.005720 0.000000 1.659550 
# 
# From -- ./inp_files/363004.got.cif
#   From: 2010.05.17/outbox.cif.g08.bks.cpg/sg12_182_cif.got.tgz:363004.got - 2010.06.03 13:09:07.
