data_PCOD9183490
_publ_section_title
;
Structure prediction by ZEFSAII (Michael W. Deem and Ramdas Pophale) SiO2 
 PCOD9183490
Probable space group: C 2/M
;
_chemical_formula_sum "Si O2"
_cell_formula_units_Z 56
_cell_length_a 13.451782
_cell_length_b 13.399535
_cell_length_c 17.567931
_cell_angle_alpha 90.000000
_cell_angle_beta 76.942988
_cell_angle_gamma 90.000000
_cell_volume 3084.708308
_symmetry_space_group_name_H-M "C 2/M"
_symmetry_group_IT_number 12
_symmetry_cell_setting 'monoclinic'
loop_
_space_group_symop_operation_xyz
x,y,z
-x,y,-z
-x,-y,-z
x,-y,z
1/2+x,1/2+y,z
1/2-x,1/2+y,-z
1/2-x,1/2-y,-z
1/2+x,1/2-y,z
loop_
_atom_site_type_symbol
_atom_site_label
_atom_site_fract_x
_atom_site_fract_y
_atom_site_fract_z
Si Si1 0.432317 0.119092 0.621160
Si Si2 0.101133 0.620686 0.790670
Si Si3 0.130778 0.380119 0.206054
Si Si4 0.216561 0.883944 0.950762
Si Si5 0.615571 0.818382 0.959372
Si Si6 0.243570 0.384144 0.461810
Si Si7 0.347466 0.201990 0.378595
O O1 0.363408 0.146525 0.706374
O O2 0.366483 0.137900 0.557987
O O3 0.538895 0.173361 0.613946
O O4 0.454057 0.000000 0.620578
O O5 0.107761 0.500000 0.783147
O O6 0.134702 0.655577 0.867960
O O7 0.157502 0.669774 0.708517
O O8 0.981307 0.650640 0.803393
O O9 0.130967 0.500000 0.202089
O O10 0.221452 0.349911 0.135509
O O11 0.130769 0.799585 0.974408
O O12 0.184439 0.000000 0.950531
O O13 0.300152 0.873134 0.003368
O O14 0.500000 0.849340 0.000000
O O15 0.264586 0.500000 0.448263
O O16 0.323289 0.315889 0.403270
O O17 0.231217 0.356449 0.552449
#
# Coordination Sequence:
#
# PCOD9183490 Si02
#       7
#     8   8   8   8   8   8   8
#     4   9  17  31  54  79 103 133 173 219 262 305
#     4  10  19  33  55  80 107 137 172 221 269 310
#     4   8  15  29  51  77  99 128 171 218 258 299
#     4  10  21  36  54  77 107 138 175 220 264 315
#     4  11  22  35  55  81 105 139 179 216 264 318
#     4  10  20  34  55  80 108 140 179 219 260 311
#     4  10  20  33  53  82 109 138 176 220 265 312
#
# _framework density 18.154067000000001
#
# number of rings (size 3 to 8) (size 9 to 14) (size 15 to 20)
#    0.000    2.286    1.429    3.000    2.000    2.000 
#    0.000    0.000    0.000    8.571    0.000    0.000 
#    0.000    0.000    0.000    0.000    0.000    0.000 
#
# Total GULP energy -156072.016097 kJ/mol
# GULP energy per Si atom -5574.000575 kJ/mol
# Density = 1.811275 g / cm^3
# Si number density = 18.154067 Si / 1000 Ang^3
#
#
#
# Elastic Constant Matrix: (Units=GPa)
#
#
# Indices 1 2 3 4 5 6 
#
# 1 29.0361 13.5077 14.8551 0.0000 -2.0884 0.0000
# 2 13.5077 74.3442 21.6602 0.0000 -1.1018 0.0000
# 3 14.8551 21.6602 112.2583 0.0000 11.6315 0.0000
# 4 0.0000 0.0000 0.0000 2.4974 0.0000 0.5912
# 5 -2.0884 -1.1018 11.6315 0.0000 14.6282 0.0000
# 6 0.0000 0.0000 0.0000 0.5912 0.0000 14.7659
#
#
#
# Elastic Compliance Matrix: (Units=1/GPa)
#
#
# Indices 1 2 3 4 5 6 
#
# 1 0.040449 -0.005681 -0.005242 0.000000 0.009515 0.000000
# 2 -0.005681 0.015221 -0.002419 0.000000 0.002259 0.000000
# 3 -0.005242 -0.002419 0.011078 0.000000 -0.009739 0.000000
# 4 0.000000 0.000000 0.000000 0.404248 0.000000 -0.016187
# 5 0.009515 0.002259 -0.009739 0.000000 0.077634 0.000000
# 6 0.000000 0.000000 0.000000 -0.016187 0.000000 0.068372
#
#
# Mechanical properties :
#
#
# Convention : Reuss Voigt Hill
#
# Bulk Modulus (GPa) = 24.96064 35.07604 30.01834
# Shear Modulus (GPa) = 7.60988 17.41935 12.51462
#
# Velocity S-wave (km/s) = 2.04962 3.10099 2.62841
# Velocity P-wave (km/s) = 4.40232 5.67316 5.07766
#
# Compressibility (1/GPa) = 0.04006308
#
# Stress axis : x y z
#
# Youngs Moduli (GPa) = 24.72245 65.69674 90.27195
#
# Poissons Ratio (x) = 0.37321 0.47324
# Poissons Ratio (y) = 0.14044 0.21840
# Poissons Ratio (z) = 0.12960 0.15894
#
# Static dielectric constant tensor:
#      x y z
#    x 1.613050 0.000000 0.001390 
#    y 0.000000 1.619700 0.000000 
#    z 0.001390 0.000000 1.673330 
# 
# From -- ./inp_files/269575.got.cif
#   From: 2010.05.17/outbox.cif.g08.bks.cpg/sg12_135_cif.got.tgz:269575.got - 2010.06.03 13:09:07.
