data_PCOD9183847
_publ_section_title
;
Structure prediction by ZEFSAII (Michael W. Deem and Ramdas Pophale) SiO2 
 PCOD9183847
Probable space group: C 2/M
;
_chemical_formula_sum "Si O2"
_cell_formula_units_Z 52
_cell_length_a 19.178352
_cell_length_b 13.747415
_cell_length_c 12.601440
_cell_angle_alpha 90.000000
_cell_angle_beta 57.604494
_cell_angle_gamma 90.000000
_cell_volume 2805.338511
_symmetry_space_group_name_H-M "C 2/M"
_symmetry_group_IT_number 12
_symmetry_cell_setting 'monoclinic'
loop_
_space_group_symop_operation_xyz
x,y,z
-x,y,-z
-x,-y,-z
x,-y,z
1/2+x,1/2+y,z
1/2-x,1/2+y,-z
1/2-x,1/2-y,-z
1/2+x,1/2-y,z
loop_
_atom_site_type_symbol
_atom_site_label
_atom_site_fract_x
_atom_site_fract_y
_atom_site_fract_z
Si Si1 0.000000 0.264018 0.000000
Si Si2 0.877537 0.109131 0.153587
Si Si3 0.356441 0.215442 0.796486
Si Si4 0.676128 0.114694 0.622962
Si Si5 0.218987 0.712924 0.370402
Si Si6 0.483360 0.887034 0.825629
Si Si7 0.304149 0.389673 0.979395
O O1 0.054880 0.191561 0.885138
O O2 0.952012 0.333214 0.957625
O O3 0.794870 0.140934 0.280391
O O4 0.903518 0.000000 0.160860
O O5 0.857405 0.112056 0.044307
O O6 0.337761 0.217694 0.687210
O O7 0.442427 0.167639 0.760116
O O8 0.344381 0.320613 0.859256
O O9 0.284907 0.151114 0.911960
O O10 0.739766 0.182259 0.637025
O O11 0.675883 0.166135 0.507787
O O12 0.582867 0.118765 0.743782
O O13 0.699091 0.000000 0.598620
O O14 0.460199 0.000000 0.843971
O O15 0.296649 0.500000 0.948774
#
# Coordination Sequence:
#
# PCOD9183847 Si02
#       7
#     4   8   8   8   8   8   8
#     4  12  20  36  52  86 118 150 186 228 288 342
#     4  10  19  33  56  82 110 146 187 232 279 334
#     4  10  20  35  54  83 118 151 188 238 286 340
#     4  10  22  40  61  84 110 151 198 240 289 341
#     4  10  21  39  60  83 112 147 196 245 283 335
#     4  11  23  37  57  85 119 153 188 235 291 345
#     4   9  18  32  52  80 113 149 188 228 279 340
#
# _framework density 18.536087999999999
#
# number of rings (size 3 to 8) (size 9 to 14) (size 15 to 20)
#    0.000    1.846    3.077    1.385    0.000    3.077 
#    0.000    1.538    0.000    0.000    0.000    3.231 
#    0.000    0.000    0.000    0.000    0.000    0.000 
#
# Total GULP energy -145057.364963 kJ/mol
# GULP energy per Si atom -5579.129422 kJ/mol
# Density = 1.849390 g / cm^3
# Si number density = 18.536088 Si / 1000 Ang^3
#
#
#
# Elastic Constant Matrix: (Units=GPa)
#
#
# Indices 1 2 3 4 5 6 
#
# 1 52.1553 34.9209 3.0907 0.0000 16.4264 0.0000
# 2 34.9209 165.7234 26.5376 0.0000 13.1327 0.0000
# 3 3.0907 26.5376 36.8554 0.0000 12.1863 0.0000
# 4 0.0000 0.0000 0.0000 21.9519 0.0000 -2.3845
# 5 16.4264 13.1327 12.1863 0.0000 22.7376 0.0000
# 6 0.0000 0.0000 0.0000 -2.3845 0.0000 24.3071
#
#
#
# Elastic Compliance Matrix: (Units=1/GPa)
#
#
# Indices 1 2 3 4 5 6 
#
# 1 0.029946 -0.005987 0.009491 0.000000 -0.023263 0.000000
# 2 -0.005987 0.008065 -0.006314 0.000000 0.003051 0.000000
# 3 0.009491 -0.006314 0.038825 0.000000 -0.024018 0.000000
# 4 0.000000 0.000000 0.000000 0.046045 0.000000 0.004517
# 5 -0.023263 0.003051 -0.024018 0.000000 0.071897 0.000000
# 6 0.000000 0.000000 0.000000 0.004517 0.000000 0.041583
#
#
# Mechanical properties :
#
#
# Convention : Reuss Voigt Hill
#
# Bulk Modulus (GPa) = 14.04135 42.64806 28.34471
# Shear Modulus (GPa) = 18.81690 26.47833 22.64761
#
# Velocity S-wave (km/s) = 3.18960 3.78362 3.49923
# Velocity P-wave (km/s) = 4.59960 6.49198 5.62592
#
# Compressibility (1/GPa) = 0.07121820
#
# Stress axis : x y z
#
# Youngs Moduli (GPa) = 33.39318 123.99380 25.75656
#
# Poissons Ratio (x) = 0.74230 -0.24447
# Poissons Ratio (y) = 0.19991 0.16262
# Poissons Ratio (z) = -0.31695 0.78287
#
# Static dielectric constant tensor:
#      x y z
#    x 1.653750 0.000000 -0.019120 
#    y 0.000000 1.640900 0.000000 
#    z -0.019120 0.000000 1.628400 
# 
# From -- ./inp_files/165545.got.cif
#   From: 2010.05.17/outbox.cif.g08.bks.cpg/sg12_83_cif.got.tgz:165545.got - 2010.06.03 13:09:07.
