data_PCOD9183099
_publ_section_title
;
Structure prediction by ZEFSAII (Michael W. Deem and Ramdas Pophale) SiO2 
 PCOD9183099
Probable space group: C 2/M
;
_chemical_formula_sum "Si O2"
_cell_formula_units_Z 58
_cell_length_a 21.555355
_cell_length_b 7.555315
_cell_length_c 18.312419
_cell_angle_alpha 90.000000
_cell_angle_beta 75.488746
_cell_angle_gamma 90.000000
_cell_volume 2887.174236
_symmetry_space_group_name_H-M "C 2/M"
_symmetry_group_IT_number 12
_symmetry_cell_setting 'monoclinic'
loop_
_space_group_symop_operation_xyz
x,y,z
-x,y,-z
-x,-y,-z
x,-y,z
1/2+x,1/2+y,z
1/2-x,1/2+y,-z
1/2-x,1/2-y,-z
1/2+x,1/2-y,z
loop_
_atom_site_type_symbol
_atom_site_label
_atom_site_fract_x
_atom_site_fract_y
_atom_site_fract_z
Si Si1 0.500000 0.500000 0.500000
Si Si2 0.168751 0.294373 0.645062
Si Si3 0.571260 0.709163 0.972514
Si Si4 0.315211 0.792715 0.627120
Si Si5 0.151031 0.285609 0.809843
Si Si6 0.795993 0.786685 0.796647
Si Si7 0.589868 0.784058 0.526945
Si Si8 0.178931 0.787236 0.051292
O O1 0.528538 0.659020 0.545448
O O2 0.151692 0.500000 0.652431
O O3 0.245891 0.283478 0.625546
O O4 0.143993 0.217486 0.729190
O O5 0.136640 0.232461 0.580162
O O6 0.566811 0.500000 0.989911
O O7 0.598592 0.729189 0.883175
O O8 0.500000 0.784739 0.000000
O O9 0.624341 0.782881 0.013029
O O10 0.325959 0.764297 0.710049
O O11 0.372284 0.730069 0.558528
O O12 0.309270 0.000000 0.614870
O O13 0.151941 0.500000 0.808223
O O14 0.221650 0.227768 0.815795
O O15 0.826065 0.722778 0.863575
O O16 0.795816 0.000000 0.798112
O O17 0.578651 0.000000 0.530136
O O18 0.173376 0.000000 0.054874
O O19 0.250000 0.750000 0.000000
#
# Coordination Sequence:
#
# PCOD9183099 Si02
#       8
#     2   8   8   8   8   8   8   8
#     4  12  26  40  68  82 116 176 212 238 290 362
#     4   9  19  36  60  87 123 151 183 245 305 356
#     4  10  21  35  51  75 111 148 184 235 293 343
#     4  10  20  33  58  91 123 147 186 249 305 351
#     4   9  17  32  54  81 109 145 183 228 291 347
#     4   9  18  32  52  80 113 146 185 233 293 357
#     4  10  23  42  61  90 122 159 208 250 288 354
#     4  10  19  33  54  77 105 145 191 238 286 348
#
# _framework density 20.088847000000001
#
# number of rings (size 3 to 8) (size 9 to 14) (size 15 to 20)
#    0.000    2.345    1.379    1.862    2.897    3.034 
#    0.000    1.379    3.034    1.655    0.000    0.000 
#    0.000    0.000    0.000    0.000    0.000    0.000 
#
# Total GULP energy -161448.505622 kJ/mol
# GULP energy per Si atom -5567.189849 kJ/mol
# Density = 2.004312 g / cm^3
# Si number density = 20.088847 Si / 1000 Ang^3
#
#
#
# Elastic Constant Matrix: (Units=GPa)
#
#
# Indices 1 2 3 4 5 6 
#
# 1 80.4080 14.2819 48.0074 0.0000 10.7641 0.0000
# 2 14.2819 60.1110 9.0789 0.0000 6.2010 0.0000
# 3 48.0074 9.0789 102.4222 0.0000 10.8515 0.0000
# 4 0.0000 0.0000 0.0000 23.3056 0.0000 -1.0925
# 5 10.7641 6.2010 10.8515 0.0000 21.7332 0.0000
# 6 0.0000 0.0000 0.0000 -1.0925 0.0000 20.2289
#
#
#
# Elastic Compliance Matrix: (Units=1/GPa)
#
#
# Indices 1 2 3 4 5 6 
#
# 1 0.018159 -0.002688 -0.007815 0.000000 -0.004325 0.000000
# 2 -0.002688 0.017647 0.000093 0.000000 -0.003750 0.000000
# 3 -0.007815 0.000093 0.013738 0.000000 -0.003015 0.000000
# 4 0.000000 0.000000 0.000000 0.043017 0.000000 0.002323
# 5 -0.004325 -0.003750 -0.003015 0.000000 0.050730 0.000000
# 6 0.000000 0.000000 0.000000 0.002323 0.000000 0.049560
#
#
# Mechanical properties :
#
#
# Convention : Reuss Voigt Hill
#
# Bulk Modulus (GPa) = 34.81400 42.85306 38.83353
# Shear Modulus (GPa) = 22.39689 24.49176 23.44432
#
# Velocity S-wave (km/s) = 3.34262 3.49545 3.41989
# Velocity P-wave (km/s) = 5.68024 6.13751 5.91330
#
# Compressibility (1/GPa) = 0.02872408
#
# Stress axis : x y z
#
# Youngs Moduli (GPa) = 55.06954 56.66573 72.79203
#
# Poissons Ratio (x) = 0.15231 0.56887
# Poissons Ratio (y) = 0.14802 -0.00677
# Poissons Ratio (z) = 0.43037 -0.00527
#
# Static dielectric constant tensor:
#      x y z
#    x 1.726600 0.000000 0.010070 
#    y 0.000000 1.754370 0.000000 
#    z 0.010070 0.000000 1.732720 
# 
# From -- ./inp_files/281124.got.cif
#   From: 2010.05.17/outbox.cif.g08.bks.cpg/sg12_141_cif.got.tgz:281124.got - 2010.06.03 13:09:07.
