data_PCOD9183214
_publ_section_title
;
Structure prediction by ZEFSAII (Michael W. Deem and Ramdas Pophale) SiO2 
 PCOD9183214
Probable space group: C 2/M
;
_chemical_formula_sum "Si O2"
_cell_formula_units_Z 56
_cell_length_a 14.825792
_cell_length_b 8.813231
_cell_length_c 23.759684
_cell_angle_alpha 90.000000
_cell_angle_beta 64.939287
_cell_angle_gamma 90.000000
_cell_volume 2812.253966
_symmetry_space_group_name_H-M "C 2/M"
_symmetry_group_IT_number 12
_symmetry_cell_setting 'monoclinic'
loop_
_space_group_symop_operation_xyz
x,y,z
-x,y,-z
-x,-y,-z
x,-y,z
1/2+x,1/2+y,z
1/2-x,1/2+y,-z
1/2-x,1/2-y,-z
1/2+x,1/2-y,z
loop_
_atom_site_type_symbol
_atom_site_label
_atom_site_fract_x
_atom_site_fract_y
_atom_site_fract_z
Si Si1 0.153281 0.316853 0.495425
Si Si2 0.086767 0.180386 0.274646
Si Si3 0.540691 0.684114 0.790568
Si Si4 0.717107 0.679973 0.819464
Si Si5 0.392871 0.677435 0.927281
Si Si6 0.435193 0.182504 0.598289
Si Si7 0.663150 0.174906 0.946050
O O1 0.160159 0.500000 0.494640
O O2 0.250000 0.250000 0.500000
O O3 0.135522 0.269514 0.434989
O O4 0.049391 0.274073 0.553483
O O5 0.182002 0.226542 0.212438
O O6 0.093255 0.254368 0.333773
O O7 0.992710 0.234689 0.262225
O O8 0.082427 0.000000 0.282093
O O9 0.533378 0.500000 0.792326
O O10 0.649717 0.721334 0.783550
O O11 0.463904 0.736903 0.859104
O O12 0.736740 0.500000 0.814211
O O13 0.657989 0.724359 0.891530
O O14 0.415782 0.500000 0.931400
O O15 0.279070 0.684915 0.935301
O O16 0.398721 0.766282 0.984289
O O17 0.431920 0.000000 0.600637
O O18 0.640643 0.000000 0.939314
#
# Coordination Sequence:
#
# PCOD9183214 Si02
#       7
#     8   8   8   8   8   8   8
#     4   9  19  37  62  89 123 155 190 232 273 321
#     4  11  22  40  60  82 114 150 189 237 278 323
#     4   9  20  38  57  77 106 146 188 228 279 341
#     4  11  22  37  58  81 107 146 190 230 283 346
#     4   9  17  34  56  75 102 142 184 227 281 346
#     4   9  20  39  59  85 119 158 190 225 277 332
#     4  10  19  33  54  80 109 138 179 235 287 338
#
# _framework density 19.912852000000001
#
# number of rings (size 3 to 8) (size 9 to 14) (size 15 to 20)
#    0.000    2.286    1.429    2.143    0.000    3.429 
#    0.000   12.857    0.000    0.000    0.000    0.000 
#    0.000    0.000    0.000    0.000    0.000    0.000 
#
# Total GULP energy -156303.065503 kJ/mol
# GULP energy per Si atom -5582.252339 kJ/mol
# Density = 1.986753 g / cm^3
# Si number density = 19.912852 Si / 1000 Ang^3
#
#
#
# Elastic Constant Matrix: (Units=GPa)
#
#
# Indices 1 2 3 4 5 6 
#
# 1 89.5545 15.9183 24.6581 0.0000 27.2798 0.0000
# 2 15.9183 23.2948 11.7520 0.0000 7.9530 0.0000
# 3 24.6581 11.7520 88.0523 0.0000 27.1713 0.0000
# 4 0.0000 0.0000 0.0000 30.4098 0.0000 0.6949
# 5 27.2798 7.9530 27.1713 0.0000 22.9300 0.0000
# 6 0.0000 0.0000 0.0000 0.6949 0.0000 23.6210
#
#
#
# Elastic Compliance Matrix: (Units=1/GPa)
#
#
# Indices 1 2 3 4 5 6 
#
# 1 0.018587 -0.006162 0.002808 0.000000 -0.023304 0.000000
# 2 -0.006162 0.050968 -0.002970 0.000000 -0.006827 0.000000
# 3 0.002808 -0.002970 0.018413 0.000000 -0.024129 0.000000
# 4 0.000000 0.000000 0.000000 0.032906 0.000000 -0.000968
# 5 -0.023304 -0.006827 -0.024129 0.000000 0.102296 0.000000
# 6 0.000000 0.000000 0.000000 -0.000968 0.000000 0.042364
#
#
# Mechanical properties :
#
#
# Convention : Reuss Voigt Hill
#
# Bulk Modulus (GPa) = 13.27668 33.95095 23.61381
# Shear Modulus (GPa) = 16.48594 25.29702 20.89148
#
# Velocity S-wave (km/s) = 2.88045 3.56811 3.24257
# Velocity P-wave (km/s) = 4.21243 5.83627 5.08953
#
# Compressibility (1/GPa) = 0.07532005
#
# Stress axis : x y z
#
# Youngs Moduli (GPa) = 53.80056 19.62008 54.31020
#
# Poissons Ratio (x) = 0.12090 -0.15253
# Poissons Ratio (y) = 0.33153 0.16131
# Poissons Ratio (z) = -0.15109 0.05828
#
# Static dielectric constant tensor:
#      x y z
#    x 1.738330 0.000000 0.004790 
#    y 0.000000 1.669010 0.000000 
#    z 0.004790 0.000000 1.700060 
# 
# From -- ./inp_files/337917.got.cif
#   From: 2010.05.17/outbox.cif.g08.bks.cpg/sg12_169_cif.got.tgz:337917.got - 2010.06.03 13:09:07.
