data_PCOD9183614
_publ_section_title
;
Structure prediction by ZEFSAII (Michael W. Deem and Ramdas Pophale) SiO2 
 PCOD9183614
Probable space group: C 2/M
;
_chemical_formula_sum "Si O2"
_cell_formula_units_Z 56
_cell_length_a 27.652704
_cell_length_b 8.065450
_cell_length_c 12.270249
_cell_angle_alpha 90.000000
_cell_angle_beta 102.973969
_cell_angle_gamma 90.000000
_cell_volume 2666.791257
_symmetry_space_group_name_H-M "C 2/M"
_symmetry_group_IT_number 12
_symmetry_cell_setting 'monoclinic'
loop_
_space_group_symop_operation_xyz
x,y,z
-x,y,-z
-x,-y,-z
x,-y,z
1/2+x,1/2+y,z
1/2-x,1/2+y,-z
1/2-x,1/2-y,-z
1/2+x,1/2-y,z
loop_
_atom_site_type_symbol
_atom_site_label
_atom_site_fract_x
_atom_site_fract_y
_atom_site_fract_z
Si Si1 0.807015 0.803632 0.022050
Si Si2 0.898063 0.200460 0.205739
Si Si3 0.493631 0.200149 0.120598
Si Si4 0.614241 0.299744 0.560787
Si Si5 0.320371 0.799375 0.787070
Si Si6 0.913500 0.300511 0.690207
Si Si7 0.227761 0.800083 0.604827
O O1 0.827933 0.756927 0.914034
O O2 0.806699 0.000000 0.033280
O O3 0.750000 0.750000 0.000000
O O4 0.844939 0.738508 0.132985
O O5 0.941475 0.252205 0.146735
O O6 0.907463 0.257065 0.334415
O O7 0.896454 0.000000 0.207073
O O8 0.538465 0.260536 0.220105
O O9 0.496299 0.000000 0.119015
O O10 0.500000 0.260472 0.000000
O O11 0.614682 0.500000 0.560839
O O12 0.587696 0.246018 0.436880
O O13 0.671516 0.240245 0.586325
O O14 0.363580 0.741804 0.726945
O O15 0.266758 0.742213 0.715767
O O16 0.320454 0.000000 0.786403
O O17 0.913059 0.500000 0.696250
O O18 0.250000 0.750000 0.500000
O O19 0.226260 0.000000 0.610483
#
# Coordination Sequence:
#
# PCOD9183614 Si02
#       7
#     8   8   8   8   8   8   8
#     4  11  23  39  60  86 117 152 194 240 289 348
#     4  10  23  42  61  84 117 156 194 237 290 345
#     4  10  22  41  64  88 114 148 192 241 293 348
#     4  10  21  37  57  83 118 155 193 238 289 346
#     4  10  20  36  58  84 118 155 193 242 293 342
#     4  10  21  37  59  87 116 149 192 241 290 342
#     4  10  19  33  55  82 116 156 193 235 283 338
#
# _framework density 20.999019000000001
#
# number of rings (size 3 to 8) (size 9 to 14) (size 15 to 20)
#    0.000    1.857    1.429    2.143    0.000    7.714 
#    0.000    4.286    0.000    0.000    0.000    0.000 
#    0.000    0.000    0.000    0.000    0.000    0.000 
#
# Total GULP energy -156448.320099 kJ/mol
# GULP energy per Si atom -5587.440004 kJ/mol
# Density = 2.095122 g / cm^3
# Si number density = 20.999019 Si / 1000 Ang^3
#
#
#
# Elastic Constant Matrix: (Units=GPa)
#
#
# Indices 1 2 3 4 5 6 
#
# 1 113.3566 8.4311 77.0067 0.0000 -0.5153 0.0000
# 2 8.4311 8.8056 13.6283 0.0000 4.4524 0.0000
# 3 77.0067 13.6283 189.1205 0.0000 0.3315 0.0000
# 4 0.0000 0.0000 0.0000 29.3309 0.0000 -3.9653
# 5 -0.5153 4.4524 0.3315 0.0000 42.1199 0.0000
# 6 0.0000 0.0000 0.0000 -3.9653 0.0000 23.3268
#
#
#
# Elastic Compliance Matrix: (Units=1/GPa)
#
#
# Indices 1 2 3 4 5 6 
#
# 1 0.012375 -0.004962 -0.004683 0.000000 0.000713 0.000000
# 2 -0.004962 0.137898 -0.007891 0.000000 -0.014575 0.000000
# 3 -0.004683 -0.007891 0.007762 0.000000 0.000716 0.000000
# 4 0.000000 0.000000 0.000000 0.034896 0.000000 0.005932
# 5 0.000713 -0.014575 0.000716 0.000000 0.025286 0.000000
# 6 0.000000 0.000000 0.000000 0.005932 0.000000 0.043878
#
#
# Mechanical properties :
#
#
# Convention : Reuss Voigt Hill
#
# Bulk Modulus (GPa) = 8.13248 56.60165 32.36707
# Shear Modulus (GPa) = 14.78619 33.10329 23.94474
#
# Velocity S-wave (km/s) = 2.65644 3.97472 3.38046
# Velocity P-wave (km/s) = 3.64556 6.93379 5.53930
#
# Compressibility (1/GPa) = 0.12296365
#
# Stress axis : x y z
#
# Youngs Moduli (GPa) = 80.80775 7.25171 128.83780
#
# Poissons Ratio (x) = 0.03598 0.60329
# Poissons Ratio (y) = 0.40097 1.01668
# Poissons Ratio (z) = 0.37839 0.05722
#
# Static dielectric constant tensor:
#      x y z
#    x 1.729160 0.000000 0.013650 
#    y 0.000000 1.752620 0.000000 
#    z 0.013650 0.000000 1.750090 
# 
# From -- ./inp_files/181002.got.cif
#   From: 2010.05.17/outbox.cif.g08.bks.cpg/sg12_91_cif.got.tgz:181002.got - 2010.06.03 13:09:07.
