data_PCOD9183090
_publ_section_title
;
Structure prediction by ZEFSAII (Michael W. Deem and Ramdas Pophale) SiO2 
 PCOD9183090
Probable space group: C 2/M
;
_chemical_formula_sum "Si O2"
_cell_formula_units_Z 40
_cell_length_a 18.744014
_cell_length_b 8.364210
_cell_length_c 26.991380
_cell_angle_alpha 90.000000
_cell_angle_beta 30.118299
_cell_angle_gamma 90.000000
_cell_volume 2123.401120
_symmetry_space_group_name_H-M "C 2/M"
_symmetry_group_IT_number 12
_symmetry_cell_setting 'monoclinic'
loop_
_space_group_symop_operation_xyz
x,y,z
-x,y,-z
-x,-y,-z
x,-y,z
1/2+x,1/2+y,z
1/2-x,1/2+y,-z
1/2-x,1/2-y,-z
1/2+x,1/2-y,z
loop_
_atom_site_type_symbol
_atom_site_label
_atom_site_fract_x
_atom_site_fract_y
_atom_site_fract_z
Si Si1 0.097139 0.305095 0.288664
Si Si2 0.922483 0.804346 0.097108
Si Si3 0.173730 0.691562 0.495437
Si Si4 0.088630 0.190921 0.094942
Si Si5 0.935305 0.309165 0.285437
O O1 0.098282 0.500000 0.287222
O O2 0.258677 0.250804 0.196804
O O3 0.989729 0.258074 0.397531
O O4 0.027460 0.253982 0.278097
O O5 0.009526 0.750510 0.092860
O O6 0.921208 0.000000 0.098060
O O7 0.000000 0.754723 0.000000
O O8 0.178401 0.500000 0.490405
O O9 0.250000 0.750000 0.500000
O O10 0.272107 0.758642 0.392866
O O11 0.002851 0.242992 0.195021
O O12 0.091057 0.000000 0.091432
O O13 0.250000 0.250000 0.000000
O O14 0.942679 0.500000 0.280177
#
# Coordination Sequence:
#
# PCOD9183090 Si02
#       5
#     8   8   8   8   8
#     4   8  15  29  51  77 101 131 173 214 247 287
#     4   9  17  31  52  76  99 128 170 213 251 297
#     4   9  16  28  49  77 107 137 172 212 253 299
#     4  11  22  35  54  77 102 132 166 209 259 309
#     4  10  19  33  54  77 104 136 171 212 253 299
#
# _framework density 18.837703999999999
#
# number of rings (size 3 to 8) (size 9 to 14) (size 15 to 20)
#    0.000    2.600    0.000    4.200    0.000    3.200 
#    0.000    1.000    0.000   28.800    0.000    0.000 
#    0.000    0.000    0.000    0.000    0.000    0.000 
#
# Total GULP energy -111516.923945 kJ/mol
# GULP energy per Si atom -5575.846197 kJ/mol
# Density = 1.879483 g / cm^3
# Si number density = 18.837704 Si / 1000 Ang^3
#
#
#
# Elastic Constant Matrix: (Units=GPa)
#
#
# Indices 1 2 3 4 5 6 
#
# 1 114.6178 18.8037 103.8693 0.0000 0.5383 0.0000
# 2 18.8037 27.2873 23.2600 -0.0001 2.0237 0.0001
# 3 103.8693 23.2600 231.3122 0.0006 0.6183 0.0000
# 4 0.0000 -0.0001 0.0006 30.4157 0.0000 4.1785
# 5 0.5383 2.0237 0.6183 0.0000 33.3720 0.0000
# 6 0.0000 0.0001 0.0000 4.1785 0.0000 18.2401
#
#
#
# Elastic Compliance Matrix: (Units=1/GPa)
#
#
# Indices 1 2 3 4 5 6 
#
# 1 0.015344 -0.005156 -0.006372 0.000000 0.000183 0.000000
# 2 -0.005156 0.042001 -0.001902 0.000000 -0.002429 0.000000
# 3 -0.006372 -0.001902 0.007376 0.000000 0.000081 0.000000
# 4 0.000000 0.000000 0.000000 0.033946 0.000000 -0.007777
# 5 0.000183 -0.002429 0.000081 0.000000 0.030108 0.000000
# 6 0.000000 0.000000 0.000000 -0.007777 0.000000 0.056606
#
#
# Mechanical properties :
#
#
# Convention : Reuss Voigt Hill
#
# Bulk Modulus (GPa) = 26.41203 73.89811 50.15507
# Shear Modulus (GPa) = 22.23594 31.55785 26.89690
#
# Velocity S-wave (km/s) = 3.43942 4.09742 3.78275
# Velocity P-wave (km/s) = 5.46114 7.85488 6.76473
#
# Compressibility (1/GPa) = 0.03786154
#
# Stress axis : x y z
#
# Youngs Moduli (GPa) = 65.17053 23.80886 135.58106
#
# Poissons Ratio (x) = 0.12275 0.86397
# Poissons Ratio (y) = 0.33599 0.25787
# Poissons Ratio (z) = 0.41529 0.04528
#
# Static dielectric constant tensor:
#      x y z
#    x 1.639710 0.000000 -0.006880 
#    y 0.000000 1.660410 0.000000 
#    z -0.006880 0.000000 1.666470 
# 
# From -- ./inp_files/151645.got.cif
#   From: 2010.05.17/outbox.cif.g08.bks.cpg/sg12_76_cif.got.tgz:151645.got - 2010.06.03 13:09:07.
