data_PCOD9183642
_publ_section_title
;
Structure prediction by ZEFSAII (Michael W. Deem and Ramdas Pophale) SiO2 
 PCOD9183642
Probable space group: C 2/M
;
_chemical_formula_sum "Si O2"
_cell_formula_units_Z 56
_cell_length_a 27.113711
_cell_length_b 8.969753
_cell_length_c 17.745953
_cell_angle_alpha 90.000000
_cell_angle_beta 44.283127
_cell_angle_gamma 90.000000
_cell_volume 3013.362725
_symmetry_space_group_name_H-M "C 2/M"
_symmetry_group_IT_number 12
_symmetry_cell_setting 'monoclinic'
loop_
_space_group_symop_operation_xyz
x,y,z
-x,y,-z
-x,-y,-z
x,-y,z
1/2+x,1/2+y,z
1/2-x,1/2+y,-z
1/2-x,1/2-y,-z
1/2+x,1/2-y,z
loop_
_atom_site_type_symbol
_atom_site_label
_atom_site_fract_x
_atom_site_fract_y
_atom_site_fract_z
Si Si1 0.904955 0.822812 0.448101
Si Si2 0.898563 0.323038 0.885679
Si Si3 0.078139 0.178939 0.883421
Si Si4 0.560946 0.178600 0.743966
Si Si5 0.310670 0.679002 0.108855
Si Si6 0.552148 0.822197 0.331217
Si Si7 0.838372 0.320979 0.659034
O O1 0.900945 0.750327 0.369760
O O2 0.848150 0.759812 0.569034
O O3 0.980685 0.768685 0.398072
O O4 0.902278 0.000000 0.446040
O O5 0.891576 0.500000 0.903554
O O6 0.899591 0.292863 0.795222
O O7 0.977409 0.279975 0.828027
O O8 0.839509 0.243728 0.999404
O O9 0.088518 0.259883 0.792776
O O10 0.134849 0.222591 0.884508
O O11 0.082194 0.000000 0.867968
O O12 0.000000 0.214006 0.000000
O O13 0.565464 0.000000 0.734958
O O14 0.311714 0.500000 0.102116
O O15 0.232521 0.724128 0.219649
O O16 0.595114 0.789172 0.359468
O O17 0.534761 0.000000 0.349187
O O18 0.836276 0.500000 0.649617
#
# Coordination Sequence:
#
# PCOD9183642 Si02
#       7
#     8   8   8   8   8   8   8
#     4  11  22  36  57  83 109 137 179 230 276 318
#     4   9  18  32  51  78 109 139 176 223 269 317
#     4  10  19  33  55  83 114 142 176 224 274 317
#     4  10  20  35  57  83 109 141 182 223 269 323
#     4  10  21  35  53  79 111 148 182 217 269 326
#     4   9  19  36  57  80 107 144 184 223 267 317
#     4  10  21  38  56  75 108 150 187 220 263 323
#
# _framework density 18.583891000000001
#
# number of rings (size 3 to 8) (size 9 to 14) (size 15 to 20)
#    0.000    2.143    1.429    3.000    0.000    6.571 
#    0.000    0.714    0.000    0.000    0.000    0.000 
#    0.000    0.000    0.000    0.000    0.000    0.000 
#
# Total GULP energy -156344.414948 kJ/mol
# GULP energy per Si atom -5583.729105 kJ/mol
# Density = 1.854159 g / cm^3
# Si number density = 18.583891 Si / 1000 Ang^3
#
#
#
# Elastic Constant Matrix: (Units=GPa)
#
#
# Indices 1 2 3 4 5 6 
#
# 1 23.7503 11.1879 1.6372 0.0005 16.9012 -0.0031
# 2 11.1879 29.3244 28.4002 0.0010 12.1425 0.0062
# 3 1.6372 28.4002 100.8589 -0.0008 25.5942 -0.0008
# 4 0.0005 0.0010 -0.0008 33.4768 0.0018 5.9953
# 5 16.9012 12.1425 25.5942 0.0018 27.4303 -0.0026
# 6 -0.0031 0.0062 -0.0008 5.9953 -0.0026 14.5146
#
#
#
# Elastic Compliance Matrix: (Units=1/GPa)
#
#
# Indices 1 2 3 4 5 6 
#
# 1 0.118746 -0.040283 0.030734 0.000000 -0.084010 0.000030
# 2 -0.040283 0.063259 -0.021424 0.000003 0.016807 -0.000035
# 3 0.030734 -0.021424 0.023384 0.000000 -0.031272 0.000011
# 4 0.000000 0.000003 0.000000 0.032258 -0.000005 -0.013324
# 5 -0.084010 0.016807 -0.031272 -0.000005 0.109958 -0.000006
# 6 0.000030 -0.000035 0.000011 -0.013324 -0.000006 0.074400
#
#
# Mechanical properties :
#
#
# Convention : Reuss Voigt Hill
#
# Bulk Modulus (GPa) = 6.97138 26.26488 16.61813
# Shear Modulus (GPa) = 9.40266 22.59822 16.00044
#
# Velocity S-wave (km/s) = 2.25179 3.49092 2.93744
# Velocity P-wave (km/s) = 3.24349 5.51475 4.52398
#
# Compressibility (1/GPa) = 0.14344358
#
# Stress axis : x y z
#
# Youngs Moduli (GPa) = 8.42137 15.80795 42.76377
#
# Poissons Ratio (x) = 0.63679 -1.31430
# Poissons Ratio (y) = 0.33924 0.91617
# Poissons Ratio (z) = -0.25882 0.33867
#
# Static dielectric constant tensor:
#      x y z
#    x 1.629990 0.000000 -0.001550 
#    y 0.000000 1.621350 0.000000 
#    z -0.001550 0.000000 1.643350 
# 
# From -- ./inp_files/288182.got.cif
#   From: 2010.05.17/outbox.cif.g08.bks.cpg/sg12_145_cif.got.tgz:288182.got - 2010.06.03 13:09:07.
