data_PCOD9183467
_publ_section_title
;
Structure prediction by ZEFSAII (Michael W. Deem and Ramdas Pophale) SiO2 
 PCOD9183467
Probable space group: C 2/M
;
_chemical_formula_sum "Si O2"
_cell_formula_units_Z 64
_cell_length_a 20.695120
_cell_length_b 7.660898
_cell_length_c 20.771230
_cell_angle_alpha 90.000000
_cell_angle_beta 81.594420
_cell_angle_gamma 90.000000
_cell_volume 3257.762796
_symmetry_space_group_name_H-M "C 2/M"
_symmetry_group_IT_number 12
_symmetry_cell_setting 'monoclinic'
loop_
_space_group_symop_operation_xyz
x,y,z
-x,y,-z
-x,-y,-z
x,-y,z
1/2+x,1/2+y,z
1/2-x,1/2+y,-z
1/2-x,1/2-y,-z
1/2+x,1/2-y,z
loop_
_atom_site_type_symbol
_atom_site_label
_atom_site_fract_x
_atom_site_fract_y
_atom_site_fract_z
Si Si1 0.562007 0.205904 0.452016
Si Si2 0.042798 0.288850 0.172821
Si Si3 0.040932 0.703833 0.316734
Si Si4 0.391457 0.290910 0.186220
Si Si5 0.823099 0.792462 0.469350
Si Si6 0.160549 0.710535 0.066720
Si Si7 0.890014 0.212412 0.330814
Si Si8 0.304324 0.709177 0.081711
O O1 0.500000 0.281013 0.500000
O O2 0.569547 0.279726 0.378744
O O3 0.625451 0.222192 0.486460
O O4 0.547980 0.000000 0.444704
O O5 0.045742 0.500000 0.174272
O O6 0.097777 0.226236 0.115304
O O7 0.055746 0.221637 0.243770
O O8 0.968407 0.244602 0.165219
O O9 0.059865 0.500000 0.310360
O O10 0.962680 0.720399 0.335398
O O11 0.383964 0.500000 0.187932
O O12 0.373532 0.228245 0.260803
O O13 0.345843 0.221557 0.135787
O O14 0.750000 0.750000 0.500000
O O15 0.842427 0.730254 0.394908
O O16 0.830929 0.000000 0.467895
O O17 0.161094 0.500000 0.070947
O O18 0.229839 0.775214 0.085409
O O19 0.160627 0.755821 0.991397
O O20 0.892607 0.000000 0.329808
O O21 0.299909 0.500000 0.089460
#
# Coordination Sequence:
#
# PCOD9183467 Si02
#       8
#     8   8   8   8   8   8   8   8
#     4  10  19  33  55  80 103 133 172 212 254 302
#     4   9  18  32  50  75 102 131 164 202 248 290
#     4   9  17  31  52  77 102 131 167 206 250 301
#     4   9  18  33  52  75  99 127 165 204 245 294
#     4  11  23  37  53  75 105 138 173 214 259 304
#     4   9  18  33  51  72  99 129 163 203 244 289
#     4   9  18  33  52  74  99 132 168 206 252 298
#     4   9  18  33  52  72  96 130 167 200 241 293
#
# _framework density 19.645382000000001
#
# number of rings (size 3 to 8) (size 9 to 14) (size 15 to 20)
#    0.000    2.625    1.250    0.375    0.000    2.750 
#    2.250    2.500    0.000    0.000    0.000    0.000 
#    0.000    0.000    0.000    0.000    0.000    0.000 
#
# Total GULP energy -178440.376696 kJ/mol
# GULP energy per Si atom -5576.261772 kJ/mol
# Density = 1.960067 g / cm^3
# Si number density = 19.645382 Si / 1000 Ang^3
#
#
#
# Elastic Constant Matrix: (Units=GPa)
#
#
# Indices 1 2 3 4 5 6 
#
# 1 89.8714 -13.0034 89.5897 0.0000 17.3494 0.0000
# 2 -13.0034 34.1989 -3.3816 0.0000 5.2098 0.0000
# 3 89.5897 -3.3816 161.3765 0.0000 20.6998 0.0000
# 4 0.0000 0.0000 0.0000 14.7312 0.0000 0.8497
# 5 17.3494 5.2098 20.6998 0.0000 34.7198 0.0000
# 6 0.0000 0.0000 0.0000 0.8497 0.0000 21.6446
#
#
#
# Elastic Compliance Matrix: (Units=1/GPa)
#
#
# Indices 1 2 3 4 5 6 
#
# 1 0.028898 0.010603 -0.014904 0.000000 -0.007145 0.000000
# 2 0.010603 0.034070 -0.004155 0.000000 -0.007933 0.000000
# 3 -0.014904 -0.004155 0.014454 0.000000 -0.000546 0.000000
# 4 0.000000 0.000000 0.000000 0.068037 0.000000 -0.002671
# 5 -0.007145 -0.007933 -0.000546 0.000000 0.033889 0.000000
# 6 0.000000 0.000000 0.000000 -0.002671 0.000000 0.046306
#
#
# Mechanical properties :
#
#
# Convention : Reuss Voigt Hill
#
# Bulk Modulus (GPa) = 16.52639 47.98404 32.25521
# Shear Modulus (GPa) = 19.03051 28.36859 23.69955
#
# Velocity S-wave (km/s) = 3.11577 3.80417 3.47705
# Velocity P-wave (km/s) = 4.62328 6.61617 5.70738
#
# Compressibility (1/GPa) = 0.06050929
#
# Stress axis : x y z
#
# Youngs Moduli (GPa) = 34.60430 29.35148 69.18493
#
# Poissons Ratio (x) = -0.31120 1.03116
# Poissons Ratio (y) = -0.36690 0.28743
# Poissons Ratio (z) = 0.51576 0.12194
#
# Static dielectric constant tensor:
#      x y z
#    x 1.635590 0.000000 0.007180 
#    y 0.000000 1.767290 0.000000 
#    z 0.007180 0.000000 1.717920 
# 
# From -- ./inp_files/319115.got.cif
#   From: 2010.05.17/outbox.cif.g08.bks.cpg/sg12_160_cif.got.tgz:319115.got - 2010.06.03 13:09:07.
