data_PCOD9183655
_publ_section_title
;
Structure prediction by ZEFSAII (Michael W. Deem and Ramdas Pophale) SiO2 
 PCOD9183655
Probable space group: C 2/M
;
_chemical_formula_sum "Si O2"
_cell_formula_units_Z 56
_cell_length_a 23.365112
_cell_length_b 13.248709
_cell_length_c 23.626915
_cell_angle_alpha 90.000000
_cell_angle_beta 21.409261
_cell_angle_gamma 90.000000
_cell_volume 2669.769446
_symmetry_space_group_name_H-M "C 2/M"
_symmetry_group_IT_number 12
_symmetry_cell_setting 'monoclinic'
loop_
_space_group_symop_operation_xyz
x,y,z
-x,y,-z
-x,-y,-z
x,-y,z
1/2+x,1/2+y,z
1/2-x,1/2+y,-z
1/2-x,1/2-y,-z
1/2+x,1/2-y,z
loop_
_atom_site_type_symbol
_atom_site_label
_atom_site_fract_x
_atom_site_fract_y
_atom_site_fract_z
Si Si1 0.167719 0.115832 0.867905
Si Si2 0.719847 0.390115 0.460738
Si Si3 0.833257 0.383571 0.596015
Si Si4 0.279403 0.212002 0.101361
Si Si5 0.442182 0.726403 0.213789
Si Si6 0.080517 0.116799 0.185559
Si Si7 0.507983 0.673850 0.427092
O O1 0.284309 0.120879 0.707123
O O2 0.224844 0.174960 0.869961
O O3 0.141906 0.000000 0.906545
O O4 0.000000 0.157262 0.000000
O O5 0.795923 0.500000 0.394104
O O6 0.842569 0.300421 0.345133
O O7 0.594200 0.381215 0.626655
O O8 0.615866 0.381889 0.499188
O O9 0.880590 0.500000 0.539938
O O10 0.675942 0.351670 0.707129
O O11 0.952307 0.291934 0.473840
O O12 0.186942 0.180922 0.130245
O O13 0.180962 0.156696 0.241683
O O14 0.463038 0.203116 0.917701
O O15 0.565618 0.665361 0.137876
O O16 0.131824 0.000000 0.137243
O O17 0.500000 0.645893 0.500000
#
# Coordination Sequence:
#
# PCOD9183655 Si02
#       7
#     8   8   8   8   8   8   8
#     4  10  19  33  55  83 117 152 186 231 285 339
#     4   9  21  40  60  82 110 148 193 239 283 336
#     4  10  20  34  55  83 114 152 194 234 279 336
#     4  11  22  36  57  87 121 149 188 236 289 336
#     4  11  21  37  62  86 114 151 190 238 287 339
#     4  10  22  41  61  82 114 153 192 235 285 340
#     4  10  20  35  56  82 116 157 192 231 282 340
#
# _framework density 20.975594999999998
#
# number of rings (size 3 to 8) (size 9 to 14) (size 15 to 20)
#    0.000    1.857    2.857    1.286    0.000    2.286 
#    0.000    0.714    0.000    1.286    0.000    0.000 
#    0.000    0.000    0.000    0.000    0.000    0.000 
#
# Total GULP energy -156135.798070 kJ/mol
# GULP energy per Si atom -5576.278503 kJ/mol
# Density = 2.092785 g / cm^3
# Si number density = 20.975595 Si / 1000 Ang^3
#
#
#
# Elastic Constant Matrix: (Units=GPa)
#
#
# Indices 1 2 3 4 5 6 
#
# 1 83.9400 34.6607 2.9392 -0.0001 4.0670 -0.0001
# 2 34.6607 99.8100 9.0377 0.0032 -6.5670 0.0007
# 3 2.9392 9.0377 51.5546 0.0021 5.0527 0.0004
# 4 -0.0001 0.0032 0.0021 18.4438 0.0007 -2.3675
# 5 4.0670 -6.5670 5.0527 0.0007 17.4218 -0.0002
# 6 -0.0001 0.0007 0.0004 -2.3675 -0.0002 18.5474
#
#
#
# Elastic Compliance Matrix: (Units=1/GPa)
#
#
# Indices 1 2 3 4 5 6 
#
# 1 0.014404 -0.005433 0.000681 0.000001 -0.005608 0.000000
# 2 -0.005433 0.012582 -0.002558 -0.000002 0.006753 -0.000001
# 3 0.000681 -0.002558 0.020499 -0.000002 -0.007068 -0.000001
# 4 0.000001 -0.000002 -0.000002 0.055122 -0.000003 0.007036
# 5 -0.005608 0.006753 -0.007068 -0.000003 0.063304 0.000000
# 6 0.000000 -0.000001 -0.000001 0.007036 0.000000 0.054814
#
#
# Mechanical properties :
#
#
# Convention : Reuss Voigt Hill
#
# Bulk Modulus (GPa) = 30.42671 36.50887 33.46779
# Shear Modulus (GPa) = 20.30048 23.46040 21.88044
#
# Velocity S-wave (km/s) = 3.11435 3.34797 3.23327
# Velocity P-wave (km/s) = 5.24113 5.69108 5.47073
#
# Compressibility (1/GPa) = 0.03286586
#
# Stress axis : x y z
#
# Youngs Moduli (GPa) = 69.42281 79.48141 48.78243
#
# Poissons Ratio (x) = 0.43181 -0.03321
# Poissons Ratio (y) = 0.37716 0.12477
# Poissons Ratio (z) = -0.04726 0.20329
#
# Static dielectric constant tensor:
#      x y z
#    x 1.746470 0.000000 -0.003680 
#    y 0.000000 1.752390 0.000000 
#    z -0.003680 0.000000 1.810440 
# 
# From -- ./inp_files/104700.got.cif
#   From: 2010.05.17/outbox.cif.g08.bks.cpg/sg12_53_cif.got.tgz:104700.got - 2010.06.03 13:09:07.
