data_PCOD9183049
_publ_section_title
;
Structure prediction by ZEFSAII (Michael W. Deem and Ramdas Pophale) SiO2 
 PCOD9183049
Probable space group: C 2/M
;
_chemical_formula_sum "Si O2"
_cell_formula_units_Z 64
_cell_length_a 27.465682
_cell_length_b 7.459963
_cell_length_c 13.011971
_cell_angle_alpha 90.000000
_cell_angle_beta 81.905620
_cell_angle_gamma 90.000000
_cell_volume 2639.500696
_symmetry_space_group_name_H-M "C 2/M"
_symmetry_group_IT_number 12
_symmetry_cell_setting 'monoclinic'
loop_
_space_group_symop_operation_xyz
x,y,z
-x,y,-z
-x,-y,-z
x,-y,z
1/2+x,1/2+y,z
1/2-x,1/2+y,-z
1/2-x,1/2-y,-z
1/2+x,1/2-y,z
loop_
_atom_site_type_symbol
_atom_site_label
_atom_site_fract_x
_atom_site_fract_y
_atom_site_fract_z
Si Si1 0.544035 0.207204 0.671710
Si Si2 0.063070 0.295936 0.305281
Si Si3 0.101638 0.212539 0.084784
Si Si4 0.275495 0.712474 0.248962
Si Si5 0.169311 0.281122 0.348431
Si Si6 0.196255 0.786210 0.976209
Si Si7 0.848173 0.715762 0.414851
Si Si8 0.957752 0.786379 0.090355
O O1 0.490658 0.285089 0.654985
O O2 0.595948 0.284937 0.618555
O O3 0.545876 0.209820 0.795522
O O4 0.542896 0.000000 0.638317
O O5 0.062504 0.500000 0.345276
O O6 0.067529 0.299714 0.179933
O O7 0.115800 0.217594 0.323653
O O8 0.096137 0.000000 0.106137
O O9 0.157069 0.281951 0.071100
O O10 0.088860 0.240716 0.969008
O O11 0.269822 0.500000 0.233286
O O12 0.219954 0.783171 0.281400
O O13 0.302947 0.785318 0.140114
O O14 0.310146 0.733699 0.337315
O O15 0.168896 0.500000 0.340850
O O16 0.171215 0.231512 0.467774
O O17 0.186414 0.000000 0.975825
O O18 0.250000 0.750000 0.000000
O O19 0.851290 0.500000 0.411912
O O20 0.965598 0.000000 0.102163
O O21 0.000000 0.720787 0.000000
#
# Coordination Sequence:
#
# PCOD9183049 Si02
#       8
#     8   8   8   8   8   8   8   8
#     4  10  21  34  52  81 112 140 176 219 264 315
#     4  10  20  35  55  78 105 142 180 217 264 317
#     4  10  20  34  51  76 107 140 176 216 259 310
#     4  10  20  37  59  81 105 138 181 225 266 316
#     4   9  19  36  58  80 104 137 179 224 271 319
#     4  10  21  35  53  78 110 142 175 213 259 314
#     4  10  21  37  56  81 110 139 175 223 272 318
#     4  10  19  33  54  76 102 140 177 209 255 309
#
# _framework density 24.247011000000001
#
# number of rings (size 3 to 8) (size 9 to 14) (size 15 to 20)
#    0.000    2.125    1.250    1.875    0.000    4.750 
#    0.000    3.750    0.000    0.000    0.000    2.625 
#    0.000    0.000    0.000    0.000    0.000    0.000 
#
# Total GULP energy -178667.431258 kJ/mol
# GULP energy per Si atom -5583.357227 kJ/mol
# Density = 2.419182 g / cm^3
# Si number density = 24.247011 Si / 1000 Ang^3
#
#
#
# Elastic Constant Matrix: (Units=GPa)
#
#
# Indices 1 2 3 4 5 6 
#
# 1 114.7173 1.8047 2.7083 0.0000 -11.7694 0.0000
# 2 1.8047 67.4712 -3.0813 0.0000 -2.4141 0.0000
# 3 2.7083 -3.0813 60.6989 0.0000 -3.8762 0.0000
# 4 0.0000 0.0000 0.0000 9.3217 0.0000 6.0544
# 5 -11.7694 -2.4141 -3.8762 0.0000 37.7940 0.0000
# 6 0.0000 0.0000 0.0000 6.0544 0.0000 10.7969
#
#
#
# Elastic Compliance Matrix: (Units=1/GPa)
#
#
# Indices 1 2 3 4 5 6 
#
# 1 0.009009 -0.000152 -0.000233 0.000000 0.002772 0.000000
# 2 -0.000152 0.014898 0.000826 0.000000 0.000989 0.000000
# 3 -0.000233 0.000826 0.016635 0.000000 0.001686 0.000000
# 4 0.000000 0.000000 0.000000 0.168729 0.000000 -0.094616
# 5 0.002772 0.000989 0.001686 0.000000 0.027559 0.000000
# 6 0.000000 0.000000 0.000000 -0.094616 0.000000 0.145676
#
#
# Mechanical properties :
#
#
# Convention : Reuss Voigt Hill
#
# Bulk Modulus (GPa) = 24.14018 27.30563 25.72290
# Shear Modulus (GPa) = 12.64441 27.67959 20.16200
#
# Velocity S-wave (km/s) = 2.28608 3.38237 2.88675
# Velocity P-wave (km/s) = 4.11652 5.15168 4.66292
#
# Compressibility (1/GPa) = 0.04142472
#
# Stress axis : x y z
#
# Youngs Moduli (GPa) = 110.99562 67.12163 60.11504
#
# Poissons Ratio (x) = 0.01023 0.01399
# Poissons Ratio (y) = 0.01692 -0.04967
# Poissons Ratio (z) = 0.02583 -0.05546
#
# Static dielectric constant tensor:
#      x y z
#    x 2.007630 0.000000 0.046600 
#    y 0.000000 1.952700 0.000000 
#    z 0.046600 0.000000 1.846940 
# 
# From -- ./inp_files/182029.got.cif
#   From: 2010.05.17/outbox.cif.g08.bks.cpg/sg12_92_cif.got.tgz:182029.got - 2010.06.03 13:09:07.
