data_PCOD9183088
_publ_section_title
;
Structure prediction by ZEFSAII (Michael W. Deem and Ramdas Pophale) SiO2 
 PCOD9183088
Probable space group: C 2/M
;
_chemical_formula_sum "Si O2"
_cell_formula_units_Z 56
_cell_length_a 26.132809
_cell_length_b 7.548736
_cell_length_c 18.348167
_cell_angle_alpha 90.000000
_cell_angle_beta 134.596720
_cell_angle_gamma 90.000000
_cell_volume 2577.350077
_symmetry_space_group_name_H-M "C 2/M"
_symmetry_group_IT_number 12
_symmetry_cell_setting 'monoclinic'
loop_
_space_group_symop_operation_xyz
x,y,z
-x,y,-z
-x,-y,-z
x,-y,z
1/2+x,1/2+y,z
1/2-x,1/2+y,-z
1/2-x,1/2-y,-z
1/2+x,1/2-y,z
loop_
_atom_site_type_symbol
_atom_site_label
_atom_site_fract_x
_atom_site_fract_y
_atom_site_fract_z
Si Si1 0.334566 0.211685 0.927116
Si Si2 0.069081 0.202375 0.529840
Si Si3 0.334566 0.788315 0.242016
Si Si4 0.832291 0.786974 0.499123
Si Si5 0.332291 0.286974 0.665460
Si Si6 0.430919 0.297625 0.891677
Si Si7 0.664482 0.788073 0.914482
O O1 0.250000 0.250000 0.840870
O O2 0.371857 0.298975 0.896015
O O3 0.345141 0.000000 0.933001
O O4 0.363266 0.275963 0.034988
O O5 0.128143 0.201025 0.652301
O O6 0.108164 0.281602 0.498012
O O7 0.000000 0.287412 0.500000
O O8 0.048240 0.000000 0.489520
O O9 0.363266 0.724037 0.191543
O O10 0.345141 0.000000 0.257280
O O11 0.750000 0.750000 0.393308
O O12 0.840612 0.721563 0.590612
O O13 0.838861 0.000000 0.506852
O O14 0.338861 0.500000 0.670869
O O15 0.391836 0.218398 0.781684
O O16 0.451760 0.500000 0.893040
O O17 0.500000 0.212588 0.000000
O O18 0.656045 0.000000 0.906045
O O19 0.750000 0.750000 0.000000
#
# Coordination Sequence:
#
# PCOD9183088 Si02
#       7
#     8   8   8   8   8   8   8
#     4  10  19  33  54  77 103 136 175 216 260 307
#     4  10  21  36  51  75 109 140 174 216 265 321
#     4  10  19  33  54  77 103 136 175 216 260 307
#     4   9  18  34  56  78 102 134 175 221 265 311
#     4   9  18  34  56  78 102 134 175 221 265 311
#     4  10  21  36  51  75 109 140 174 216 265 321
#     4   8  16  30  48  72 100 128 163 206 247 298
#
# _framework density 21.727741999999999
#
# number of rings (size 3 to 8) (size 9 to 14) (size 15 to 20)
#    0.000    2.571    0.000    1.714    0.000    5.143 
#    2.571    0.000    0.000    0.000    0.000    0.000 
#    0.000    0.000    0.000    0.000    0.000    0.000 
#
# Total GULP energy -156119.575987 kJ/mol
# GULP energy per Si atom -5575.699142 kJ/mol
# Density = 2.167829 g / cm^3
# Si number density = 21.727742 Si / 1000 Ang^3
#
#
#
# Elastic Constant Matrix: (Units=GPa)
#
#
# Indices 1 2 3 4 5 6 
#
# 1 114.3050 -0.8507 67.0566 0.0000 -6.9929 0.0000
# 2 -0.8507 66.3030 -0.7970 0.0000 -0.7823 0.0000
# 3 67.0566 -0.7970 115.2590 0.0000 -6.9033 0.0000
# 4 0.0000 0.0000 0.0000 27.5614 0.0000 -14.2598
# 5 -6.9929 -0.7823 -6.9033 0.0000 22.5590 0.0000
# 6 0.0000 0.0000 0.0000 -14.2598 0.0000 26.5825
#
#
#
# Elastic Compliance Matrix: (Units=1/GPa)
#
#
# Indices 1 2 3 4 5 6 
#
# 1 0.013353 0.000100 -0.007660 0.000000 0.001799 0.000000
# 2 0.000100 0.015091 0.000081 0.000000 0.000579 0.000000
# 3 -0.007660 0.000081 0.013234 0.000000 0.001678 0.000000
# 4 0.000000 0.000000 0.000000 0.050221 0.000000 0.026940
# 5 0.001799 0.000579 0.001678 0.000000 0.045419 0.000000
# 6 0.000000 0.000000 0.000000 0.026940 0.000000 0.052071
#
#
# Mechanical properties :
#
#
# Convention : Reuss Voigt Hill
#
# Bulk Modulus (GPa) = 37.42532 47.40942 42.41737
# Shear Modulus (GPa) = 23.44614 30.70445 27.07529
#
# Velocity S-wave (km/s) = 3.28851 3.76326 3.53387
# Velocity P-wave (km/s) = 5.62860 6.38357 6.01794
#
# Compressibility (1/GPa) = 0.02671988
#
# Stress axis : x y z
#
# Youngs Moduli (GPa) = 74.88819 66.26307 75.56349
#
# Poissons Ratio (x) = -0.00666 0.57884
# Poissons Ratio (y) = -0.00752 -0.00609
# Poissons Ratio (z) = 0.57367 -0.00534
#
# Static dielectric constant tensor:
#      x y z
#    x 1.811500 0.000000 -0.022530 
#    y 0.000000 1.869060 0.000000 
#    z -0.022530 0.000000 1.813050 
# 
# From -- ./inp_files/288485.got.cif
#   From: 2010.05.17/outbox.cif.g08.bks.cpg/sg12_145_cif.got.tgz:288485.got - 2010.06.03 13:09:07.
