data_PCOD9183720
_publ_section_title
;
Structure prediction by ZEFSAII (Michael W. Deem and Ramdas Pophale) SiO2 
 PCOD9183720
Probable space group: C 2/M
;
_chemical_formula_sum "Si O2"
_cell_formula_units_Z 44
_cell_length_a 18.127822
_cell_length_b 14.696913
_cell_length_c 27.395880
_cell_angle_alpha 90.000000
_cell_angle_beta 20.412494
_cell_angle_gamma 90.000000
_cell_volume 2545.681857
_symmetry_space_group_name_H-M "C 2/M"
_symmetry_group_IT_number 12
_symmetry_cell_setting 'monoclinic'
loop_
_space_group_symop_operation_xyz
x,y,z
-x,y,-z
-x,-y,-z
x,-y,z
1/2+x,1/2+y,z
1/2-x,1/2+y,-z
1/2-x,1/2-y,-z
1/2+x,1/2-y,z
loop_
_atom_site_type_symbol
_atom_site_label
_atom_site_fract_x
_atom_site_fract_y
_atom_site_fract_z
Si Si1 0.786052 0.133105 0.163505
Si Si2 0.049324 0.000000 0.185767
Si Si3 0.487267 0.500000 0.675166
Si Si4 0.145379 0.659481 0.040651
Si Si5 0.065251 0.500000 0.654649
Si Si6 0.072553 0.500000 0.155880
Si Si7 0.419692 0.500000 0.160952
Si Si8 0.166993 0.660206 0.855120
O O1 0.825674 0.088124 0.191952
O O2 0.751733 0.239976 0.182350
O O3 0.583011 0.084635 0.267418
O O4 0.000000 0.113019 0.000000
O O5 0.990676 0.000000 0.279162
O O6 0.890555 0.000000 0.237483
O O7 0.184793 0.091977 0.090910
O O8 0.716349 0.500000 0.508870
O O9 0.351769 0.586759 0.741125
O O10 0.044408 0.592906 0.143545
O O11 0.966540 0.676332 0.111327
O O12 0.250000 0.750000 0.000000
O O13 0.077484 0.500000 0.705004
O O14 0.327661 0.500000 0.007288
O O15 0.000000 0.629630 0.000000
#
# Coordination Sequence:
#
# PCOD9183720 Si02
#       8
#     8   4   4   8   4   4   4   8
#     4  10  19  35  60  86 110 144 200 254 288 326
#     4  10  20  33  53  85 116 147 193 226 287 350
#     4  12  24  39  54  81 128 165 184 222 283 368
#     4  10  20  34  60  89 112 139 187 250 291 324
#     4  11  23  38  58  83 119 157 193 231 289 354
#     4  10  19  33  55  86 112 140 191 234 288 343
#     4   9  15  33  59  84 112 132 189 264 294 315
#     4  11  21  36  59  84 115 150 194 237 286 335
#
# _framework density 17.284171000000001
#
# number of rings (size 3 to 8) (size 9 to 14) (size 15 to 20)
#    0.000    1.818    3.636    4.091    2.545    0.727 
#    0.000    3.636    0.000    2.182    0.000    0.000 
#    0.000    0.000    0.000    0.000    0.000    0.000 
#
# Total GULP energy -122585.335688 kJ/mol
# GULP energy per Si atom -5572.060713 kJ/mol
# Density = 1.724483 g / cm^3
# Si number density = 17.284171 Si / 1000 Ang^3
#
#
#
# Elastic Constant Matrix: (Units=GPa)
#
#
# Indices 1 2 3 4 5 6 
#
# 1 112.7076 39.5605 51.5902 -0.0319 15.6463 0.0163
# 2 39.5605 122.5253 65.9344 -0.5484 -2.4692 0.3406
# 3 51.5902 65.9344 109.5712 -0.8368 10.5523 0.6158
# 4 -0.0319 -0.5484 -0.8368 -38.8381 0.0424 26.7553
# 5 15.6463 -2.4692 10.5523 0.0424 21.4647 -0.1001
# 6 0.0163 0.3406 0.6158 26.7553 -0.1001 0.5328
#
#
#
# Elastic Compliance Matrix: (Units=1/GPa)
#
#
# Indices 1 2 3 4 5 6 
#
# 1 0.012397 -0.002058 -0.003889 0.000081 -0.007362 -0.000020
# 2 -0.002058 0.012993 -0.007493 0.000032 0.006678 0.000065
# 3 -0.003889 -0.007493 0.016033 -0.000292 -0.005909 -0.000071
# 4 0.000081 0.000032 -0.000292 -0.000716 0.000259 0.036327
# 5 -0.007362 0.006678 -0.005909 0.000259 0.055628 0.000231
# 6 -0.000020 0.000065 -0.000071 0.036327 0.000231 0.052732
#
#
# Mechanical properties :
#
#
# Convention : Reuss Voigt Hill
#
# Bulk Modulus (GPa) = 68.75631 73.21939 70.98785
# Shear Modulus (GPa) = 27.65585 9.14647 18.40116
#
# Velocity S-wave (km/s) = 4.00442 2.30289 3.26640
# Velocity P-wave (km/s) = 7.82604 7.03741 7.44218
#
# Compressibility (1/GPa) = 0.01454412
#
# Stress axis : x y z
#
# Youngs Moduli (GPa) = 80.66536 76.96702 62.36951
#
# Poissons Ratio (x) = 0.15839 0.24255
# Poissons Ratio (y) = 0.16600 0.46731
# Poissons Ratio (z) = 0.31370 0.57669
#
# Static dielectric constant tensor:
#      x y z
#    x 1.658180 0.000110 0.007870 
#    y 0.000110 1.628750 -0.000050 
#    z 0.007870 -0.000050 1.553230 
# 
# From -- ./inp_files/364121.got.cif
#   From: 2010.05.17/outbox.cif.g08.bks.cpg/sg12_183_cif.got.tgz:364121.got - 2010.06.03 13:09:07.
