data_PCOD9183917
_publ_section_title
;
Structure prediction by ZEFSAII (Michael W. Deem and Ramdas Pophale) SiO2 
 PCOD9183917
Probable space group: C 2/M
;
_chemical_formula_sum "Si O2"
_cell_formula_units_Z 34
_cell_length_a 18.697539
_cell_length_b 9.621220
_cell_length_c 16.157348
_cell_angle_alpha 90.000000
_cell_angle_beta 148.287342
_cell_angle_gamma 90.000000
_cell_volume 1527.880101
_symmetry_space_group_name_H-M "C 2/M"
_symmetry_group_IT_number 12
_symmetry_cell_setting 'monoclinic'
loop_
_space_group_symop_operation_xyz
x,y,z
-x,y,-z
-x,-y,-z
x,-y,z
1/2+x,1/2+y,z
1/2-x,1/2+y,-z
1/2-x,1/2-y,-z
1/2+x,1/2-y,z
loop_
_atom_site_type_symbol
_atom_site_label
_atom_site_fract_x
_atom_site_fract_y
_atom_site_fract_z
Si Si1 0.661541 0.152652 0.803590
Si Si2 0.969158 0.838669 0.721064
Si Si3 0.148982 0.658096 0.106579
Si Si4 0.289484 0.156042 0.653825
Si Si5 0.000000 0.500000 0.500000
O O1 0.588648 0.250138 0.798145
O O2 0.795564 0.228373 0.901292
O O3 0.562129 0.118271 0.627042
O O4 0.691453 0.000000 0.868628
O O5 0.846016 0.830264 0.532872
O O6 0.900630 0.766009 0.732838
O O7 0.999982 0.000000 0.765062
O O8 0.156974 0.500000 0.081845
O O9 0.241063 0.668257 0.279777
O O10 0.000000 0.677603 0.000000
O O11 0.344746 0.000000 0.693323
#
# Coordination Sequence:
#
# PCOD9183917 Si02
#       5
#     8   8   8   8   2
#     4  10  20  34  54  80 112 144 181 224 278 327
#     4  10  19  33  56  84 111 143 180 231 285 334
#     4  10  21  38  58  80 110 149 191 230 271 327
#     4   9  19  34  53  81 113 144 179 227 283 332
#     4   8  20  32  52  84 108 144 168 224 280 322
#
# _framework density 22.253056000000001
#
# number of rings (size 3 to 8) (size 9 to 14) (size 15 to 20)
#    0.706    1.647    0.000    2.824    0.000    2.353 
#    0.000    5.882    0.000    0.000    0.000    0.000 
#    0.000    0.000    0.000    0.000    0.000    0.000 
#
# Total GULP energy -94665.887090 kJ/mol
# GULP energy per Si atom -5568.581594 kJ/mol
# Density = 2.220241 g / cm^3
# Si number density = 22.253056 Si / 1000 Ang^3
#
#
#
# Elastic Constant Matrix: (Units=GPa)
#
#
# Indices 1 2 3 4 5 6 
#
# 1 71.1461 97.7401 8.8132 0.0000 23.6245 0.0000
# 2 97.7401 215.5959 15.7753 0.0000 38.8066 0.0000
# 3 8.8132 15.7753 56.6125 0.0000 -5.3385 0.0000
# 4 0.0000 0.0000 0.0000 3.9214 0.0000 7.3378
# 5 23.6245 38.8066 -5.3385 0.0000 29.6681 0.0000
# 6 0.0000 0.0000 0.0000 7.3378 0.0000 42.6357
#
#
#
# Elastic Compliance Matrix: (Units=1/GPa)
#
#
# Indices 1 2 3 4 5 6 
#
# 1 0.040078 -0.015847 -0.002928 0.000000 -0.011712 0.000000
# 2 -0.015847 0.012695 -0.001472 0.000000 -0.004252 0.000000
# 3 -0.002928 -0.001472 0.019258 0.000000 0.007722 0.000000
# 4 0.000000 0.000000 0.000000 0.376147 0.000000 -0.064737
# 5 -0.011712 -0.004252 0.007722 0.000000 0.049984 0.000000
# 6 0.000000 0.000000 0.000000 -0.064737 0.000000 0.034596
#
#
# Mechanical properties :
#
#
# Convention : Reuss Voigt Hill
#
# Bulk Modulus (GPa) = 31.70720 65.33464 48.52092
# Shear Modulus (GPa) = 8.56511 29.98009 19.27260
#
# Velocity S-wave (km/s) = 1.96400 3.67445 2.94609
# Velocity P-wave (km/s) = 4.40710 6.88663 5.78136
#
# Compressibility (1/GPa) = 0.03153858
#
# Stress axis : x y z
#
# Youngs Moduli (GPa) = 24.95165 78.76846 51.92652
#
# Poissons Ratio (x) = 1.24822 0.15203
# Poissons Ratio (y) = 0.39540 0.07642
# Poissons Ratio (z) = 0.07305 0.11592
#
# Static dielectric constant tensor:
#      x y z
#    x 1.760790 0.000000 -0.026740 
#    y 0.000000 1.790170 0.000000 
#    z -0.026740 0.000000 1.906570 
# 
# From -- ./inp_files/274710.got.cif
#   From: 2010.05.17/outbox.cif.g08.bks.cpg/sg12_138_cif.got.tgz:274710.got - 2010.06.03 13:09:07.
