data_PCOD9183849
_publ_section_title
;
Structure prediction by ZEFSAII (Michael W. Deem and Ramdas Pophale) SiO2 
 PCOD9183849
Probable space group: C 2/M
;
_chemical_formula_sum "Si O2"
_cell_formula_units_Z 64
_cell_length_a 16.478037
_cell_length_b 9.084990
_cell_length_c 26.961564
_cell_angle_alpha 90.000000
_cell_angle_beta 45.841459
_cell_angle_gamma 90.000000
_cell_volume 2895.645501
_symmetry_space_group_name_H-M "C 2/M"
_symmetry_group_IT_number 12
_symmetry_cell_setting 'monoclinic'
loop_
_space_group_symop_operation_xyz
x,y,z
-x,y,-z
-x,-y,-z
x,-y,z
1/2+x,1/2+y,z
1/2-x,1/2+y,-z
1/2-x,1/2-y,-z
1/2+x,1/2-y,z
loop_
_atom_site_type_symbol
_atom_site_label
_atom_site_fract_x
_atom_site_fract_y
_atom_site_fract_z
Si Si1 0.926677 0.171010 0.706906
Si Si2 0.236187 0.325986 0.663156
Si Si3 0.804122 0.173700 0.524661
Si Si4 0.369759 0.668559 0.035283
Si Si5 0.812391 0.328542 0.155594
Si Si6 0.494314 0.673087 0.213455
Si Si7 0.028755 0.674466 0.407745
Si Si8 0.433957 0.173125 0.911276
O O1 0.791854 0.199142 0.763701
O O2 0.986386 0.279920 0.643553
O O3 0.960408 0.188025 0.749808
O O4 0.948380 0.000000 0.683436
O O5 0.241365 0.500000 0.672573
O O6 0.231100 0.308782 0.605566
O O7 0.127037 0.252884 0.734111
O O8 0.352111 0.246570 0.628690
O O9 0.750000 0.250000 0.500000
O O10 0.925512 0.250347 0.480475
O O11 0.819131 0.000000 0.509419
O O12 0.340501 0.500000 0.038253
O O13 0.364714 0.758712 0.986499
O O14 0.500000 0.674562 0.000000
O O15 0.302272 0.734246 0.110158
O O16 0.806090 0.500000 0.143596
O O17 0.934182 0.305410 0.128480
O O18 0.482074 0.500000 0.207646
O O19 0.573563 0.746037 0.138073
O O20 0.028762 0.500000 0.414484
O O21 0.412634 0.000000 0.915804
#
# Coordination Sequence:
#
# PCOD9183849 Si02
#       8
#     8   8   8   8   8   8   8   8
#     4  10  22  40  60  83 117 156 192 238 294 350
#     4  11  24  42  63  87 117 155 197 240 288 342
#     4  11  24  42  65  92 124 160 196 237 287 344
#     4   9  17  30  51  80 112 143 181 235 290 340
#     4   9  18  34  56  81 108 144 189 233 285 347
#     4  11  23  38  58  85 116 151 192 239 291 346
#     4  12  25  40  63  92 120 153 196 244 290 341
#     4  10  19  33  56  82 111 149 191 236 286 347
#
# _framework density 22.102153999999999
#
# number of rings (size 3 to 8) (size 9 to 14) (size 15 to 20)
#    0.000    1.625    0.000    4.875    0.000   10.000 
#    0.000    0.625    0.000    0.000    0.000    0.000 
#    0.000    0.000    0.000    0.000    0.000    0.000 
#
# Total GULP energy -179101.549596 kJ/mol
# GULP energy per Si atom -5596.923425 kJ/mol
# Density = 2.205185 g / cm^3
# Si number density = 22.102154 Si / 1000 Ang^3
#
#
#
# Elastic Constant Matrix: (Units=GPa)
#
#
# Indices 1 2 3 4 5 6 
#
# 1 74.7160 33.2296 8.7845 0.0000 8.6665 0.0000
# 2 33.2296 119.8942 40.2092 0.0000 26.8413 0.0001
# 3 8.7845 40.2092 68.1238 0.0000 22.3350 0.0000
# 4 0.0000 0.0000 0.0000 35.3732 0.0000 10.1573
# 5 8.6665 26.8413 22.3350 0.0000 36.3416 0.0000
# 6 0.0000 0.0001 0.0000 10.1573 0.0000 25.0406
#
#
#
# Elastic Compliance Matrix: (Units=1/GPa)
#
#
# Indices 1 2 3 4 5 6 
#
# 1 0.015318 -0.004322 0.000910 0.000000 -0.001020 0.000000
# 2 -0.004322 0.012364 -0.005115 0.000000 -0.004957 0.000000
# 3 0.000910 -0.005115 0.020555 0.000000 -0.009072 0.000000
# 4 0.000000 0.000000 0.000000 0.031997 0.000000 -0.012979
# 5 -0.001020 -0.004957 -0.009072 0.000000 0.036997 0.000000
# 6 0.000000 0.000000 0.000000 -0.012979 0.000000 0.045200
#
#
# Mechanical properties :
#
#
# Convention : Reuss Voigt Hill
#
# Bulk Modulus (GPa) = 32.06879 47.46452 39.76665
# Shear Modulus (GPa) = 26.33262 31.38513 28.85888
#
# Velocity S-wave (km/s) = 3.45542 3.77238 3.61737
# Velocity P-wave (km/s) = 5.51912 6.36366 5.95638
#
# Compressibility (1/GPa) = 0.03118296
#
# Stress axis : x y z
#
# Youngs Moduli (GPa) = 65.28415 80.88046 48.64946
#
# Poissons Ratio (x) = 0.34960 -0.04429
# Poissons Ratio (y) = 0.28218 0.24884
# Poissons Ratio (z) = -0.05944 0.41370
#
# Static dielectric constant tensor:
#      x y z
#    x 1.877570 0.000000 -0.012360 
#    y 0.000000 1.733490 0.000000 
#    z -0.012360 0.000000 1.801080 
# 
# From -- ./inp_files/378044.got.cif
#   From: 2010.05.17/outbox.cif.g08.bks.cpg/sg12_190_cif.got.tgz:378044.got - 2010.06.03 13:09:07.
