data_PCOD9183734
_publ_section_title
;
Structure prediction by ZEFSAII (Michael W. Deem and Ramdas Pophale) SiO2 
 PCOD9183734
Probable space group: C 2/M
;
_chemical_formula_sum "Si O2"
_cell_formula_units_Z 64
_cell_length_a 22.079570
_cell_length_b 8.640721
_cell_length_c 18.418021
_cell_angle_alpha 90.000000
_cell_angle_beta 66.123919
_cell_angle_gamma 90.000000
_cell_volume 3213.147797
_symmetry_space_group_name_H-M "C 2/M"
_symmetry_group_IT_number 12
_symmetry_cell_setting 'monoclinic'
loop_
_space_group_symop_operation_xyz
x,y,z
-x,y,-z
-x,-y,-z
x,-y,z
1/2+x,1/2+y,z
1/2-x,1/2+y,-z
1/2-x,1/2-y,-z
1/2+x,1/2-y,z
loop_
_atom_site_type_symbol
_atom_site_label
_atom_site_fract_x
_atom_site_fract_y
_atom_site_fract_z
Si Si1 0.916861 0.315923 0.415460
Si Si2 0.302759 0.814025 0.694883
Si Si3 0.552982 0.178148 0.166613
Si Si4 0.179186 0.817687 0.835489
Si Si5 0.439248 0.317040 0.680254
Si Si6 0.070840 0.812264 0.001240
Si Si7 0.207729 0.817273 0.453949
Si Si8 0.605063 0.176388 0.741100
O O1 0.087688 0.500000 0.569421
O O2 0.868649 0.225241 0.492193
O O3 0.890796 0.285834 0.345962
O O4 0.993098 0.263963 0.379296
O O5 0.252988 0.758853 0.782935
O O6 0.375081 0.743650 0.669861
O O7 0.274538 0.759747 0.631178
O O8 0.306340 0.000000 0.694519
O O9 0.570749 0.271575 0.230344
O O10 0.472972 0.178505 0.203185
O O11 0.574786 0.000000 0.164290
O O12 0.576753 0.249352 0.079642
O O13 0.131617 0.754708 0.921655
O O14 0.140627 0.789755 0.778874
O O15 0.185134 0.000000 0.846377
O O16 0.446543 0.500000 0.669255
O O17 0.071100 0.000000 0.002509
O O18 0.000000 0.765761 0.000000
O O19 0.250000 0.750000 0.500000
O O20 0.217413 0.000000 0.445181
O O21 0.629472 0.000000 0.740255
#
# Coordination Sequence:
#
# PCOD9183734 Si02
#       8
#     8   8   8   8   8   8   8   8
#     4  10  21  39  62  91 122 158 201 249 301 355
#     4  11  24  43  63  85 118 160 204 252 302 361
#     4  10  20  35  56  85 119 157 197 243 296 355
#     4  10  21  35  55  83 116 155 196 240 300 363
#     4  11  23  41  64  89 118 157 205 252 300 358
#     4  10  19  33  55  87 123 154 192 247 305 361
#     4  12  25  42  64  94 128 162 201 247 302 360
#     4   9  18  31  52  82 117 151 188 235 289 351
#
# _framework density 19.918161999999999
#
# number of rings (size 3 to 8) (size 9 to 14) (size 15 to 20)
#    0.000    1.625    1.250    4.875    0.000    6.750 
#    0.000    3.125    0.000    0.000    0.000    0.000 
#    0.000    0.000    0.000    0.000    0.000    0.000 
#
# Total GULP energy -178795.645625 kJ/mol
# GULP energy per Si atom -5587.363926 kJ/mol
# Density = 1.987283 g / cm^3
# Si number density = 19.918162 Si / 1000 Ang^3
#
#
#
# Elastic Constant Matrix: (Units=GPa)
#
#
# Indices 1 2 3 4 5 6 
#
# 1 61.1167 6.6858 14.1889 0.0000 -3.4781 0.0000
# 2 6.6858 44.7639 8.3941 -0.0001 -0.0010 -0.0001
# 3 14.1889 8.3941 110.9107 0.0000 -14.6353 0.0000
# 4 0.0000 -0.0001 0.0000 26.8490 0.0000 4.8243
# 5 -3.4781 -0.0010 -14.6353 0.0000 18.1178 0.0000
# 6 0.0000 -0.0001 0.0000 4.8243 0.0000 25.2810
#
#
#
# Elastic Compliance Matrix: (Units=1/GPa)
#
#
# Indices 1 2 3 4 5 6 
#
# 1 0.017124 -0.002224 -0.001778 0.000000 0.001851 0.000000
# 2 -0.002224 0.022989 -0.001692 0.000000 -0.001792 0.000000
# 3 -0.001778 -0.001692 0.010439 0.000000 0.008091 0.000000
# 4 0.000000 0.000000 0.000000 0.038568 0.000000 -0.007360
# 5 0.001851 -0.001792 0.008091 0.000000 0.062086 0.000000
# 6 0.000000 0.000000 0.000000 -0.007360 0.000000 0.040960
#
#
# Mechanical properties :
#
#
# Convention : Reuss Voigt Hill
#
# Bulk Modulus (GPa) = 25.53373 30.59209 28.06291
# Shear Modulus (GPa) = 23.08321 26.55107 24.81714
#
# Velocity S-wave (km/s) = 3.40796 3.65500 3.53364
# Velocity P-wave (km/s) = 5.32285 5.76231 5.54694
#
# Compressibility (1/GPa) = 0.03916388
#
# Stress axis : x y z
#
# Youngs Moduli (GPa) = 58.39907 43.49942 95.79009
#
# Poissons Ratio (x) = 0.09675 0.17032
# Poissons Ratio (y) = 0.12988 0.16206
# Poissons Ratio (z) = 0.10384 0.07359
#
# Static dielectric constant tensor:
#      x y z
#    x 1.698350 0.000000 -0.026010 
#    y 0.000000 1.671080 0.000000 
#    z -0.026010 0.000000 1.720100 
# 
# From -- ./inp_files/319759.got.cif
#   From: 2010.05.17/outbox.cif.g08.bks.cpg/sg12_160_cif.got.tgz:319759.got - 2010.06.03 13:09:07.
