data_PCOD9183561
_publ_section_title
;
Structure prediction by ZEFSAII (Michael W. Deem and Ramdas Pophale) SiO2 
 PCOD9183561
Probable space group: C 2/M
;
_chemical_formula_sum "Si O2"
_cell_formula_units_Z 40
_cell_length_a 15.323225
_cell_length_b 16.794287
_cell_length_c 9.508677
_cell_angle_alpha 90.000000
_cell_angle_beta 38.934883
_cell_angle_gamma 90.000000
_cell_volume 1537.777212
_symmetry_space_group_name_H-M "C 2/M"
_symmetry_group_IT_number 12
_symmetry_cell_setting 'monoclinic'
loop_
_space_group_symop_operation_xyz
x,y,z
-x,y,-z
-x,-y,-z
x,-y,z
1/2+x,1/2+y,z
1/2-x,1/2+y,-z
1/2-x,1/2-y,-z
1/2+x,1/2-y,z
loop_
_atom_site_type_symbol
_atom_site_label
_atom_site_fract_x
_atom_site_fract_y
_atom_site_fract_z
Si Si1 0.044239 0.596841 0.787809
Si Si2 0.866792 0.584289 0.765507
Si Si3 0.347857 0.694883 0.698365
Si Si4 0.367978 0.673715 0.007592
Si Si5 0.643684 0.595902 0.588315
O O1 0.045996 0.500000 0.779768
O O2 0.201686 0.620449 0.561497
O O3 0.934400 0.629960 0.813722
O O4 0.000000 0.618933 0.000000
O O5 0.823064 0.500000 0.884530
O O6 0.000000 0.577266 0.500000
O O7 0.740231 0.604720 0.821906
O O8 0.500000 0.737950 0.500000
O O9 0.340702 0.672954 0.871298
O O10 0.360112 0.623044 0.571882
O O11 0.215366 0.750146 0.830363
O O12 0.527613 0.648166 0.815895
O O13 0.621891 0.500000 0.628352
#
# Coordination Sequence:
#
# PCOD9183561 Si02
#       5
#     8   8   8   8   8
#     4   9  18  34  57  87 120 152 195 256 312 356
#     4  10  20  34  56  85 118 160 205 246 300 372
#     4   9  19  33  54  82 117 158 196 243 303 361
#     4  10  19  33  55  81 116 158 198 243 299 360
#     4  10  20  35  60  91 117 149 203 262 305 351
#
# _framework density 26.011572000000001
#
# number of rings (size 3 to 8) (size 9 to 14) (size 15 to 20)
#    0.000    2.400    0.000    2.400    0.000    6.000 
#    0.000    1.000    0.000   44.400    0.000    0.000 
#    0.000    0.000    0.000    0.000    0.000    1.200 
#
# Total GULP energy -111528.072314 kJ/mol
# GULP energy per Si atom -5576.403616 kJ/mol
# Density = 2.595237 g / cm^3
# Si number density = 26.011572 Si / 1000 Ang^3
#
#
#
# Elastic Constant Matrix: (Units=GPa)
#
#
# Indices 1 2 3 4 5 6 
#
# 1 85.5906 4.4086 51.0644 0.0000 -7.3158 0.0000
# 2 4.4086 61.6866 30.1954 0.0000 -19.3586 0.0000
# 3 51.0644 30.1954 159.2298 0.0001 -46.3211 0.0000
# 4 0.0000 0.0000 0.0001 72.7529 0.0000 7.1394
# 5 -7.3158 -19.3586 -46.3211 0.0000 72.1632 0.0000
# 6 0.0000 0.0000 0.0000 7.1394 0.0000 32.7552
#
#
#
# Elastic Compliance Matrix: (Units=1/GPa)
#
#
# Indices 1 2 3 4 5 6 
#
# 1 0.014714 0.001066 -0.005415 0.000000 -0.001698 0.000000
# 2 0.001066 0.018577 -0.002931 0.000000 0.003210 0.000000
# 3 -0.005415 -0.002931 0.010063 0.000000 0.005124 0.000000
# 4 0.000000 0.000000 0.000000 0.014046 0.000000 -0.003061
# 5 -0.001698 0.003210 0.005124 0.000000 0.017836 0.000000
# 6 0.000000 0.000000 0.000000 -0.003061 0.000000 0.031197
#
#
# Mechanical properties :
#
#
# Convention : Reuss Voigt Hill
#
# Bulk Modulus (GPa) = 34.72832 53.09377 43.91104
# Shear Modulus (GPa) = 38.28778 50.25683 44.27231
#
# Velocity S-wave (km/s) = 3.84076 4.40033 4.13003
# Velocity P-wave (km/s) = 5.74880 6.80243 6.29769
#
# Compressibility (1/GPa) = 0.02879494
#
# Stress axis : x y z
#
# Youngs Moduli (GPa) = 67.96222 53.83039 99.37133
#
# Poissons Ratio (x) = -0.05739 0.53809
# Poissons Ratio (y) = -0.07245 0.29124
# Poissons Ratio (z) = 0.36801 0.15777
#
# Static dielectric constant tensor:
#      x y z
#    x 2.152660 0.000000 -0.066640 
#    y 0.000000 2.100820 0.000000 
#    z -0.066640 0.000000 2.276390 
# 
# From -- ./inp_files/158446.got.cif
#   From: 2010.05.17/outbox.cif.g08.bks.cpg/sg12_80_cif.got.tgz:158446.got - 2010.06.03 13:09:07.
