data_PCOD9183058
_publ_section_title
;
Structure prediction by ZEFSAII (Michael W. Deem and Ramdas Pophale) SiO2 
 PCOD9183058
Probable space group: C 2/M
;
_chemical_formula_sum "Si O2"
_cell_formula_units_Z 64
_cell_length_a 22.303050
_cell_length_b 7.377558
_cell_length_c 15.507400
_cell_angle_alpha 90.000000
_cell_angle_beta 69.607540
_cell_angle_gamma 90.000000
_cell_volume 2391.703847
_symmetry_space_group_name_H-M "C 2/M"
_symmetry_group_IT_number 12
_symmetry_cell_setting 'monoclinic'
loop_
_space_group_symop_operation_xyz
x,y,z
-x,y,-z
-x,-y,-z
x,-y,z
1/2+x,1/2+y,z
1/2-x,1/2+y,-z
1/2-x,1/2-y,-z
1/2+x,1/2-y,z
loop_
_atom_site_type_symbol
_atom_site_label
_atom_site_fract_x
_atom_site_fract_y
_atom_site_fract_z
Si Si1 0.876577 0.282353 0.364046
Si Si2 0.437243 0.715650 0.698874
Si Si3 0.915560 0.291303 0.984411
Si Si4 0.025421 0.293422 0.813767
Si Si5 0.178435 0.784914 0.123520
Si Si6 0.196036 0.721679 0.851922
Si Si7 0.251891 0.279386 0.637534
Si Si8 0.603991 0.284346 0.457730
O O1 0.875682 0.500000 0.356887
O O2 0.803207 0.218969 0.401296
O O3 0.912966 0.240463 0.434140
O O4 0.912118 0.210239 0.261226
O O5 0.451430 0.500000 0.695430
O O6 0.479892 0.801788 0.751739
O O7 0.364282 0.740182 0.768935
O O8 0.438761 0.783673 0.600048
O O9 0.930531 0.500000 0.994940
O O10 0.980523 0.211331 0.910898
O O11 0.863099 0.291889 0.933566
O O12 0.874632 0.215467 0.084480
O O13 0.041175 0.500000 0.830924
O O14 0.249672 0.718281 0.106764
O O15 0.181490 0.000000 0.107161
O O16 0.194211 0.500000 0.854928
O O17 0.223295 0.770570 0.745200
O O18 0.255246 0.500000 0.633564
O O19 0.323460 0.212262 0.587374
O O20 0.605646 0.500000 0.442425
#
# Coordination Sequence:
#
# PCOD9183058 Si02
#       8
#     8   8   8   8   8   8   8   8
#     4  10  21  35  51  69  94 131 166 194 235 286
#     4   9  17  30  50  74  96 123 157 197 240 284
#     4   9  17  28  45  69  97 127 157 189 228 276
#     4   9  19  34  47  67 102 134 159 191 231 279
#     4   9  15  26  45  69  97 124 152 188 235 286
#     4   9  15  26  47  72  95 122 155 192 236 281
#     4   9  17  32  52  73  97 124 156 199 244 283
#     4  10  19  33  54  76  96 117 155 206 248 284
#
# _framework density 26.759166
#
# number of rings (size 3 to 8) (size 9 to 14) (size 15 to 20)
#    0.000    2.750    1.250    0.750    0.000    1.500 
#    0.000    3.125    0.000    6.000    0.000    0.000 
#    0.000    5.000    0.000    0.000    0.000    0.000 
#
# Total GULP energy -178934.908849 kJ/mol
# GULP energy per Si atom -5591.715902 kJ/mol
# Density = 2.669826 g / cm^3
# Si number density = 26.759166 Si / 1000 Ang^3
#
#
#
# Elastic Constant Matrix: (Units=GPa)
#
#
# Indices 1 2 3 4 5 6 
#
# 1 106.7098 2.2520 31.4273 0.0000 -0.1067 0.0000
# 2 2.2520 95.5489 2.0114 0.0000 -0.2559 0.0000
# 3 31.4273 2.0114 152.4705 0.0000 3.9151 0.0000
# 4 0.0000 0.0000 0.0000 -2.5593 0.0000 -5.6781
# 5 -0.1067 -0.2559 3.9151 0.0000 55.6587 0.0000
# 6 0.0000 0.0000 0.0000 -5.6781 0.0000 -5.3942
#
#
#
# Elastic Compliance Matrix: (Units=1/GPa)
#
#
# Indices 1 2 3 4 5 6 
#
# 1 0.009982 -0.000191 -0.002059 0.000000 0.000163 0.000000
# 2 -0.000191 0.010473 -0.000100 0.000000 0.000055 0.000000
# 3 -0.002059 -0.000100 0.006997 0.000000 -0.000497 0.000000
# 4 0.000000 0.000000 0.000000 0.292606 0.000000 -0.308005
# 5 0.000163 0.000055 -0.000497 0.000000 0.018002 0.000000
# 6 0.000000 0.000000 0.000000 -0.308005 0.000000 0.138830
#
#
# Mechanical properties :
#
#
# Convention : Reuss Voigt Hill
#
# Bulk Modulus (GPa) = 43.95564 47.34562 45.65063
# Shear Modulus (GPa) = 10.22131 30.81027 20.51579
#
# Velocity S-wave (km/s) = 1.95654 3.39690 2.77191
# Velocity P-wave (km/s) = 4.64393 5.75472 5.22891
#
# Compressibility (1/GPa) = 0.02275021
#
# Stress axis : x y z
#
# Youngs Moduli (GPa) = 100.18186 95.48716 142.91541
#
# Poissons Ratio (x) = 0.01828 0.29428
# Poissons Ratio (y) = 0.01918 0.01431
# Poissons Ratio (z) = 0.20629 0.00956
#
# Static dielectric constant tensor:
#      x y z
#    x 2.101400 0.000000 -0.009200 
#    y 0.000000 1.967090 0.000000 
#    z -0.009200 0.000000 2.109100 
# 
# From -- ./inp_files/232460.got.cif
#   From: 2010.05.17/outbox.cif.g08.bks.cpg/sg12_117_cif.got.tgz:232460.got - 2010.06.03 13:09:07.
