data_PCOD9183736
_publ_section_title
;
Structure prediction by ZEFSAII (Michael W. Deem and Ramdas Pophale) SiO2 
 PCOD9183736
Probable space group: C 2/M
;
_chemical_formula_sum "Si O2"
_cell_formula_units_Z 56
_cell_length_a 5.540105
_cell_length_b 26.963099
_cell_length_c 16.102617
_cell_angle_alpha 90.000000
_cell_angle_beta 76.765729
_cell_angle_gamma 90.000000
_cell_volume 2341.501334
_symmetry_space_group_name_H-M "C 2/M"
_symmetry_group_IT_number 12
_symmetry_cell_setting 'monoclinic'
loop_
_space_group_symop_operation_xyz
x,y,z
-x,y,-z
-x,-y,-z
x,-y,z
1/2+x,1/2+y,z
1/2-x,1/2+y,-z
1/2-x,1/2-y,-z
1/2+x,1/2-y,z
loop_
_atom_site_type_symbol
_atom_site_label
_atom_site_fract_x
_atom_site_fract_y
_atom_site_fract_z
Si Si1 0.026647 0.237594 0.375407
Si Si2 0.967985 0.444754 0.245292
Si Si3 0.216772 0.943537 0.552415
Si Si4 0.243079 0.555325 0.925050
Si Si5 0.629503 0.773891 0.178125
Si Si6 0.614867 0.625059 0.836347
Si Si7 0.577458 0.629853 0.324634
O O1 0.233699 0.263751 0.414036
O O2 0.058862 0.263178 0.280859
O O3 0.109057 0.180489 0.369793
O O4 0.966899 0.500000 0.280229
O O5 0.838735 0.445708 0.164943
O O6 0.811107 0.406332 0.311120
O O7 0.236645 0.423163 0.206464
O O8 0.500000 0.938752 0.500000
O O9 0.000000 0.937617 0.500000
O O10 0.152536 0.901856 0.624286
O O11 0.186648 0.000000 0.587004
O O12 0.346967 0.500000 0.934678
O O13 0.426618 0.601809 0.916857
O O14 0.000000 0.561617 0.000000
O O15 0.391850 0.754720 0.145903
O O16 0.693997 0.831481 0.156319
O O17 0.468030 0.645143 0.767533
#
# Coordination Sequence:
#
# PCOD9183736 Si02
#       7
#     8   8   8   8   8   8   8
#     4  10  19  33  55  88 117 152 192 244 300 360
#     4  10  21  34  55  90 119 147 198 255 302 352
#     4  10  24  44  62  85 120 166 206 240 297 368
#     4   9  20  38  55  80 122 162 197 242 301 368
#     4  10  19  34  55  86 119 153 191 246 299 360
#     4  11  21  33  60  90 116 153 203 252 304 357
#     4  11  22  36  62  87 118 154 201 251 302 353
#
# _framework density 23.916277999999998
#
# number of rings (size 3 to 8) (size 9 to 14) (size 15 to 20)
#    0.000    1.857    2.857    2.571    4.000    2.286 
#    0.000    2.143    0.000    3.429    0.000    0.000 
#    0.000    0.000    0.000    0.000    0.000    0.000 
#
# Total GULP energy -156504.558372 kJ/mol
# GULP energy per Si atom -5589.448513 kJ/mol
# Density = 2.386184 g / cm^3
# Si number density = 23.916278 Si / 1000 Ang^3
#
#
#
# Elastic Constant Matrix: (Units=GPa)
#
#
# Indices 1 2 3 4 5 6 
#
# 1 121.5183 17.4896 12.1154 0.0000 -11.5558 0.0000
# 2 17.4896 97.3293 19.1699 0.0000 -18.5170 0.0000
# 3 12.1154 19.1699 39.9738 0.0000 -1.0507 0.0000
# 4 0.0000 0.0000 0.0000 -1.4484 0.0000 15.0369
# 5 -11.5558 -18.5170 -1.0507 0.0000 33.5344 0.0000
# 6 0.0000 0.0000 0.0000 15.0369 0.0000 -29.3331
#
#
#
# Elastic Compliance Matrix: (Units=1/GPa)
#
#
# Indices 1 2 3 4 5 6 
#
# 1 0.008797 -0.000632 -0.002294 0.000000 0.002610 0.000000
# 2 -0.000632 0.012792 -0.005768 0.000000 0.006665 0.000000
# 3 -0.002294 -0.005768 0.028397 0.000000 -0.003086 0.000000
# 4 0.000000 0.000000 0.000000 0.159747 0.000000 0.081891
# 5 0.002610 0.006665 -0.003086 0.000000 0.034303 0.000000
# 6 0.000000 0.000000 0.000000 0.081891 0.000000 0.007888
#
#
# Mechanical properties :
#
#
# Convention : Reuss Voigt Hill
#
# Bulk Modulus (GPa) = 30.67772 39.59681 35.13727
# Shear Modulus (GPa) = 17.84573 14.55369 16.19971
#
# Velocity S-wave (km/s) = 2.73458 2.46951 2.60542
# Velocity P-wave (km/s) = 4.77761 4.97229 4.87592
#
# Compressibility (1/GPa) = 0.03259694
#
# Stress axis : x y z
#
# Youngs Moduli (GPa) = 113.67236 78.17364 35.21537
#
# Poissons Ratio (x) = 0.04943 0.08080
# Poissons Ratio (y) = 0.07187 0.20311
# Poissons Ratio (z) = 0.26082 0.45089
#
# Static dielectric constant tensor:
#      x y z
#    x 1.958860 0.000000 -0.014350 
#    y 0.000000 1.885570 0.000000 
#    z -0.014350 0.000000 1.947620 
# 
# From -- ./inp_files/253583.got.cif
#   From: 2010.05.17/outbox.cif.g08.bks.cpg/sg12_127_cif.got.tgz:253583.got - 2010.06.03 13:09:07.
