data_PCOD9183879
_publ_section_title
;
Structure prediction by ZEFSAII (Michael W. Deem and Ramdas Pophale) SiO2 
 PCOD9183879
Probable space group: C 2/M
;
_chemical_formula_sum "Si O2"
_cell_formula_units_Z 64
_cell_length_a 9.541385
_cell_length_b 20.812349
_cell_length_c 21.058732
_cell_angle_alpha 90.000000
_cell_angle_beta 52.462421
_cell_angle_gamma 90.000000
_cell_volume 3315.985903
_symmetry_space_group_name_H-M "C 2/M"
_symmetry_group_IT_number 12
_symmetry_cell_setting 'monoclinic'
loop_
_space_group_symop_operation_xyz
x,y,z
-x,y,-z
-x,-y,-z
x,-y,z
1/2+x,1/2+y,z
1/2-x,1/2+y,-z
1/2-x,1/2-y,-z
1/2+x,1/2-y,z
loop_
_atom_site_type_symbol
_atom_site_label
_atom_site_fract_x
_atom_site_fract_y
_atom_site_fract_z
Si Si1 0.992976 0.573211 0.308363
Si Si2 0.474104 0.797124 0.079140
Si Si3 0.440592 0.171298 0.812043
Si Si4 0.916285 0.925842 0.214828
Si Si5 0.034299 0.787596 0.397269
Si Si6 0.530478 0.651072 0.919512
Si Si7 0.216420 0.671260 0.557216
Si Si8 0.425035 0.694600 0.762261
O O1 0.943876 0.500000 0.311657
O O2 0.965094 0.615515 0.252764
O O3 0.202391 0.575598 0.267195
O O4 0.875873 0.606676 0.394396
O O5 0.561499 0.835739 0.111958
O O6 0.546894 0.723389 0.064571
O O7 0.268431 0.804629 0.153154
O O8 0.500000 0.817765 0.000000
O O9 0.236045 0.166345 0.850459
O O10 0.509925 0.241165 0.770361
O O11 0.008282 0.901054 0.123674
O O12 0.974436 0.870572 0.247741
O O13 0.964981 0.000000 0.215199
O O14 0.185847 0.796261 0.408318
O O15 0.088784 0.798164 0.309585
O O16 0.937670 0.718268 0.425247
O O17 0.873347 0.834496 0.462949
O O18 0.500000 0.628907 0.000000
#
# Coordination Sequence:
#
# PCOD9183879 Si02
#       8
#     8   8   8   8   8   8   8   8
#     4  10  21  38  61  85 119 158 197 243 298 359
#     4  10  21  33  54  86 115 149 193 251 300 347
#     4  10  19  33  56  83 111 145 198 238 289 351
#     4  10  22  38  55  84 118 155 198 243 298 357
#     4  10  22  36  62  97 122 151 199 243 296 341
#     4   9  19  31  54  81 110 146 190 245 294 344
#     4  10  21  39  61  95 124 154 192 247 292 350
#     4  11  21  34  60  84 117 155 194 246 294 349
#
# _framework density 19.300445
#
# number of rings (size 3 to 8) (size 9 to 14) (size 15 to 20)
#    0.000    2.000    2.500    0.750    3.500    1.750 
#    0.000    4.375    0.000    2.250    0.000    0.000 
#    0.000    0.000    0.000    0.000    0.000    0.000 
#
# Total GULP energy -178409.699568 kJ/mol
# GULP energy per Si atom -5575.303111 kJ/mol
# Density = 1.925652 g / cm^3
# Si number density = 19.300445 Si / 1000 Ang^3
#
#
#
# Elastic Constant Matrix: (Units=GPa)
#
#
# Indices 1 2 3 4 5 6 
#
# 1 42.3403 29.8227 8.2413 0.0000 7.3445 0.0000
# 2 29.8227 109.8677 21.4987 0.0000 -0.0549 0.0000
# 3 8.2413 21.4987 120.1770 0.0000 9.3199 0.0000
# 4 0.0000 0.0000 0.0000 23.1996 0.0000 1.6434
# 5 7.3445 -0.0549 9.3199 0.0000 24.2846 0.0000
# 6 0.0000 0.0000 0.0000 1.6434 0.0000 21.2458
#
#
#
# Elastic Compliance Matrix: (Units=1/GPa)
#
#
# Indices 1 2 3 4 5 6 
#
# 1 0.031237 -0.008507 0.000117 0.000000 -0.009511 0.000000
# 2 -0.008507 0.011760 -0.001775 0.000000 0.003280 0.000000
# 3 0.000117 -0.001775 0.008898 0.000000 -0.003455 0.000000
# 4 0.000000 0.000000 0.000000 0.043342 0.000000 -0.003353
# 5 -0.009511 0.003280 -0.003455 0.000000 0.045388 0.000000
# 6 0.000000 0.000000 0.000000 -0.003353 0.000000 0.047327
#
#
# Mechanical properties :
#
#
# Convention : Reuss Voigt Hill
#
# Bulk Modulus (GPa) = 31.67889 43.50117 37.59003
# Shear Modulus (GPa) = 22.85159 27.93416 25.39287
#
# Velocity S-wave (km/s) = 3.44465 3.80851 3.63114
# Velocity P-wave (km/s) = 5.68067 6.47515 6.09088
#
# Compressibility (1/GPa) = 0.03156676
#
# Stress axis : x y z
#
# Youngs Moduli (GPa) = 32.01335 85.03495 112.37963
#
# Poissons Ratio (x) = 0.72337 -0.01318
# Poissons Ratio (y) = 0.27233 0.19945
# Poissons Ratio (z) = -0.00375 0.15092
#
# Static dielectric constant tensor:
#      x y z
#    x 1.744330 0.000000 -0.021180 
#    y 0.000000 1.666730 0.000000 
#    z -0.021180 0.000000 1.704380 
# 
# From -- ./inp_files/306201.got.cif
#   From: 2010.05.17/outbox.cif.g08.bks.cpg/sg12_154_cif.got.tgz:306201.got - 2010.06.03 13:09:07.
