data_PCOD9183882
_publ_section_title
;
Structure prediction by ZEFSAII (Michael W. Deem and Ramdas Pophale) SiO2 
 PCOD9183882
Probable space group: C 2/M
;
_chemical_formula_sum "Si O2"
_cell_formula_units_Z 48
_cell_length_a 16.192236
_cell_length_b 7.421639
_cell_length_c 28.125244
_cell_angle_alpha 90.000000
_cell_angle_beta 36.564936
_cell_angle_gamma 90.000000
_cell_volume 2013.515319
_symmetry_space_group_name_H-M "C 2/M"
_symmetry_group_IT_number 12
_symmetry_cell_setting 'monoclinic'
loop_
_space_group_symop_operation_xyz
x,y,z
-x,y,-z
-x,-y,-z
x,-y,z
1/2+x,1/2+y,z
1/2-x,1/2+y,-z
1/2-x,1/2-y,-z
1/2+x,1/2-y,z
loop_
_atom_site_type_symbol
_atom_site_label
_atom_site_fract_x
_atom_site_fract_y
_atom_site_fract_z
Si Si1 0.593938 0.786341 0.587904
Si Si2 0.691371 0.719877 0.153224
Si Si3 0.168670 0.718625 0.813170
Si Si4 0.867597 0.285534 0.984141
Si Si5 0.845221 0.703861 0.640806
Si Si6 0.394945 0.710516 0.307152
O O1 0.750000 0.750000 0.500000
O O2 0.482313 0.712944 0.601423
O O3 0.579778 0.718888 0.648269
O O4 0.570033 0.000000 0.601242
O O5 0.688893 0.500000 0.151941
O O6 0.738617 0.767077 0.184212
O O7 0.533981 0.784448 0.217902
O O8 0.804700 0.783058 0.062821
O O9 0.169290 0.500000 0.807997
O O10 0.235665 0.796518 0.734959
O O11 0.013984 0.781926 0.897143
O O12 0.887194 0.500000 0.981331
O O13 0.750000 0.250000 0.000000
O O14 0.884749 0.500000 0.607883
O O15 0.753166 0.787638 0.641005
O O16 0.387410 0.500000 0.297724
#
# Coordination Sequence:
#
# PCOD9183882 Si02
#       6
#     8   8   8   8   8   8
#     4  11  24  42  63  89 120 151 187 236 291 348
#     4   9  17  32  55  80 109 149 194 236 281 337
#     4  10  19  33  56  83 111 151 200 244 284 338
#     4  10  20  33  50  77 113 151 197 244 286 334
#     4  10  22  39  61  89 120 153 190 239 294 344
#     4  10  20  38  63  87 115 155 196 234 286 348
#
# _framework density 23.838905
#
# number of rings (size 3 to 8) (size 9 to 14) (size 15 to 20)
#    0.000    2.000    1.667    2.000    0.000    6.000 
#    0.000    5.000    0.000    2.000    0.000    0.000 
#    0.000    0.000    0.000    0.000    0.000    0.000 
#
# Total GULP energy -134115.712252 kJ/mol
# GULP energy per Si atom -5588.154677 kJ/mol
# Density = 2.378465 g / cm^3
# Si number density = 23.838905 Si / 1000 Ang^3
#
#
#
# Elastic Constant Matrix: (Units=GPa)
#
#
# Indices 1 2 3 4 5 6 
#
# 1 115.2049 -2.2022 15.8051 -0.0005 -52.9174 -0.0034
# 2 -2.2022 84.6528 -10.4311 -0.0015 -3.3793 -0.0065
# 3 15.8051 -10.4311 95.6428 0.0004 -37.2243 0.0003
# 4 -0.0005 -0.0015 0.0004 14.1663 0.0006 5.0330
# 5 -52.9174 -3.3793 -37.2243 0.0006 44.3737 -0.0001
# 6 -0.0034 -0.0065 0.0003 5.0330 -0.0001 16.4775
#
#
#
# Elastic Compliance Matrix: (Units=1/GPa)
#
#
# Indices 1 2 3 4 5 6 
#
# 1 0.026586 0.003945 0.012611 -0.000004 0.042584 0.000008
# 2 0.003945 0.012831 0.004393 -0.000001 0.009368 0.000006
# 3 0.012611 0.004393 0.022025 -0.000003 0.033850 0.000005
# 4 -0.000004 -0.000001 -0.000003 0.079183 -0.000008 -0.024186
# 5 0.042584 0.009368 0.033850 -0.000008 0.102428 0.000015
# 6 0.000008 0.000006 0.000005 -0.024186 0.000015 0.068077
#
#
# Mechanical properties :
#
#
# Convention : Reuss Voigt Hill
#
# Bulk Modulus (GPa) = 9.67671 33.53823 21.60747
# Shear Modulus (GPa) = 16.46482 34.49209 25.47845
#
# Velocity S-wave (km/s) = 2.63091 3.80792 3.27276
# Velocity P-wave (km/s) = 3.64650 5.78212 4.83373
#
# Compressibility (1/GPa) = 0.10334086
#
# Stress axis : x y z
#
# Youngs Moduli (GPa) = 37.61422 77.93675 45.40249
#
# Poissons Ratio (x) = -0.30750 -0.57256
# Poissons Ratio (y) = -0.14841 -0.19947
# Poissons Ratio (z) = -0.47434 -0.34240
#
# Static dielectric constant tensor:
#      x y z
#    x 1.919830 -0.000010 -0.036220 
#    y -0.000010 2.100770 0.000010 
#    z -0.036220 0.000010 1.874440 
# 
# From -- ./inp_files/212927.got.cif
#   From: 2010.05.17/outbox.cif.g08.bks.cpg/sg12_107_cif.got.tgz:212927.got - 2010.06.03 13:09:07.
