data_PCOD9183321
_publ_section_title
;
Structure prediction by ZEFSAII (Michael W. Deem and Ramdas Pophale) SiO2 
 PCOD9183321
Probable space group: C 2/M
;
_chemical_formula_sum "Si O2"
_cell_formula_units_Z 56
_cell_length_a 14.004038
_cell_length_b 18.636331
_cell_length_c 20.716195
_cell_angle_alpha 90.000000
_cell_angle_beta 147.094563
_cell_angle_gamma 90.000000
_cell_volume 2937.153991
_symmetry_space_group_name_H-M "C 2/M"
_symmetry_group_IT_number 12
_symmetry_cell_setting 'monoclinic'
loop_
_space_group_symop_operation_xyz
x,y,z
-x,y,-z
-x,-y,-z
x,-y,z
1/2+x,1/2+y,z
1/2-x,1/2+y,-z
1/2-x,1/2-y,-z
1/2+x,1/2-y,z
loop_
_atom_site_type_symbol
_atom_site_label
_atom_site_fract_x
_atom_site_fract_y
_atom_site_fract_z
Si Si1 0.360413 0.273673 0.302120
Si Si2 0.029964 0.416052 0.279745
Si Si3 0.346174 0.419489 0.359800
Si Si4 0.265098 0.415245 0.674476
Si Si5 0.515618 0.702587 0.149934
Si Si6 0.724235 0.213783 0.884790
Si Si7 0.919464 0.359659 0.552322
O O1 0.379603 0.356854 0.327861
O O2 0.200569 0.244106 0.254856
O O3 0.297365 0.254529 0.194765
O O4 0.529965 0.224436 0.413905
O O5 0.984571 0.500000 0.259338
O O6 0.166932 0.408007 0.298666
O O7 0.114194 0.390296 0.395580
O O8 0.864686 0.364131 0.174677
O O9 0.500000 0.416339 0.500000
O O10 0.343382 0.500000 0.330426
O O11 0.279296 0.500000 0.674422
O O12 0.433385 0.378040 0.801834
O O13 0.226058 0.377788 0.583335
O O14 0.096442 0.397814 0.624415
O O15 0.391407 0.740599 0.130747
O O16 0.415586 0.706619 0.025000
#
# Coordination Sequence:
#
# PCOD9183321 Si02
#       7
#     8   8   8   8   8   8   8
#     4  10  20  36  59  80 113 147 186 230 282 331
#     4  10  19  35  58  82 111 147 187 233 281 332
#     4  10  22  37  56  83 116 148 184 234 283 331
#     4  10  19  33  54  82 118 150 178 227 287 339
#     4  10  21  36  54  80 112 144 192 235 277 327
#     4  10  21  37  56  82 107 149 193 235 274 328
#     4   9  19  32  56  86 114 146 180 224 280 349
#
# _framework density 19.066075999999999
#
# number of rings (size 3 to 8) (size 9 to 14) (size 15 to 20)
#    0.000    2.143    1.429    2.143    4.000    1.714 
#    0.000    5.000    0.000    7.714    0.000    0.000 
#    0.000    0.000    0.000    0.000    0.000    0.000 
#
# Total GULP energy -156293.003501 kJ/mol
# GULP energy per Si atom -5581.892982 kJ/mol
# Density = 1.902268 g / cm^3
# Si number density = 19.066076 Si / 1000 Ang^3
#
#
#
# Elastic Constant Matrix: (Units=GPa)
#
#
# Indices 1 2 3 4 5 6 
#
# 1 34.6201 42.0929 9.8488 -0.0002 -12.7015 -0.0001
# 2 42.0929 170.3343 52.1442 0.0000 -20.7176 -0.0002
# 3 9.8488 52.1442 60.7117 -0.0010 -13.1583 -0.0001
# 4 -0.0002 0.0000 -0.0010 17.8216 -0.0007 -4.4493
# 5 -12.7015 -20.7176 -13.1583 -0.0007 18.8118 -0.0001
# 6 -0.0001 -0.0002 -0.0001 -4.4493 -0.0001 26.1139
#
#
#
# Elastic Compliance Matrix: (Units=1/GPa)
#
#
# Indices 1 2 3 4 5 6 
#
# 1 0.050583 -0.011550 0.007496 0.000002 0.026676 0.000001
# 2 -0.011550 0.010971 -0.007804 -0.000001 -0.001174 0.000000
# 3 0.007496 -0.007804 0.024979 0.000002 0.013939 0.000000
# 4 0.000002 -0.000001 0.000002 0.058605 0.000004 0.009985
# 5 0.026676 -0.001174 0.013939 0.000004 0.079626 0.000001
# 6 0.000001 0.000000 0.000000 0.009985 0.000001 0.039995
#
#
# Mechanical properties :
#
#
# Convention : Reuss Voigt Hill
#
# Bulk Modulus (GPa) = 15.91926 52.64865 34.28395
# Shear Modulus (GPa) = 16.15965 23.32147 19.74056
#
# Velocity S-wave (km/s) = 2.91445 3.50121 3.22122
# Velocity P-wave (km/s) = 4.43768 6.63463 5.64408
#
# Compressibility (1/GPa) = 0.06281699
#
# Stress axis : x y z
#
# Youngs Moduli (GPa) = 19.76964 91.14755 40.03391
#
# Poissons Ratio (x) = 1.05277 -0.30010
# Poissons Ratio (y) = 0.22834 0.31242
# Poissons Ratio (z) = -0.14820 0.71130
#
# Static dielectric constant tensor:
#      x y z
#    x 1.679990 0.000000 0.006910 
#    y 0.000000 1.658380 0.000000 
#    z 0.006910 0.000000 1.656860 
# 
# From -- ./inp_files/145492.got.cif
#   From: 2010.05.17/outbox.cif.g08.bks.cpg/sg12_73_cif.got.tgz:145492.got - 2010.06.03 13:09:07.
