data_PCOD9183076
_publ_section_title
;
Structure prediction by ZEFSAII (Michael W. Deem and Ramdas Pophale) SiO2 
 PCOD9183076
Probable space group: C 2/M
;
_chemical_formula_sum "Si O2"
_cell_formula_units_Z 56
_cell_length_a 17.369805
_cell_length_b 15.183378
_cell_length_c 19.211915
_cell_angle_alpha 90.000000
_cell_angle_beta 38.162169
_cell_angle_gamma 90.000000
_cell_volume 3130.723646
_symmetry_space_group_name_H-M "C 2/M"
_symmetry_group_IT_number 12
_symmetry_cell_setting 'monoclinic'
loop_
_space_group_symop_operation_xyz
x,y,z
-x,y,-z
-x,-y,-z
x,-y,z
1/2+x,1/2+y,z
1/2-x,1/2+y,-z
1/2-x,1/2-y,-z
1/2+x,1/2-y,z
loop_
_atom_site_type_symbol
_atom_site_label
_atom_site_fract_x
_atom_site_fract_y
_atom_site_fract_z
Si Si1 0.816791 0.102106 0.493913
Si Si2 0.239345 0.215645 0.335609
Si Si3 0.727577 0.599387 0.636105
Si Si4 0.508702 0.218536 0.073321
Si Si5 0.951870 0.901869 0.897900
Si Si6 0.236864 0.602598 0.936490
Si Si7 0.890805 0.896656 0.687171
O O1 0.759669 0.167258 0.590877
O O2 0.770657 0.115287 0.448009
O O3 0.966303 0.114012 0.391241
O O4 0.791483 0.000000 0.530779
O O5 0.210380 0.318746 0.368485
O O6 0.375961 0.208016 0.204441
O O7 0.145065 0.165276 0.351492
O O8 0.774677 0.500000 0.616836
O O9 0.582362 0.600199 0.762987
O O10 0.544806 0.321443 0.051436
O O11 0.500000 0.188557 0.000000
O O12 0.617727 0.163342 0.031969
O O13 0.840208 0.887746 0.922820
O O14 0.939287 0.000000 0.937446
O O15 0.199628 0.500000 0.961022
O O16 0.302831 0.623075 0.815769
O O17 0.873509 0.000000 0.680391
#
# Coordination Sequence:
#
# PCOD9183076 Si02
#       7
#     8   8   8   8   8   8   8
#     4  10  19  34  56  79 102 129 170 215 253 299
#     4  11  21  32  50  80 109 133 165 206 262 305
#     4   9  18  34  55  77 101 133 171 212 253 297
#     4  11  22  34  49  78 109 136 166 206 258 305
#     4   9  18  35  57  75  96 135 179 213 245 289
#     4  10  19  34  54  73 101 140 172 202 251 308
#     4  10  19  33  54  77 102 133 169 210 254 302
#
# _framework density 17.887239999999998
#
# number of rings (size 3 to 8) (size 9 to 14) (size 15 to 20)
#    0.000    2.000    2.857    1.714    0.000    2.857 
#    0.000    0.000    0.000    1.714    0.000    0.000 
#    0.000    0.000    0.000    0.000    0.000    0.000 
#
# Total GULP energy -156223.412034 kJ/mol
# GULP energy per Si atom -5579.407573 kJ/mol
# Density = 1.784653 g / cm^3
# Si number density = 17.887240 Si / 1000 Ang^3
#
#
#
# Elastic Constant Matrix: (Units=GPa)
#
#
# Indices 1 2 3 4 5 6 
#
# 1 32.3487 21.6347 -1.6508 0.0000 0.7027 0.0000
# 2 21.6347 65.0602 24.5757 0.0000 -0.1509 0.0000
# 3 -1.6508 24.5757 42.5304 0.0000 2.7435 0.0000
# 4 0.0000 0.0000 0.0000 24.8427 0.0000 4.5026
# 5 0.7027 -0.1509 2.7435 0.0000 7.9298 0.0000
# 6 0.0000 0.0000 0.0000 4.5026 0.0000 24.2579
#
#
#
# Elastic Compliance Matrix: (Units=1/GPa)
#
#
# Indices 1 2 3 4 5 6 
#
# 1 0.045605 -0.020575 0.014263 0.000000 -0.009367 0.000000
# 2 -0.020575 0.029096 -0.018170 0.000000 0.008663 0.000000
# 3 0.014263 -0.018170 0.035461 0.000000 -0.013878 0.000000
# 4 0.000000 0.000000 0.000000 0.041655 0.000000 -0.007732
# 5 -0.009367 0.008663 -0.013878 0.000000 0.131902 0.000000
# 6 0.000000 0.000000 0.000000 -0.007732 0.000000 0.042659
#
#
# Mechanical properties :
#
#
# Convention : Reuss Voigt Hill
#
# Bulk Modulus (GPa) = 16.34030 25.45094 20.89562
# Shear Modulus (GPa) = 12.63459 17.76473 15.19966
#
# Velocity S-wave (km/s) = 2.66060 3.15485 2.91821
# Velocity P-wave (km/s) = 4.31201 5.24692 4.80227
#
# Compressibility (1/GPa) = 0.06119838
#
# Stress axis : x y z
#
# Youngs Moduli (GPa) = 21.92759 34.36933 28.20009
#
# Poissons Ratio (x) = 0.70713 -0.40222
# Poissons Ratio (y) = 0.45115 0.51240
# Poissons Ratio (z) = -0.31276 0.62449
#
# Static dielectric constant tensor:
#      x y z
#    x 1.586530 0.000000 0.004500 
#    y 0.000000 1.632770 0.000000 
#    z 0.004500 0.000000 1.592610 
# 
# From -- ./inp_files/156168.got.cif
#   From: 2010.05.17/outbox.cif.g08.bks.cpg/sg12_79_cif.got.tgz:156168.got - 2010.06.03 13:09:07.
