data_PCOD9183019
_publ_section_title
;
Structure prediction by ZEFSAII (Michael W. Deem and Ramdas Pophale) SiO2 
 PCOD9183019
Probable space group: C 2/M
;
_chemical_formula_sum "Si O2"
_cell_formula_units_Z 60
_cell_length_a 14.175734
_cell_length_b 17.056720
_cell_length_c 26.814549
_cell_angle_alpha 90.000000
_cell_angle_beta 28.804528
_cell_angle_gamma 90.000000
_cell_volume 3123.913737
_symmetry_space_group_name_H-M "C 2/M"
_symmetry_group_IT_number 12
_symmetry_cell_setting 'monoclinic'
loop_
_space_group_symop_operation_xyz
x,y,z
-x,y,-z
-x,-y,-z
x,-y,z
1/2+x,1/2+y,z
1/2-x,1/2+y,-z
1/2-x,1/2-y,-z
1/2+x,1/2-y,z
loop_
_atom_site_type_symbol
_atom_site_label
_atom_site_fract_x
_atom_site_fract_y
_atom_site_fract_z
Si Si1 0.689358 0.127756 0.381621
Si Si2 0.573326 0.755865 0.356951
Si Si3 0.500721 0.810503 0.844899
Si Si4 0.421621 0.593697 0.090997
Si Si5 0.826968 0.853210 0.931622
Si Si6 0.738552 0.779923 0.585128
Si Si7 0.485362 0.500000 0.798060
Si Si8 0.491498 0.907921 0.256634
O O1 0.500000 0.097566 0.500000
O O2 0.625421 0.159446 0.356718
O O3 0.752928 0.206014 0.381884
O O4 0.863663 0.067644 0.294347
O O5 0.433320 0.763859 0.374764
O O6 0.440634 0.715440 0.461232
O O7 0.771407 0.709481 0.254071
O O8 0.398661 0.728903 0.875012
O O9 0.473137 0.875108 0.815078
O O10 0.388896 0.839029 0.946117
O O11 0.455728 0.500000 0.080900
O O12 0.532681 0.634903 0.084685
O O13 0.189276 0.606725 0.196901
O O14 0.500000 0.616673 0.000000
O O15 0.854662 0.929406 0.885166
O O16 0.683780 0.858144 0.639341
O O17 0.456256 0.000000 0.272173
#
# Coordination Sequence:
#
# PCOD9183019 Si02
#       8
#     8   8   8   8   8   8   4   8
#     4  10  21  38  63  92 121 149 195 255 308 362
#     4  10  20  40  65  86 118 161 198 247 305 363
#     4  11  22  38  53  85 118 161 193 238 299 358
#     4  10  19  33  53  85 120 148 189 257 311 339
#     4  11  22  34  58  84 121 154 199 240 298 362
#     4  10  21  39  65  88 117 159 201 247 306 362
#     4  12  21  36  63  91 118 153 194 253 302 355
#     4  11  22  34  58  87 123 156 196 250 304 352
#
# _framework density 19.206675000000001
#
# number of rings (size 3 to 8) (size 9 to 14) (size 15 to 20)
#    0.000    1.467    4.667    1.000    0.933    0.000 
#    0.000    1.333    5.867    0.800    0.000    0.000 
#    0.000    0.000    0.000    0.000    0.000    0.000 
#
# Total GULP energy -167021.795545 kJ/mol
# GULP energy per Si atom -5567.393185 kJ/mol
# Density = 1.916296 g / cm^3
# Si number density = 19.206675 Si / 1000 Ang^3
#
#
#
# Elastic Constant Matrix: (Units=GPa)
#
#
# Indices 1 2 3 4 5 6 
#
# 1 47.4965 6.5883 10.9342 0.0018 -8.8294 0.0024
# 2 6.5883 115.9989 71.2282 -0.0014 -1.5518 0.0017
# 3 10.9342 71.2282 154.5701 -0.0141 -8.2184 -0.0011
# 4 0.0018 -0.0014 -0.0141 43.4925 -0.0003 2.3566
# 5 -8.8294 -1.5518 -8.2184 -0.0003 15.4391 0.0000
# 6 0.0024 0.0017 -0.0011 2.3566 0.0000 16.0800
#
#
#
# Elastic Compliance Matrix: (Units=1/GPa)
#
#
# Indices 1 2 3 4 5 6 
#
# 1 0.023756 -0.000797 -0.000613 -0.000001 0.013179 -0.000003
# 2 -0.000797 0.012098 -0.005638 -0.000001 -0.002241 -0.000001
# 3 -0.000613 -0.005638 0.009326 0.000003 0.004047 0.000001
# 4 -0.000001 -0.000001 0.000003 0.023177 0.000001 -0.003397
# 5 0.013179 -0.002241 0.004047 0.000001 0.074237 -0.000001
# 6 -0.000003 -0.000001 0.000001 -0.003397 -0.000001 0.062687
#
#
# Mechanical properties :
#
#
# Convention : Reuss Voigt Hill
#
# Bulk Modulus (GPa) = 32.16932 55.06299 43.61615
# Shear Modulus (GPa) = 21.76418 30.28998 26.02708
#
# Velocity S-wave (km/s) = 3.36989 3.97552 3.68517
# Velocity P-wave (km/s) = 5.65039 7.05719 6.39261
#
# Compressibility (1/GPa) = 0.03108552
#
# Stress axis : x y z
#
# Youngs Moduli (GPa) = 42.09522 82.65983 107.22743
#
# Poissons Ratio (x) = 0.06586 0.06568
# Poissons Ratio (y) = 0.03354 0.60451
# Poissons Ratio (z) = 0.02579 0.46600
#
# Static dielectric constant tensor:
#      x y z
#    x 1.678070 0.000000 0.014130 
#    y 0.000000 1.632490 0.000000 
#    z 0.014130 0.000000 1.721400 
# 
# From -- ./inp_files/361552.got.cif
#   From: 2010.05.17/outbox.cif.g08.bks.cpg/sg12_181_cif.got.tgz:361552.got - 2010.06.03 13:09:07.
