data_PCOD9183498
_publ_section_title
;
Structure prediction by ZEFSAII (Michael W. Deem and Ramdas Pophale) SiO2 
 PCOD9183498
Probable space group: C 2/M
;
_chemical_formula_sum "Si O2"
_cell_formula_units_Z 60
_cell_length_a 20.261758
_cell_length_b 11.617300
_cell_length_c 23.927373
_cell_angle_alpha 90.000000
_cell_angle_beta 26.423024
_cell_angle_gamma 90.000000
_cell_volume 2506.297136
_symmetry_space_group_name_H-M "C 2/M"
_symmetry_group_IT_number 12
_symmetry_cell_setting 'monoclinic'
loop_
_space_group_symop_operation_xyz
x,y,z
-x,y,-z
-x,-y,-z
x,-y,z
1/2+x,1/2+y,z
1/2-x,1/2+y,-z
1/2-x,1/2-y,-z
1/2+x,1/2-y,z
loop_
_atom_site_type_symbol
_atom_site_label
_atom_site_fract_x
_atom_site_fract_y
_atom_site_fract_z
Si Si1 0.636176 0.369864 0.659526
Si Si2 0.050965 0.638221 0.225556
Si Si3 0.836730 0.632767 0.973754
Si Si4 0.000000 0.193356 0.000000
Si Si5 0.901743 0.178590 0.621284
Si Si6 0.750314 0.374099 0.154839
Si Si7 0.895807 0.798139 0.193326
Si Si8 0.022797 0.371828 0.598654
O O1 0.582488 0.500000 0.682205
O O2 0.560342 0.245799 0.702389
O O3 0.635079 0.370658 0.728047
O O4 0.807255 0.361963 0.510570
O O5 0.001141 0.500000 0.258975
O O6 0.081613 0.650055 0.268272
O O7 0.181301 0.650274 0.079581
O O8 0.885549 0.500000 0.939505
O O9 0.970458 0.713164 0.891230
O O10 0.714729 0.640275 0.115686
O O11 0.865466 0.276763 0.084677
O O12 0.945169 0.136438 0.099156
O O13 0.874658 0.124270 0.702885
O O14 0.744988 0.218473 0.715061
O O15 0.000000 0.118664 0.500000
O O16 0.993672 0.289943 0.569715
O O17 0.823512 0.500000 0.103664
O O18 0.994905 0.500000 0.600782
#
# Coordination Sequence:
#
# PCOD9183498 Si02
#       8
#     8   8   8   4   8   8   8   8
#     4  10  19  33  55  80 108 142 178 222 276 323
#     4   9  18  35  59  84 105 133 182 234 271 312
#     4   8  15  31  57  80 100 133 181 231 274 319
#     4   8  15  28  51  72 100 140 184 228 260 314
#     4  11  21  33  47  71 109 145 179 214 254 321
#     4   9  17  30  49  74 103 140 181 222 269 316
#     4   9  17  30  49  76 105 139 179 219 266 314
#     4  10  21  36  54  74 102 142 183 218 260 324
#
# _framework density 23.939699999999998
#
# number of rings (size 3 to 8) (size 9 to 14) (size 15 to 20)
#    0.000    2.667    1.333    0.600    0.000    4.267 
#    0.000    2.333    0.000   10.400    0.000    0.000 
#    0.000    0.000    0.000    0.000    0.000    0.000 
#
# Total GULP energy -167052.781571 kJ/mol
# GULP energy per Si atom -5568.426052 kJ/mol
# Density = 2.388521 g / cm^3
# Si number density = 23.939700 Si / 1000 Ang^3
#
#
#
# Elastic Constant Matrix: (Units=GPa)
#
#
# Indices 1 2 3 4 5 6 
#
# 1 72.3825 50.3470 41.3283 0.0011 22.3307 -0.0011
# 2 50.3470 133.0637 32.6325 0.0041 3.9320 -0.0035
# 3 41.3283 32.6325 134.7322 0.0042 37.9487 -0.0052
# 4 0.0011 0.0041 0.0042 19.9010 -0.0030 10.2117
# 5 22.3307 3.9320 37.9487 -0.0030 53.8423 0.0030
# 6 -0.0011 -0.0035 -0.0052 10.2117 0.0030 -33.0499
#
#
#
# Elastic Compliance Matrix: (Units=1/GPa)
#
#
# Indices 1 2 3 4 5 6 
#
# 1 0.023184 -0.007753 -0.003350 0.000000 -0.006688 0.000000
# 2 -0.007753 0.010624 -0.001100 -0.000001 0.003215 -0.000001
# 3 -0.003350 -0.001100 0.010359 -0.000001 -0.005831 -0.000002
# 4 0.000000 -0.000001 -0.000001 0.043372 0.000003 0.013401
# 5 -0.006688 0.003215 -0.005831 0.000003 0.025222 0.000004
# 6 0.000000 -0.000001 -0.000002 0.013401 0.000004 -0.026117
#
#
# Mechanical properties :
#
#
# Convention : Reuss Voigt Hill
#
# Bulk Modulus (GPa) = 50.60863 65.42156 58.01509
# Shear Modulus (GPa) = 42.50337 22.53004 32.51671
#
# Velocity S-wave (km/s) = 4.21816 3.07109 3.68948
# Velocity P-wave (km/s) = 6.70148 6.32158 6.51430
#
# Compressibility (1/GPa) = 0.01975948
#
# Stress axis : x y z
#
# Youngs Moduli (GPa) = 43.13240 94.13039 96.53732
#
# Poissons Ratio (x) = 0.72979 0.32341
# Poissons Ratio (y) = 0.33441 0.10624
# Poissons Ratio (z) = 0.14450 0.10359
#
# Static dielectric constant tensor:
#      x y z
#    x 1.902560 0.000000 0.057880 
#    y 0.000000 1.961300 0.000000 
#    z 0.057880 0.000000 1.983390 
# 
# From -- ./inp_files/347151.got.cif
#   From: 2010.05.17/outbox.cif.g08.bks.cpg/sg12_174_cif.got.tgz:347151.got - 2010.06.03 13:09:07.
