data_PCOD9183131
_publ_section_title
;
Structure prediction by ZEFSAII (Michael W. Deem and Ramdas Pophale) SiO2 
 PCOD9183131
Probable space group: C 2/M
;
_chemical_formula_sum "Si O2"
_cell_formula_units_Z 56
_cell_length_a 31.023682
_cell_length_b 8.665865
_cell_length_c 17.382374
_cell_angle_alpha 90.000000
_cell_angle_beta 45.826904
_cell_angle_gamma 90.000000
_cell_volume 3351.795971
_symmetry_space_group_name_H-M "C 2/M"
_symmetry_group_IT_number 12
_symmetry_cell_setting 'monoclinic'
loop_
_space_group_symop_operation_xyz
x,y,z
-x,y,-z
-x,-y,-z
x,-y,z
1/2+x,1/2+y,z
1/2-x,1/2+y,-z
1/2-x,1/2-y,-z
1/2+x,1/2-y,z
loop_
_atom_site_type_symbol
_atom_site_label
_atom_site_fract_x
_atom_site_fract_y
_atom_site_fract_z
Si Si1 0.053918 0.685124 0.099922
Si Si2 0.244666 0.186794 0.289675
Si Si3 0.576990 0.313718 0.751179
Si Si4 0.717714 0.685660 0.153834
Si Si5 0.120263 0.185207 0.868135
Si Si6 0.841951 0.685587 0.916096
Si Si7 0.803596 0.813629 0.486000
O O1 0.055188 0.500000 0.095357
O O2 0.098490 0.736250 0.113177
O O3 0.986408 0.743380 0.193491
O O4 0.081104 0.749042 0.986551
O O5 0.214774 0.234764 0.246191
O O6 0.311954 0.252525 0.210214
O O7 0.208688 0.233389 0.410787
O O8 0.249065 0.000000 0.283435
O O9 0.572765 0.500000 0.753774
O O10 0.593066 0.270172 0.819095
O O11 0.632498 0.264644 0.628280
O O12 0.715048 0.500000 0.154361
O O13 0.668872 0.751193 0.155739
O O14 0.783315 0.732951 0.039055
O O15 0.120902 0.000000 0.871585
O O16 0.841933 0.500000 0.913168
O O17 0.750000 0.750000 0.500000
O O18 0.801634 0.000000 0.484904
#
# Coordination Sequence:
#
# PCOD9183131 Si02
#       7
#     8   8   8   8   8   8   8
#     4  11  22  36  53  75 104 139 176 212 255 311
#     4  10  19  33  54  78 106 137 171 212 255 303
#     4  10  22  37  50  74 107 139 176 214 252 301
#     4   9  17  31  50  75 103 130 165 209 256 306
#     4  11  21  33  51  76 108 140 170 210 257 305
#     4   9  18  32  49  73 103 130 165 211 255 306
#     4  10  20  35  55  76 104 138 174 216 255 296
#
# _framework density 16.707460999999999
#
# number of rings (size 3 to 8) (size 9 to 14) (size 15 to 20)
#    0.000    2.000    2.857    1.286    0.000    5.143 
#    0.000    0.000    0.000    0.857    0.000    6.000 
#    0.000    0.000    0.000    0.000    0.000    0.000 
#
# Total GULP energy -156257.990050 kJ/mol
# GULP energy per Si atom -5580.642502 kJ/mol
# Density = 1.666943 g / cm^3
# Si number density = 16.707461 Si / 1000 Ang^3
#
#
#
# Elastic Constant Matrix: (Units=GPa)
#
#
# Indices 1 2 3 4 5 6 
#
# 1 148.8409 30.2670 105.2189 0.0000 11.9013 -0.0001
# 2 30.2670 11.1027 28.1957 0.0001 2.1243 0.0001
# 3 105.2189 28.1957 132.7012 0.0002 2.8442 0.0000
# 4 0.0000 0.0001 0.0002 18.1740 0.0000 -2.5695
# 5 11.9013 2.1243 2.8442 0.0000 31.6992 0.0000
# 6 -0.0001 0.0001 0.0000 -2.5695 0.0000 30.2424
#
#
#
# Elastic Compliance Matrix: (Units=1/GPa)
#
#
# Indices 1 2 3 4 5 6 
#
# 1 0.019431 -0.028718 -0.009207 0.000000 -0.004544 0.000000
# 2 -0.028718 0.240908 -0.028356 -0.000001 -0.002818 -0.000001
# 3 -0.009207 -0.028356 0.020786 0.000000 0.003492 0.000000
# 4 0.000000 -0.000001 0.000000 0.055693 0.000000 0.004732
# 5 -0.004544 -0.002818 0.003492 0.000000 0.033128 0.000000
# 6 0.000000 -0.000001 0.000000 0.004732 0.000000 0.033468
#
#
# Mechanical properties :
#
#
# Convention : Reuss Voigt Hill
#
# Bulk Modulus (GPa) = 6.73121 68.88979 37.81050
# Shear Modulus (GPa) = 8.53976 24.62067 16.58021
#
# Velocity S-wave (km/s) = 2.26328 3.84296 3.15363
# Velocity P-wave (km/s) = 3.29659 7.81112 5.99504
#
# Compressibility (1/GPa) = 0.14856181
#
# Stress axis : x y z
#
# Youngs Moduli (GPa) = 51.46494 4.15097 48.10864
#
# Poissons Ratio (x) = 0.11921 0.44295
# Poissons Ratio (y) = 1.47798 1.36416
# Poissons Ratio (z) = 0.47385 0.11770
#
# Static dielectric constant tensor:
#      x y z
#    x 1.550560 0.000000 0.016240 
#    y 0.000000 1.568160 0.000000 
#    z 0.016240 0.000000 1.553570 
# 
# From -- ./inp_files/248869.got.cif
#   From: 2010.05.17/outbox.cif.g08.bks.cpg/sg12_125_cif.got.tgz:248869.got - 2010.06.03 13:09:07.
