data_PCOD9183753
_publ_section_title
;
Structure prediction by ZEFSAII (Michael W. Deem and Ramdas Pophale) SiO2 
 PCOD9183753
Probable space group: C 2/M
;
_chemical_formula_sum "Si O2"
_cell_formula_units_Z 64
_cell_length_a 19.034563
_cell_length_b 9.082448
_cell_length_c 29.642511
_cell_angle_alpha 90.000000
_cell_angle_beta 136.369685
_cell_angle_gamma 90.000000
_cell_volume 3535.994250
_symmetry_space_group_name_H-M "C 2/M"
_symmetry_group_IT_number 12
_symmetry_cell_setting 'monoclinic'
loop_
_space_group_symop_operation_xyz
x,y,z
-x,y,-z
-x,-y,-z
x,-y,z
1/2+x,1/2+y,z
1/2-x,1/2+y,-z
1/2-x,1/2-y,-z
1/2+x,1/2-y,z
loop_
_atom_site_type_symbol
_atom_site_label
_atom_site_fract_x
_atom_site_fract_y
_atom_site_fract_z
Si Si1 0.101946 0.821045 0.522191
Si Si2 0.392280 0.324490 0.928866
Si Si3 0.672557 0.177716 0.364821
Si Si4 0.684526 0.671375 0.846127
Si Si5 0.484702 0.176203 0.787191
Si Si6 0.925509 0.822812 0.594151
Si Si7 0.863265 0.173719 0.809175
Si Si8 0.657103 0.671163 0.725385
O O1 0.211562 0.777725 0.593225
O O2 0.102345 0.779382 0.469660
O O3 0.000000 0.767679 0.500000
O O4 0.097807 0.000000 0.521725
O O5 0.379245 0.500000 0.929798
O O6 0.295773 0.240446 0.904503
O O7 0.390509 0.298348 0.874233
O O8 0.500000 0.279907 0.000000
O O9 0.591064 0.221543 0.288938
O O10 0.639329 0.245295 0.397149
O O11 0.670493 0.000000 0.367412
O O12 0.683072 0.500000 0.857806
O O13 0.595695 0.758246 0.829835
O O14 0.661077 0.682279 0.781551
O O15 0.436976 0.238764 0.810550
O O16 0.488565 0.000000 0.789843
O O17 0.044710 0.787763 0.657118
O O18 0.914321 0.000000 0.593232
O O19 0.748021 0.230341 0.748864
O O20 0.870348 0.000000 0.804086
O O21 0.675563 0.500000 0.721577
#
# Coordination Sequence:
#
# PCOD9183753 Si02
#       8
#     8   8   8   8   8   8   8   8
#     4   9  19  34  53  76 103 138 183 229 274 328
#     4   9  19  38  62  86 114 147 181 218 266 323
#     4  10  21  35  54  78 104 141 184 228 274 327
#     4  10  19  34  56  83 114 143 181 226 267 318
#     4  11  22  35  54  80 113 147 184 229 277 325
#     4  10  19  33  56  78 103 140 179 224 274 327
#     4  10  21  35  55  82 112 143 178 221 269 318
#     4   9  18  32  52  79 106 138 179 221 269 323
#
# _framework density 18.099578000000001
#
# number of rings (size 3 to 8) (size 9 to 14) (size 15 to 20)
#    0.000    2.250    1.250    1.500    1.750    2.250 
#    0.000    0.625    0.000    0.750    0.000    0.000 
#    0.000    0.000    0.000    0.000    0.000    0.000 
#
# Total GULP energy -178609.118729 kJ/mol
# GULP energy per Si atom -5581.534960 kJ/mol
# Density = 1.805838 g / cm^3
# Si number density = 18.099578 Si / 1000 Ang^3
#
#
#
# Elastic Constant Matrix: (Units=GPa)
#
#
# Indices 1 2 3 4 5 6 
#
# 1 118.7677 56.5653 43.1050 0.0000 30.2060 0.0000
# 2 56.5653 42.1786 30.1810 0.0000 12.3938 0.0000
# 3 43.1050 30.1810 88.2081 0.0000 32.3395 0.0000
# 4 0.0000 0.0000 0.0000 14.3724 0.0000 3.7598
# 5 30.2060 12.3938 32.3395 0.0000 24.5573 0.0000
# 6 0.0000 0.0000 0.0000 3.7598 0.0000 35.8481
#
#
#
# Elastic Compliance Matrix: (Units=1/GPa)
#
#
# Indices 1 2 3 4 5 6 
#
# 1 0.033186 -0.042182 0.010395 0.000000 -0.033219 0.000000
# 2 -0.042182 0.085149 -0.022793 0.000000 0.038926 0.000000
# 3 0.010395 -0.022793 0.028087 0.000000 -0.038270 0.000000
# 4 0.000000 0.000000 0.000000 0.071541 0.000000 -0.007503
# 5 -0.033219 0.038926 -0.038270 0.000000 0.112334 0.000000
# 6 0.000000 0.000000 0.000000 -0.007503 0.000000 0.028682
#
#
# Mechanical properties :
#
#
# Convention : Reuss Voigt Hill
#
# Bulk Modulus (GPa) = 26.83645 56.53965 41.68805
# Shear Modulus (GPa) = 10.40458 22.90911 16.65684
#
# Velocity S-wave (km/s) = 2.40021 3.56156 3.03692
# Velocity P-wave (km/s) = 4.74770 6.94398 5.94809
#
# Compressibility (1/GPa) = 0.03726275
#
# Stress axis : x y z
#
# Youngs Moduli (GPa) = 30.13364 11.74408 35.60421
#
# Poissons Ratio (x) = 0.49538 -0.37010
# Poissons Ratio (y) = 1.27109 0.81151
# Poissons Ratio (z) = -0.31324 0.26768
#
# Static dielectric constant tensor:
#      x y z
#    x 1.598480 0.000000 0.002170 
#    y 0.000000 1.602210 0.000000 
#    z 0.002170 0.000000 1.619760 
# 
# From -- ./inp_files/378390.got.cif
#   From: 2010.05.17/outbox.cif.g08.bks.cpg/sg12_190_cif.got.tgz:378390.got - 2010.06.03 13:09:07.
