data_PCOD9183334
_publ_section_title
;
Structure prediction by ZEFSAII (Michael W. Deem and Ramdas Pophale) SiO2 
 PCOD9183334
Probable space group: C 2/M
;
_chemical_formula_sum "Si O2"
_cell_formula_units_Z 64
_cell_length_a 16.995437
_cell_length_b 22.482278
_cell_length_c 10.951231
_cell_angle_alpha 90.000000
_cell_angle_beta 62.852796
_cell_angle_gamma 90.000000
_cell_volume 3723.455302
_symmetry_space_group_name_H-M "C 2/M"
_symmetry_group_IT_number 12
_symmetry_cell_setting 'monoclinic'
loop_
_space_group_symop_operation_xyz
x,y,z
-x,y,-z
-x,-y,-z
x,-y,z
1/2+x,1/2+y,z
1/2-x,1/2+y,-z
1/2-x,1/2-y,-z
1/2+x,1/2-y,z
loop_
_atom_site_type_symbol
_atom_site_label
_atom_site_fract_x
_atom_site_fract_y
_atom_site_fract_z
Si Si1 0.067659 0.846348 0.246547
Si Si2 0.870043 0.265116 0.172500
Si Si3 0.590454 0.430763 0.010316
Si Si4 0.906953 0.657635 0.633979
Si Si5 0.670453 0.286693 0.381646
Si Si6 0.052242 0.714123 0.148462
Si Si7 0.747390 0.568804 0.701578
Si Si8 0.630070 0.343814 0.657633
O O1 0.117180 0.835963 0.339438
O O2 0.063379 0.779188 0.198846
O O3 0.965287 0.865152 0.320808
O O4 0.107356 0.889498 0.115704
O O5 0.771520 0.285775 0.267878
O O6 0.875452 0.195887 0.213811
O O7 0.948825 0.295189 0.193242
O O8 0.895063 0.279524 0.015367
O O9 0.576790 0.500000 0.055454
O O10 0.675605 0.428074 0.862373
O O11 0.500000 0.412999 0.000000
O O12 0.870649 0.721342 0.611135
O O13 0.917960 0.667414 0.771552
O O14 0.835014 0.606803 0.663363
O O15 0.000000 0.646469 0.500000
O O16 0.664749 0.300685 0.527969
O O17 0.766623 0.500000 0.664513
O O18 0.695394 0.601827 0.630338
#
# Coordination Sequence:
#
# PCOD9183334 Si02
#       8
#     8   8   8   8   8   8   8   8
#     4  10  20  32  54  82 118 146 181 222 281 341
#     4  10  19  33  54  83 113 151 178 222 279 341
#     4  10  20  36  57  82 111 150 192 235 280 329
#     4  11  23  39  58  82 120 147 183 236 286 337
#     4  11  22  33  57  87 116 150 185 223 287 348
#     4   9  21  33  52  86 119 141 181 226 286 342
#     4  11  24  38  59  84 106 147 200 236 276 333
#     4  11  20  36  54  80 122 148 182 229 281 340
#
# _framework density 17.188334999999999
#
# number of rings (size 3 to 8) (size 9 to 14) (size 15 to 20)
#    0.000    1.625    2.500    3.750    5.250    1.250 
#    0.000    0.625    0.000    1.500    0.000    1.750 
#    0.000    0.000    0.000    0.000    0.000    0.000 
#
# Total GULP energy -178438.662492 kJ/mol
# GULP energy per Si atom -5576.208203 kJ/mol
# Density = 1.714921 g / cm^3
# Si number density = 17.188335 Si / 1000 Ang^3
#
#
#
# Elastic Constant Matrix: (Units=GPa)
#
#
# Indices 1 2 3 4 5 6 
#
# 1 90.9668 65.8087 53.1520 0.0000 -14.4749 0.0000
# 2 65.8087 82.2689 33.7383 0.0000 10.4597 0.0000
# 3 53.1520 33.7383 71.3020 0.0000 -7.2236 0.0000
# 4 0.0000 0.0000 0.0000 14.4877 0.0000 -2.7391
# 5 -14.4749 10.4597 -7.2236 0.0000 26.7858 0.0000
# 6 0.0000 0.0000 0.0000 -2.7391 0.0000 -3.3390
#
#
#
# Elastic Compliance Matrix: (Units=1/GPa)
#
#
# Indices 1 2 3 4 5 6 
#
# 1 0.076735 -0.059265 -0.023249 0.000000 0.058340 0.000000
# 2 -0.059265 0.062747 0.009008 0.000000 -0.054099 0.000000
# 3 -0.023249 0.009008 0.026179 0.000000 -0.009021 0.000000
# 4 0.000000 0.000000 0.000000 0.059756 0.000000 -0.049020
# 5 0.058340 -0.054099 -0.009021 0.000000 0.087552 0.000000
# 6 0.000000 0.000000 0.000000 -0.049020 0.000000 -0.259281
#
#
# Mechanical properties :
#
#
# Convention : Reuss Voigt Hill
#
# Bulk Modulus (GPa) = 53.62098 61.10398 57.36248
# Shear Modulus (GPa) = 24.16417 13.70949 18.93683
#
# Velocity S-wave (km/s) = 3.75353 2.82725 3.32283
# Velocity P-wave (km/s) = 7.07454 6.80328 6.94024
#
# Compressibility (1/GPa) = 0.01864942
#
# Stress axis : x y z
#
# Youngs Moduli (GPa) = 13.03179 15.93706 38.19795
#
# Poissons Ratio (x) = 0.94452 0.88807
# Poissons Ratio (y) = 0.77233 -0.34410
# Poissons Ratio (z) = 0.30298 -0.14357
#
# Static dielectric constant tensor:
#      x y z
#    x 1.612490 0.000000 0.005390 
#    y 0.000000 1.570180 0.000000 
#    z 0.005390 0.000000 1.613280 
# 
# From -- ./inp_files/159247.got.cif
#   From: 2010.05.17/outbox.cif.g08.bks.cpg/sg12_80_cif.got.tgz:159247.got - 2010.06.03 13:09:07.
