data_PCOD9183392
_publ_section_title
;
Structure prediction by ZEFSAII (Michael W. Deem and Ramdas Pophale) SiO2 
 PCOD9183392
Probable space group: C 2/M
;
_chemical_formula_sum "Si O2"
_cell_formula_units_Z 64
_cell_length_a 12.609987
_cell_length_b 13.830950
_cell_length_c 32.656445
_cell_angle_alpha 90.000000
_cell_angle_beta 36.233129
_cell_angle_gamma 90.000000
_cell_volume 3366.480172
_symmetry_space_group_name_H-M "C 2/M"
_symmetry_group_IT_number 12
_symmetry_cell_setting 'monoclinic'
loop_
_space_group_symop_operation_xyz
x,y,z
-x,y,-z
-x,-y,-z
x,-y,z
1/2+x,1/2+y,z
1/2-x,1/2+y,-z
1/2-x,1/2-y,-z
1/2+x,1/2-y,z
loop_
_atom_site_type_symbol
_atom_site_label
_atom_site_fract_x
_atom_site_fract_y
_atom_site_fract_z
Si Si1 0.566255 0.887253 0.314973
Si Si2 0.345993 0.385010 0.580350
Si Si3 0.407327 0.203499 0.778987
Si Si4 0.354603 0.612832 0.750298
Si Si5 0.704809 0.293790 0.921385
Si Si6 0.200706 0.199562 0.317129
Si Si7 0.543729 0.111342 0.098003
Si Si8 0.684084 0.892002 0.968284
O O1 0.351039 0.869567 0.378109
O O2 0.630194 0.862287 0.248788
O O3 0.656137 0.809237 0.317185
O O4 0.597451 0.000000 0.315146
O O5 0.500000 0.360298 0.500000
O O6 0.357400 0.500000 0.586063
O O7 0.364719 0.327518 0.617078
O O8 0.457998 0.309801 0.745641
O O9 0.243116 0.202307 0.861589
O O10 0.587273 0.174052 0.746979
O O11 0.383780 0.500000 0.749951
O O12 0.381334 0.635521 0.694162
O O13 0.149747 0.642524 0.825863
O O14 0.814295 0.375599 0.910518
O O15 0.787329 0.191489 0.911918
O O16 0.500000 0.299020 0.000000
O O17 0.516930 0.000000 0.095159
O O18 0.627155 0.150926 0.030021
O O19 0.765204 0.000000 0.946004
O O20 0.500000 0.902508 0.000000
#
# Coordination Sequence:
#
# PCOD9183392 Si02
#       8
#     8   8   8   8   8   8   8   8
#     4   9  20  37  57  80 112 149 178 216 267 315
#     4   9  18  34  58  88 117 146 182 218 255 307
#     4  10  21  35  53  79 104 136 184 225 268 326
#     4  10  19  33  55  77 100 135 179 225 268 317
#     4  11  21  34  53  71  98 135 172 226 276 325
#     4  10  19  35  56  81 112 144 181 220 264 318
#     4  10  20  34  51  71  96 128 171 219 272 329
#     4   9  18  32  49  69  92 122 162 212 270 322
#
# _framework density 19.010954999999999
#
# number of rings (size 3 to 8) (size 9 to 14) (size 15 to 20)
#    0.000    2.250    1.250    2.250    0.000    3.750 
#    0.000    0.000    0.000    0.375    0.000    0.000 
#    0.000    0.000    0.000    0.000    0.000    0.000 
#
# Total GULP energy -178266.914821 kJ/mol
# GULP energy per Si atom -5570.841088 kJ/mol
# Density = 1.896768 g / cm^3
# Si number density = 19.010955 Si / 1000 Ang^3
#
#
#
# Elastic Constant Matrix: (Units=GPa)
#
#
# Indices 1 2 3 4 5 6 
#
# 1 49.8119 3.1385 18.7295 0.0017 17.9801 -0.0003
# 2 3.1385 40.9353 14.2976 0.0010 5.3968 -0.0001
# 3 18.7295 14.2976 97.4362 0.0056 16.3334 -0.0012
# 4 0.0017 0.0010 0.0056 42.3371 -0.0045 0.0776
# 5 17.9801 5.3968 16.3334 -0.0045 16.6340 0.0006
# 6 -0.0003 -0.0001 -0.0012 0.0776 0.0006 21.5570
#
#
#
# Elastic Compliance Matrix: (Units=1/GPa)
#
#
# Indices 1 2 3 4 5 6 
#
# 1 0.033162 0.002443 -0.000708 -0.000005 -0.035943 0.000001
# 2 0.002443 0.026365 -0.002947 -0.000001 -0.008301 0.000000
# 3 -0.000708 -0.002947 0.012620 -0.000003 -0.010671 0.000001
# 4 -0.000005 -0.000001 -0.000003 0.023620 0.000015 -0.000085
# 5 -0.035943 -0.008301 -0.010671 0.000015 0.112141 -0.000004
# 6 0.000001 0.000000 0.000001 -0.000085 -0.000004 0.046389
#
#
# Mechanical properties :
#
#
# Convention : Reuss Voigt Hill
#
# Bulk Modulus (GPa) = 14.34218 28.94609 21.64413
# Shear Modulus (GPa) = 17.85960 26.24013 22.04986
#
# Velocity S-wave (km/s) = 3.06835 3.71922 3.40935
# Velocity P-wave (km/s) = 4.48481 5.80539 5.18730
#
# Compressibility (1/GPa) = 0.06972443
#
# Stress axis : x y z
#
# Youngs Moduli (GPa) = 30.15535 37.92881 79.23663
#
# Poissons Ratio (x) = -0.09267 0.05608
# Poissons Ratio (y) = -0.07368 0.23350
# Poissons Ratio (z) = 0.02134 0.11177
#
# Static dielectric constant tensor:
#      x y z
#    x 1.657090 0.000000 -0.003860 
#    y 0.000000 1.721320 0.000000 
#    z -0.003860 0.000000 1.696030 
# 
# From -- ./inp_files/374086.got.cif
#   From: 2010.05.17/outbox.cif.g08.bks.cpg/sg12_188_cif.got.tgz:374086.got - 2010.06.03 13:09:07.
