data_PCOD9183072
_publ_section_title
;
Structure prediction by ZEFSAII (Michael W. Deem and Ramdas Pophale) SiO2 
 PCOD9183072
Probable space group: C 2/M
;
_chemical_formula_sum "Si O2"
_cell_formula_units_Z 64
_cell_length_a 20.316619
_cell_length_b 8.693132
_cell_length_c 21.744643
_cell_angle_alpha 90.000000
_cell_angle_beta 134.551384
_cell_angle_gamma 90.000000
_cell_volume 2736.774142
_symmetry_space_group_name_H-M "C 2/M"
_symmetry_group_IT_number 12
_symmetry_cell_setting 'monoclinic'
loop_
_space_group_symop_operation_xyz
x,y,z
-x,y,-z
-x,-y,-z
x,-y,z
1/2+x,1/2+y,z
1/2-x,1/2+y,-z
1/2-x,1/2-y,-z
1/2+x,1/2-y,z
loop_
_atom_site_type_symbol
_atom_site_label
_atom_site_fract_x
_atom_site_fract_y
_atom_site_fract_z
Si Si1 0.384034 0.681126 0.105677
Si Si2 0.737701 0.319225 0.559790
Si Si3 0.011164 0.812303 0.937231
Si Si4 0.214906 0.324243 0.849516
Si Si5 0.633114 0.814468 0.599519
Si Si6 0.809551 0.812258 0.794527
Si Si7 0.976610 0.321480 0.355627
Si Si8 0.926539 0.821317 0.693375
O O1 0.366066 0.500000 0.090372
O O2 0.406268 0.742758 0.052158
O O3 0.308267 0.752798 0.100374
O O4 0.481654 0.701369 0.206007
O O5 0.724250 0.500000 0.547792
O O6 0.750000 0.250000 0.500000
O O7 0.655290 0.246323 0.546192
O O8 0.838343 0.278369 0.654086
O O9 0.912290 0.771946 0.842615
O O10 0.017864 0.000000 0.942692
O O11 0.000000 0.761893 0.000000
O O12 0.241414 0.500000 0.878123
O O13 0.288665 0.256457 0.850255
O O14 0.120614 0.323199 0.746438
O O15 0.725950 0.763940 0.696731
O O16 0.550815 0.770575 0.593042
O O17 0.628929 0.000000 0.594261
O O18 0.805466 0.000000 0.793542
O O19 0.008472 0.500000 0.378424
O O20 0.042590 0.220528 0.356090
O O21 0.899518 0.000000 0.680344
#
# Coordination Sequence:
#
# PCOD9183072 Si02
#       8
#     8   8   8   8   8   8   8   8
#     4   9  17  29  48  73  98 125 159 204 251 290
#     4  12  25  39  54  74 103 135 169 206 245 293
#     4   9  16  26  42  66  96 130 170 210 243 283
#     4   8  14  26  46  70  95 124 158 197 242 295
#     4   9  17  33  56  78 102 131 165 207 254 301
#     4   8  14  27  48  71  95 127 165 202 243 292
#     4   8  15  29  51  78 103 127 159 202 251 301
#     4  10  19  33  54  77 102 131 165 207 253 299
#
# _framework density 23.385197000000002
#
# number of rings (size 3 to 8) (size 9 to 14) (size 15 to 20)
#    0.000    2.875    0.000    3.750    0.000    3.000 
#    0.000    3.125    0.000    4.875    0.000    0.000 
#    0.000    0.000    0.000    0.000    0.000    0.000 
#
# Total GULP energy -178719.309947 kJ/mol
# GULP energy per Si atom -5584.978436 kJ/mol
# Density = 2.333197 g / cm^3
# Si number density = 23.385197 Si / 1000 Ang^3
#
#
#
# Elastic Constant Matrix: (Units=GPa)
#
#
# Indices 1 2 3 4 5 6 
#
# 1 189.6682 37.2436 30.9231 0.0000 -34.8195 0.0000
# 2 37.2436 29.7253 5.9711 0.0000 -11.4337 0.0000
# 3 30.9231 5.9711 78.0280 0.0000 -24.1206 0.0000
# 4 0.0000 0.0000 0.0000 8.4681 0.0000 -9.4882
# 5 -34.8195 -11.4337 -24.1206 0.0000 54.1416 0.0000
# 6 0.0000 0.0000 0.0000 -9.4882 0.0000 31.2892
#
#
#
# Elastic Compliance Matrix: (Units=1/GPa)
#
#
# Indices 1 2 3 4 5 6 
#
# 1 0.007607 -0.008273 -0.001634 0.000000 0.002417 0.000000
# 2 -0.008273 0.045628 0.001300 0.000000 0.004894 0.000000
# 3 -0.001634 0.001300 0.015220 0.000000 0.006004 0.000000
# 4 0.000000 0.000000 0.000000 0.178864 0.000000 0.054239
# 5 0.002417 0.004894 0.006004 0.000000 0.023733 0.000000
# 6 0.000000 0.000000 0.000000 0.054239 0.000000 0.048407
#
#
# Mechanical properties :
#
#
# Convention : Reuss Voigt Hill
#
# Bulk Modulus (GPa) = 19.51583 49.52191 34.51887
# Shear Modulus (GPa) = 14.13407 33.66534 23.89970
#
# Velocity S-wave (km/s) = 2.46113 3.79832 3.20034
# Velocity P-wave (km/s) = 4.05459 6.36073 5.33379
#
# Compressibility (1/GPa) = 0.05124045
#
# Stress axis : x y z
#
# Youngs Moduli (GPa) = 131.45646 21.91614 65.70205
#
# Poissons Ratio (x) = 0.18131 0.10739
# Poissons Ratio (y) = 1.08755 -0.08541
# Poissons Ratio (z) = 0.21487 -0.02849
#
# Static dielectric constant tensor:
#      x y z
#    x 1.889980 0.000000 0.017790 
#    y 0.000000 1.790100 0.000000 
#    z 0.017790 0.000000 2.035880 
# 
# From -- ./inp_files/320144.got.cif
#   From: 2010.05.17/outbox.cif.g08.bks.cpg/sg12_161_cif.got.tgz:320144.got - 2010.06.03 13:09:07.
