data_PCOD9183973
_publ_section_title
;
Structure prediction by ZEFSAII (Michael W. Deem and Ramdas Pophale) SiO2 
 PCOD9183973
Probable space group: C 2/M
;
_chemical_formula_sum "Si O2"
_cell_formula_units_Z 48
_cell_length_a 20.603877
_cell_length_b 8.818906
_cell_length_c 25.084019
_cell_angle_alpha 90.000000
_cell_angle_beta 145.163159
_cell_angle_gamma 90.000000
_cell_volume 2603.637350
_symmetry_space_group_name_H-M "C 2/M"
_symmetry_group_IT_number 12
_symmetry_cell_setting 'monoclinic'
loop_
_space_group_symop_operation_xyz
x,y,z
-x,y,-z
-x,-y,-z
x,-y,z
1/2+x,1/2+y,z
1/2-x,1/2+y,-z
1/2-x,1/2-y,-z
1/2+x,1/2-y,z
loop_
_atom_site_type_symbol
_atom_site_label
_atom_site_fract_x
_atom_site_fract_y
_atom_site_fract_z
Si Si1 0.714260 0.681368 0.396306
Si Si2 0.932425 0.319853 0.607244
Si Si3 0.136002 0.680583 0.898663
Si Si4 0.624795 0.681978 0.106745
Si Si5 0.651807 0.320195 0.792872
Si Si6 0.088559 0.181606 0.204490
O O1 0.697545 0.500000 0.393265
O O2 0.843764 0.715412 0.500061
O O3 0.633452 0.767755 0.383522
O O4 0.678022 0.717095 0.311712
O O5 0.951569 0.500000 0.621727
O O6 0.051951 0.234943 0.686232
O O7 0.142702 0.500000 0.902566
O O8 0.125046 0.743277 0.831485
O O9 0.027997 0.735325 0.859552
O O10 0.250000 0.750000 0.000000
O O11 0.639584 0.500000 0.110331
O O12 0.725657 0.765104 0.144200
O O13 0.628215 0.719106 0.171809
O O14 0.500000 0.720305 0.000000
O O15 0.648906 0.500000 0.796925
O O16 0.067642 0.000000 0.191769
#
# Coordination Sequence:
#
# PCOD9183973 Si02
#       6
#     8   8   8   8   8   8
#     4   9  18  33  56  86 119 152 191 239 297 355
#     4  10  19  33  56  86 117 153 194 241 294 351
#     4  12  24  38  59  87 117 150 192 243 294 347
#     4  10  22  40  61  84 115 156 197 239 295 359
#     4  12  24  39  59  85 118 156 198 244 292 346
#     4  10  20  37  60  87 118 152 192 242 297 353
#
# _framework density 18.435746999999999
#
# number of rings (size 3 to 8) (size 9 to 14) (size 15 to 20)
#    0.000    1.500    1.667    4.500    0.000    3.000 
#    0.000    0.833    0.000    5.000    0.000    0.000 
#    0.000    0.000    0.000    0.000    0.000    0.000 
#
# Total GULP energy -134117.775481 kJ/mol
# GULP energy per Si atom -5588.240645 kJ/mol
# Density = 1.839379 g / cm^3
# Si number density = 18.435747 Si / 1000 Ang^3
#
#
#
# Elastic Constant Matrix: (Units=GPa)
#
#
# Indices 1 2 3 4 5 6 
#
# 1 21.1555 11.9459 -13.6988 0.0000 3.4217 0.0000
# 2 11.9459 52.2008 16.1322 0.0000 5.8580 0.0001
# 3 -13.6988 16.1322 78.1445 0.0000 0.7382 0.0000
# 4 0.0000 0.0000 0.0000 28.8042 0.0000 7.7093
# 5 3.4217 5.8580 0.7382 0.0000 32.5854 0.0000
# 6 0.0000 0.0001 0.0000 7.7093 0.0000 27.3390
#
#
#
# Elastic Compliance Matrix: (Units=1/GPa)
#
#
# Indices 1 2 3 4 5 6 
#
# 1 0.070506 -0.020843 0.016701 0.000000 -0.004035 0.000000
# 2 -0.020843 0.027051 -0.009215 0.000000 -0.002466 0.000000
# 3 0.016701 -0.009215 0.017632 0.000000 -0.000497 0.000000
# 4 0.000000 0.000000 0.000000 0.037551 0.000000 -0.010589
# 5 -0.004035 -0.002466 -0.000497 0.000000 0.031567 0.000000
# 6 0.000000 0.000000 0.000000 -0.010589 0.000000 0.039564
#
#
# Mechanical properties :
#
#
# Convention : Reuss Voigt Hill
#
# Bulk Modulus (GPa) = 11.30285 20.02880 15.66583
# Shear Modulus (GPa) = 17.85228 26.88716 22.36972
#
# Velocity S-wave (km/s) = 3.11521 3.82308 3.48715
# Velocity P-wave (km/s) = 4.36848 5.51140 4.97289
#
# Compressibility (1/GPa) = 0.08847326
#
# Stress axis : x y z
#
# Youngs Moduli (GPa) = 14.18327 36.96700 56.71658
#
# Poissons Ratio (x) = 0.77051 -0.94721
# Poissons Ratio (y) = 0.29563 0.52264
# Poissons Ratio (z) = -0.23687 0.34065
#
# Static dielectric constant tensor:
#      x y z
#    x 1.602180 0.000000 -0.025500 
#    y 0.000000 1.617870 0.000000 
#    z -0.025500 0.000000 1.664470 
# 
# From -- ./inp_files/345703.got.cif
#   From: 2010.05.17/outbox.cif.g08.bks.cpg/sg12_173_cif.got.tgz:345703.got - 2010.06.03 13:09:07.
