data_PCOD9183253
_publ_section_title
;
Structure prediction by ZEFSAII (Michael W. Deem and Ramdas Pophale) SiO2 
 PCOD9183253
Probable space group: C 2/M
;
_chemical_formula_sum "Si O2"
_cell_formula_units_Z 64
_cell_length_a 20.714153
_cell_length_b 8.426268
_cell_length_c 23.376418
_cell_angle_alpha 90.000000
_cell_angle_beta 125.515281
_cell_angle_gamma 90.000000
_cell_volume 3321.114147
_symmetry_space_group_name_H-M "C 2/M"
_symmetry_group_IT_number 12
_symmetry_cell_setting 'monoclinic'
loop_
_space_group_symop_operation_xyz
x,y,z
-x,y,-z
-x,-y,-z
x,-y,z
1/2+x,1/2+y,z
1/2-x,1/2+y,-z
1/2-x,1/2-y,-z
1/2+x,1/2-y,z
loop_
_atom_site_type_symbol
_atom_site_label
_atom_site_fract_x
_atom_site_fract_y
_atom_site_fract_z
Si Si1 0.352882 0.686781 0.218129
Si Si2 0.003594 0.811701 0.624966
Si Si3 0.628639 0.807003 0.595680
Si Si4 0.606302 0.190074 0.109422
Si Si5 0.574929 0.807479 0.973377
Si Si6 0.833869 0.689800 0.515957
Si Si7 0.322532 0.809054 0.076538
Si Si8 0.260875 0.317822 0.748532
O O1 0.334642 0.500000 0.218818
O O2 0.439091 0.717312 0.290754
O O3 0.337469 0.727410 0.144659
O O4 0.293890 0.795068 0.224143
O O5 0.916160 0.739709 0.589088
O O6 0.051914 0.748851 0.593288
O O7 0.995399 0.000000 0.613568
O O8 0.644840 0.757583 0.538606
O O9 0.706271 0.748518 0.670414
O O10 0.624952 0.000000 0.594903
O O11 0.515660 0.241811 0.068047
O O12 0.657480 0.244836 0.188900
O O13 0.610458 0.000000 0.111314
O O14 0.627108 0.245612 0.055177
O O15 0.605187 0.763374 0.927415
O O16 0.576069 0.000000 0.976465
O O17 0.827965 0.500000 0.512295
O O18 0.750000 0.750000 0.500000
O O19 0.317661 0.000000 0.081074
O O20 0.250000 0.750000 0.000000
O O21 0.274129 0.500000 0.741302
#
# Coordination Sequence:
#
# PCOD9183253 Si02
#       8
#     8   8   8   8   8   8   8   8
#     4  10  21  37  55  79 110 146 185 227 278 329
#     4  10  21  38  62  88 115 149 194 244 288 340
#     4   9  20  38  59  84 116 150 187 230 286 346
#     4   9  16  32  54  73  99 137 177 219 268 321
#     4   8  17  32  50  71  99 137 177 218 268 324
#     4  11  23  40  61  86 119 156 191 233 289 350
#     4  11  21  34  53  79 111 145 186 231 277 330
#     4  10  19  33  54  81 108 137 174 222 274 325
#
# _framework density 19.270641999999999
#
# number of rings (size 3 to 8) (size 9 to 14) (size 15 to 20)
#    0.000    2.250    0.000    3.750    0.000    5.500 
#    2.250    3.125    0.000    0.000    0.000    0.000 
#    0.000    0.000    0.000    0.000    0.000    0.000 
#
# Total GULP energy -178199.431692 kJ/mol
# GULP energy per Si atom -5568.732240 kJ/mol
# Density = 1.922678 g / cm^3
# Si number density = 19.270642 Si / 1000 Ang^3
#
#
#
# Elastic Constant Matrix: (Units=GPa)
#
#
# Indices 1 2 3 4 5 6 
#
# 1 67.7483 11.2741 44.1020 0.0000 9.4836 0.0000
# 2 11.2741 27.0259 14.2218 0.0000 5.0807 0.0000
# 3 44.1020 14.2218 99.0712 0.0000 7.8546 0.0000
# 4 0.0000 0.0000 0.0000 30.4573 0.0000 3.6315
# 5 9.4836 5.0807 7.8546 0.0000 30.6744 0.0000
# 6 0.0000 0.0000 0.0000 3.6315 0.0000 23.5637
#
#
#
# Elastic Compliance Matrix: (Units=1/GPa)
#
#
# Indices 1 2 3 4 5 6 
#
# 1 0.021637 -0.003675 -0.008801 0.000000 -0.003827 0.000000
# 2 -0.003675 0.041500 -0.003947 0.000000 -0.004727 0.000000
# 3 -0.008801 -0.003947 0.014607 0.000000 -0.000366 0.000000
# 4 0.000000 0.000000 0.000000 0.033447 0.000000 -0.005155
# 5 -0.003827 -0.004727 -0.000366 0.000000 0.034660 0.000000
# 6 0.000000 0.000000 0.000000 -0.005155 0.000000 0.043233
#
#
# Mechanical properties :
#
#
# Convention : Reuss Voigt Hill
#
# Bulk Modulus (GPa) = 22.27231 37.00457 29.63844
# Shear Modulus (GPa) = 21.10631 25.22223 23.16427
#
# Velocity S-wave (km/s) = 3.31306 3.62172 3.47082
# Velocity P-wave (km/s) = 5.12034 6.06081 5.61031
#
# Compressibility (1/GPa) = 0.04489879
#
# Stress axis : x y z
#
# Youngs Moduli (GPa) = 46.21743 24.09630 68.46049
#
# Poissons Ratio (x) = 0.08856 0.60250
# Poissons Ratio (y) = 0.16986 0.27018
# Poissons Ratio (z) = 0.40675 0.09510
#
# Static dielectric constant tensor:
#      x y z
#    x 1.714540 0.000000 0.011810 
#    y 0.000000 1.675590 0.000000 
#    z 0.011810 0.000000 1.735530 
# 
# From -- ./inp_files/346204.got.cif
#   From: 2010.05.17/outbox.cif.g08.bks.cpg/sg12_174_cif.got.tgz:346204.got - 2010.06.03 13:09:07.
