data_PCOD9183178
_publ_section_title
;
Structure prediction by ZEFSAII (Michael W. Deem and Ramdas Pophale) SiO2 
 PCOD9183178
Probable space group: C 2/M
;
_chemical_formula_sum "Si O2"
_cell_formula_units_Z 56
_cell_length_a 15.218624
_cell_length_b 9.748563
_cell_length_c 19.005951
_cell_angle_alpha 90.000000
_cell_angle_beta 114.168402
_cell_angle_gamma 90.000000
_cell_volume 2572.558084
_symmetry_space_group_name_H-M "C 2/M"
_symmetry_group_IT_number 12
_symmetry_cell_setting 'monoclinic'
loop_
_space_group_symop_operation_xyz
x,y,z
-x,y,-z
-x,-y,-z
x,-y,z
1/2+x,1/2+y,z
1/2-x,1/2+y,-z
1/2-x,1/2-y,-z
1/2+x,1/2-y,z
loop_
_atom_site_type_symbol
_atom_site_label
_atom_site_fract_x
_atom_site_fract_y
_atom_site_fract_z
Si Si1 0.535026 0.652886 0.859391
Si Si2 0.634281 0.661699 0.747885
Si Si3 0.920261 0.344954 0.910352
Si Si4 0.244047 0.161529 0.314014
Si Si5 0.108960 0.659164 0.508573
Si Si6 0.187657 0.153044 0.029111
Si Si7 0.083444 0.162833 0.367390
O O1 0.493271 0.500000 0.828777
O O2 0.610384 0.685953 0.822252
O O3 0.465559 0.777841 0.855657
O O4 0.591662 0.635987 0.951042
O O5 0.654084 0.500000 0.745932
O O6 0.715659 0.749569 0.736726
O O7 0.529935 0.691760 0.678222
O O8 0.884604 0.500000 0.888429
O O9 0.841352 0.238248 0.912238
O O10 0.000000 0.353482 0.000000
O O11 0.318473 0.182679 0.403382
O O12 0.141267 0.197122 0.315046
O O13 0.245024 0.000000 0.296034
O O14 0.118517 0.500000 0.490228
O O15 0.124521 0.755797 0.447029
O O16 0.000000 0.680534 0.500000
O O17 0.227635 0.000000 0.054879
O O18 0.250000 0.250000 0.000000
O O19 0.095767 0.000000 0.382349
#
# Coordination Sequence:
#
# PCOD9183178 Si02
#       7
#     8   8   8   8   8   8   8
#     4   9  19  36  55  75 106 143 176 214 268 325
#     4  10  21  38  57  78 110 148 184 222 270 331
#     4   9  17  31  53  78 102 131 173 216 257 312
#     4  10  21  37  55  79 111 144 183 230 276 322
#     4  10  19  33  55  80 108 143 182 227 278 325
#     4  10  19  33  54  79 108 139 174 221 271 317
#     4  10  21  36  56  81 108 140 183 231 275 323
#
# _framework density 21.768215000000001
#
# number of rings (size 3 to 8) (size 9 to 14) (size 15 to 20)
#    0.000    2.286    1.429    1.286    0.000    4.286 
#    2.571    0.000    0.000    0.000    0.000    0.000 
#    0.000    0.000    0.000    0.000    0.000    0.000 
#
# Total GULP energy -156397.849893 kJ/mol
# GULP energy per Si atom -5585.637496 kJ/mol
# Density = 2.171867 g / cm^3
# Si number density = 21.768215 Si / 1000 Ang^3
#
#
#
# Elastic Constant Matrix: (Units=GPa)
#
#
# Indices 1 2 3 4 5 6 
#
# 1 72.1198 54.6029 32.1106 0.0000 -21.2860 0.0000
# 2 54.6029 133.8843 56.8335 0.0000 -36.1855 0.0000
# 3 32.1106 56.8335 101.1048 0.0000 -20.2157 0.0000
# 4 0.0000 0.0000 0.0000 27.5405 0.0000 -17.0509
# 5 -21.2860 -36.1855 -20.2157 0.0000 40.6003 0.0000
# 6 0.0000 0.0000 0.0000 -17.0509 0.0000 28.8321
#
#
#
# Elastic Compliance Matrix: (Units=1/GPa)
#
#
# Indices 1 2 3 4 5 6 
#
# 1 0.020987 -0.006527 -0.002176 0.000000 0.004103 0.000000
# 2 -0.006527 0.013783 -0.004334 0.000000 0.006704 0.000000
# 3 -0.002176 -0.004334 0.013347 0.000000 0.001641 0.000000
# 4 0.000000 0.000000 0.000000 0.057284 0.000000 0.033877
# 5 0.004103 0.006704 0.001641 0.000000 0.033574 0.000000
# 6 0.000000 0.000000 0.000000 0.033877 0.000000 0.054718
#
#
# Mechanical properties :
#
#
# Convention : Reuss Voigt Hill
#
# Bulk Modulus (GPa) = 45.36830 66.02256 55.69543
# Shear Modulus (GPa) = 22.01531 30.29870 26.15700
#
# Velocity S-wave (km/s) = 3.18362 3.73484 3.47019
# Velocity P-wave (km/s) = 5.86521 6.99959 6.45736
#
# Compressibility (1/GPa) = 0.02204182
#
# Stress axis : x y z
#
# Youngs Moduli (GPa) = 47.64835 72.55427 74.92561
#
# Poissons Ratio (x) = 0.47353 0.16307
# Poissons Ratio (y) = 0.31098 0.32475
# Poissons Ratio (z) = 0.10370 0.31447
#
# Static dielectric constant tensor:
#      x y z
#    x 1.864330 0.000000 0.057640 
#    y 0.000000 1.771120 0.000000 
#    z 0.057640 0.000000 1.799140 
# 
# From -- ./inp_files/309009.got.cif
#   From: 2010.05.17/outbox.cif.g08.bks.cpg/sg12_155_cif.got.tgz:309009.got - 2010.06.03 13:09:07.
