data_PCOD9183460
_publ_section_title
;
Structure prediction by ZEFSAII (Michael W. Deem and Ramdas Pophale) SiO2 
 PCOD9183460
Probable space group: C 2/M
;
_chemical_formula_sum "Si O2"
_cell_formula_units_Z 60
_cell_length_a 10.350423
_cell_length_b 14.223965
_cell_length_c 16.347892
_cell_angle_alpha 90.000000
_cell_angle_beta 71.026464
_cell_angle_gamma 90.000000
_cell_volume 2276.038570
_symmetry_space_group_name_H-M "C 2/M"
_symmetry_group_IT_number 12
_symmetry_cell_setting 'monoclinic'
loop_
_space_group_symop_operation_xyz
x,y,z
-x,y,-z
-x,-y,-z
x,-y,z
1/2+x,1/2+y,z
1/2-x,1/2+y,-z
1/2-x,1/2-y,-z
1/2+x,1/2-y,z
loop_
_atom_site_type_symbol
_atom_site_label
_atom_site_fract_x
_atom_site_fract_y
_atom_site_fract_z
Si Si1 0.388875 0.888613 0.141898
Si Si2 0.310059 0.897942 0.533597
Si Si3 0.702748 0.888262 0.017797
Si Si4 0.088816 0.107032 0.887581
Si Si5 0.353472 0.898001 0.720101
Si Si6 0.020533 0.238865 0.776702
Si Si7 0.500000 0.259500 0.500000
Si Si8 0.503010 0.393732 0.369905
O O1 0.552733 0.877736 0.090590
O O2 0.358761 0.811080 0.217739
O O3 0.362454 0.000000 0.163722
O O4 0.314387 0.860459 0.073023
O O5 0.336504 0.891573 0.626196
O O6 0.391978 0.811280 0.479808
O O7 0.148224 0.897009 0.558735
O O8 0.358784 0.000000 0.493528
O O9 0.829904 0.858118 0.048459
O O10 0.720474 0.000000 0.011836
O O11 0.208135 0.100487 0.795073
O O12 0.989108 0.182673 0.867391
O O13 0.035795 0.000000 0.907307
O O14 0.429545 0.813022 0.746406
O O15 0.419393 0.000000 0.724817
O O16 0.021485 0.154139 0.711537
O O17 0.575398 0.322574 0.416717
O O18 0.556180 0.500000 0.353802
#
# Coordination Sequence:
#
# PCOD9183460 Si02
#       8
#     8   8   8   8   8   8   4   8
#     4   9  17  30  52  83 113 141 178 235 286 324
#     4  10  21  39  61  87 115 140 177 229 280 330
#     4   8  15  30  51  78 112 144 180 228 285 330
#     4  10  19  33  55  79 108 149 190 227 269 326
#     4  10  19  35  56  80 112 144 180 232 280 321
#     4  12  20  31  56  84 107 142 195 228 266 325
#     4  12  22  40  64  90 110 144 184 224 276 330
#     4  11  24  40  57  82 117 151 183 224 271 330
#
# _framework density 26.361592000000002
#
# number of rings (size 3 to 8) (size 9 to 14) (size 15 to 20)
#    0.000    1.867    4.000    2.400    0.000    0.533 
#    0.000    0.000    0.000    8.800    0.000    7.467 
#    0.000    0.000    0.000    0.000    0.000    0.000 
#
# Total GULP energy -167586.610914 kJ/mol
# GULP energy per Si atom -5586.220364 kJ/mol
# Density = 2.630159 g / cm^3
# Si number density = 26.361592 Si / 1000 Ang^3
#
#
#
# Elastic Constant Matrix: (Units=GPa)
#
#
# Indices 1 2 3 4 5 6 
#
# 1 61.2948 22.5826 12.0805 0.0000 21.5930 0.0000
# 2 22.5826 213.7536 38.0645 0.0000 23.0040 0.0000
# 3 12.0805 38.0645 97.3131 0.0000 29.2717 0.0000
# 4 0.0000 0.0000 0.0000 30.9857 0.0000 17.5105
# 5 21.5930 23.0040 29.2717 0.0000 44.6259 0.0000
# 6 0.0000 0.0000 0.0000 17.5105 0.0000 17.1699
#
#
#
# Elastic Compliance Matrix: (Units=1/GPa)
#
#
# Indices 1 2 3 4 5 6 
#
# 1 0.019982 -0.001235 0.000896 0.000000 -0.009620 0.000000
# 2 -0.001235 0.005201 -0.001563 0.000000 -0.001058 0.000000
# 3 0.000896 -0.001563 0.013286 0.000000 -0.008343 0.000000
# 4 0.000000 0.000000 0.000000 0.076174 0.000000 -0.077685
# 5 -0.009620 -0.001058 -0.008343 0.000000 0.033081 0.000000
# 6 0.000000 0.000000 0.000000 -0.077685 0.000000 0.137467
#
#
# Mechanical properties :
#
#
# Convention : Reuss Voigt Hill
#
# Bulk Modulus (GPa) = 28.84773 57.53520 43.19147
# Shear Modulus (GPa) = 16.63624 38.53189 27.58406
#
# Velocity S-wave (km/s) = 2.51485 3.82732 3.23828
# Velocity P-wave (km/s) = 4.40449 6.43459 5.51378
#
# Compressibility (1/GPa) = 0.03466477
#
# Stress axis : x y z
#
# Youngs Moduli (GPa) = 50.04521 192.27191 75.26968
#
# Poissons Ratio (x) = 0.23753 -0.06746
# Poissons Ratio (y) = 0.06183 0.11762
# Poissons Ratio (z) = -0.04485 0.30047
#
# Static dielectric constant tensor:
#      x y z
#    x 2.126040 0.000000 -0.024970 
#    y 0.000000 2.160450 0.000000 
#    z -0.024970 0.000000 2.073720 
# 
# From -- ./inp_files/269251.got.cif
#   From: 2010.05.17/outbox.cif.g08.bks.cpg/sg12_135_cif.got.tgz:269251.got - 2010.06.03 13:09:07.
