data_PCOD9183362
_publ_section_title
;
Structure prediction by ZEFSAII (Michael W. Deem and Ramdas Pophale) SiO2 
 PCOD9183362
Probable space group: C 2/M
;
_chemical_formula_sum "Si O2"
_cell_formula_units_Z 56
_cell_length_a 24.756925
_cell_length_b 18.718932
_cell_length_c 11.122163
_cell_angle_alpha 90.000000
_cell_angle_beta 146.145386
_cell_angle_gamma 90.000000
_cell_volume 2871.378206
_symmetry_space_group_name_H-M "C 2/M"
_symmetry_group_IT_number 12
_symmetry_cell_setting 'monoclinic'
loop_
_space_group_symop_operation_xyz
x,y,z
-x,y,-z
-x,-y,-z
x,-y,z
1/2+x,1/2+y,z
1/2-x,1/2+y,-z
1/2-x,1/2-y,-z
1/2+x,1/2-y,z
loop_
_atom_site_type_symbol
_atom_site_label
_atom_site_fract_x
_atom_site_fract_y
_atom_site_fract_z
Si Si1 0.969147 0.298695 0.072806
Si Si2 0.613632 0.419639 0.395467
Si Si3 0.252325 0.332935 0.964238
Si Si4 0.326722 0.210133 0.424349
Si Si5 0.581284 0.417275 0.850873
Si Si6 0.355581 0.346022 0.797164
Si Si7 0.781317 0.639751 0.836457
O O1 0.064308 0.287187 0.328769
O O2 0.916891 0.223022 0.950173
O O3 0.888802 0.346970 0.988013
O O4 0.000000 0.328044 0.000000
O O5 0.588136 0.500000 0.310558
O O6 0.532122 0.398872 0.342901
O O7 0.615569 0.370630 0.281470
O O8 0.718721 0.417469 0.649559
O O9 0.187638 0.335558 0.724259
O O10 0.250000 0.250000 0.000000
O O11 0.357135 0.363363 0.117700
O O12 0.218809 0.373253 0.021477
O O13 0.256737 0.176441 0.397065
O O14 0.280441 0.287398 0.307685
O O15 0.591806 0.500000 0.832444
O O16 0.622390 0.405774 0.062075
#
# Coordination Sequence:
#
# PCOD9183362 Si02
#       7
#     8   8   8   8   8   8   8
#     4  11  20  32  56  84 111 142 180 232 286 337
#     4  11  22  35  54  81 116 154 185 223 279 337
#     4   9  20  37  54  78 110 146 191 237 279 332
#     4   9  19  35  55  80 109 143 182 231 288 330
#     4  10  20  34  55  82 112 148 187 229 281 340
#     4  10  19  33  54  84 116 146 183 228 278 338
#     4  10  21  35  52  78 108 143 187 232 278 332
#
# _framework density 19.502828000000001
#
# number of rings (size 3 to 8) (size 9 to 14) (size 15 to 20)
#    0.000    2.000    0.000    5.143    0.000    5.143 
#    0.000    7.143    0.000    7.286    0.000    5.000 
#    0.000    0.000    0.000    0.000    0.000    0.000 
#
# Total GULP energy -156286.507834 kJ/mol
# GULP energy per Si atom -5581.660994 kJ/mol
# Density = 1.945844 g / cm^3
# Si number density = 19.502828 Si / 1000 Ang^3
#
#
#
# Elastic Constant Matrix: (Units=GPa)
#
#
# Indices 1 2 3 4 5 6 
#
# 1 145.3678 36.9795 58.8852 0.0000 18.0844 0.0000
# 2 36.9795 53.6829 21.3193 0.0000 15.7149 0.0000
# 3 58.8852 21.3193 122.6920 0.0000 26.6247 0.0000
# 4 0.0000 0.0000 0.0000 21.5605 0.0000 4.5475
# 5 18.0844 15.7149 26.6247 0.0000 27.7671 0.0000
# 6 0.0000 0.0000 0.0000 4.5475 0.0000 21.9117
#
#
#
# Elastic Compliance Matrix: (Units=1/GPa)
#
#
# Indices 1 2 3 4 5 6 
#
# 1 0.009730 -0.005277 -0.003821 0.000000 0.000313 0.000000
# 2 -0.005277 0.025391 0.000623 0.000000 -0.011530 0.000000
# 3 -0.003821 0.000623 0.011886 0.000000 -0.009261 0.000000
# 4 0.000000 0.000000 0.000000 0.048504 0.000000 -0.010066
# 5 0.000313 -0.011530 -0.009261 0.000000 0.051215 0.000000
# 6 0.000000 0.000000 0.000000 -0.010066 0.000000 0.047727
#
#
# Mechanical properties :
#
#
# Convention : Reuss Voigt Hill
#
# Bulk Modulus (GPa) = 33.27039 61.79007 47.53023
# Shear Modulus (GPa) = 22.58125 27.88512 25.23318
#
# Velocity S-wave (km/s) = 3.40640 3.78537 3.60088
# Velocity P-wave (km/s) = 5.70682 7.13139 6.45850
#
# Compressibility (1/GPa) = 0.03005676
#
# Stress axis : x y z
#
# Youngs Moduli (GPa) = 102.77136 39.38404 84.13450
#
# Poissons Ratio (x) = 0.20783 0.32148
# Poissons Ratio (y) = 0.54232 -0.05240
# Poissons Ratio (z) = 0.39269 -0.02453
#
# Static dielectric constant tensor:
#      x y z
#    x 1.702590 0.000000 -0.001820 
#    y 0.000000 1.722040 0.000000 
#    z -0.001820 0.000000 1.696290 
# 
# From -- ./inp_files/177932.got.cif
#   From: 2010.05.17/outbox.cif.g08.bks.cpg/sg12_89_cif.got.tgz:177932.got - 2010.06.03 13:09:07.
