data_PCOD9183388
_publ_section_title
;
Structure prediction by ZEFSAII (Michael W. Deem and Ramdas Pophale) SiO2 
 PCOD9183388
Probable space group: C 2/M
;
_chemical_formula_sum "Si O2"
_cell_formula_units_Z 56
_cell_length_a 20.278486
_cell_length_b 7.663588
_cell_length_c 19.883019
_cell_angle_alpha 90.000000
_cell_angle_beta 59.116161
_cell_angle_gamma 90.000000
_cell_volume 2651.816287
_symmetry_space_group_name_H-M "C 2/M"
_symmetry_group_IT_number 12
_symmetry_cell_setting 'monoclinic'
loop_
_space_group_symop_operation_xyz
x,y,z
-x,y,-z
-x,-y,-z
x,-y,z
1/2+x,1/2+y,z
1/2-x,1/2+y,-z
1/2-x,1/2-y,-z
1/2+x,1/2-y,z
loop_
_atom_site_type_symbol
_atom_site_label
_atom_site_fract_x
_atom_site_fract_y
_atom_site_fract_z
Si Si1 0.321763 0.290633 0.914847
Si Si2 0.171362 0.707055 0.501075
Si Si3 0.426603 0.199884 0.075076
Si Si4 0.406400 0.788248 0.329359
Si Si5 0.254587 0.794417 0.329578
Si Si6 0.243733 0.714646 0.822645
Si Si7 0.509153 0.295281 0.159339
O O1 0.328996 0.500000 0.908418
O O2 0.301963 0.228720 0.849965
O O3 0.404637 0.225649 0.895946
O O4 0.250000 0.250000 0.000000
O O5 0.164384 0.500000 0.499587
O O6 0.250000 0.750000 0.500000
O O7 0.105926 0.770516 0.587068
O O8 0.185109 0.773755 0.418767
O O9 0.341991 0.275237 0.111678
O O10 0.449156 0.202214 0.141621
O O11 0.421543 0.000000 0.053448
O O12 0.500000 0.283254 0.000000
O O13 0.331957 0.724335 0.325192
O O14 0.481050 0.728326 0.250331
O O15 0.405245 0.000000 0.330096
O O16 0.241223 0.725950 0.261504
O O17 0.268283 0.000000 0.314995
O O18 0.243151 0.500000 0.823109
O O19 0.506377 0.500000 0.144214
#
# Coordination Sequence:
#
# PCOD9183388 Si02
#       7
#     8   8   8   8   8   8   8
#     4  10  22  39  56  75 101 136 176 215 257 307
#     4   9  17  28  45  72 105 136 167 206 250 302
#     4  10  19  33  55  76  95 130 174 210 252 308
#     4   9  17  31  50  73 102 136 174 205 243 306
#     4   9  16  29  50  75 101 130 169 215 255 296
#     4   9  17  33  54  74  99 133 175 214 249 302
#     4  11  22  33  50  78 109 133 162 214 266 303
#
# _framework density 21.117601000000001
#
# number of rings (size 3 to 8) (size 9 to 14) (size 15 to 20)
#    0.000    2.429    1.429    2.571    0.000    5.429 
#    0.000    1.429    0.000    0.857    0.000    6.000 
#    0.000    0.000    0.000    0.000    0.000    0.000 
#
# Total GULP energy -156167.940568 kJ/mol
# GULP energy per Si atom -5577.426449 kJ/mol
# Density = 2.106954 g / cm^3
# Si number density = 21.117601 Si / 1000 Ang^3
#
#
#
# Elastic Constant Matrix: (Units=GPa)
#
#
# Indices 1 2 3 4 5 6 
#
# 1 40.6563 2.9812 -13.9364 0.0001 0.9627 0.0008
# 2 2.9812 41.0582 -7.0080 0.0016 3.0083 0.0010
# 3 -13.9364 -7.0080 95.7573 -0.0003 3.9146 0.0002
# 4 0.0001 0.0016 -0.0003 24.1005 -0.0001 2.4122
# 5 0.9627 3.0083 3.9146 -0.0001 27.6531 0.0004
# 6 0.0008 0.0010 0.0002 2.4122 0.0004 5.2210
#
#
#
# Elastic Compliance Matrix: (Units=1/GPa)
#
#
# Indices 1 2 3 4 5 6 
#
# 1 0.025998 -0.001151 0.003753 0.000000 -0.001311 -0.000004
# 2 -0.001151 0.024957 0.001779 -0.000001 -0.002927 -0.000004
# 3 0.003753 0.001779 0.011198 0.000000 -0.001909 -0.000001
# 4 0.000000 -0.000001 0.000000 0.043505 0.000001 -0.020100
# 5 -0.001311 -0.002927 -0.001909 0.000001 0.036797 -0.000002
# 6 -0.000004 -0.000004 -0.000001 -0.020100 -0.000002 0.200820
#
#
# Mechanical properties :
#
#
# Convention : Reuss Voigt Hill
#
# Bulk Modulus (GPa) = 14.10145 15.72726 14.91436
# Shear Modulus (GPa) = 13.96057 24.42392 19.19225
#
# Velocity S-wave (km/s) = 2.57395 3.40452 3.01795
# Velocity P-wave (km/s) = 3.94027 4.78728 4.38427
#
# Compressibility (1/GPa) = 0.07091468
#
# Stress axis : x y z
#
# Youngs Moduli (GPa) = 38.46384 40.06846 89.30551
#
# Poissons Ratio (x) = 0.04612 -0.33518
# Poissons Ratio (y) = 0.04427 -0.15884
# Poissons Ratio (z) = -0.14436 -0.07127
#
# Static dielectric constant tensor:
#      x y z
#    x 1.743800 0.000000 0.007630 
#    y 0.000000 1.811690 0.000000 
#    z 0.007630 0.000000 1.830490 
# 
# From -- ./inp_files/319023.got.cif
#   From: 2010.05.17/outbox.cif.g08.bks.cpg/sg12_160_cif.got.tgz:319023.got - 2010.06.03 13:09:07.
