data_PCOD9183357
_publ_section_title
;
Structure prediction by ZEFSAII (Michael W. Deem and Ramdas Pophale) SiO2 
 PCOD9183357
Probable space group: C 2/M
;
_chemical_formula_sum "Si O2"
_cell_formula_units_Z 56
_cell_length_a 12.252621
_cell_length_b 14.627303
_cell_length_c 14.968246
_cell_angle_alpha 90.000000
_cell_angle_beta 103.175584
_cell_angle_gamma 90.000000
_cell_volume 2612.033186
_symmetry_space_group_name_H-M "C 2/M"
_symmetry_group_IT_number 12
_symmetry_cell_setting 'monoclinic'
loop_
_space_group_symop_operation_xyz
x,y,z
-x,y,-z
-x,-y,-z
x,-y,z
1/2+x,1/2+y,z
1/2-x,1/2+y,-z
1/2-x,1/2-y,-z
1/2+x,1/2-y,z
loop_
_atom_site_type_symbol
_atom_site_label
_atom_site_fract_x
_atom_site_fract_y
_atom_site_fract_z
Si Si1 0.133795 0.779420 0.666527
Si Si2 0.984128 0.602739 0.361909
Si Si3 0.897900 0.787003 0.034128
Si Si4 0.496364 0.895086 0.850320
Si Si5 0.548922 0.401749 0.408362
Si Si6 0.234486 0.646345 0.467218
Si Si7 0.235413 0.683745 0.137358
O O1 0.203393 0.849429 0.617661
O O2 0.209042 0.770170 0.766921
O O3 0.100912 0.680877 0.620988
O O4 0.010708 0.823657 0.659585
O O5 0.946241 0.500000 0.374605
O O6 0.992984 0.613326 0.255402
O O7 0.107860 0.616073 0.427180
O O8 0.838354 0.850572 0.095804
O O9 0.940202 0.690478 0.089161
O O10 0.816326 0.758667 0.938439
O O11 0.000000 0.830467 0.000000
O O12 0.365830 0.881674 0.853293
O O13 0.531408 0.000000 0.881020
O O14 0.500000 0.388289 0.500000
O O15 0.511738 0.500000 0.367911
O O16 0.681655 0.401955 0.448078
O O17 0.250000 0.750000 0.500000
#
# Coordination Sequence:
#
# PCOD9183357 Si02
#       7
#     8   8   8   8   8   8   8
#     4  11  21  36  58  84 116 148 190 237 285 343
#     4  11  22  37  59  86 116 153 193 241 289 338
#     4   9  19  34  55  82 115 147 182 225 285 342
#     4  10  20  35  58  87 114 144 191 241 281 332
#     4   9  19  34  54  79 109 141 179 229 282 333
#     4  11  21  37  59  81 110 151 191 234 288 339
#     4  10  19  33  54  84 113 146 182 230 280 337
#
# _framework density 21.439238
#
# number of rings (size 3 to 8) (size 9 to 14) (size 15 to 20)
#    0.000    1.857    4.286    0.429    0.000    3.714 
#    0.000    2.143    0.000    0.429    0.000    3.000 
#    0.000    0.000    0.000    0.000    0.000    0.000 
#
# Total GULP energy -155988.781294 kJ/mol
# GULP energy per Si atom -5571.027903 kJ/mol
# Density = 2.139044 g / cm^3
# Si number density = 21.439238 Si / 1000 Ang^3
#
#
#
# Elastic Constant Matrix: (Units=GPa)
#
#
# Indices 1 2 3 4 5 6 
#
# 1 64.7351 3.2600 14.0822 0.0000 5.3702 0.0000
# 2 3.2600 82.8280 16.0458 0.0000 17.4428 0.0000
# 3 14.0822 16.0458 92.0857 0.0000 28.3681 0.0000
# 4 0.0000 0.0000 0.0000 -17.8539 0.0000 -0.1540
# 5 5.3702 17.4428 28.3681 0.0000 33.6992 0.0000
# 6 0.0000 0.0000 0.0000 -0.1540 0.0000 20.2594
#
#
#
# Elastic Compliance Matrix: (Units=1/GPa)
#
#
# Indices 1 2 3 4 5 6 
#
# 1 0.015990 -0.000063 -0.002240 0.000000 -0.000630 0.000000
# 2 -0.000063 0.013555 -0.000262 0.000000 -0.006786 0.000000
# 3 -0.002240 -0.000262 0.014981 0.000000 -0.012118 0.000000
# 4 0.000000 0.000000 0.000000 -0.056006 0.000000 -0.000426
# 5 -0.000630 -0.006786 -0.012118 0.000000 0.043488 0.000000
# 6 0.000000 0.000000 0.000000 -0.000426 0.000000 0.049357
#
#
# Mechanical properties :
#
#
# Convention : Reuss Voigt Hill
#
# Bulk Modulus (GPa) = 25.38297 34.04719 29.71508
# Shear Modulus (GPa) = 50.18702 20.97167 35.57935
#
# Velocity S-wave (km/s) = 4.84353 3.13100 4.07817
# Velocity P-wave (km/s) = 6.56848 5.38388 6.00546
#
# Compressibility (1/GPa) = 0.03939649
#
# Stress axis : x y z
#
# Youngs Moduli (GPa) = 62.53781 73.77101 66.75171
#
# Poissons Ratio (x) = 0.00463 0.14955
# Poissons Ratio (y) = 0.00392 0.01749
# Poissons Ratio (z) = 0.14011 0.01933
#
# Static dielectric constant tensor:
#      x y z
#    x 1.975100 0.000000 -0.044150 
#    y 0.000000 2.703380 0.000000 
#    z -0.044150 0.000000 1.796800 
# 
# From -- ./inp_files/269948.got.cif
#   From: 2010.05.17/outbox.cif.g08.bks.cpg/sg12_135_cif.got.tgz:269948.got - 2010.06.03 13:09:07.
