data_PCOD9183063
_publ_section_title
;
Structure prediction by ZEFSAII (Michael W. Deem and Ramdas Pophale) SiO2 
 PCOD9183063
Probable space group: C 2/M
;
_chemical_formula_sum "Si O2"
_cell_formula_units_Z 56
_cell_length_a 29.355755
_cell_length_b 7.536395
_cell_length_c 12.192743
_cell_angle_alpha 90.000000
_cell_angle_beta 113.543227
_cell_angle_gamma 90.000000
_cell_volume 2472.939535
_symmetry_space_group_name_H-M "C 2/M"
_symmetry_group_IT_number 12
_symmetry_cell_setting 'monoclinic'
loop_
_space_group_symop_operation_xyz
x,y,z
-x,y,-z
-x,-y,-z
x,-y,z
1/2+x,1/2+y,z
1/2-x,1/2+y,-z
1/2-x,1/2-y,-z
1/2+x,1/2-y,z
loop_
_atom_site_type_symbol
_atom_site_label
_atom_site_fract_x
_atom_site_fract_y
_atom_site_fract_z
Si Si1 0.946050 0.706715 0.411373
Si Si2 0.092648 0.782683 0.297678
Si Si3 0.019105 0.214625 0.785733
Si Si4 0.919895 0.202188 0.958535
Si Si5 0.323639 0.209429 0.994818
Si Si6 0.151312 0.203195 0.553664
Si Si7 0.283591 0.714592 0.191000
O O1 0.943695 0.500000 0.440020
O O2 0.946725 0.721843 0.280676
O O3 0.899446 0.797420 0.423523
O O4 0.000000 0.779121 0.500000
O O5 0.093746 0.721109 0.172951
O O6 0.134941 0.717343 0.421377
O O7 0.037895 0.733278 0.288418
O O8 0.095485 0.000000 0.302653
O O9 0.021436 0.000000 0.789055
O O10 0.037956 0.280800 0.921988
O O11 0.935996 0.000000 0.950244
O O12 0.871044 0.201380 0.986771
O O13 0.317054 0.236786 0.118263
O O14 0.328391 0.000000 0.978769
O O15 0.272199 0.274580 0.890300
O O16 0.192755 0.283408 0.673521
O O17 0.166615 0.000000 0.547706
O O18 0.282815 0.500000 0.194348
#
# Coordination Sequence:
#
# PCOD9183063 Si02
#       7
#     8   8   8   8   8   8   8
#     4  11  22  33  47  73 109 138 162 202 254 304
#     4   9  18  33  53  75 100 133 172 213 250 290
#     4  10  19  33  54  76  99 133 176 214 247 291
#     4  10  20  34  53  77 103 132 171 214 251 292
#     4  10  20  35  54  77 105 133 165 207 257 307
#     4  10  19  34  56  77  99 132 174 212 249 296
#     4   9  19  35  56  80 102 128 166 213 256 297
#
# _framework density 22.645115000000001
#
# number of rings (size 3 to 8) (size 9 to 14) (size 15 to 20)
#    0.000    2.143    1.429    2.143    0.000    7.429 
#    0.000    2.143    0.000    1.714    0.000    0.000 
#    0.000    0.000    0.000    0.000    0.000    0.000 
#
# Total GULP energy -156424.834116 kJ/mol
# GULP energy per Si atom -5586.601218 kJ/mol
# Density = 2.259357 g / cm^3
# Si number density = 22.645115 Si / 1000 Ang^3
#
#
#
# Elastic Constant Matrix: (Units=GPa)
#
#
# Indices 1 2 3 4 5 6 
#
# 1 21.5656 -4.6182 3.0654 0.0000 5.5752 0.0000
# 2 -4.6182 66.7312 1.4514 0.0000 3.1776 0.0000
# 3 3.0654 1.4514 189.9882 0.0000 7.4577 0.0000
# 4 0.0000 0.0000 0.0000 -5.4894 0.0000 20.0134
# 5 5.5752 3.1776 7.4577 0.0000 29.5321 0.0000
# 6 0.0000 0.0000 0.0000 20.0134 0.0000 -24.4763
#
#
#
# Elastic Compliance Matrix: (Units=1/GPa)
#
#
# Indices 1 2 3 4 5 6 
#
# 1 0.049782 0.003917 -0.000452 0.000000 -0.009705 0.000000
# 2 0.003917 0.015371 -0.000088 0.000000 -0.002371 0.000000
# 3 -0.000452 -0.000088 0.005320 0.000000 -0.001249 0.000000
# 4 0.000000 0.000000 0.000000 0.091955 0.000000 0.075189
# 5 -0.009705 -0.002371 -0.001249 0.000000 0.036264 0.000000
# 6 0.000000 0.000000 0.000000 0.075189 0.000000 0.020623
#
#
# Mechanical properties :
#
#
# Convention : Reuss Voigt Hill
#
# Bulk Modulus (GPa) = 12.94845 30.89802 21.92323
# Shear Modulus (GPa) = 20.98151 18.47236 19.72694
#
# Velocity S-wave (km/s) = 3.04721 2.85920 2.95470
# Velocity P-wave (km/s) = 4.25571 4.95723 4.61980
#
# Compressibility (1/GPa) = 0.07722933
#
# Stress axis : x y z
#
# Youngs Moduli (GPa) = 20.08743 65.05585 187.95330
#
# Poissons Ratio (x) = -0.25484 0.08499
# Poissons Ratio (y) = -0.07869 0.01646
# Poissons Ratio (z) = 0.00908 0.00570
#
# Static dielectric constant tensor:
#      x y z
#    x 1.783760 0.000000 0.015450 
#    y 0.000000 1.865960 0.000000 
#    z 0.015450 0.000000 1.901240 
# 
# From -- ./inp_files/180828.got.cif
#   From: 2010.05.17/outbox.cif.g08.bks.cpg/sg12_91_cif.got.tgz:180828.got - 2010.06.03 13:09:07.
