data_PCOD9183328
_publ_section_title
;
Structure prediction by ZEFSAII (Michael W. Deem and Ramdas Pophale) SiO2 
 PCOD9183328
Probable space group: C 2/M
;
_chemical_formula_sum "Si O2"
_cell_formula_units_Z 56
_cell_length_a 19.738030
_cell_length_b 9.040374
_cell_length_c 27.995157
_cell_angle_alpha 90.000000
_cell_angle_beta 39.204982
_cell_angle_gamma 90.000000
_cell_volume 3157.596423
_symmetry_space_group_name_H-M "C 2/M"
_symmetry_group_IT_number 12
_symmetry_cell_setting 'monoclinic'
loop_
_space_group_symop_operation_xyz
x,y,z
-x,y,-z
-x,-y,-z
x,-y,z
1/2+x,1/2+y,z
1/2-x,1/2+y,-z
1/2-x,1/2-y,-z
1/2+x,1/2-y,z
loop_
_atom_site_type_symbol
_atom_site_label
_atom_site_fract_x
_atom_site_fract_y
_atom_site_fract_z
Si Si1 0.076640 0.321580 0.002464
Si Si2 0.344506 0.823173 0.292839
Si Si3 0.173748 0.822488 0.139768
Si Si4 0.975364 0.822892 0.867831
Si Si5 0.502271 0.825588 0.700085
Si Si6 0.638864 0.671411 0.548849
Si Si7 0.385154 0.674240 0.551488
O O1 0.070455 0.500000 0.010825
O O2 0.042623 0.247941 0.070773
O O3 0.201403 0.282818 0.925653
O O4 0.000000 0.279246 0.000000
O O5 0.416026 0.739005 0.215206
O O6 0.404164 0.804219 0.311227
O O7 0.222739 0.767960 0.364790
O O8 0.345317 0.000000 0.282472
O O9 0.119563 0.782787 0.118182
O O10 0.103089 0.745472 0.219105
O O11 0.164133 0.000000 0.149972
O O12 0.978558 0.000000 0.869494
O O13 0.543221 0.748808 0.629788
O O14 0.488193 0.000000 0.700816
O O15 0.643634 0.500000 0.560608
O O16 0.750000 0.750000 0.500000
O O17 0.626718 0.679297 0.498791
O O18 0.500000 0.743567 0.500000
O O19 0.389088 0.500000 0.563466
#
# Coordination Sequence:
#
# PCOD9183328 Si02
#       7
#     8   8   8   8   8   8   8
#     4  10  21  38  58  80 108 142 180 216 258 318
#     4   9  17  33  55  78 105 138 180 220 259 314
#     4   9  19  36  57  82 108 137 178 222 263 313
#     4  10  20  34  56  83 108 137 174 220 273 316
#     4  10  19  33  54  83 110 138 178 222 271 316
#     4  11  20  33  55  81 109 141 181 225 270 316
#     4   9  18  34  54  77 104 139 184 226 263 310
#
# _framework density 17.735008000000001
#
# number of rings (size 3 to 8) (size 9 to 14) (size 15 to 20)
#    0.000    2.286    1.429    1.714    0.000    2.000 
#    2.571    0.000    0.000    3.000    0.000    0.000 
#    0.000    0.000    0.000    0.000    0.000    0.000 
#
# Total GULP energy -156182.693486 kJ/mol
# GULP energy per Si atom -5577.953339 kJ/mol
# Density = 1.769464 g / cm^3
# Si number density = 17.735008 Si / 1000 Ang^3
#
#
#
# Elastic Constant Matrix: (Units=GPa)
#
#
# Indices 1 2 3 4 5 6 
#
# 1 62.3218 28.5487 68.5324 0.0000 -26.3465 -0.0001
# 2 28.5487 39.5536 51.9120 0.0000 -5.0042 -0.0005
# 3 68.5324 51.9120 165.3907 0.0000 -19.7269 0.0000
# 4 0.0000 0.0000 0.0000 32.4520 0.0000 4.2657
# 5 -26.3465 -5.0042 -19.7269 0.0000 23.8476 0.0001
# 6 -0.0001 -0.0005 0.0000 4.2657 0.0001 18.6218
#
#
#
# Elastic Compliance Matrix: (Units=1/GPa)
#
#
# Indices 1 2 3 4 5 6 
#
# 1 0.063402 -0.021984 -0.012833 0.000000 0.054817 0.000000
# 2 -0.021984 0.050737 -0.009367 0.000000 -0.021389 0.000001
# 3 -0.012833 -0.009367 0.013734 0.000000 -0.004783 0.000000
# 4 0.000000 0.000000 0.000000 0.031771 0.000000 -0.007278
# 5 0.054817 -0.021389 -0.004783 0.000000 0.094049 -0.000001
# 6 0.000000 0.000001 0.000000 -0.007278 -0.000001 0.055368
#
#
# Mechanical properties :
#
#
# Convention : Reuss Voigt Hill
#
# Bulk Modulus (GPa) = 25.31335 62.80580 44.05958
# Shear Modulus (GPa) = 12.17739 22.86914 17.52326
#
# Velocity S-wave (km/s) = 2.62321 3.59484 3.14675
# Velocity P-wave (km/s) = 4.84552 7.26092 6.17252
#
# Compressibility (1/GPa) = 0.03950485
#
# Stress axis : x y z
#
# Youngs Moduli (GPa) = 15.77231 19.70950 72.81437
#
# Poissons Ratio (x) = 0.43329 0.93445
# Poissons Ratio (y) = 0.34673 0.68205
# Poissons Ratio (z) = 0.20241 0.18462
#
# Static dielectric constant tensor:
#      x y z
#    x 1.604180 0.000000 -0.020460 
#    y 0.000000 1.597270 0.000000 
#    z -0.020460 0.000000 1.592060 
# 
# From -- ./inp_files/362956.got.cif
#   From: 2010.05.17/outbox.cif.g08.bks.cpg/sg12_182_cif.got.tgz:362956.got - 2010.06.03 13:09:07.
