data_PCOD9183644
_publ_section_title
;
Structure prediction by ZEFSAII (Michael W. Deem and Ramdas Pophale) SiO2 
 PCOD9183644
Probable space group: C 2/M
;
_chemical_formula_sum "Si O2"
_cell_formula_units_Z 56
_cell_length_a 34.030658
_cell_length_b 8.811230
_cell_length_c 12.570780
_cell_angle_alpha 90.000000
_cell_angle_beta 60.439837
_cell_angle_gamma 90.000000
_cell_volume 3278.744400
_symmetry_space_group_name_H-M "C 2/M"
_symmetry_group_IT_number 12
_symmetry_cell_setting 'monoclinic'
loop_
_space_group_symop_operation_xyz
x,y,z
-x,y,-z
-x,-y,-z
x,-y,z
1/2+x,1/2+y,z
1/2-x,1/2+y,-z
1/2-x,1/2-y,-z
1/2+x,1/2-y,z
loop_
_atom_site_type_symbol
_atom_site_label
_atom_site_fract_x
_atom_site_fract_y
_atom_site_fract_z
Si Si1 0.106088 0.817789 0.983475
Si Si2 0.700934 0.680808 0.193433
Si Si3 0.610304 0.819352 0.394120
Si Si4 0.042616 0.819285 0.650303
Si Si5 0.952182 0.680791 0.122465
Si Si6 0.946205 0.318607 0.744570
Si Si7 0.203528 0.181737 0.939632
O O1 0.077220 0.756095 0.121654
O O2 0.101878 0.000000 0.985050
O O3 0.086307 0.744410 0.903642
O O4 0.158393 0.779109 0.935793
O O5 0.696964 0.500000 0.209012
O O6 0.661129 0.761594 0.310300
O O7 0.750968 0.735711 0.157295
O O8 0.695686 0.720240 0.074742
O O9 0.584200 0.736999 0.523733
O O10 0.583208 0.786108 0.320858
O O11 0.609379 0.000000 0.411839
O O12 0.047752 0.761312 0.763969
O O13 0.996534 0.745960 0.666863
O O14 0.038982 0.000000 0.652707
O O15 0.947753 0.500000 0.142414
O O16 0.000000 0.709788 0.000000
O O17 0.948306 0.500000 0.757048
O O18 0.210360 0.000000 0.925103
#
# Coordination Sequence:
#
# PCOD9183644 Si02
#       7
#     8   8   8   8   8   8   8
#     4  11  21  35  58  85 115 148 187 234 281 328
#     4  10  19  33  55  83 114 148 188 229 276 333
#     4  11  23  38  57  81 116 154 188 229 281 338
#     4  12  25  39  58  81 111 150 193 235 278 332
#     4  11  23  39  59  82 111 148 190 234 280 332
#     4  11  22  36  55  82 115 152 188 226 279 336
#     4   9  19  34  53  82 116 148 183 229 282 331
#
# _framework density 17.079709000000001
#
# number of rings (size 3 to 8) (size 9 to 14) (size 15 to 20)
#    0.000    1.286    2.857    3.857    0.000    5.714 
#    0.000    0.000    0.000    0.857    0.000    0.000 
#    0.000    0.000    0.000    0.000    0.000    0.000 
#
# Total GULP energy -156515.605163 kJ/mol
# GULP energy per Si atom -5589.843042 kJ/mol
# Density = 1.704083 g / cm^3
# Si number density = 17.079709 Si / 1000 Ang^3
#
#
#
# Elastic Constant Matrix: (Units=GPa)
#
#
# Indices 1 2 3 4 5 6 
#
# 1 89.6740 33.0715 29.3848 0.0000 -21.6182 0.0000
# 2 33.0715 50.3871 33.6182 0.0000 -7.3998 0.0000
# 3 29.3848 33.6182 78.7967 0.0000 -18.3766 0.0000
# 4 0.0000 0.0000 0.0000 29.7949 0.0000 -4.4665
# 5 -21.6182 -7.3998 -18.3766 0.0000 23.1226 0.0000
# 6 0.0000 0.0000 0.0000 -4.4665 0.0000 29.1795
#
#
#
# Elastic Compliance Matrix: (Units=1/GPa)
#
#
# Indices 1 2 3 4 5 6 
#
# 1 0.018168 -0.010527 0.001095 0.000000 0.014487 0.000000
# 2 -0.010527 0.033852 -0.012626 0.000000 -0.009043 0.000000
# 3 0.001095 -0.012626 0.020826 0.000000 0.013534 0.000000
# 4 0.000000 0.000000 0.000000 0.034351 0.000000 0.005258
# 5 0.014487 -0.009043 0.013534 0.000000 0.064654 0.000000
# 6 0.000000 0.000000 0.000000 0.005258 0.000000 0.035076
#
#
# Mechanical properties :
#
#
# Convention : Reuss Voigt Hill
#
# Bulk Modulus (GPa) = 34.80858 45.66745 40.23801
# Shear Modulus (GPa) = 19.18511 24.60494 21.89503
#
# Velocity S-wave (km/s) = 3.35516 3.79963 3.58429
# Velocity P-wave (km/s) = 5.95263 6.78568 6.38276
#
# Compressibility (1/GPa) = 0.02872855
#
# Stress axis : x y z
#
# Youngs Moduli (GPa) = 55.04314 29.54053 48.01743
#
# Poissons Ratio (x) = 0.31098 -0.05257
# Poissons Ratio (y) = 0.57945 0.60626
# Poissons Ratio (z) = -0.06027 0.37298
#
# Static dielectric constant tensor:
#      x y z
#    x 1.566460 0.000000 -0.001730 
#    y 0.000000 1.566360 0.000000 
#    z -0.001730 0.000000 1.548400 
# 
# From -- ./inp_files/181100.got.cif
#   From: 2010.05.17/outbox.cif.g08.bks.cpg/sg12_91_cif.got.tgz:181100.got - 2010.06.03 13:09:07.
