data_PCOD9183162
_publ_section_title
;
Structure prediction by ZEFSAII (Michael W. Deem and Ramdas Pophale) SiO2 
 PCOD9183162
Probable space group: C 2/M
;
_chemical_formula_sum "Si O2"
_cell_formula_units_Z 56
_cell_length_a 25.053346
_cell_length_b 7.566765
_cell_length_c 17.444196
_cell_angle_alpha 90.000000
_cell_angle_beta 45.035383
_cell_angle_gamma 90.000000
_cell_volume 2339.806674
_symmetry_space_group_name_H-M "C 2/M"
_symmetry_group_IT_number 12
_symmetry_cell_setting 'monoclinic'
loop_
_space_group_symop_operation_xyz
x,y,z
-x,y,-z
-x,-y,-z
x,-y,z
1/2+x,1/2+y,z
1/2-x,1/2+y,-z
1/2-x,1/2-y,-z
1/2+x,1/2-y,z
loop_
_atom_site_type_symbol
_atom_site_label
_atom_site_fract_x
_atom_site_fract_y
_atom_site_fract_z
Si Si1 0.414618 0.296885 0.095866
Si Si2 0.665970 0.717291 0.332303
Si Si3 0.624620 0.286462 0.533976
Si Si4 0.296428 0.199323 0.094636
Si Si5 0.422844 0.793262 0.255684
Si Si6 0.537535 0.706344 0.357841
Si Si7 0.588702 0.785147 0.143899
O O1 0.412974 0.500000 0.071111
O O2 0.359292 0.192323 0.097523
O O3 0.394878 0.290042 0.205451
O O4 0.500000 0.230708 0.000000
O O5 0.668195 0.500000 0.328515
O O6 0.677470 0.768249 0.409331
O O7 0.726664 0.784528 0.209766
O O8 0.584202 0.772940 0.382954
O O9 0.624641 0.500000 0.536236
O O10 0.630305 0.229147 0.616099
O O11 0.542018 0.219269 0.589898
O O12 0.273945 0.000000 0.095231
O O13 0.340595 0.278974 0.977730
O O14 0.507417 0.725793 0.191589
O O15 0.430232 0.000000 0.232681
O O16 0.522943 0.500000 0.387468
O O17 0.590402 0.724491 0.229578
O O18 0.588408 0.000000 0.142292
#
# Coordination Sequence:
#
# PCOD9183162 Si02
#       7
#     8   8   8   8   8   8   8
#     4  11  22  35  55  81 105 129 166 213 260 309
#     4   9  18  33  53  76 103 140 180 214 252 301
#     4   9  17  32  54  78 105 136 175 220 256 290
#     4  10  20  35  53  74 105 141 174 208 255 313
#     4  10  19  33  54  79 105 134 170 210 257 309
#     4   9  17  30  52  78 103 135 177 217 253 296
#     4   9  18  31  48  74 105 135 168 210 258 307
#
# _framework density 23.933603000000002
#
# number of rings (size 3 to 8) (size 9 to 14) (size 15 to 20)
#    0.000    2.429    1.429    1.286    0.000    4.000 
#    0.000    2.857    0.000    3.429    0.000    0.000 
#    0.000    0.000    0.000    0.000    0.000    0.000 
#
# Total GULP energy -156334.909674 kJ/mol
# GULP energy per Si atom -5583.389631 kJ/mol
# Density = 2.387913 g / cm^3
# Si number density = 23.933603 Si / 1000 Ang^3
#
#
#
# Elastic Constant Matrix: (Units=GPa)
#
#
# Indices 1 2 3 4 5 6 
#
# 1 28.7118 -6.2558 -1.3725 -0.0563 19.7832 -0.0398
# 2 -6.2558 64.0973 -4.0827 -0.0637 -3.1429 -0.0176
# 3 -1.3725 -4.0827 108.1267 0.0052 33.3662 -0.0068
# 4 -0.0563 -0.0637 0.0052 222.3056 0.0474 139.1731
# 5 19.7832 -3.1429 33.3662 0.0474 41.7790 0.0289
# 6 -0.0398 -0.0176 -0.0068 139.1731 0.0289 88.8298
#
#
#
# Elastic Compliance Matrix: (Units=1/GPa)
#
#
# Indices 1 2 3 4 5 6 
#
# 1 0.065285 0.005215 0.013860 -0.000080 -0.041590 0.000170
# 2 0.005215 0.016083 0.001410 0.000125 -0.002385 -0.000190
# 3 0.013860 0.001410 0.015221 -0.000055 -0.018613 0.000100
# 4 -0.000080 0.000125 -0.000055 0.234873 0.000080 -0.367985
# 5 -0.041590 -0.002385 -0.018613 0.000080 0.058315 -0.000164
# 6 0.000170 -0.000190 0.000100 -0.367985 -0.000164 0.587794
#
#
# Mechanical properties :
#
#
# Convention : Reuss Voigt Hill
#
# Bulk Modulus (GPa) = 7.26965 19.72375 13.49670
# Shear Modulus (GPa) = 5.08929 84.75932 44.92431
#
# Velocity S-wave (km/s) = 1.45981 5.95745 4.33718
# Velocity P-wave (km/s) = 2.42598 7.45524 5.54373
#
# Compressibility (1/GPa) = 0.13755827
#
# Stress axis : x y z
#
# Youngs Moduli (GPa) = 15.31749 62.17685 65.69741
#
# Poissons Ratio (x) = -0.32426 -0.91055
# Poissons Ratio (y) = -0.07988 -0.09260
# Poissons Ratio (z) = -0.21230 -0.08764
#
# Static dielectric constant tensor:
#      x y z
#    x 1.877350 -0.000010 -0.020750 
#    y -0.000010 1.891290 0.000000 
#    z -0.020750 0.000000 1.989930 
# 
# From -- ./inp_files/238436.got.cif
#   From: 2010.05.17/outbox.cif.g08.bks.cpg/sg12_120_cif.got.tgz:238436.got - 2010.06.03 13:09:07.
