data_PCOD9183373
_publ_section_title
;
Structure prediction by ZEFSAII (Michael W. Deem and Ramdas Pophale) SiO2 
 PCOD9183373
Probable space group: C 2/M
;
_chemical_formula_sum "Si O2"
_cell_formula_units_Z 56
_cell_length_a 19.823990
_cell_length_b 17.366564
_cell_length_c 13.973428
_cell_angle_alpha 90.000000
_cell_angle_beta 40.903723
_cell_angle_gamma 90.000000
_cell_volume 3149.995419
_symmetry_space_group_name_H-M "C 2/M"
_symmetry_group_IT_number 12
_symmetry_cell_setting 'monoclinic'
loop_
_space_group_symop_operation_xyz
x,y,z
-x,y,-z
-x,-y,-z
x,-y,z
1/2+x,1/2+y,z
1/2-x,1/2+y,-z
1/2-x,1/2-y,-z
1/2+x,1/2-y,z
loop_
_atom_site_type_symbol
_atom_site_label
_atom_site_fract_x
_atom_site_fract_y
_atom_site_fract_z
Si Si1 0.384669 0.910924 0.506957
Si Si2 0.461592 0.223889 0.646224
Si Si3 0.250035 0.310277 0.201121
Si Si4 0.580195 0.680586 0.678045
Si Si5 0.056459 0.910470 0.040472
Si Si6 0.892044 0.296000 0.172223
Si Si7 0.779499 0.411518 0.411191
O O1 0.489062 0.861262 0.394432
O O2 0.307990 0.866013 0.660702
O O3 0.334908 0.908714 0.455099
O O4 0.398506 0.000000 0.519785
O O5 0.500000 0.250662 0.500000
O O6 0.338703 0.218449 0.774643
O O7 0.510210 0.277454 0.674728
O O8 0.304657 0.240918 0.198672
O O9 0.342643 0.358857 0.056947
O O10 0.521844 0.610253 0.791648
O O11 0.600651 0.741151 0.741862
O O12 0.683779 0.647092 0.521107
O O13 0.082882 0.000000 0.009635
O O14 0.000000 0.891678 0.000000
O O15 0.856566 0.378565 0.249002
O O16 0.000000 0.296993 0.000000
O O17 0.748694 0.500000 0.426674
#
# Coordination Sequence:
#
# PCOD9183373 Si02
#       7
#     8   8   8   8   8   8   8
#     4  10  19  33  54  85 118 151 191 239 296 352
#     4  10  23  35  56  85 116 155 196 242 288 354
#     4  11  20  36  55  87 120 153 192 239 299 350
#     4  12  20  40  61  88 115 154 196 249 291 347
#     4  11  21  35  59  92 123 150 189 243 305 355
#     4  12  22  39  62  87 117 155 197 245 293 346
#     4  11  22  36  62  88 114 153 199 244 291 346
#
# _framework density 17.777802999999999
#
# number of rings (size 3 to 8) (size 9 to 14) (size 15 to 20)
#    0.000    1.000    5.714    3.000    0.000    6.286 
#    0.000    0.000    0.000    7.714    0.000    0.000 
#    0.000    0.000    0.000    0.000    0.000    0.000 
#
# Total GULP energy -156400.724608 kJ/mol
# GULP energy per Si atom -5585.740165 kJ/mol
# Density = 1.773734 g / cm^3
# Si number density = 17.777803 Si / 1000 Ang^3
#
#
#
# Elastic Constant Matrix: (Units=GPa)
#
#
# Indices 1 2 3 4 5 6 
#
# 1 93.4640 37.2962 27.5142 0.0000 -21.1699 0.0000
# 2 37.2962 67.2971 30.8926 0.0000 3.2564 0.0000
# 3 27.5142 30.8926 75.2089 0.0000 -11.7968 0.0000
# 4 0.0000 0.0000 0.0000 24.3278 0.0000 9.9002
# 5 -21.1699 3.2564 -11.7968 0.0000 23.4047 0.0000
# 6 0.0000 0.0000 0.0000 9.9002 0.0000 14.9241
#
#
#
# Elastic Compliance Matrix: (Units=1/GPa)
#
#
# Indices 1 2 3 4 5 6 
#
# 1 0.020021 -0.012553 0.001028 0.000000 0.020374 0.000000
# 2 -0.012553 0.027265 -0.009754 0.000000 -0.020064 0.000000
# 3 0.001028 -0.009754 0.018769 0.000000 0.011747 0.000000
# 4 0.000000 0.000000 0.000000 0.056305 0.000000 -0.037351
# 5 0.020374 -0.020064 0.011747 0.000000 0.069867 0.000000
# 6 0.000000 0.000000 0.000000 -0.037351 0.000000 0.091784
#
#
# Mechanical properties :
#
#
# Convention : Reuss Voigt Hill
#
# Bulk Modulus (GPa) = 42.56028 47.48620 45.02324
# Shear Modulus (GPa) = 14.95204 21.88245 18.41725
#
# Velocity S-wave (km/s) = 2.90323 3.51220 3.22214
# Velocity P-wave (km/s) = 5.93552 6.57392 6.26286
#
# Compressibility (1/GPa) = 0.02349609
#
# Stress axis : x y z
#
# Youngs Moduli (GPa) = 49.94819 36.67724 53.27804
#
# Poissons Ratio (x) = 0.46041 -0.05475
# Poissons Ratio (y) = 0.62701 0.51967
# Poissons Ratio (z) = -0.05133 0.35775
#
# Static dielectric constant tensor:
#      x y z
#    x 1.602760 0.000000 -0.008280 
#    y 0.000000 1.602510 0.000000 
#    z -0.008280 0.000000 1.617860 
# 
# From -- ./inp_files/157974.got.cif
#   From: 2010.05.17/outbox.cif.g08.bks.cpg/sg12_79_cif.got.tgz:157974.got - 2010.06.03 13:09:07.
