data_PCOD9183792
_publ_section_title
;
Structure prediction by ZEFSAII (Michael W. Deem and Ramdas Pophale) SiO2 
 PCOD9183792
Probable space group: C 2/M
;
_chemical_formula_sum "Si O2"
_cell_formula_units_Z 48
_cell_length_a 14.813070
_cell_length_b 7.547972
_cell_length_c 25.016879
_cell_angle_alpha 90.000000
_cell_angle_beta 44.413324
_cell_angle_gamma 90.000000
_cell_volume 1957.495222
_symmetry_space_group_name_H-M "C 2/M"
_symmetry_group_IT_number 12
_symmetry_cell_setting 'monoclinic'
loop_
_space_group_symop_operation_xyz
x,y,z
-x,y,-z
-x,-y,-z
x,-y,z
1/2+x,1/2+y,z
1/2-x,1/2+y,-z
1/2-x,1/2-y,-z
1/2+x,1/2-y,z
loop_
_atom_site_type_symbol
_atom_site_label
_atom_site_fract_x
_atom_site_fract_y
_atom_site_fract_z
Si Si1 0.891455 0.793501 0.896751
Si Si2 0.073791 0.202854 0.303599
Si Si3 0.627870 0.798503 0.973090
Si Si4 0.322022 0.790793 0.248640
Si Si5 0.682620 0.286260 0.630963
Si Si6 0.567367 0.786324 0.528417
O O1 0.894370 0.703241 0.953556
O O2 0.035001 0.784210 0.813999
O O3 0.860915 0.000000 0.919116
O O4 0.774457 0.723842 0.908872
O O5 0.215390 0.281991 0.252498
O O6 0.961815 0.285976 0.315215
O O7 0.004447 0.202134 0.391115
O O8 0.092864 0.000000 0.277133
O O9 0.634291 0.000000 0.948872
O O10 0.500000 0.716292 0.000000
O O11 0.270513 0.758010 0.329843
O O12 0.332017 0.000000 0.235228
O O13 0.677558 0.500000 0.628760
O O14 0.785685 0.224801 0.543748
O O15 0.500000 0.750512 0.500000
O O16 0.563990 0.000000 0.537712
#
# Coordination Sequence:
#
# PCOD9183792 Si02
#       6
#     8   8   8   8   8   8
#     4  10  21  37  59  86 115 147 180 220 268 317
#     4  10  22  37  55  78 106 144 186 228 275 329
#     4   9  19  38  63  88 114 145 180 218 263 318
#     4  11  23  38  55  79 112 148 185 225 269 321
#     4  10  21  38  56  77 107 143 184 229 280 332
#     4  10  19  33  56  81 105 137 179 233 286 328
#
# _framework density 24.521132000000001
#
# number of rings (size 3 to 8) (size 9 to 14) (size 15 to 20)
#    0.000    2.000    1.667    1.500    0.000    4.667 
#    0.000    6.667    0.000    0.000    0.000    0.000 
#    0.000    0.000    0.000    0.000    0.000    0.000 
#
# Total GULP energy -134024.113738 kJ/mol
# GULP energy per Si atom -5584.338072 kJ/mol
# Density = 2.446532 g / cm^3
# Si number density = 24.521132 Si / 1000 Ang^3
#
#
#
# Elastic Constant Matrix: (Units=GPa)
#
#
# Indices 1 2 3 4 5 6 
#
# 1 157.1271 6.9072 18.2244 0.0000 -56.9667 -0.0002
# 2 6.9072 61.1794 -4.0883 0.0012 -5.7714 -0.0017
# 3 18.2244 -4.0883 74.7596 -0.0001 -42.5303 0.0000
# 4 0.0000 0.0012 -0.0001 16.3898 0.0001 6.4377
# 5 -56.9667 -5.7714 -42.5303 0.0001 48.0141 0.0000
# 6 -0.0002 -0.0017 0.0000 6.4377 0.0000 3.9999
#
#
#
# Elastic Compliance Matrix: (Units=1/GPa)
#
#
# Indices 1 2 3 4 5 6 
#
# 1 0.016546 0.002257 0.014942 -0.000002 0.033138 0.000005
# 2 0.002257 0.017489 0.006300 -0.000011 0.010360 0.000026
# 3 0.014942 0.006300 0.041514 -0.000004 0.055258 0.000010
# 4 -0.000002 -0.000011 -0.000004 0.165881 -0.000008 -0.266982
# 5 0.033138 0.010360 0.055258 -0.000008 0.110337 0.000018
# 6 0.000005 0.000026 0.000010 -0.266982 0.000018 0.679706
#
#
# Mechanical properties :
#
#
# Convention : Reuss Voigt Hill
#
# Bulk Modulus (GPa) = 8.16014 37.23921 22.69968
# Shear Modulus (GPa) = 4.87650 31.81561 18.34605
#
# Velocity S-wave (km/s) = 1.41174 3.60596 2.73824
# Velocity P-wave (km/s) = 2.44793 5.70586 4.39028
#
# Compressibility (1/GPa) = 0.12254692
#
# Stress axis : x y z
#
# Youngs Moduli (GPa) = 60.43607 57.17909 24.08802
#
# Poissons Ratio (x) = -0.12903 -0.35992
# Poissons Ratio (y) = -0.13637 -0.15176
# Poissons Ratio (z) = -0.90304 -0.36023
#
# Static dielectric constant tensor:
#      x y z
#    x 1.986230 0.000000 -0.066390 
#    y 0.000000 1.952230 0.000000 
#    z -0.066390 0.000000 1.967030 
# 
# From -- ./inp_files/308303.got.cif
#   From: 2010.05.17/outbox.cif.g08.bks.cpg/sg12_155_cif.got.tgz:308303.got - 2010.06.03 13:09:07.
