data_PCOD9183096
_publ_section_title
;
Structure prediction by ZEFSAII (Michael W. Deem and Ramdas Pophale) SiO2 
 PCOD9183096
Probable space group: C 2/M
;
_chemical_formula_sum "Si O2"
_cell_formula_units_Z 56
_cell_length_a 19.560534
_cell_length_b 8.054345
_cell_length_c 19.147647
_cell_angle_alpha 90.000000
_cell_angle_beta 60.643318
_cell_angle_gamma 90.000000
_cell_volume 2629.274614
_symmetry_space_group_name_H-M "C 2/M"
_symmetry_group_IT_number 12
_symmetry_cell_setting 'monoclinic'
loop_
_space_group_symop_operation_xyz
x,y,z
-x,y,-z
-x,-y,-z
x,-y,z
1/2+x,1/2+y,z
1/2-x,1/2+y,-z
1/2-x,1/2-y,-z
1/2+x,1/2-y,z
loop_
_atom_site_type_symbol
_atom_site_label
_atom_site_fract_x
_atom_site_fract_y
_atom_site_fract_z
Si Si1 0.672804 0.809139 0.079688
Si Si2 0.235018 0.699553 0.586560
Si Si3 0.078101 0.802888 0.743155
Si Si4 0.677254 0.701822 0.325001
Si Si5 0.074614 0.191900 0.004902
Si Si6 0.162934 0.306017 0.834785
Si Si7 0.577526 0.695270 0.253077
O O1 0.647874 0.712791 0.161820
O O2 0.682147 0.000000 0.093507
O O3 0.750000 0.750000 0.000000
O O4 0.602172 0.784724 0.059770
O O5 0.229262 0.500000 0.594456
O O6 0.250000 0.750000 0.500000
O O7 0.153844 0.772561 0.656672
O O8 0.304410 0.754707 0.605120
O O9 0.097339 0.721756 0.808068
O O10 0.000817 0.735091 0.743323
O O11 0.068955 0.000000 0.760037
O O12 0.671852 0.500000 0.328744
O O13 0.756205 0.743131 0.242609
O O14 0.605639 0.764808 0.313638
O O15 0.143541 0.203778 0.913250
O O16 0.058912 0.000000 0.031217
O O17 0.000000 0.260147 0.000000
O O18 0.166546 0.500000 0.851809
O O19 0.562119 0.500000 0.271060
#
# Coordination Sequence:
#
# PCOD9183096 Si02
#       7
#     8   8   8   8   8   8   8
#     4  12  25  39  56  79 111 151 194 240 291 343
#     4  10  20  37  61  86 113 143 179 223 269 327
#     4  10  20  34  56  84 113 146 181 224 278 333
#     4   8  17  34  56  79 102 135 177 218 261 315
#     4  11  23  37  53  76 107 143 187 239 289 335
#     4  10  19  33  54  77 104 141 185 231 276 328
#     4  10  20  37  58  80 109 144 186 232 277 330
#
# _framework density 21.298649000000001
#
# number of rings (size 3 to 8) (size 9 to 14) (size 15 to 20)
#    0.000    1.857    0.000    5.571    0.000    6.857 
#    0.000    4.286    0.000    4.286    0.000    0.000 
#    0.000    0.000    0.000    0.000    0.000    0.000 
#
# Total GULP energy -156443.484704 kJ/mol
# GULP energy per Si atom -5587.267311 kJ/mol
# Density = 2.125017 g / cm^3
# Si number density = 21.298649 Si / 1000 Ang^3
#
#
#
# Elastic Constant Matrix: (Units=GPa)
#
#
# Indices 1 2 3 4 5 6 
#
# 1 120.4933 0.2197 21.5028 0.0000 29.0890 -0.0001
# 2 0.2197 27.8140 -12.7682 -0.0003 -1.1560 0.0001
# 3 21.5028 -12.7682 81.8518 0.0000 27.0546 0.0000
# 4 0.0000 -0.0003 0.0000 23.2557 0.0000 2.6326
# 5 29.0890 -1.1560 27.0546 0.0000 31.3149 -0.0001
# 6 -0.0001 0.0001 0.0000 2.6326 -0.0001 22.0806
#
#
#
# Elastic Compliance Matrix: (Units=1/GPa)
#
#
# Indices 1 2 3 4 5 6 
#
# 1 0.010726 -0.000238 0.000618 0.000000 -0.010506 0.000000
# 2 -0.000238 0.039371 0.007909 0.000000 -0.005159 0.000000
# 3 0.000618 0.007909 0.018731 0.000000 -0.016464 0.000000
# 4 0.000000 0.000000 0.000000 0.043589 0.000000 -0.005197
# 5 -0.010506 -0.005159 -0.016464 0.000000 0.055726 0.000000
# 6 0.000000 0.000000 0.000000 -0.005197 0.000000 0.045908
#
#
# Mechanical properties :
#
#
# Convention : Reuss Voigt Hill
#
# Bulk Modulus (GPa) = 11.70878 27.56308 19.63593
# Shear Modulus (GPa) = 22.12964 30.07722 26.10343
#
# Velocity S-wave (km/s) = 3.22687 3.76196 3.50464
# Velocity P-wave (km/s) = 4.40375 5.64261 5.06123
#
# Compressibility (1/GPa) = 0.08540598
#
# Stress axis : x y z
#
# Youngs Moduli (GPa) = 93.23434 25.39916 53.38848
#
# Poissons Ratio (x) = 0.00604 -0.03298
# Poissons Ratio (y) = 0.02217 -0.42226
# Poissons Ratio (z) = -0.05759 -0.20089
#
# Static dielectric constant tensor:
#      x y z
#    x 1.849730 0.000000 0.001480 
#    y 0.000000 1.764950 0.000000 
#    z 0.001480 0.000000 1.743350 
# 
# From -- ./inp_files/280873.got.cif
#   From: 2010.05.17/outbox.cif.g08.bks.cpg/sg12_141_cif.got.tgz:280873.got - 2010.06.03 13:09:07.
