data_PCOD9183448
_publ_section_title
;
Structure prediction by ZEFSAII (Michael W. Deem and Ramdas Pophale) SiO2 
 PCOD9183448
Probable space group: C 2/M
;
_chemical_formula_sum "Si O2"
_cell_formula_units_Z 64
_cell_length_a 15.898180
_cell_length_b 7.899598
_cell_length_c 24.997343
_cell_angle_alpha 90.000000
_cell_angle_beta 100.089531
_cell_angle_gamma 90.000000
_cell_volume 3090.846954
_symmetry_space_group_name_H-M "C 2/M"
_symmetry_group_IT_number 12
_symmetry_cell_setting 'monoclinic'
loop_
_space_group_symop_operation_xyz
x,y,z
-x,y,-z
-x,-y,-z
x,-y,z
1/2+x,1/2+y,z
1/2-x,1/2+y,-z
1/2-x,1/2-y,-z
1/2+x,1/2-y,z
loop_
_atom_site_type_symbol
_atom_site_label
_atom_site_fract_x
_atom_site_fract_y
_atom_site_fract_z
Si Si1 0.254411 0.693094 0.439442
Si Si2 0.661567 0.794631 0.325511
Si Si3 0.557302 0.197601 0.555531
Si Si4 0.305277 0.292737 0.258213
Si Si5 0.710323 0.702787 0.865055
Si Si6 0.980396 0.799222 0.333437
Si Si7 0.618673 0.793079 0.057465
Si Si8 0.568915 0.795904 0.933342
O O1 0.227172 0.500000 0.438015
O O2 0.250000 0.750000 0.500000
O O3 0.196734 0.773921 0.386571
O O4 0.352276 0.709366 0.431771
O O5 0.726003 0.739164 0.286241
O O6 0.564332 0.739455 0.308755
O O7 0.664235 0.000000 0.326317
O O8 0.500000 0.261327 0.500000
O O9 0.511398 0.216722 0.607148
O O10 0.575724 0.000000 0.547202
O O11 0.306228 0.500000 0.257936
O O12 0.297414 0.233496 0.196403
O O13 0.393924 0.238479 0.295385
O O14 0.719590 0.500000 0.862774
O O15 0.795232 0.767763 0.904646
O O16 0.626707 0.738756 0.890804
O O17 0.973218 0.000000 0.340823
O O18 0.530335 0.741320 0.076591
O O19 0.619903 0.000000 0.057573
O O20 0.610316 0.739943 0.994544
O O21 0.568546 0.000000 0.933598
#
# Coordination Sequence:
#
# PCOD9183448 Si02
#       8
#     8   8   8   8   8   8   8   8
#     4  11  22  37  58  84 116 147 181 225 278 335
#     4  10  21  40  60  80 109 147 183 224 277 336
#     4  11  23  38  57  84 115 145 181 226 275 333
#     4   9  20  39  57  76 110 149 184 227 278 333
#     4  10  19  33  55  79 105 145 190 226 273 332
#     4  11  22  39  60  83 109 144 184 230 283 332
#     4   8  16  31  52  77 109 149 184 219 275 336
#     4   9  17  32  52  78 112 144 181 231 276 322
#
# _framework density 20.706298
#
# number of rings (size 3 to 8) (size 9 to 14) (size 15 to 20)
#    0.000    2.125    1.250    3.000    0.000    6.000 
#    0.000    5.000    0.000    0.000    0.000    0.000 
#    0.000    0.000    0.000    0.000    0.000    0.000 
#
# Total GULP energy -178710.695654 kJ/mol
# GULP energy per Si atom -5584.709239 kJ/mol
# Density = 2.065917 g / cm^3
# Si number density = 20.706298 Si / 1000 Ang^3
#
#
#
# Elastic Constant Matrix: (Units=GPa)
#
#
# Indices 1 2 3 4 5 6 
#
# 1 115.2008 -7.6036 56.7528 0.0000 -26.8813 0.0000
# 2 -7.6036 18.1874 6.6528 0.0000 0.2666 0.0000
# 3 56.7528 6.6528 113.6958 0.0000 -26.5795 0.0000
# 4 0.0000 0.0000 0.0000 10.1001 0.0000 -10.9682
# 5 -26.8813 0.2666 -26.5795 0.0000 22.4568 0.0000
# 6 0.0000 0.0000 0.0000 -10.9682 0.0000 25.1825
#
#
#
# Elastic Compliance Matrix: (Units=1/GPa)
#
#
# Indices 1 2 3 4 5 6 
#
# 1 0.014196 0.007583 -0.004947 0.000000 0.011048 0.000000
# 2 0.007583 0.060889 -0.007459 0.000000 -0.000474 0.000000
# 3 -0.004947 -0.007459 0.014292 0.000000 0.011083 0.000000
# 4 0.000000 0.000000 0.000000 0.187866 0.000000 0.081825
# 5 0.011048 -0.000474 0.011083 0.000000 0.070877 0.000000
# 6 0.000000 0.000000 0.000000 0.081825 0.000000 0.075349
#
#
# Mechanical properties :
#
#
# Convention : Reuss Voigt Hill
#
# Bulk Modulus (GPa) = 12.54227 39.85420 26.19824
# Shear Modulus (GPa) = 10.87684 24.30002 17.58843
#
# Velocity S-wave (km/s) = 2.29441 3.42944 2.91765
# Velocity P-wave (km/s) = 3.61794 5.91359 4.90204
#
# Compressibility (1/GPa) = 0.07973040
#
# Stress axis : x y z
#
# Youngs Moduli (GPa) = 70.44214 16.42344 69.96861
#
# Poissons Ratio (x) = -0.12453 0.34615
# Poissons Ratio (y) = -0.53414 0.52187
# Poissons Ratio (z) = 0.34849 0.12250
#
# Static dielectric constant tensor:
#      x y z
#    x 1.726750 0.000000 0.007910 
#    y 0.000000 1.752870 0.000000 
#    z 0.007910 0.000000 1.739040 
# 
# From -- ./inp_files/338790.got.cif
#   From: 2010.05.17/outbox.cif.g08.bks.cpg/sg12_170_cif.got.tgz:338790.got - 2010.06.03 13:09:07.
