data_PCOD9183592
_publ_section_title
;
Structure prediction by ZEFSAII (Michael W. Deem and Ramdas Pophale) SiO2 
 PCOD9183592
Probable space group: C 2/M
;
_chemical_formula_sum "Si O2"
_cell_formula_units_Z 40
_cell_length_a 13.970188
_cell_length_b 19.942766
_cell_length_c 18.146012
_cell_angle_alpha 90.000000
_cell_angle_beta 160.908825
_cell_angle_gamma 90.000000
_cell_volume 1653.532243
_symmetry_space_group_name_H-M "C 2/M"
_symmetry_group_IT_number 12
_symmetry_cell_setting 'monoclinic'
loop_
_space_group_symop_operation_xyz
x,y,z
-x,y,-z
-x,-y,-z
x,-y,z
1/2+x,1/2+y,z
1/2-x,1/2+y,-z
1/2-x,1/2-y,-z
1/2+x,1/2-y,z
loop_
_atom_site_type_symbol
_atom_site_label
_atom_site_fract_x
_atom_site_fract_y
_atom_site_fract_z
Si Si1 0.607132 0.421498 0.849825
Si Si2 0.336613 0.659899 0.517200
Si Si3 0.208292 0.072888 0.223277
Si Si4 0.346801 0.199598 0.251876
Si Si5 0.305757 0.921639 0.783890
O O1 0.590734 0.500000 0.811870
O O2 0.448588 0.373252 0.675972
O O3 0.470013 0.421608 0.831146
O O4 0.950512 0.402099 0.099028
O O5 0.477433 0.732760 0.605757
O O6 0.498077 0.614032 0.574776
O O7 0.992319 0.671288 0.282140
O O8 0.388133 0.140089 0.340759
O O9 0.362437 0.000000 0.332154
O O10 0.000000 0.072569 0.000000
O O11 0.000000 0.214989 0.000000
O O12 0.248480 0.000000 0.734961
O O13 0.500000 0.910967 0.000000
#
# Coordination Sequence:
#
# PCOD9183592 Si02
#       5
#     8   8   8   8   8
#     4   9  17  32  59  89 112 142 187 237 281 325
#     4  10  19  33  55  82 112 143 186 234 278 338
#     4   9  19  36  56  80 114 152 186 224 279 339
#     4  10  21  36  52  74 112 154 185 223 281 337
#     4   8  14  27  50  81 112 137 171 228 286 327
#
# _framework density 24.190639000000001
#
# number of rings (size 3 to 8) (size 9 to 14) (size 15 to 20)
#    0.000    2.800    0.000    3.600    0.000    2.400 
#    0.000   11.000    0.000    9.600    0.000   18.200 
#    0.000    0.000    0.000    0.000    0.000    1.800 
#
# Total GULP energy -111602.230187 kJ/mol
# GULP energy per Si atom -5580.111509 kJ/mol
# Density = 2.413558 g / cm^3
# Si number density = 24.190639 Si / 1000 Ang^3
#
#
#
# Elastic Constant Matrix: (Units=GPa)
#
#
# Indices 1 2 3 4 5 6 
#
# 1 152.8998 53.3173 41.5707 0.0190 37.5643 0.0049
# 2 53.3173 132.5902 16.6528 0.1160 24.4014 0.0066
# 3 41.5707 16.6528 129.3085 0.2870 35.0180 -0.0278
# 4 0.0190 0.1160 0.2870 36.3452 -0.0516 28.9555
# 5 37.5643 24.4014 35.0180 -0.0516 64.0729 0.0273
# 6 0.0049 0.0066 -0.0278 28.9555 0.0273 31.4111
#
#
#
# Elastic Compliance Matrix: (Units=1/GPa)
#
#
# Indices 1 2 3 4 5 6 
#
# 1 0.008703 -0.002711 -0.001581 0.000043 -0.003206 -0.000039
# 2 -0.002711 0.008962 0.000248 -0.000122 -0.001959 0.000113
# 3 -0.001581 0.000248 0.009372 -0.000338 -0.004291 0.000324
# 4 0.000043 -0.000122 -0.000338 0.103607 0.000330 -0.095508
# 5 -0.003206 -0.001959 -0.004291 0.000330 0.020578 -0.000325
# 6 -0.000039 0.000113 0.000324 -0.095508 -0.000325 0.119878
#
#
# Mechanical properties :
#
#
# Convention : Reuss Voigt Hill
#
# Bulk Modulus (GPa) = 52.76964 70.87556 61.82260
# Shear Modulus (GPa) = 17.51292 46.58302 32.04797
#
# Velocity S-wave (km/s) = 2.69356 4.39300 3.64374
# Velocity P-wave (km/s) = 5.61561 7.42251 6.58136
#
# Compressibility (1/GPa) = 0.01895029
#
# Stress axis : x y z
#
# Youngs Moduli (GPa) = 114.90278 111.58527 106.69658
#
# Poissons Ratio (x) = 0.30253 0.16865
# Poissons Ratio (y) = 0.31152 -0.02650
# Poissons Ratio (z) = 0.18162 -0.02772
#
# Static dielectric constant tensor:
#      x y z
#    x 1.986620 0.000030 -0.014970 
#    y 0.000030 1.914530 -0.000210 
#    z -0.014970 -0.000210 2.017870 
# 
# From -- ./inp_files/312188.got.cif
#   From: 2010.05.17/outbox.cif.g08.bks.cpg/sg12_157_cif.got.tgz:312188.got - 2010.06.03 13:09:07.
