data_PCOD9183210
_publ_section_title
;
Structure prediction by ZEFSAII (Michael W. Deem and Ramdas Pophale) SiO2 
 PCOD9183210
Probable space group: C 2/M
;
_chemical_formula_sum "Si O2"
_cell_formula_units_Z 56
_cell_length_a 28.601694
_cell_length_b 14.033570
_cell_length_c 24.670811
_cell_angle_alpha 90.000000
_cell_angle_beta 18.685597
_cell_angle_gamma 90.000000
_cell_volume 3172.501176
_symmetry_space_group_name_H-M "C 2/M"
_symmetry_group_IT_number 12
_symmetry_cell_setting 'monoclinic'
loop_
_space_group_symop_operation_xyz
x,y,z
-x,y,-z
-x,-y,-z
x,-y,z
1/2+x,1/2+y,z
1/2-x,1/2+y,-z
1/2-x,1/2-y,-z
1/2+x,1/2-y,z
loop_
_atom_site_type_symbol
_atom_site_label
_atom_site_fract_x
_atom_site_fract_y
_atom_site_fract_z
Si Si1 0.590242 0.721580 0.744924
Si Si2 0.619880 0.386851 0.823766
Si Si3 0.605004 0.113389 0.183699
Si Si4 0.827393 0.609967 0.685288
Si Si5 0.145299 0.107949 0.182555
Si Si6 0.893486 0.794017 0.396681
Si Si7 0.745911 0.277833 0.879951
O O1 0.602857 0.655208 0.783351
O O2 0.727414 0.792487 0.599609
O O3 0.612627 0.679822 0.660110
O O4 0.422094 0.752177 0.927956
O O5 0.607098 0.500000 0.832701
O O6 0.772332 0.363435 0.685914
O O7 0.500000 0.355189 0.000000
O O8 0.472116 0.188727 0.318634
O O9 0.691807 0.150009 0.142100
O O10 0.565457 0.000000 0.231898
O O11 0.721366 0.123009 0.006717
O O12 0.780325 0.500000 0.746013
O O13 0.761965 0.673792 0.804345
O O14 0.000000 0.614211 0.500000
O O15 0.161921 0.182713 0.212478
O O16 0.998502 0.133832 0.311965
O O17 0.148340 0.000000 0.197323
#
# Coordination Sequence:
#
# PCOD9183210 Si02
#       7
#     8   8   8   8   8   8   8
#     4  11  21  34  53  78 115 152 184 228 276 339
#     4  10  21  35  52  81 117 149 183 221 273 343
#     4  10  19  33  54  80 108 144 185 227 270 327
#     4  10  22  37  55  85 114 142 182 225 274 335
#     4  10  20  36  56  78 105 141 190 233 271 320
#     4  10  21  37  52  80 115 148 193 230 277 334
#     4  11  19  36  57  79 110 149 185 225 282 335
#
# _framework density 17.651688
#
# number of rings (size 3 to 8) (size 9 to 14) (size 15 to 20)
#    0.000    1.714    4.286    1.286    4.000    1.714 
#    0.000    2.857    0.000    0.429    0.000    1.000 
#    0.000    0.000    0.000    0.000    0.000    0.000 
#
# Total GULP energy -156029.218973 kJ/mol
# GULP energy per Si atom -5572.472106 kJ/mol
# Density = 1.761151 g / cm^3
# Si number density = 17.651688 Si / 1000 Ang^3
#
#
#
# Elastic Constant Matrix: (Units=GPa)
#
#
# Indices 1 2 3 4 5 6 
#
# 1 112.7197 36.2997 28.7907 0.0007 -13.7934 0.0000
# 2 36.2997 66.8274 10.0888 0.0080 2.9448 -0.0020
# 3 28.7907 10.0888 55.3100 0.0029 -6.2194 -0.0015
# 4 0.0007 0.0080 0.0029 17.6164 -0.0021 0.8416
# 5 -13.7934 2.9448 -6.2194 -0.0021 24.2500 0.0002
# 6 0.0000 -0.0020 -0.0015 0.8416 0.0002 12.2529
#
#
#
# Elastic Compliance Matrix: (Units=1/GPa)
#
#
# Indices 1 2 3 4 5 6 
#
# 1 0.013126 -0.006713 -0.004816 0.000004 0.007046 -0.000002
# 2 -0.006713 0.018990 -0.000678 -0.000009 -0.006298 0.000004
# 3 -0.004816 -0.000678 0.021018 -0.000003 0.002734 0.000003
# 4 0.000004 -0.000009 -0.000003 0.056952 0.000008 -0.003912
# 5 0.007046 -0.006298 0.002734 0.000008 0.046711 -0.000002
# 6 -0.000002 0.000004 0.000003 -0.003912 -0.000002 0.081882
#
#
# Mechanical properties :
#
#
# Convention : Reuss Voigt Hill
#
# Bulk Modulus (GPa) = 34.81812 42.80171 38.80991
# Shear Modulus (GPa) = 18.33755 21.46906 19.90330
#
# Velocity S-wave (km/s) = 3.22662 3.49128 3.36156
# Velocity P-wave (km/s) = 5.80081 6.36809 6.09106
#
# Compressibility (1/GPa) = 0.02872068
#
# Stress axis : x y z
#
# Youngs Moduli (GPa) = 76.18688 52.65852 47.57927
#
# Poissons Ratio (x) = 0.35350 0.22912
# Poissons Ratio (y) = 0.51145 0.03225
# Poissons Ratio (z) = 0.36688 0.03569
#
# Static dielectric constant tensor:
#      x y z
#    x 1.601850 0.000000 -0.030240 
#    y 0.000000 1.589600 0.000000 
#    z -0.030240 0.000000 1.664710 
# 
# From -- ./inp_files/352038.got.cif
#   From: 2010.05.17/outbox.cif.g08.bks.cpg/sg12_177_cif.got.tgz:352038.got - 2010.06.03 13:09:07.
