data_PCOD9183478
_publ_section_title
;
Structure prediction by ZEFSAII (Michael W. Deem and Ramdas Pophale) SiO2 
 PCOD9183478
Probable space group: C 2/M
;
_chemical_formula_sum "Si O2"
_cell_formula_units_Z 48
_cell_length_a 14.904007
_cell_length_b 15.425331
_cell_length_c 11.334385
_cell_angle_alpha 90.000000
_cell_angle_beta 79.419388
_cell_angle_gamma 90.000000
_cell_volume 2561.462068
_symmetry_space_group_name_H-M "C 2/M"
_symmetry_group_IT_number 12
_symmetry_cell_setting 'monoclinic'
loop_
_space_group_symop_operation_xyz
x,y,z
-x,y,-z
-x,-y,-z
x,-y,z
1/2+x,1/2+y,z
1/2-x,1/2+y,-z
1/2-x,1/2-y,-z
1/2+x,1/2-y,z
loop_
_atom_site_type_symbol
_atom_site_label
_atom_site_fract_x
_atom_site_fract_y
_atom_site_fract_z
Si Si1 0.977358 0.897134 0.317353
Si Si2 0.368634 0.000000 0.929599
Si Si3 0.932143 0.500000 0.188036
Si Si4 0.197345 0.346782 0.753452
Si Si5 0.574927 0.300693 0.897456
Si Si6 0.650248 0.604402 0.443102
Si Si7 0.730584 0.646712 0.012900
O O1 0.976130 0.850430 0.193568
O O2 0.889014 0.873865 0.418580
O O3 0.066371 0.878425 0.374024
O O4 0.974470 0.000000 0.301040
O O5 0.306220 0.914291 0.933218
O O6 0.459023 0.000000 0.828515
O O7 0.405555 0.000000 0.055340
O O8 0.881661 0.416451 0.250772
O O9 0.144310 0.263490 0.814599
O O10 0.263097 0.343742 0.625682
O O11 0.260684 0.376262 0.850435
O O12 0.635240 0.362405 0.967740
O O13 0.500000 0.254905 0.000000
O O14 0.668823 0.500000 0.434345
O O15 0.750000 0.750000 0.000000
#
# Coordination Sequence:
#
# PCOD9183478 Si02
#       7
#     8   4   4   8   8   8   8
#     4   9  20  36  57  77 106 142 176 219 264 313
#     4   9  18  32  51  69 103 144 180 204 269 315
#     4   9  18  30  54  76  97 133 178 223 255 306
#     4  10  19  33  55  80 105 136 175 226 264 305
#     4  11  23  34  50  79 115 142 172 212 265 327
#     4   9  17  36  58  80 102 133 181 228 262 305
#     4   9  20  33  48  75 111 144 172 217 263 319
#
# _framework density 18.739298000000002
#
# number of rings (size 3 to 8) (size 9 to 14) (size 15 to 20)
#    0.000    2.500    0.833    2.000    8.167    1.000 
#    0.000    0.000    0.000    0.000    0.000    1.167 
#    0.000    0.000    0.000    0.000    0.000    0.000 
#
# Total GULP energy -133698.012572 kJ/mol
# GULP energy per Si atom -5570.750524 kJ/mol
# Density = 1.869665 g / cm^3
# Si number density = 18.739298 Si / 1000 Ang^3
#
#
#
# Elastic Constant Matrix: (Units=GPa)
#
#
# Indices 1 2 3 4 5 6 
#
# 1 47.7723 28.0511 27.0716 0.0000 -20.9498 0.0000
# 2 28.0511 51.7659 25.4152 0.0000 -13.9526 0.0000
# 3 27.0716 25.4152 85.2595 0.0000 -27.5499 0.0000
# 4 0.0000 0.0000 0.0000 6.6222 0.0000 2.4153
# 5 -20.9498 -13.9526 -27.5499 0.0000 42.3482 0.0000
# 6 0.0000 0.0000 0.0000 2.4153 0.0000 15.8171
#
#
#
# Elastic Compliance Matrix: (Units=1/GPa)
#
#
# Indices 1 2 3 4 5 6 
#
# 1 0.036604 -0.015154 -0.003630 0.000000 0.010753 0.000000
# 2 -0.015154 0.029420 -0.004113 0.000000 -0.000480 0.000000
# 3 -0.003630 -0.004113 0.016573 0.000000 0.007631 0.000000
# 4 0.000000 0.000000 0.000000 0.159913 0.000000 -0.024419
# 5 0.010753 -0.000480 0.007631 0.000000 0.033740 0.000000
# 6 0.000000 0.000000 0.000000 -0.024419 0.000000 0.066951
#
#
# Mechanical properties :
#
#
# Convention : Reuss Voigt Hill
#
# Bulk Modulus (GPa) = 27.17260 38.43038 32.80149
# Shear Modulus (GPa) = 12.46062 19.90817 16.18440
#
# Velocity S-wave (km/s) = 2.58145 3.26295 2.94200
# Velocity P-wave (km/s) = 4.83911 5.89476 5.39283
#
# Compressibility (1/GPa) = 0.03680177
#
# Stress axis : x y z
#
# Youngs Moduli (GPa) = 27.31942 33.99086 60.33763
#
# Poissons Ratio (x) = 0.51511 0.21905
# Poissons Ratio (y) = 0.41401 0.24817
# Poissons Ratio (z) = 0.09918 0.13980
#
# Static dielectric constant tensor:
#      x y z
#    x 1.697940 0.000000 -0.018480 
#    y 0.000000 1.493850 0.000000 
#    z -0.018480 0.000000 1.650800 
# 
# From -- ./inp_files/142783.got.cif
#   From: 2010.05.17/outbox.cif.g08.bks.cpg/sg12_72_cif.got.tgz:142783.got - 2010.06.03 13:09:07.
