data_PCOD9183116
_publ_section_title
;
Structure prediction by ZEFSAII (Michael W. Deem and Ramdas Pophale) SiO2 
 PCOD9183116
Probable space group: C 2/M
;
_chemical_formula_sum "Si O2"
_cell_formula_units_Z 56
_cell_length_a 15.627455
_cell_length_b 7.441742
_cell_length_c 31.561456
_cell_angle_alpha 90.000000
_cell_angle_beta 137.963290
_cell_angle_gamma 90.000000
_cell_volume 2457.760884
_symmetry_space_group_name_H-M "C 2/M"
_symmetry_group_IT_number 12
_symmetry_cell_setting 'monoclinic'
loop_
_space_group_symop_operation_xyz
x,y,z
-x,y,-z
-x,-y,-z
x,-y,z
1/2+x,1/2+y,z
1/2-x,1/2+y,-z
1/2-x,1/2-y,-z
1/2+x,1/2-y,z
loop_
_atom_site_type_symbol
_atom_site_label
_atom_site_fract_x
_atom_site_fract_y
_atom_site_fract_z
Si Si1 0.608820 0.720251 0.072547
Si Si2 0.746385 0.785380 0.431704
Si Si3 0.048728 0.285380 0.431704
Si Si4 0.584700 0.285629 0.159744
Si Si5 0.158434 0.283035 0.704204
Si Si6 0.394530 0.214371 0.159744
Si Si7 0.545821 0.783035 0.295796
O O1 0.607513 0.500000 0.071675
O O2 0.585315 0.780301 0.112012
O O3 0.750721 0.780301 0.112012
O O4 0.500000 0.778978 0.000000
O O5 0.889842 0.750000 0.500000
O O6 0.652098 0.717656 0.434732
O O7 0.681723 0.718278 0.364516
O O8 0.734580 0.000000 0.426689
O O9 0.045486 0.500000 0.426689
O O10 0.911823 0.218278 0.364516
O O11 0.603083 0.500000 0.163847
O O12 0.703386 0.213479 0.231356
O O13 0.455123 0.250000 0.136749
O O14 0.168426 0.500000 0.704616
O O15 0.060828 0.247002 0.707219
O O16 0.490681 0.286521 0.231356
O O17 0.388458 0.000000 0.163847
O O18 0.554580 0.000000 0.295385
#
# Coordination Sequence:
#
# PCOD9183116 Si02
#       7
#     8   8   8   8   8   8   8
#     4   9  18  34  57  81 104 135 173 205 239 299
#     4   8  13  21  36  60  88 117 156 202 246 289
#     4   8  13  21  36  60  88 117 156 202 246 289
#     4  10  19  33  54  78 104 134 171 210 249 295
#     4   8  13  25  46  67  89 127 172 205 237 292
#     4  10  19  33  54  78 104 134 171 210 249 295
#     4   8  13  25  46  67  89 127 172 205 237 292
#
# _framework density 22.784967999999999
#
# number of rings (size 3 to 8) (size 9 to 14) (size 15 to 20)
#    0.000    3.286    1.429    1.714    0.000    0.571 
#    0.000    2.143    0.000    3.429    0.000    6.000 
#    0.000    0.000    0.000    0.000    0.000    0.000 
#
# Total GULP energy -156150.759619 kJ/mol
# GULP energy per Si atom -5576.812844 kJ/mol
# Density = 2.273311 g / cm^3
# Si number density = 22.784968 Si / 1000 Ang^3
#
#
#
# Elastic Constant Matrix: (Units=GPa)
#
#
# Indices 1 2 3 4 5 6 
#
# 1 110.2500 -4.6934 97.2901 0.0000 0.5756 -0.0001
# 2 -4.6934 69.9983 12.6427 0.0001 -0.2107 -0.0001
# 3 97.2901 12.6427 236.5455 0.0000 -2.1118 0.0000
# 4 0.0000 0.0001 0.0000 1.3839 0.0000 0.0296
# 5 0.5756 -0.2107 -2.1118 0.0000 -17.1458 0.0001
# 6 -0.0001 -0.0001 0.0000 0.0296 0.0001 3.8131
#
#
#
# Elastic Compliance Matrix: (Units=1/GPa)
#
#
# Indices 1 2 3 4 5 6 
#
# 1 0.014505 0.002072 -0.006066 0.000000 0.001209 0.000000
# 2 0.002072 0.014721 -0.001638 -0.000001 0.000090 0.000001
# 3 -0.006066 -0.001638 0.006801 0.000000 -0.001021 0.000000
# 4 0.000000 -0.000001 0.000000 0.722694 -0.000001 -0.005611
# 5 0.001209 0.000090 -0.001021 -0.000001 -0.058158 0.000001
# 6 0.000000 0.000001 0.000000 -0.005611 0.000001 0.262296
#
#
# Mechanical properties :
#
#
# Convention : Reuss Voigt Hill
#
# Bulk Modulus (GPa) = 40.38345 69.69696 55.04021
# Shear Modulus (GPa) = 5.08970 18.38054 11.73512
#
# Velocity S-wave (km/s) = 1.49621 2.84332 2.27191
# Velocity P-wave (km/s) = 4.55489 6.43698 5.57592
#
# Compressibility (1/GPa) = 0.02476262
#
# Stress axis : x y z
#
# Youngs Moduli (GPa) = 68.94222 67.92960 147.04231
#
# Poissons Ratio (x) = -0.14073 0.89192
# Poissons Ratio (y) = -0.14283 0.24087
# Poissons Ratio (z) = 0.41819 0.11128
#
# Static dielectric constant tensor:
#      x y z
#    x 1.817800 0.000000 -0.000830 
#    y 0.000000 1.395060 0.000000 
#    z -0.000830 0.000000 1.886170 
# 
# From -- ./inp_files/375904.got.cif
#   From: 2010.05.17/outbox.cif.g08.bks.cpg/sg12_188_cif.got.tgz:375904.got - 2010.06.03 13:09:07.
