data_PCOD9183758
_publ_section_title
;
Structure prediction by ZEFSAII (Michael W. Deem and Ramdas Pophale) SiO2 
 PCOD9183758
Probable space group: C 2/M
;
_chemical_formula_sum "Si O2"
_cell_formula_units_Z 32
_cell_length_a 12.218607
_cell_length_b 20.410638
_cell_length_c 5.070762
_cell_angle_alpha 90.000000
_cell_angle_beta 68.969666
_cell_angle_gamma 90.000000
_cell_volume 1180.361160
_symmetry_space_group_name_H-M "C 2/M"
_symmetry_group_IT_number 12
_symmetry_cell_setting 'monoclinic'
loop_
_space_group_symop_operation_xyz
x,y,z
-x,y,-z
-x,-y,-z
x,-y,z
1/2+x,1/2+y,z
1/2-x,1/2+y,-z
1/2-x,1/2-y,-z
1/2+x,1/2-y,z
loop_
_atom_site_type_symbol
_atom_site_label
_atom_site_fract_x
_atom_site_fract_y
_atom_site_fract_z
Si Si1 0.150889 0.426720 0.543908
Si Si2 0.848085 0.222261 0.620313
Si Si3 0.927373 0.096527 0.318379
Si Si4 0.141271 0.345658 0.050303
O O1 0.110352 0.500000 0.638622
O O2 0.292861 0.425522 0.433823
O O3 0.106944 0.371920 0.790195
O O4 0.124374 0.403936 0.271154
O O5 0.750000 0.250000 0.500000
O O6 0.923141 0.175356 0.367895
O O7 0.778444 0.173684 0.880847
O O8 0.898478 0.280243 0.760255
O O9 0.000000 0.070333 0.500000
O O10 0.000000 0.079945 0.000000
#
# Coordination Sequence:
#
# PCOD9183758 Si02
#       4
#     8   8   8   8
#     4  11  22  36  52  76 113 152 187 214 248 316
#     4  10  19  35  59  74 101 141 184 232 278 308
#     4  11  23  34  51  80 113 146 180 216 267 319
#     4  10  19  33  56  78  95 139 189 230 267 296
#
# _framework density 27.110348999999999
#
# number of rings (size 3 to 8) (size 9 to 14) (size 15 to 20)
#    0.000    1.500    5.000    3.750    3.500    1.000 
#    0.000    0.000    0.000    0.000    0.000    0.000 
#    0.000   20.000    0.000    0.000    0.000    0.000 
#
# Total GULP energy -89590.590096 kJ/mol
# GULP energy per Si atom -5599.411881 kJ/mol
# Density = 2.704864 g / cm^3
# Si number density = 27.110349 Si / 1000 Ang^3
#
#
#
# Elastic Constant Matrix: (Units=GPa)
#
#
# Indices 1 2 3 4 5 6 
#
# 1 99.2088 9.1859 37.4166 0.0000 13.1344 0.0000
# 2 9.1859 180.3160 43.3852 0.0000 17.5454 0.0000
# 3 37.4166 43.3852 196.8460 0.0000 11.6588 0.0000
# 4 0.0000 0.0000 0.0000 42.3771 0.0000 -13.5010
# 5 13.1344 17.5454 11.6588 0.0000 62.5992 0.0000
# 6 0.0000 0.0000 0.0000 -13.5010 0.0000 11.9535
#
#
#
# Elastic Compliance Matrix: (Units=1/GPa)
#
#
# Indices 1 2 3 4 5 6 
#
# 1 0.011092 0.000113 -0.002016 0.000000 -0.001984 0.000000
# 2 0.000113 0.005984 -0.001254 0.000000 -0.001468 0.000000
# 3 -0.002016 -0.001254 0.005757 0.000000 -0.000298 0.000000
# 4 0.000000 0.000000 0.000000 0.036862 0.000000 0.041634
# 5 -0.001984 -0.001468 -0.000298 0.000000 0.016858 0.000000
# 6 0.000000 0.000000 0.000000 0.041634 0.000000 0.130682
#
#
# Mechanical properties :
#
#
# Convention : Reuss Voigt Hill
#
# Bulk Modulus (GPa) = 60.52884 72.92734 66.72809
# Shear Modulus (GPa) = 22.82525 49.14483 35.98504
#
# Velocity S-wave (km/s) = 2.90477 4.26228 3.64724
# Velocity P-wave (km/s) = 5.79875 7.15411 6.51179
#
# Compressibility (1/GPa) = 0.01652105
#
# Stress axis : x y z
#
# Youngs Moduli (GPa) = 90.15372 167.09902 173.69519
#
# Poissons Ratio (x) = -0.01888 0.35014
# Poissons Ratio (y) = -0.01018 0.21773
# Poissons Ratio (z) = 0.18173 0.20946
#
# Static dielectric constant tensor:
#      x y z
#    x 2.326320 0.000000 -0.075020 
#    y 0.000000 2.091820 0.000000 
#    z -0.075020 0.000000 2.030020 
# 
# From -- ./inp_files/10912.got.cif
#   From: 2010.05.17/outbox.cif.g08.bks.cpg/sg12_6_cif.got.tgz:10912.got - 2010.06.03 13:09:07.
