data_PCOD9183942
_publ_section_title
;
Structure prediction by ZEFSAII (Michael W. Deem and Ramdas Pophale) SiO2 
 PCOD9183942
Probable space group: C 2/M
;
_chemical_formula_sum "Si O2"
_cell_formula_units_Z 56
_cell_length_a 25.994672
_cell_length_b 13.711825
_cell_length_c 13.522371
_cell_angle_alpha 90.000000
_cell_angle_beta 150.129617
_cell_angle_gamma 90.000000
_cell_volume 2400.470058
_symmetry_space_group_name_H-M "C 2/M"
_symmetry_group_IT_number 12
_symmetry_cell_setting 'monoclinic'
loop_
_space_group_symop_operation_xyz
x,y,z
-x,y,-z
-x,-y,-z
x,-y,z
1/2+x,1/2+y,z
1/2-x,1/2+y,-z
1/2-x,1/2-y,-z
1/2+x,1/2-y,z
loop_
_atom_site_type_symbol
_atom_site_label
_atom_site_fract_x
_atom_site_fract_y
_atom_site_fract_z
Si Si1 0.343680 0.759703 0.081581
Si Si2 0.435635 0.887323 0.770210
Si Si3 0.938924 0.695292 0.562410
Si Si4 0.120454 0.888045 0.421436
Si Si5 0.221979 0.115644 0.167692
Si Si6 0.155632 0.387006 0.112202
Si Si7 0.794532 0.881441 0.635113
O O1 0.352933 0.656089 0.040911
O O2 0.322552 0.830118 0.952662
O O3 0.250000 0.750000 0.000000
O O4 0.450738 0.797222 0.306004
O O5 0.446910 0.878148 0.669128
O O6 0.319839 0.845019 0.588861
O O7 0.427707 0.000000 0.789347
O O8 0.550604 0.850539 0.991144
O O9 0.924127 0.801881 0.586922
O O10 0.835256 0.661249 0.336528
O O11 0.241941 0.886713 0.651922
O O12 0.118319 0.862533 0.301285
O O13 0.083315 0.000000 0.374442
O O14 0.189856 0.149165 0.225091
O O15 0.227750 0.000000 0.176438
O O16 0.135388 0.500000 0.054728
O O17 0.787425 0.000000 0.625870
#
# Coordination Sequence:
#
# PCOD9183942 Si02
#       7
#     8   8   8   8   8   8   8
#     4  11  24  41  61  86 114 149 199 255 309 357
#     4   8  15  29  51  79 110 146 188 236 283 332
#     4  10  20  37  59  84 118 152 193 249 297 354
#     4  10  19  33  56  84 119 160 192 228 287 355
#     4  10  21  41  64  90 123 158 197 246 298 356
#     4   9  18  35  55  79 114 149 188 239 294 348
#     4   8  16  31  55  85 117 155 194 232 281 346
#
# _framework density 23.328762999999999
#
# number of rings (size 3 to 8) (size 9 to 14) (size 15 to 20)
#    0.000    2.571    1.429    1.286    0.000    5.143 
#    0.000    4.286    0.000    4.286    0.000    0.000 
#    0.000    0.000    0.000    0.000    0.000    0.000 
#
# Total GULP energy -156222.739018 kJ/mol
# GULP energy per Si atom -5579.383536 kJ/mol
# Density = 2.327567 g / cm^3
# Si number density = 23.328763 Si / 1000 Ang^3
#
#
#
# Elastic Constant Matrix: (Units=GPa)
#
#
# Indices 1 2 3 4 5 6 
#
# 1 74.8300 22.8496 5.1982 0.0000 5.0154 0.0000
# 2 22.8496 99.8156 6.3135 0.0000 -4.0987 0.0000
# 3 5.1982 6.3135 57.9615 0.0000 4.7002 0.0000
# 4 0.0000 0.0000 0.0000 29.7993 0.0000 -0.8184
# 5 5.0154 -4.0987 4.7002 0.0000 25.2972 0.0000
# 6 0.0000 0.0000 0.0000 -0.8184 0.0000 13.5286
#
#
#
# Elastic Compliance Matrix: (Units=1/GPa)
#
#
# Indices 1 2 3 4 5 6 
#
# 1 0.014690 -0.003458 -0.000669 0.000000 -0.003348 0.000000
# 2 -0.003458 0.010990 -0.001104 0.000000 0.002671 0.000000
# 3 -0.000669 -0.001104 0.017704 0.000000 -0.003335 0.000000
# 4 0.000000 0.000000 0.000000 0.033614 0.000000 0.002033
# 5 -0.003348 0.002671 -0.003335 0.000000 0.041246 0.000000
# 6 0.000000 0.000000 0.000000 0.002033 0.000000 0.074040
#
#
# Mechanical properties :
#
#
# Convention : Reuss Voigt Hill
#
# Bulk Modulus (GPa) = 30.37502 33.48108 31.92805
# Shear Modulus (GPa) = 23.39513 26.94141 25.16827
#
# Velocity S-wave (km/s) = 3.17021 3.40201 3.28815
# Velocity P-wave (km/s) = 5.14286 5.46027 5.30394
#
# Compressibility (1/GPa) = 0.03292179
#
# Stress axis : x y z
#
# Youngs Moduli (GPa) = 68.07130 90.99538 56.48594
#
# Poissons Ratio (x) = 0.31467 0.03781
# Poissons Ratio (y) = 0.23540 0.06233
# Poissons Ratio (z) = 0.04556 0.10042
#
# Static dielectric constant tensor:
#      x y z
#    x 1.915970 0.000000 0.009800 
#    y 0.000000 1.910090 0.000000 
#    z 0.009800 0.000000 1.966720 
# 
# From -- ./inp_files/246604.got.cif
#   From: 2010.05.17/outbox.cif.g08.bks.cpg/sg12_124_cif.got.tgz:246604.got - 2010.06.03 13:09:07.
