data_PCOD9183442
_publ_section_title
;
Structure prediction by ZEFSAII (Michael W. Deem and Ramdas Pophale) SiO2 
 PCOD9183442
Probable space group: C 2/M
;
_chemical_formula_sum "Si O2"
_cell_formula_units_Z 60
_cell_length_a 14.706839
_cell_length_b 25.837474
_cell_length_c 11.650783
_cell_angle_alpha 90.000000
_cell_angle_beta 39.031347
_cell_angle_gamma 90.000000
_cell_volume 2787.979417
_symmetry_space_group_name_H-M "C 2/M"
_symmetry_group_IT_number 12
_symmetry_cell_setting 'monoclinic'
loop_
_space_group_symop_operation_xyz
x,y,z
-x,y,-z
-x,-y,-z
x,-y,z
1/2+x,1/2+y,z
1/2-x,1/2+y,-z
1/2-x,1/2-y,-z
1/2+x,1/2-y,z
loop_
_atom_site_type_symbol
_atom_site_label
_atom_site_fract_x
_atom_site_fract_y
_atom_site_fract_z
Si Si1 0.987907 0.750567 0.255102
Si Si2 0.633921 0.324796 0.950927
Si Si3 0.283901 0.250750 0.657463
Si Si4 0.671464 0.856039 0.800545
Si Si5 0.500000 0.092502 0.500000
Si Si6 0.456451 0.135029 0.297462
Si Si7 0.678450 0.941981 0.965974
Si Si8 0.707747 0.556354 0.899470
O O1 0.847892 0.754156 0.306847
O O2 0.926917 0.756561 0.442685
O O3 0.035614 0.690309 0.202831
O O4 0.097783 0.793990 0.103236
O O5 0.769670 0.297351 0.756976
O O6 0.644260 0.386584 0.941311
O O7 0.500000 0.312314 0.000000
O O8 0.249088 0.303437 0.758145
O O9 0.681064 0.860996 0.652354
O O10 0.725606 0.905850 0.815277
O O11 0.500000 0.850731 0.000000
O O12 0.440244 0.123816 0.447547
O O13 0.366257 0.060650 0.684663
O O14 0.544081 0.087761 0.156023
O O15 0.642377 0.000000 0.963923
O O16 0.784454 0.945035 0.969813
O O17 0.647083 0.500000 0.922726
#
# Coordination Sequence:
#
# PCOD9183442 Si02
#       8
#     8   8   8   8   4   8   8   8
#     4   9  17  30  49  75 106 138 171 209 259 315
#     4  10  19  33  55  79 104 140 181 219 265 319
#     4   9  16  29  50  75 105 136 168 213 263 311
#     4   9  16  29  50  74 101 133 172 215 257 307
#     4  10  19  34  52  78 112 142 171 210 270 328
#     4   9  17  29  47  73 105 134 163 206 257 312
#     4   9  18  32  49  70  97 131 170 212 260 306
#     4  10  21  36  53  73 104 143 179 222 270 315
#
# _framework density 21.520962999999998
#
# number of rings (size 3 to 8) (size 9 to 14) (size 15 to 20)
#    0.000    2.667    0.000    3.800    0.000    4.267 
#    0.000    7.333    0.000    0.800    0.000    1.867 
#    0.000    0.000    0.000    0.000    0.000    0.000 
#
# Total GULP energy -167104.208142 kJ/mol
# GULP energy per Si atom -5570.140271 kJ/mol
# Density = 2.147198 g / cm^3
# Si number density = 21.520963 Si / 1000 Ang^3
#
#
#
# Elastic Constant Matrix: (Units=GPa)
#
#
# Indices 1 2 3 4 5 6 
#
# 1 56.3501 19.6189 30.1149 0.0000 24.2008 0.0000
# 2 19.6189 173.5602 77.3082 0.0000 19.3077 0.0000
# 3 30.1149 77.3082 100.2751 0.0000 23.8917 0.0000
# 4 0.0000 0.0000 0.0000 -14.1787 0.0000 -7.4468
# 5 24.2008 19.3077 23.8917 0.0000 27.4974 0.0000
# 6 0.0000 0.0000 0.0000 -7.4468 0.0000 22.6860
#
#
#
# Elastic Compliance Matrix: (Units=1/GPa)
#
#
# Indices 1 2 3 4 5 6 
#
# 1 0.029542 0.001113 -0.004223 0.000000 -0.023112 0.000000
# 2 0.001113 0.008820 -0.006841 0.000000 -0.001228 0.000000
# 3 -0.004223 -0.006841 0.018267 0.000000 -0.007351 0.000000
# 4 0.000000 0.000000 0.000000 -0.060157 0.000000 -0.019747
# 5 -0.023112 -0.001228 -0.007351 0.000000 0.063957 0.000000
# 6 0.000000 0.000000 0.000000 -0.019747 0.000000 0.037598
#
#
# Mechanical properties :
#
#
# Convention : Reuss Voigt Hill
#
# Bulk Modulus (GPa) = 27.22962 64.91884 46.07423
# Shear Modulus (GPa) = 38.41068 20.74381 29.57725
#
# Velocity S-wave (km/s) = 4.22928 3.10802 3.71124
# Velocity P-wave (km/s) = 6.04393 6.56587 6.31030
#
# Compressibility (1/GPa) = 0.03672472
#
# Stress axis : x y z
#
# Youngs Moduli (GPa) = 33.85038 113.38089 54.74430
#
# Poissons Ratio (x) = -0.12619 0.23121
# Poissons Ratio (y) = -0.03767 0.37452
# Poissons Ratio (z) = 0.14296 0.77568
#
# Static dielectric constant tensor:
#      x y z
#    x 1.887870 0.000000 0.019870 
#    y 0.000000 1.815580 0.000000 
#    z 0.019870 0.000000 1.801110 
# 
# From -- ./inp_files/160490.got.cif
#   From: 2010.05.17/outbox.cif.g08.bks.cpg/sg12_81_cif.got.tgz:160490.got - 2010.06.03 13:09:07.
