data_PCOD9183972
_publ_section_title
;
Structure prediction by ZEFSAII (Michael W. Deem and Ramdas Pophale) SiO2 
 PCOD9183972
Probable space group: C 2/M
;
_chemical_formula_sum "Si O2"
_cell_formula_units_Z 56
_cell_length_a 23.415533
_cell_length_b 18.188192
_cell_length_c 23.478356
_cell_angle_alpha 90.000000
_cell_angle_beta 17.897116
_cell_angle_gamma 90.000000
_cell_volume 3072.813083
_symmetry_space_group_name_H-M "C 2/M"
_symmetry_group_IT_number 12
_symmetry_cell_setting 'monoclinic'
loop_
_space_group_symop_operation_xyz
x,y,z
-x,y,-z
-x,-y,-z
x,-y,z
1/2+x,1/2+y,z
1/2-x,1/2+y,-z
1/2-x,1/2-y,-z
1/2+x,1/2-y,z
loop_
_atom_site_type_symbol
_atom_site_label
_atom_site_fract_x
_atom_site_fract_y
_atom_site_fract_z
Si Si1 0.290804 0.589776 0.204858
Si Si2 0.052957 0.588031 0.539250
Si Si3 0.499024 0.588785 0.436320
Si Si4 0.566709 0.709128 0.196700
Si Si5 0.255023 0.913338 0.093549
Si Si6 0.675959 0.912092 0.656166
Si Si7 0.306749 0.834829 0.483827
O O1 0.294605 0.500000 0.201023
O O2 0.195625 0.612242 0.354478
O O3 0.151658 0.612924 0.286499
O O4 0.500000 0.616249 0.000000
O O5 0.051205 0.500000 0.539848
O O6 0.116315 0.613852 0.540262
O O7 0.500000 0.617575 0.500000
O O8 0.479403 0.500000 0.458908
O O9 0.686299 0.603198 0.222770
O O10 0.330278 0.613292 0.555367
O O11 0.636977 0.637826 0.163598
O O12 0.444257 0.765030 0.350892
O O13 0.408683 0.686237 0.301048
O O14 0.750000 0.750000 0.000000
O O15 0.216619 0.000000 0.119444
O O16 0.471487 0.900518 0.876343
O O17 0.687566 0.872262 0.584147
O O18 0.701140 0.000000 0.623301
#
# Coordination Sequence:
#
# PCOD9183972 Si02
#       7
#     8   8   8   8   8   8   8
#     4   8  15  31  53  80 116 151 183 230 283 325
#     4   9  18  32  54  85 114 144 192 238 275 330
#     4   9  18  33  55  83 112 145 187 236 285 331
#     4  11  23  39  55  80 114 153 187 224 283 349
#     4  10  20  36  59  84 112 146 186 234 280 336
#     4  10  19  33  56  86 117 146 185 232 279 335
#     4  11  22  35  57  81 111 155 186 233 286 337
#
# _framework density 18.224343000000001
#
# number of rings (size 3 to 8) (size 9 to 14) (size 15 to 20)
#    0.000    2.286    2.857    1.286    0.000    2.286 
#    0.000    2.857    3.143    0.000    0.000    0.000 
#    0.000    0.000    0.000    0.000    0.000    0.000 
#
# Total GULP energy -156032.138266 kJ/mol
# GULP energy per Si atom -5572.576367 kJ/mol
# Density = 1.818286 g / cm^3
# Si number density = 18.224343 Si / 1000 Ang^3
#
#
#
# Elastic Constant Matrix: (Units=GPa)
#
#
# Indices 1 2 3 4 5 6 
#
# 1 141.3275 29.6714 75.7468 -0.0030 -4.2816 0.0101
# 2 29.6714 30.6234 33.6380 -0.0317 -0.9057 0.0487
# 3 75.7468 33.6380 149.9578 0.0149 -17.3999 0.0052
# 4 -0.0030 -0.0317 0.0149 21.6559 -0.0044 -9.9795
# 5 -4.2816 -0.9057 -17.3999 -0.0044 16.8588 -0.0111
# 6 0.0101 0.0487 0.0052 -9.9795 -0.0111 -4.8238
#
#
#
# Elastic Compliance Matrix: (Units=1/GPa)
#
#
# Indices 1 2 3 4 5 6 
#
# 1 0.010468 -0.005482 -0.004298 -0.000010 -0.002072 -0.000013
# 2 -0.005482 0.047370 -0.008774 0.000150 -0.007903 0.000166
# 3 -0.004298 -0.008774 0.012072 -0.000036 0.010896 -0.000035
# 4 -0.000010 0.000150 -0.000036 0.023640 -0.000058 -0.048906
# 5 -0.002072 -0.007903 0.010896 -0.000058 0.069611 -0.000114
# 6 -0.000013 0.000166 -0.000035 -0.048906 -0.000114 -0.106128
#
#
# Mechanical properties :
#
#
# Convention : Reuss Voigt Hill
#
# Bulk Modulus (GPa) = 30.48623 66.66902 48.57762
# Shear Modulus (GPa) = 47.58489 18.92836 33.25663
#
# Velocity S-wave (km/s) = 5.11540 3.22628 4.27646
# Velocity P-wave (km/s) = 7.18710 7.10917 7.14824
#
# Compressibility (1/GPa) = 0.03280170
#
# Stress axis : x y z
#
# Youngs Moduli (GPa) = 95.53290 21.11038 82.83636
#
# Poissons Ratio (x) = 0.11573 0.35604
# Poissons Ratio (y) = 0.52374 0.72677
# Poissons Ratio (z) = 0.41061 0.18521
#
# Static dielectric constant tensor:
#      x y z
#    x 1.609230 0.000020 -0.004400 
#    y 0.000020 1.646950 -0.000050 
#    z -0.004400 -0.000050 1.646920 
# 
# From -- ./inp_files/322613.got.cif
#   From: 2010.05.17/outbox.cif.g08.bks.cpg/sg12_162_cif.got.tgz:322613.got - 2010.06.03 13:09:07.
