data_PCOD9183999
_publ_section_title
;
Structure prediction by ZEFSAII (Michael W. Deem and Ramdas Pophale) SiO2 
 PCOD9183999
Probable space group: C 2/M
;
_chemical_formula_sum "Si O2"
_cell_formula_units_Z 56
_cell_length_a 20.754255
_cell_length_b 8.658226
_cell_length_c 17.914819
_cell_angle_alpha 90.000000
_cell_angle_beta 108.715710
_cell_angle_gamma 90.000000
_cell_volume 3048.979948
_symmetry_space_group_name_H-M "C 2/M"
_symmetry_group_IT_number 12
_symmetry_cell_setting 'monoclinic'
loop_
_space_group_symop_operation_xyz
x,y,z
-x,y,-z
-x,-y,-z
x,-y,z
1/2+x,1/2+y,z
1/2-x,1/2+y,-z
1/2-x,1/2-y,-z
1/2+x,1/2-y,z
loop_
_atom_site_type_symbol
_atom_site_label
_atom_site_fract_x
_atom_site_fract_y
_atom_site_fract_z
Si Si1 0.675545 0.684165 0.992574
Si Si2 0.075436 0.817359 0.239693
Si Si3 0.177869 0.685158 0.739857
Si Si4 0.177807 0.683029 0.155499
Si Si5 0.300861 0.185282 0.419885
Si Si6 0.346620 0.816431 0.597458
Si Si7 0.074401 0.314848 0.830902
O O1 0.676463 0.500000 0.985375
O O2 0.660385 0.732472 0.071744
O O3 0.750000 0.750000 0.000000
O O4 0.620742 0.756270 0.916126
O O5 0.126801 0.734810 0.201524
O O6 0.099094 0.769610 0.331402
O O7 0.999142 0.762163 0.196340
O O8 0.081815 0.000000 0.232575
O O9 0.189318 0.500000 0.750565
O O10 0.246008 0.768269 0.793022
O O11 0.167524 0.720873 0.648739
O O12 0.115447 0.724462 0.770372
O O13 0.174473 0.500000 0.143451
O O14 0.345488 0.224186 0.509160
O O15 0.228504 0.269695 0.401290
O O16 0.288034 0.000000 0.418260
O O17 0.355965 0.000000 0.608746
O O18 0.067361 0.500000 0.832260
#
# Coordination Sequence:
#
# PCOD9183999 Si02
#       7
#     8   8   8   8   8   8   8
#     4  12  24  41  64  93 126 161 202 248 300 356
#     4  12  25  42  61  86 124 165 205 250 310 370
#     4  10  20  37  62  91 122 158 200 249 304 362
#     4  12  24  39  64  93 121 157 205 254 302 359
#     4   9  18  33  57  89 122 156 199 249 303 359
#     4  10  19  33  56  88 122 158 201 250 302 359
#     4  11  24  42  64  90 123 160 203 253 308 365
#
# _framework density 18.366800000000001
#
# number of rings (size 3 to 8) (size 9 to 14) (size 15 to 20)
#    0.000    1.143    2.857    4.714    0.000    1.714 
#    0.000    3.571    0.000    4.286    0.000    0.000 
#    0.000    0.000    0.000    0.000    0.000    0.000 
#
# Total GULP energy -156530.964869 kJ/mol
# GULP energy per Si atom -5590.391602 kJ/mol
# Density = 1.832500 g / cm^3
# Si number density = 18.366800 Si / 1000 Ang^3
#
#
#
# Elastic Constant Matrix: (Units=GPa)
#
#
# Indices 1 2 3 4 5 6 
#
# 1 41.6785 -2.1285 -0.6450 0.0000 7.9335 0.0000
# 2 -2.1285 30.6986 -5.1756 0.0000 -0.2430 0.0000
# 3 -0.6450 -5.1756 82.2472 0.0000 -2.2897 0.0000
# 4 0.0000 0.0000 0.0000 32.3645 0.0000 4.3230
# 5 7.9335 -0.2430 -2.2897 0.0000 32.2133 0.0000
# 6 0.0000 0.0000 0.0000 4.3230 0.0000 28.6506
#
#
#
# Elastic Compliance Matrix: (Units=1/GPa)
#
#
# Indices 1 2 3 4 5 6 
#
# 1 0.025263 0.001725 0.000134 0.000000 -0.006199 0.000000
# 2 0.001725 0.033047 0.002092 0.000000 -0.000027 0.000000
# 3 0.000134 0.002092 0.012315 0.000000 0.000858 0.000000
# 4 0.000000 0.000000 0.000000 0.031534 0.000000 -0.004758
# 5 -0.006199 -0.000027 0.000858 0.000000 0.032631 0.000000
# 6 0.000000 0.000000 0.000000 -0.004758 0.000000 0.035621
#
#
# Mechanical properties :
#
#
# Convention : Reuss Voigt Hill
#
# Bulk Modulus (GPa) = 12.73422 15.41402 14.07412
# Shear Modulus (GPa) = 26.49935 29.48390 27.99162
#
# Velocity S-wave (km/s) = 3.80252 4.01094 3.90812
# Velocity P-wave (km/s) = 5.12125 5.46450 5.29566
#
# Compressibility (1/GPa) = 0.07852858
#
# Stress axis : x y z
#
# Youngs Moduli (GPa) = 39.58295 30.25996 81.20129
#
# Poissons Ratio (x) = -0.05220 -0.01089
# Poissons Ratio (y) = -0.06829 -0.16990
# Poissons Ratio (z) = -0.00531 -0.06331
#
# Static dielectric constant tensor:
#      x y z
#    x 1.593750 0.000000 -0.020410 
#    y 0.000000 1.615320 0.000000 
#    z -0.020410 0.000000 1.636120 
# 
# From -- ./inp_files/275208.got.cif
#   From: 2010.05.17/outbox.cif.g08.bks.cpg/sg12_138_cif.got.tgz:275208.got - 2010.06.03 13:09:07.
