data_PCOD9183554
_publ_section_title
;
Structure prediction by ZEFSAII (Michael W. Deem and Ramdas Pophale) SiO2 
 PCOD9183554
Probable space group: C 2/M
;
_chemical_formula_sum "Si O2"
_cell_formula_units_Z 64
_cell_length_a 11.704279
_cell_length_b 13.815056
_cell_length_c 32.250601
_cell_angle_alpha 90.000000
_cell_angle_beta 141.250463
_cell_angle_gamma 90.000000
_cell_volume 3264.013850
_symmetry_space_group_name_H-M "C 2/M"
_symmetry_group_IT_number 12
_symmetry_cell_setting 'monoclinic'
loop_
_space_group_symop_operation_xyz
x,y,z
-x,y,-z
-x,-y,-z
x,-y,z
1/2+x,1/2+y,z
1/2-x,1/2+y,-z
1/2-x,1/2-y,-z
1/2+x,1/2-y,z
loop_
_atom_site_type_symbol
_atom_site_label
_atom_site_fract_x
_atom_site_fract_y
_atom_site_fract_z
Si Si1 0.428108 0.890461 0.278740
Si Si2 0.765579 0.115281 0.128057
Si Si3 0.987070 0.821824 0.724851
Si Si4 0.951650 0.244718 0.034925
Si Si5 0.044570 0.891710 0.650083
Si Si6 0.870312 0.612621 0.499430
Si Si7 0.088055 0.318010 0.634493
Si Si8 0.975031 0.111319 0.871136
O O1 0.507520 0.794544 0.279670
O O2 0.457849 0.871126 0.335752
O O3 0.211756 0.885787 0.207808
O O4 0.488912 0.000000 0.284660
O O5 0.561112 0.155216 0.072142
O O6 0.864539 0.149586 0.113567
O O7 0.886894 0.151417 0.200755
O O8 0.768584 0.000000 0.128770
O O9 0.779917 0.857599 0.672096
O O10 0.056930 0.872264 0.702667
O O11 0.048353 0.168358 0.092989
O O12 0.750000 0.250000 0.000000
O O13 0.000000 0.219657 0.000000
O O14 0.125874 0.795327 0.653162
O O15 0.834599 0.886378 0.575184
O O16 0.112672 0.000000 0.659470
O O17 0.919895 0.500000 0.520844
O O18 0.000000 0.652008 0.500000
O O19 0.923482 0.668003 0.556017
O O20 0.017296 0.000000 0.892710
#
# Coordination Sequence:
#
# PCOD9183554 Si02
#       8
#     8   8   8   8   8   8   8   8
#     4  10  21  36  58  87 118 153 196 244 300 357
#     4  11  23  40  65  94 126 163 207 253 304 368
#     4  11  21  36  60  88 119 153 200 247 297 356
#     4  12  25  43  68  95 130 166 207 256 305 375
#     4  10  22  37  54  81 117 157 196 246 302 355
#     4  10  19  33  55  81 111 148 199 252 300 353
#     4  11  21  34  58  84 114 155 199 248 298 361
#     4  10  21  40  65  91 123 162 204 251 305 364
#
# _framework density 19.607759999999999
#
# number of rings (size 3 to 8) (size 9 to 14) (size 15 to 20)
#    0.000    1.375    5.000    1.125    0.000    2.500 
#    0.000    0.000    0.000    2.625    0.000    0.000 
#    0.000    0.000    0.000    0.000    0.000    0.000 
#
# Total GULP energy -178394.574943 kJ/mol
# GULP energy per Si atom -5574.830467 kJ/mol
# Density = 1.956313 g / cm^3
# Si number density = 19.607760 Si / 1000 Ang^3
#
#
#
# Elastic Constant Matrix: (Units=GPa)
#
#
# Indices 1 2 3 4 5 6 
#
# 1 84.6470 24.9392 45.0086 0.0000 -10.4557 0.0000
# 2 24.9392 81.7407 24.8190 0.0000 -20.4141 0.0000
# 3 45.0086 24.8190 79.9435 0.0000 -26.1949 0.0000
# 4 0.0000 0.0000 0.0000 -51.3669 0.0000 -16.6115
# 5 -10.4557 -20.4141 -26.1949 0.0000 35.2186 0.0000
# 6 0.0000 0.0000 0.0000 -16.6115 0.0000 6.3345
#
#
#
# Elastic Compliance Matrix: (Units=1/GPa)
#
#
# Indices 1 2 3 4 5 6 
#
# 1 0.017805 -0.003371 -0.010427 0.000000 -0.004424 0.000000
# 2 -0.003371 0.015264 -0.000357 0.000000 0.007582 0.000000
# 3 -0.010427 -0.000357 0.023018 0.000000 0.013818 0.000000
# 4 0.000000 0.000000 0.000000 -0.010534 0.000000 -0.027625
# 5 -0.004424 0.007582 0.013818 0.000000 0.041753 0.000000
# 6 0.000000 0.000000 0.000000 -0.027625 0.000000 0.085423
#
#
# Mechanical properties :
#
#
# Convention : Reuss Voigt Hill
#
# Bulk Modulus (GPa) = 36.00102 48.42939 42.21520
# Shear Modulus (GPa) = 23.77592 8.14154 15.95873
#
# Velocity S-wave (km/s) = 3.48599 2.03991 2.85599
# Velocity P-wave (km/s) = 5.88245 5.50463 5.69668
#
# Compressibility (1/GPa) = 0.02777699
#
# Stress axis : x y z
#
# Youngs Moduli (GPa) = 56.16440 65.51339 43.44474
#
# Poissons Ratio (x) = 0.22085 0.45300
# Poissons Ratio (y) = 0.18933 0.01550
# Poissons Ratio (z) = 0.58563 0.02337
#
# Static dielectric constant tensor:
#      x y z
#    x 1.698680 0.000000 0.002860 
#    y 0.000000 1.699100 0.000000 
#    z 0.002860 0.000000 1.672830 
# 
# From -- ./inp_files/374120.got.cif
#   From: 2010.05.17/outbox.cif.g08.bks.cpg/sg12_188_cif.got.tgz:374120.got - 2010.06.03 13:09:07.
