data_PCOD9183108
_publ_section_title
;
Structure prediction by ZEFSAII (Michael W. Deem and Ramdas Pophale) SiO2 
 PCOD9183108
Probable space group: C 2/M
;
_chemical_formula_sum "Si O2"
_cell_formula_units_Z 56
_cell_length_a 36.292971
_cell_length_b 12.984604
_cell_length_c 16.063464
_cell_angle_alpha 90.000000
_cell_angle_beta 23.848390
_cell_angle_gamma 90.000000
_cell_volume 3060.648098
_symmetry_space_group_name_H-M "C 2/M"
_symmetry_group_IT_number 12
_symmetry_cell_setting 'monoclinic'
loop_
_space_group_symop_operation_xyz
x,y,z
-x,y,-z
-x,-y,-z
x,-y,z
1/2+x,1/2+y,z
1/2-x,1/2+y,-z
1/2-x,1/2-y,-z
1/2+x,1/2-y,z
loop_
_atom_site_type_symbol
_atom_site_label
_atom_site_fract_x
_atom_site_fract_y
_atom_site_fract_z
Si Si1 0.361394 0.275088 0.626951
Si Si2 0.971224 0.619677 0.963297
Si Si3 0.186830 0.614156 0.949477
Si Si4 0.444607 0.380946 0.785898
Si Si5 0.663141 0.122168 0.471333
Si Si6 0.154409 0.774023 0.870306
Si Si7 0.894499 0.257379 0.743798
O O1 0.293620 0.365820 0.740629
O O2 0.463971 0.313113 0.402533
O O3 0.340699 0.177605 0.610877
O O4 0.345040 0.254338 0.758061
O O5 0.939002 0.500000 0.015576
O O6 0.063738 0.634386 0.718353
O O7 0.000000 0.626378 0.000000
O O8 0.899821 0.710758 0.088094
O O9 0.163843 0.500000 0.973444
O O10 0.157863 0.689660 0.936513
O O11 0.138338 0.646167 0.135015
O O12 0.464341 0.500000 0.730264
O O13 0.387071 0.336425 0.825950
O O14 0.398265 0.364766 0.971596
O O15 0.744050 0.181328 0.354276
O O16 0.682421 0.000000 0.425797
O O17 0.000000 0.266430 0.500000
#
# Coordination Sequence:
#
# PCOD9183108 Si02
#       7
#     8   8   8   8   8   8   8
#     4  10  19  34  51  77 107 144 191 236 272 332
#     4  10  21  39  64  90 115 148 185 225 282 344
#     4  10  20  32  49  73 105 143 183 231 279 322
#     4  10  19  33  54  77 108 151 188 232 283 329
#     4  10  21  37  60  86 114 152 190 230 283 339
#     4  10  20  37  57  84 115 146 187 231 274 335
#     4   9  20  33  46  72 105 142 191 234 276 328
#
# _framework density 18.296776999999999
#
# number of rings (size 3 to 8) (size 9 to 14) (size 15 to 20)
#    0.000    2.143    1.429    1.714    0.000    4.571 
#    0.000    0.000    0.000    1.714    0.000    0.000 
#    0.000    0.000    0.000    0.000    0.000    0.000 
#
# Total GULP energy -155996.705984 kJ/mol
# GULP energy per Si atom -5571.310928 kJ/mol
# Density = 1.825513 g / cm^3
# Si number density = 18.296777 Si / 1000 Ang^3
#
#
#
# Elastic Constant Matrix: (Units=GPa)
#
#
# Indices 1 2 3 4 5 6 
#
# 1 83.7494 29.3693 6.0509 0.0000 -9.1759 0.0000
# 2 29.3693 106.5860 16.7015 0.0000 -9.1291 0.0000
# 3 6.0509 16.7015 22.5520 0.0000 -9.0000 0.0000
# 4 0.0000 0.0000 0.0000 15.6992 0.0000 -1.7228
# 5 -9.1759 -9.1291 -9.0000 0.0000 16.3330 0.0000
# 6 0.0000 0.0000 0.0000 -1.7228 0.0000 16.5874
#
#
#
# Elastic Compliance Matrix: (Units=1/GPa)
#
#
# Indices 1 2 3 4 5 6 
#
# 1 0.013773 -0.003465 0.001520 0.000000 0.006639 0.000000
# 2 -0.003465 0.011539 -0.007459 0.000000 0.000393 0.000000
# 3 0.001520 -0.007459 0.061704 0.000000 0.030685 0.000000
# 4 0.000000 0.000000 0.000000 0.064432 0.000000 0.006692
# 5 0.006639 0.000393 0.030685 0.000000 0.082083 0.000000
# 6 0.000000 0.000000 0.000000 0.006692 0.000000 0.060982
#
#
# Mechanical properties :
#
#
# Convention : Reuss Voigt Hill
#
# Bulk Modulus (GPa) = 14.66110 35.23678 24.94894
# Shear Modulus (GPa) = 14.87842 20.44164 17.66003
#
# Velocity S-wave (km/s) = 2.85471 3.34612 3.11014
# Velocity P-wave (km/s) = 4.34697 5.85055 5.15389
#
# Compressibility (1/GPa) = 0.06820769
#
# Stress axis : x y z
#
# Youngs Moduli (GPa) = 72.60633 86.66081 16.20641
#
# Poissons Ratio (x) = 0.30025 -0.02463
# Poissons Ratio (y) = 0.25155 0.12089
# Poissons Ratio (z) = -0.11034 0.64643
#
# Static dielectric constant tensor:
#      x y z
#    x 1.647810 0.000000 -0.035830 
#    y 0.000000 1.620600 0.000000 
#    z -0.035830 0.000000 1.684240 
# 
# From -- ./inp_files/213401.got.cif
#   From: 2010.05.17/outbox.cif.g08.bks.cpg/sg12_107_cif.got.tgz:213401.got - 2010.06.03 13:09:07.
