data_PCOD9183703
_publ_section_title
;
Structure prediction by ZEFSAII (Michael W. Deem and Ramdas Pophale) SiO2 
 PCOD9183703
Probable space group: C 2/M
;
_chemical_formula_sum "Si O2"
_cell_formula_units_Z 32
_cell_length_a 14.837905
_cell_length_b 21.879527
_cell_length_c 9.386712
_cell_angle_alpha 90.000000
_cell_angle_beta 27.113159
_cell_angle_gamma 90.000000
_cell_volume 1388.833120
_symmetry_space_group_name_H-M "C 2/M"
_symmetry_group_IT_number 12
_symmetry_cell_setting 'monoclinic'
loop_
_space_group_symop_operation_xyz
x,y,z
-x,y,-z
-x,-y,-z
x,-y,z
1/2+x,1/2+y,z
1/2-x,1/2+y,-z
1/2-x,1/2-y,-z
1/2+x,1/2-y,z
loop_
_atom_site_type_symbol
_atom_site_label
_atom_site_fract_x
_atom_site_fract_y
_atom_site_fract_z
Si Si1 0.563943 0.812945 0.576211
Si Si2 0.208800 0.067177 0.786612
Si Si3 0.205919 0.189877 0.299377
Si Si4 0.441097 0.432311 0.418004
O O1 0.500000 0.814136 0.500000
O O2 0.669223 0.877517 0.447256
O O3 0.698545 0.752263 0.399398
O O4 0.381965 0.807534 0.939273
O O5 0.303632 0.000000 0.643522
O O6 0.000000 0.065314 0.000000
O O7 0.139477 0.078767 0.046749
O O8 0.200024 0.126581 0.395732
O O9 0.000000 0.188895 0.500000
O O10 0.500000 0.436483 0.500000
O O11 0.363896 0.500000 0.483327
#
# Coordination Sequence:
#
# PCOD9183703 Si02
#       4
#     8   8   8   8
#     4  11  20  34  58  84 114 152 195 234 279 341
#     4  10  22  40  59  83 118 152 185 235 293 340
#     4  10  19  33  55  85 117 147 187 240 287 326
#     4   9  17  33  57  81 108 145 188 230 273 328
#
# _framework density 23.040925999999999
#
# number of rings (size 3 to 8) (size 9 to 14) (size 15 to 20)
#    0.000    2.000    0.000    7.500    0.000    1.500 
#    0.000    6.250    0.000    4.500    0.000    0.000 
#    0.000    0.000    0.000    0.000    0.000    0.000 
#
# Total GULP energy -89388.832187 kJ/mol
# GULP energy per Si atom -5586.802012 kJ/mol
# Density = 2.298848 g / cm^3
# Si number density = 23.040926 Si / 1000 Ang^3
#
#
#
# Elastic Constant Matrix: (Units=GPa)
#
#
# Indices 1 2 3 4 5 6 
#
# 1 47.7288 7.2689 16.2442 0.0025 14.2928 0.0089
# 2 7.2689 266.7941 124.3063 0.0015 8.2332 0.0163
# 3 16.2442 124.3063 186.6645 0.0065 21.6388 0.0406
# 4 0.0025 0.0015 0.0065 49.6379 0.0022 -11.0889
# 5 14.2928 8.2332 21.6388 0.0022 16.9586 -0.0058
# 6 0.0089 0.0163 0.0406 -11.0889 -0.0058 -25.0490
#
#
#
# Elastic Compliance Matrix: (Units=1/GPa)
#
#
# Indices 1 2 3 4 5 6 
#
# 1 0.028058 -0.000272 0.000546 0.000003 -0.024212 0.000015
# 2 -0.000272 0.005516 -0.003950 0.000000 0.002591 -0.000003
# 3 0.000546 -0.003950 0.009120 0.000002 -0.010180 0.000014
# 4 0.000003 0.000000 0.000002 0.018333 -0.000011 -0.008116
# 5 -0.024212 0.002591 -0.010180 -0.000011 0.091104 -0.000040
# 6 0.000015 -0.000003 0.000014 -0.008116 -0.000040 -0.036329
#
#
# Mechanical properties :
#
#
# Convention : Reuss Voigt Hill
#
# Bulk Modulus (GPa) = 28.29452 88.53626 58.41539
# Shear Modulus (GPa) = 37.05496 31.86737 34.46117
#
# Velocity S-wave (km/s) = 4.01462 3.72301 3.87156
# Velocity P-wave (km/s) = 5.81346 7.54918 6.73745
#
# Compressibility (1/GPa) = 0.03534254
#
# Stress axis : x y z
#
# Youngs Moduli (GPa) = 35.64077 181.28748 109.64601
#
# Poissons Ratio (x) = 0.04925 -0.05986
# Poissons Ratio (y) = 0.00968 0.43311
# Poissons Ratio (z) = -0.01946 0.71610
#
# Static dielectric constant tensor:
#      x y z
#    x 1.916090 0.000000 0.011470 
#    y 0.000000 1.989470 0.000000 
#    z 0.011470 0.000000 1.810900 
# 
# From -- ./inp_files/38356.got.cif
#   From: 2010.05.17/outbox.cif.g08.bks.cpg/sg12_20_cif.got.tgz:38356.got - 2010.06.03 13:09:07.
