data_PCOD9183921
_publ_section_title
;
Structure prediction by ZEFSAII (Michael W. Deem and Ramdas Pophale) SiO2 
 PCOD9183921
Probable space group: C 2/M
;
_chemical_formula_sum "Si O2"
_cell_formula_units_Z 56
_cell_length_a 18.218147
_cell_length_b 7.727345
_cell_length_c 30.941976
_cell_angle_alpha 90.000000
_cell_angle_beta 41.702521
_cell_angle_gamma 90.000000
_cell_volume 2897.851016
_symmetry_space_group_name_H-M "C 2/M"
_symmetry_group_IT_number 12
_symmetry_cell_setting 'monoclinic'
loop_
_space_group_symop_operation_xyz
x,y,z
-x,y,-z
-x,-y,-z
x,-y,z
1/2+x,1/2+y,z
1/2-x,1/2+y,-z
1/2-x,1/2-y,-z
1/2+x,1/2-y,z
loop_
_atom_site_type_symbol
_atom_site_label
_atom_site_fract_x
_atom_site_fract_y
_atom_site_fract_z
Si Si1 0.046575 0.295978 0.934667
Si Si2 0.545472 0.290004 0.193509
Si Si3 0.683501 0.000000 0.422946
Si Si4 0.380698 0.703307 0.670090
Si Si5 0.701803 0.195390 0.672518
Si Si6 0.497297 0.000000 0.428981
Si Si7 0.788462 0.788766 0.803770
Si Si8 0.876816 0.793424 0.935089
O O1 0.066141 0.500000 0.933993
O O2 0.164378 0.225255 0.867192
O O3 0.955846 0.278337 0.937459
O O4 0.000000 0.221082 0.000000
O O5 0.543038 0.500000 0.194334
O O6 0.423660 0.226530 0.258443
O O7 0.631796 0.235762 0.192332
O O8 0.585105 0.230931 0.128885
O O9 0.757582 0.167042 0.380469
O O10 0.587753 0.000000 0.428159
O O11 0.620733 0.000000 0.495963
O O12 0.412846 0.500000 0.657729
O O13 0.279471 0.717046 0.680608
O O14 0.337094 0.761739 0.736017
O O15 0.475462 0.829688 0.610912
O O16 0.716139 0.000000 0.650501
O O17 0.786121 0.000000 0.803859
O O18 0.888353 0.000000 0.930469
O O19 0.750000 0.750000 0.000000
#
# Coordination Sequence:
#
# PCOD9183921 Si02
#       8
#     8   8   4   8   8   4   8   8
#     4  10  20  37  59  80 110 151 191 235 289 343
#     4  10  20  36  56  79 109 149 188 233 284 336
#     4   9  18  34  54  84 118 144 178 231 279 339
#     4   9  18  33  54  81 111 144 186 233 279 337
#     4  10  19  33  56  84 112 146 185 231 283 334
#     4   9  18  32  56  84 113 146 181 225 285 335
#     4   9  18  34  55  79 107 146 186 233 284 336
#     4  11  23  37  56  81 113 151 189 237 286 336
#
# _framework density 19.324663999999999
#
# number of rings (size 3 to 8) (size 9 to 14) (size 15 to 20)
#    0.000    2.286    0.714    2.143    0.000    5.429 
#    2.571    2.857    0.000    0.857    0.000    0.000 
#    0.000    0.000    0.000    0.000    0.000    0.000 
#
# Total GULP energy -156340.330798 kJ/mol
# GULP energy per Si atom -5583.583243 kJ/mol
# Density = 1.928068 g / cm^3
# Si number density = 19.324664 Si / 1000 Ang^3
#
#
#
# Elastic Constant Matrix: (Units=GPa)
#
#
# Indices 1 2 3 4 5 6 
#
# 1 69.1037 23.7744 70.0481 0.0006 4.9484 0.0093
# 2 23.7744 65.7198 61.3961 0.0040 4.9731 0.0191
# 3 70.0481 61.3961 215.5410 -0.0009 6.4026 0.0005
# 4 0.0006 0.0040 -0.0009 17.6400 -0.0008 -4.0333
# 5 4.9484 4.9731 6.4026 -0.0008 25.1853 0.0018
# 6 0.0093 0.0191 0.0005 -4.0333 0.0018 10.6923
#
#
#
# Elastic Compliance Matrix: (Units=1/GPa)
#
#
# Indices 1 2 3 4 5 6 
#
# 1 0.021853 -0.001581 -0.006583 -0.000005 -0.002308 -0.000017
# 2 -0.001581 0.021020 -0.005400 -0.000014 -0.002467 -0.000041
# 3 -0.006583 -0.005400 0.008310 0.000006 0.000247 0.000017
# 4 -0.000005 -0.000014 0.000006 0.062041 0.000003 0.023403
# 5 -0.002308 -0.002467 0.000247 0.000003 0.040584 0.000001
# 6 -0.000017 -0.000041 0.000017 0.023403 0.000001 0.102354
#
#
# Mechanical properties :
#
#
# Convention : Reuss Voigt Hill
#
# Bulk Modulus (GPa) = 41.57277 73.42241 57.49759
# Shear Modulus (GPa) = 17.16400 23.71323 20.43861
#
# Velocity S-wave (km/s) = 2.98349 3.50679 3.25567
# Velocity P-wave (km/s) = 5.78167 7.38061 6.62952
#
# Compressibility (1/GPa) = 0.02405421
#
# Stress axis : x y z
#
# Youngs Moduli (GPa) = 45.75968 47.57428 120.33860
#
# Poissons Ratio (x) = 0.07520 0.79221
# Poissons Ratio (y) = 0.07234 0.64988
# Poissons Ratio (z) = 0.30125 0.25692
#
# Static dielectric constant tensor:
#      x y z
#    x 1.635570 0.000000 0.008230 
#    y 0.000000 1.703770 0.000000 
#    z 0.008230 0.000000 1.646870 
# 
# From -- ./inp_files/363063.got.cif
#   From: 2010.05.17/outbox.cif.g08.bks.cpg/sg12_182_cif.got.tgz:363063.got - 2010.06.03 13:09:07.
