data_PCOD9183451
_publ_section_title
;
Structure prediction by ZEFSAII (Michael W. Deem and Ramdas Pophale) SiO2 
 PCOD9183451
Probable space group: C 2/M
;
_chemical_formula_sum "Si O2"
_cell_formula_units_Z 48
_cell_length_a 24.028084
_cell_length_b 10.684177
_cell_length_c 9.199595
_cell_angle_alpha 90.000000
_cell_angle_beta 109.989690
_cell_angle_gamma 90.000000
_cell_volume 2219.438812
_symmetry_space_group_name_H-M "C 2/M"
_symmetry_group_IT_number 12
_symmetry_cell_setting 'monoclinic'
loop_
_space_group_symop_operation_xyz
x,y,z
-x,y,-z
-x,-y,-z
x,-y,z
1/2+x,1/2+y,z
1/2-x,1/2+y,-z
1/2-x,1/2-y,-z
1/2+x,1/2-y,z
loop_
_atom_site_type_symbol
_atom_site_label
_atom_site_fract_x
_atom_site_fract_y
_atom_site_fract_z
Si Si1 0.041765 0.357575 0.898228
Si Si2 0.926957 0.852141 0.292106
Si Si3 0.649910 0.223545 0.177136
Si Si4 0.241621 0.872873 0.580828
Si Si5 0.107223 0.858767 0.425009
Si Si6 0.700760 0.358760 0.974923
O O1 0.031994 0.500000 0.834937
O O2 0.037668 0.247242 0.775696
O O3 0.106248 0.345313 0.028818
O O4 0.000000 0.335979 0.000000
O O5 0.930795 0.822990 0.467746
O O6 0.942588 0.000000 0.285689
O O7 0.858420 0.840203 0.175290
O O8 0.707164 0.138418 0.256514
O O9 0.616693 0.267054 0.295931
O O10 0.675574 0.344122 0.116608
O O11 0.250000 0.750000 0.500000
O O12 0.172926 0.871293 0.554967
O O13 0.252514 0.000000 0.503702
O O14 0.090494 0.000000 0.361160
O O15 0.723081 0.500000 0.970452
O O16 0.750000 0.250000 0.000000
#
# Coordination Sequence:
#
# PCOD9183451 Si02
#       6
#     8   8   8   8   8   8
#     4  10  22  40  59  79 105 139 181 229 277 323
#     4   9  19  36  56  79 107 140 178 222 271 322
#     4  10  19  33  55  79 106 143 184 222 265 318
#     4   9  17  29  47  74 107 140 170 204 251 308
#     4   9  17  32  54  81 113 141 170 215 266 318
#     4  10  20  32  49  76 110 147 185 221 260 313
#
# _framework density 21.627088000000001
#
# number of rings (size 3 to 8) (size 9 to 14) (size 15 to 20)
#    0.000    2.500    0.000    2.000    0.000    6.333 
#    0.000    5.000    0.000    4.000    0.000    0.000 
#    0.000    0.000    0.000    0.000    0.000    0.000 
#
# Total GULP energy -133662.701425 kJ/mol
# GULP energy per Si atom -5569.279226 kJ/mol
# Density = 2.157786 g / cm^3
# Si number density = 21.627088 Si / 1000 Ang^3
#
#
#
# Elastic Constant Matrix: (Units=GPa)
#
#
# Indices 1 2 3 4 5 6 
#
# 1 58.1413 35.0128 17.0879 0.0000 -8.4369 0.0000
# 2 35.0128 151.4550 53.8786 0.0000 -35.5065 0.0000
# 3 17.0879 53.8786 86.1814 0.0000 -25.8521 0.0000
# 4 0.0000 0.0000 0.0000 16.3021 0.0000 -10.1788
# 5 -8.4369 -35.5065 -25.8521 0.0000 43.2909 0.0000
# 6 0.0000 0.0000 0.0000 -10.1788 0.0000 25.0948
#
#
#
# Elastic Compliance Matrix: (Units=1/GPa)
#
#
# Indices 1 2 3 4 5 6 
#
# 1 0.020116 -0.004226 -0.001475 0.000000 -0.000426 0.000000
# 2 -0.004226 0.010212 -0.003997 0.000000 0.005166 0.000000
# 3 -0.001475 -0.003997 0.016233 0.000000 0.006128 0.000000
# 4 0.000000 0.000000 0.000000 0.082146 0.000000 0.033320
# 5 -0.000426 0.005166 0.006128 0.000000 0.030913 0.000000
# 6 0.000000 0.000000 0.000000 0.033320 0.000000 0.053364
#
#
# Mechanical properties :
#
#
# Convention : Reuss Voigt Hill
#
# Bulk Modulus (GPa) = 36.81011 56.41515 46.61263
# Shear Modulus (GPa) = 20.70961 29.59080 25.15020
#
# Velocity S-wave (km/s) = 3.09783 3.70297 3.41384
# Velocity P-wave (km/s) = 5.46377 6.66518 6.09415
#
# Compressibility (1/GPa) = 0.02716645
#
# Stress axis : x y z
#
# Youngs Moduli (GPa) = 49.71241 97.91984 61.60280
#
# Poissons Ratio (x) = 0.41377 0.09084
# Poissons Ratio (y) = 0.21006 0.24624
# Poissons Ratio (z) = 0.07330 0.39141
#
# Static dielectric constant tensor:
#      x y z
#    x 1.877470 0.000000 0.027280 
#    y 0.000000 1.788280 0.000000 
#    z 0.027280 0.000000 1.831460 
# 
# From -- ./inp_files/94532.got.cif
#   From: 2010.05.17/outbox.cif.g08.bks.cpg/sg12_48_cif.got.tgz:94532.got - 2010.06.03 13:09:07.
