data_PCOD9183213
_publ_section_title
;
Structure prediction by ZEFSAII (Michael W. Deem and Ramdas Pophale) SiO2 
 PCOD9183213
Probable space group: C 2/M
;
_chemical_formula_sum "Si O2"
_cell_formula_units_Z 64
_cell_length_a 27.383016
_cell_length_b 14.677239
_cell_length_c 7.293517
_cell_angle_alpha 90.000000
_cell_angle_beta 106.222868
_cell_angle_gamma 90.000000
_cell_volume 2814.597663
_symmetry_space_group_name_H-M "C 2/M"
_symmetry_group_IT_number 12
_symmetry_cell_setting 'monoclinic'
loop_
_space_group_symop_operation_xyz
x,y,z
-x,y,-z
-x,-y,-z
x,-y,z
1/2+x,1/2+y,z
1/2-x,1/2+y,-z
1/2-x,1/2-y,-z
1/2+x,1/2-y,z
loop_
_atom_site_type_symbol
_atom_site_label
_atom_site_fract_x
_atom_site_fract_y
_atom_site_fract_z
Si Si1 0.566445 0.726073 0.225052
Si Si2 0.153420 0.901923 0.271592
Si Si3 0.736171 0.852992 0.531815
Si Si4 0.861797 0.106821 0.184081
Si Si5 0.605218 0.106556 0.771721
Si Si6 0.541823 0.282971 0.776987
Si Si7 0.301692 0.782479 0.144475
Si Si8 0.124951 0.399771 0.352901
O O1 0.617362 0.671664 0.325987
O O2 0.518851 0.711104 0.308668
O O3 0.585317 0.829002 0.232332
O O4 0.551098 0.699540 0.003554
O O5 0.209973 0.902381 0.412274
O O6 0.128989 0.000000 0.274132
O O7 0.153742 0.886614 0.050602
O O8 0.750000 0.750000 0.500000
O O9 0.717769 0.850784 0.721142
O O10 0.684894 0.882357 0.374841
O O11 0.919489 0.143508 0.268829
O O12 0.827831 0.187567 0.236418
O O13 0.855469 0.000000 0.229738
O O14 0.560087 0.179497 0.754541
O O15 0.654216 0.159612 0.910655
O O16 0.616053 0.105980 0.563823
O O17 0.598830 0.000000 0.818253
O O18 0.250000 0.750000 0.000000
O O19 0.112520 0.500000 0.276478
#
# Coordination Sequence:
#
# PCOD9183213 Si02
#       8
#     8   8   8   8   8   8   8   8
#     4  10  20  36  55  80 108 138 178 223 271 313
#     4  10  19  33  56  80 106 142 180 214 260 318
#     4  11  20  34  55  78 111 143 172 215 264 315
#     4   9  18  34  56  81 107 139 177 218 263 314
#     4   9  20  36  55  79 105 139 181 220 263 318
#     4   9  20  36  56  79 108 138 174 228 271 311
#     4  10  19  33  54  80 109 138 177 217 262 310
#     4  10  21  36  55  79 107 141 179 219 263 320
#
# _framework density 22.738593999999999
#
# number of rings (size 3 to 8) (size 9 to 14) (size 15 to 20)
#    0.000    2.250    2.500    0.375    0.000    3.000 
#    0.000    6.250    0.000    0.000    0.000    3.500 
#    0.000    0.000    0.000    0.000    0.000    0.000 
#
# Total GULP energy -178439.082773 kJ/mol
# GULP energy per Si atom -5576.221337 kJ/mol
# Density = 2.268684 g / cm^3
# Si number density = 22.738594 Si / 1000 Ang^3
#
#
#
# Elastic Constant Matrix: (Units=GPa)
#
#
# Indices 1 2 3 4 5 6 
#
# 1 125.4326 32.1854 5.5985 0.0000 16.8920 0.0000
# 2 32.1854 114.9053 -14.3858 0.0000 7.0771 0.0000
# 3 5.5985 -14.3858 46.2507 0.0000 5.7572 0.0000
# 4 0.0000 0.0000 0.0000 17.3410 0.0000 1.1852
# 5 16.8920 7.0771 5.7572 0.0000 22.8676 0.0000
# 6 0.0000 0.0000 0.0000 1.1852 0.0000 -4.8892
#
#
#
# Elastic Compliance Matrix: (Units=1/GPa)
#
#
# Indices 1 2 3 4 5 6 
#
# 1 0.009446 -0.002425 -0.001159 0.000000 -0.005935 0.000000
# 2 -0.002425 0.009979 0.003674 0.000000 -0.002222 0.000000
# 3 -0.001159 0.003674 0.023681 0.000000 -0.006243 0.000000
# 4 0.000000 0.000000 0.000000 0.056727 0.000000 0.013751
# 5 -0.005935 -0.002222 -0.006243 0.000000 0.050374 0.000000
# 6 0.000000 0.000000 0.000000 0.013751 0.000000 -0.201199
#
#
# Mechanical properties :
#
#
# Convention : Reuss Voigt Hill
#
# Bulk Modulus (GPa) = 23.10237 37.04276 30.07257
# Shear Modulus (GPa) = -136.08143 24.60990 -55.73577
#
# Velocity S-wave (km/s) = -7.74441 3.29340 -4.95628
# Velocity P-wave (km/s) = 8.35379 5.54869 4.41576
#
# Compressibility (1/GPa) = 0.04328559
#
# Stress axis : x y z
#
# Youngs Moduli (GPa) = 105.86776 100.21060 42.22707
#
# Poissons Ratio (x) = 0.24305 0.04894
# Poissons Ratio (y) = 0.25677 -0.15514
# Poissons Ratio (z) = 0.12270 -0.36817
#
# Static dielectric constant tensor:
#      x y z
#    x 1.793080 0.000000 0.159550 
#    y 0.000000 1.813310 0.000000 
#    z 0.159550 0.000000 1.657540 
# 
# From -- ./inp_files/104669.got.cif
#   From: 2010.05.17/outbox.cif.g08.bks.cpg/sg12_53_cif.got.tgz:104669.got - 2010.06.03 13:09:07.
