data_PCOD9183540
_publ_section_title
;
Structure prediction by ZEFSAII (Michael W. Deem and Ramdas Pophale) SiO2 
 PCOD9183540
Probable space group: C 2/M
;
_chemical_formula_sum "Si O2"
_cell_formula_units_Z 48
_cell_length_a 22.371608
_cell_length_b 18.721391
_cell_length_c 7.502833
_cell_angle_alpha 90.000000
_cell_angle_beta 122.444050
_cell_angle_gamma 90.000000
_cell_volume 2651.915446
_symmetry_space_group_name_H-M "C 2/M"
_symmetry_group_IT_number 12
_symmetry_cell_setting 'monoclinic'
loop_
_space_group_symop_operation_xyz
x,y,z
-x,y,-z
-x,-y,-z
x,-y,z
1/2+x,1/2+y,z
1/2-x,1/2+y,-z
1/2-x,1/2-y,-z
1/2+x,1/2-y,z
loop_
_atom_site_type_symbol
_atom_site_label
_atom_site_fract_x
_atom_site_fract_y
_atom_site_fract_z
Si Si1 0.778115 0.082220 0.431631
Si Si2 0.304033 0.082279 0.048648
Si Si3 0.778955 0.161164 0.791595
Si Si4 0.843227 0.773361 0.433987
Si Si5 0.077339 0.772147 0.081515
Si Si6 0.573070 0.189157 0.718642
O O1 0.713970 0.086558 0.188990
O O2 0.758113 0.108611 0.596443
O O3 0.832856 0.142374 0.448658
O O4 0.803212 0.000000 0.472858
O O5 0.302367 0.000000 0.099702
O O6 0.244602 0.125966 0.062195
O O7 0.377507 0.120011 0.209149
O O8 0.733197 0.233930 0.694423
O O9 0.861866 0.176781 0.902382
O O10 0.884382 0.750279 0.323170
O O11 0.887205 0.746220 0.676746
O O12 0.064624 0.713155 0.909279
O O13 0.000000 0.804344 0.000000
O O14 0.500000 0.178608 0.500000
#
# Coordination Sequence:
#
# PCOD9183540 Si02
#       6
#     8   8   8   8   8   8
#     4  10  19  33  55  81 109 137 174 225 275 321
#     4  10  21  36  56  81 110 144 183 226 272 322
#     4  10  20  35  58  81 107 142 188 229 268 318
#     4  10  20  36  56  81 107 142 186 232 268 317
#     4  11  20  33  54  83 110 139 175 230 272 318
#     4  11  21  35  55  81 111 145 182 224 272 322
#
# _framework density 18.100125999999999
#
# number of rings (size 3 to 8) (size 9 to 14) (size 15 to 20)
#    0.000    1.667    1.667    5.500    0.000    3.000 
#    0.000    0.000    0.000   13.500    0.000    0.000 
#    0.000    0.000    0.000    0.000    0.000    0.000 
#
# Total GULP energy -133851.418553 kJ/mol
# GULP energy per Si atom -5577.142440 kJ/mol
# Density = 1.805893 g / cm^3
# Si number density = 18.100126 Si / 1000 Ang^3
#
#
#
# Elastic Constant Matrix: (Units=GPa)
#
#
# Indices 1 2 3 4 5 6 
#
# 1 80.7837 21.8770 35.3007 0.0000 17.5229 0.0000
# 2 21.8770 60.9753 32.4444 0.0000 11.0350 0.0000
# 3 35.3007 32.4444 76.1453 0.0000 1.5778 0.0000
# 4 0.0000 0.0000 0.0000 22.9904 0.0000 -4.8869
# 5 17.5229 11.0350 1.5778 0.0000 39.1614 0.0000
# 6 0.0000 0.0000 0.0000 -4.8869 0.0000 13.5492
#
#
#
# Elastic Compliance Matrix: (Units=1/GPa)
#
#
# Indices 1 2 3 4 5 6 
#
# 1 0.017518 -0.000942 -0.007569 0.000000 -0.007268 0.000000
# 2 -0.000942 0.022570 -0.009064 0.000000 -0.005573 0.000000
# 3 -0.007569 -0.009064 0.020398 0.000000 0.005119 0.000000
# 4 0.000000 0.000000 0.000000 0.047108 0.000000 0.016991
# 5 -0.007268 -0.005573 0.005119 0.000000 0.030152 0.000000
# 6 0.000000 0.000000 0.000000 0.016991 0.000000 0.079933
#
#
# Mechanical properties :
#
#
# Convention : Reuss Voigt Hill
#
# Bulk Modulus (GPa) = 39.47257 44.12761 41.80009
# Shear Modulus (GPa) = 19.13692 23.69232 21.41462
#
# Velocity S-wave (km/s) = 3.25511 3.62188 3.44338
# Velocity P-wave (km/s) = 5.99858 6.47482 6.24124
#
# Compressibility (1/GPa) = 0.02533405
#
# Stress axis : x y z
#
# Youngs Moduli (GPa) = 57.08405 44.30701 49.02466
#
# Poissons Ratio (x) = 0.04175 0.37108
# Poissons Ratio (y) = 0.05380 0.44437
# Poissons Ratio (z) = 0.43208 0.40161
#
# Static dielectric constant tensor:
#      x y z
#    x 1.623240 0.000000 -0.014970 
#    y 0.000000 1.609800 0.000000 
#    z -0.014970 0.000000 1.640440 
# 
# From -- ./inp_files/88139.got.cif
#   From: 2010.05.17/outbox.cif.g08.bks.cpg/sg12_45_cif.got.tgz:88139.got - 2010.06.03 13:09:07.
