data_PCOD9183495
_publ_section_title
;
Structure prediction by ZEFSAII (Michael W. Deem and Ramdas Pophale) SiO2 
 PCOD9183495
Probable space group: C 2/M
;
_chemical_formula_sum "Si O2"
_cell_formula_units_Z 56
_cell_length_a 13.413510
_cell_length_b 13.854460
_cell_length_c 29.556104
_cell_angle_alpha 90.000000
_cell_angle_beta 148.873632
_cell_angle_gamma 90.000000
_cell_volume 2839.283281
_symmetry_space_group_name_H-M "C 2/M"
_symmetry_group_IT_number 12
_symmetry_cell_setting 'monoclinic'
loop_
_space_group_symop_operation_xyz
x,y,z
-x,y,-z
-x,-y,-z
x,-y,z
1/2+x,1/2+y,z
1/2-x,1/2+y,-z
1/2-x,1/2-y,-z
1/2+x,1/2-y,z
loop_
_atom_site_type_symbol
_atom_site_label
_atom_site_fract_x
_atom_site_fract_y
_atom_site_fract_z
Si Si1 0.657168 0.607445 0.600841
Si Si2 0.308833 0.387422 0.081568
Si Si3 0.434917 0.714479 0.694259
Si Si4 0.229914 0.112637 0.283032
Si Si5 0.326081 0.614569 0.986155
Si Si6 0.455272 0.720351 0.601061
Si Si7 0.282359 0.723940 0.887275
O O1 0.500000 0.606054 0.500000
O O2 0.738423 0.500000 0.637357
O O3 0.810309 0.688138 0.647488
O O4 0.555536 0.644282 0.606857
O O5 0.272580 0.500000 0.076057
O O6 0.540350 0.372095 0.177892
O O7 0.250692 0.365047 0.007281
O O8 0.206106 0.321058 0.078306
O O9 0.346148 0.640590 0.696266
O O10 0.432231 0.678433 0.642225
O O11 0.643057 0.747356 0.792800
O O12 0.404200 0.185857 0.340709
O O13 0.284755 0.000000 0.301398
O O14 0.360055 0.500000 0.996550
O O15 0.526387 0.672506 0.056953
O O16 0.201307 0.650355 0.894701
O O17 0.250000 0.750000 0.500000
#
# Coordination Sequence:
#
# PCOD9183495 Si02
#       7
#     8   8   8   8   8   8   8
#     4  10  21  37  54  76 105 135 170 216 267 317
#     4   9  18  35  56  78 107 143 180 218 263 316
#     4  10  21  36  56  78 106 141 175 223 264 316
#     4   9  20  36  55  80 107 139 180 221 265 317
#     4  10  20  34  54  81 112 141 180 224 258 312
#     4  11  21  35  55  76 105 135 176 219 266 316
#     4  10  19  33  55  80 107 141 179 216 270 309
#
# _framework density 19.723286999999999
#
# number of rings (size 3 to 8) (size 9 to 14) (size 15 to 20)
#    0.000    2.143    1.429    2.143    0.000    2.857 
#    0.000    2.143    0.000    1.714    0.000    0.000 
#    0.000    0.000    0.000    0.000    0.000    0.000 
#
# Total GULP energy -156188.511907 kJ/mol
# GULP energy per Si atom -5578.161140 kJ/mol
# Density = 1.967840 g / cm^3
# Si number density = 19.723287 Si / 1000 Ang^3
#
#
#
# Elastic Constant Matrix: (Units=GPa)
#
#
# Indices 1 2 3 4 5 6 
#
# 1 60.7105 0.3332 5.2026 0.0000 -25.6544 0.0000
# 2 0.3332 82.1047 -3.7863 0.0000 0.9968 0.0000
# 3 5.2026 -3.7863 48.4270 0.0000 -15.6589 0.0000
# 4 0.0000 0.0000 0.0000 26.5437 0.0000 3.3360
# 5 -25.6544 0.9968 -15.6589 0.0000 36.0173 0.0000
# 6 0.0000 0.0000 0.0000 3.3360 0.0000 28.5318
#
#
#
# Elastic Compliance Matrix: (Units=1/GPa)
#
#
# Indices 1 2 3 4 5 6 
#
# 1 0.024048 -0.000166 0.003425 0.000000 0.018623 0.000000
# 2 -0.000166 0.012225 0.000961 0.000000 -0.000038 0.000000
# 3 0.003425 0.000961 0.024595 0.000000 0.013106 0.000000
# 4 0.000000 0.000000 0.000000 0.038236 0.000000 -0.004471
# 5 0.018623 -0.000038 0.013106 0.000000 0.046728 0.000000
# 6 0.000000 0.000000 0.000000 -0.004471 0.000000 0.035571
#
#
# Mechanical properties :
#
#
# Convention : Reuss Voigt Hill
#
# Bulk Modulus (GPa) = 14.42802 21.63789 18.03296
# Shear Modulus (GPa) = 25.50175 30.85141 28.17658
#
# Velocity S-wave (km/s) = 3.59970 3.95930 3.78378
# Velocity P-wave (km/s) = 4.96067 5.64765 5.31527
#
# Compressibility (1/GPa) = 0.06930957
#
# Stress axis : x y z
#
# Youngs Moduli (GPa) = 41.58266 81.79930 40.65932
#
# Poissons Ratio (x) = 0.01356 -0.13927
# Poissons Ratio (y) = 0.00689 -0.03908
# Poissons Ratio (z) = -0.14243 -0.07863
#
# Static dielectric constant tensor:
#      x y z
#    x 1.688090 0.000000 0.035360 
#    y 0.000000 1.676150 0.000000 
#    z 0.035360 0.000000 1.638960 
# 
# From -- ./inp_files/376407.got.cif
#   From: 2010.05.17/outbox.cif.g08.bks.cpg/sg12_189_cif.got.tgz:376407.got - 2010.06.03 13:09:07.
