data_PCOD9183127
_publ_section_title
;
Structure prediction by ZEFSAII (Michael W. Deem and Ramdas Pophale) SiO2 
 PCOD9183127
Probable space group: C 2/M
;
_chemical_formula_sum "Si O2"
_cell_formula_units_Z 64
_cell_length_a 19.373844
_cell_length_b 7.631168
_cell_length_c 29.030216
_cell_angle_alpha 90.000000
_cell_angle_beta 137.066873
_cell_angle_gamma 90.000000
_cell_volume 2923.453583
_symmetry_space_group_name_H-M "C 2/M"
_symmetry_group_IT_number 12
_symmetry_cell_setting 'monoclinic'
loop_
_space_group_symop_operation_xyz
x,y,z
-x,y,-z
-x,-y,-z
x,-y,z
1/2+x,1/2+y,z
1/2-x,1/2+y,-z
1/2-x,1/2-y,-z
1/2+x,1/2-y,z
loop_
_atom_site_type_symbol
_atom_site_label
_atom_site_fract_x
_atom_site_fract_y
_atom_site_fract_z
Si Si1 0.618277 0.705418 0.210624
Si Si2 0.901667 0.299302 0.071196
Si Si3 0.182353 0.211888 0.344177
Si Si4 0.393367 0.699223 0.964070
Si Si5 0.176481 0.712507 0.869593
Si Si6 0.335882 0.287080 0.295090
Si Si7 0.980285 0.791928 0.285393
Si Si8 0.600894 0.707399 0.572747
O O1 0.593630 0.500000 0.201738
O O2 0.519715 0.797091 0.143020
O O3 0.648243 0.770693 0.276283
O O4 0.720361 0.728751 0.231219
O O5 0.870708 0.500000 0.047545
O O6 0.892659 0.197057 0.019261
O O7 0.841725 0.229580 0.086580
O O8 0.297550 0.268496 0.407573
O O9 0.094435 0.275622 0.335212
O O10 0.182031 0.000000 0.343616
O O11 0.393696 0.500000 0.945518
O O12 0.500000 0.781389 0.000000
O O13 0.282526 0.777590 0.899675
O O14 0.180366 0.500000 0.872674
O O15 0.082010 0.764991 0.792109
O O16 0.334937 0.500000 0.294701
O O17 0.412019 0.221505 0.293302
O O18 0.372742 0.223222 0.363402
O O19 0.988832 0.000000 0.297108
O O20 0.500000 0.780951 0.500000
O O21 0.584675 0.500000 0.570944
#
# Coordination Sequence:
#
# PCOD9183127 Si02
#       8
#     8   8   8   8   8   8   8   8
#     4  10  19  33  54  78 105 139 178 220 268 322
#     4  11  22  36  56  80 106 138 181 225 269 324
#     4   9  18  33  53  79 107 139 178 218 264 315
#     4  10  23  41  57  77 107 141 180 227 279 327
#     4  10  22  38  56  79 107 143 182 222 271 327
#     4   9  19  34  53  79 111 143 180 223 267 317
#     4  10  20  35  55  80 110 142 177 224 275 321
#     4   9  18  34  56  80 109 147 185 220 263 316
#
# _framework density 21.891915999999998
#
# number of rings (size 3 to 8) (size 9 to 14) (size 15 to 20)
#    0.000    2.250    1.250    1.125    1.750    3.000 
#    0.000    0.625    0.000    0.000    0.000    0.000 
#    0.000    0.000    0.000    0.000    0.000    0.000 
#
# Total GULP energy -178696.389233 kJ/mol
# GULP energy per Si atom -5584.262164 kJ/mol
# Density = 2.184209 g / cm^3
# Si number density = 21.891916 Si / 1000 Ang^3
#
#
#
# Elastic Constant Matrix: (Units=GPa)
#
#
# Indices 1 2 3 4 5 6 
#
# 1 134.3959 -6.2178 24.9304 0.0000 31.2936 0.0001
# 2 -6.2178 50.2305 -6.1360 -0.0001 -2.2216 0.0002
# 3 24.9304 -6.1360 75.7762 0.0000 35.1336 0.0000
# 4 0.0000 -0.0001 0.0000 9.7880 0.0000 -0.0124
# 5 31.2936 -2.2216 35.1336 0.0000 33.9463 0.0000
# 6 0.0001 0.0002 0.0000 -0.0124 0.0000 12.3937
#
#
#
# Elastic Compliance Matrix: (Units=1/GPa)
#
#
# Indices 1 2 3 4 5 6 
#
# 1 0.009647 0.000950 0.001918 0.000000 -0.010816 0.000000
# 2 0.000950 0.020210 0.002147 0.000000 -0.001775 0.000000
# 3 0.001918 0.002147 0.025944 0.000000 -0.028479 0.000000
# 4 0.000000 0.000000 0.000000 0.102166 0.000000 0.000103
# 5 -0.010816 -0.001775 -0.028479 0.000000 0.068788 0.000000
# 6 0.000000 0.000000 0.000000 0.000103 0.000000 0.080686
#
#
# Mechanical properties :
#
#
# Convention : Reuss Voigt Hill
#
# Bulk Modulus (GPa) = 15.19040 31.72842 23.45941
# Shear Modulus (GPa) = 15.65657 27.74734 21.70196
#
# Velocity S-wave (km/s) = 2.67718 3.56402 3.15194
# Velocity P-wave (km/s) = 4.06328 5.60901 4.89751
#
# Compressibility (1/GPa) = 0.06583106
#
# Stress axis : x y z
#
# Youngs Moduli (GPa) = 103.65448 49.48143 38.54485
#
# Poissons Ratio (x) = -0.04701 -0.07393
# Poissons Ratio (y) = -0.09848 -0.08276
# Poissons Ratio (z) = -0.19880 -0.10624
#
# Static dielectric constant tensor:
#      x y z
#    x 1.829830 0.000000 0.021810 
#    y 0.000000 1.821630 0.000000 
#    z 0.021810 0.000000 1.788510 
# 
# From -- ./inp_files/346209.got.cif
#   From: 2010.05.17/outbox.cif.g08.bks.cpg/sg12_174_cif.got.tgz:346209.got - 2010.06.03 13:09:07.
