data_PCOD9183737
_publ_section_title
;
Structure prediction by ZEFSAII (Michael W. Deem and Ramdas Pophale) SiO2 
 PCOD9183737
Probable space group: C 2/M
;
_chemical_formula_sum "Si O2"
_cell_formula_units_Z 58
_cell_length_a 19.446830
_cell_length_b 7.642118
_cell_length_c 19.863974
_cell_angle_alpha 90.000000
_cell_angle_beta 68.050562
_cell_angle_gamma 90.000000
_cell_volume 2738.099357
_symmetry_space_group_name_H-M "C 2/M"
_symmetry_group_IT_number 12
_symmetry_cell_setting 'monoclinic'
loop_
_space_group_symop_operation_xyz
x,y,z
-x,y,-z
-x,-y,-z
x,-y,z
1/2+x,1/2+y,z
1/2-x,1/2+y,-z
1/2-x,1/2-y,-z
1/2+x,1/2-y,z
loop_
_atom_site_type_symbol
_atom_site_label
_atom_site_fract_x
_atom_site_fract_y
_atom_site_fract_z
Si Si1 0.199249 0.209881 0.750635
Si Si2 0.668355 0.790987 0.502753
Si Si3 0.940531 0.703217 0.106277
Si Si4 0.469607 0.213822 0.800437
Si Si5 0.500000 0.500000 0.000000
Si Si6 0.393270 0.790714 0.338717
Si Si7 0.640518 0.794500 0.265361
Si Si8 0.935972 0.799003 0.572228
O O1 0.133990 0.284239 0.821581
O O2 0.177842 0.252041 0.681543
O O3 0.280011 0.278529 0.741871
O O4 0.197569 0.000000 0.757277
O O5 0.750000 0.750000 0.500000
O O6 0.615488 0.725511 0.582638
O O7 0.639231 0.712242 0.444293
O O8 0.662560 0.000000 0.497619
O O9 0.950041 0.500000 0.083776
O O10 0.007652 0.762092 0.132374
O O11 0.942775 0.843979 0.046946
O O12 0.536675 0.276287 0.728184
O O13 0.395779 0.275594 0.790047
O O14 0.470437 0.000000 0.799804
O O15 0.400241 0.000000 0.340498
O O16 0.582576 0.780731 0.348511
O O17 0.652359 0.000000 0.249697
O O18 0.000000 0.720463 0.500000
O O19 0.955755 0.000000 0.577003
#
# Coordination Sequence:
#
# PCOD9183737 Si02
#       8
#     8   8   8   8   2   8   8   8
#     4  10  19  33  55  88 119 148 194 246 290 352
#     4  11  22  35  52  73 102 146 191 246 307 367
#     4  10  21  39  65  95 127 160 192 238 286 338
#     4   8  16  34  57  83 109 145 193 236 286 338
#     4  12  22  40  68 102 128 152 198 230 276 358
#     4   9  18  32  51  71 102 142 191 246 299 348
#     4  10  20  35  58  83 111 155 199 248 298 349
#     4  11  24  38  50  74 112 153 205 256 308 365
#
# _framework density 21.182577999999999
#
# number of rings (size 3 to 8) (size 9 to 14) (size 15 to 20)
#    0.000    2.069    0.690    3.931    0.000    6.621 
#    1.241    1.379    0.000    0.828    0.000    0.000 
#    0.000    0.000    0.000    0.000    0.000    0.000 
#
# Total GULP energy -161641.682306 kJ/mol
# GULP energy per Si atom -5573.851114 kJ/mol
# Density = 2.113437 g / cm^3
# Si number density = 21.182578 Si / 1000 Ang^3
#
#
#
# Elastic Constant Matrix: (Units=GPa)
#
#
# Indices 1 2 3 4 5 6 
#
# 1 90.9739 -11.8442 1.7896 0.0000 8.2729 0.0000
# 2 -11.8442 73.8191 7.2862 0.0000 -0.0986 -0.0003
# 3 1.7896 7.2862 46.0894 0.0000 -7.3971 0.0001
# 4 0.0000 0.0000 0.0000 7.3275 0.0000 -9.3030
# 5 8.2729 -0.0986 -7.3971 0.0000 12.6712 -0.0001
# 6 0.0000 -0.0003 0.0001 -9.3030 -0.0001 12.7982
#
#
#
# Elastic Compliance Matrix: (Units=1/GPa)
#
#
# Indices 1 2 3 4 5 6 
#
# 1 0.012162 0.002166 -0.002302 0.000000 -0.009268 0.000000
# 2 0.002166 0.014166 -0.002795 0.000005 -0.002936 0.000004
# 3 -0.002302 -0.002795 0.024788 -0.000002 0.015952 -0.000002
# 4 0.000000 0.000005 -0.000002 1.769333 0.000002 1.286130
# 5 -0.009268 -0.002936 0.015952 0.000002 0.094259 0.000002
# 6 0.000000 0.000004 -0.000002 1.286130 0.000002 1.013025
#
#
# Mechanical properties :
#
#
# Convention : Reuss Voigt Hill
#
# Bulk Modulus (GPa) = 22.09673 22.81617 22.45645
# Shear Modulus (GPa) = 1.69567 20.80279 11.24923
#
# Velocity S-wave (km/s) = 0.89568 3.13720 2.30697
# Velocity P-wave (km/s) = 3.39468 4.89053 4.20958
#
# Compressibility (1/GPa) = 0.04525557
#
# Stress axis : x y z
#
# Youngs Moduli (GPa) = 82.22159 70.59092 40.34148
#
# Poissons Ratio (x) = -0.15292 0.09287
# Poissons Ratio (y) = -0.17811 0.11274
# Poissons Ratio (z) = 0.18928 0.19728
#
# Static dielectric constant tensor:
#      x y z
#    x 1.821090 0.000000 -0.003870 
#    y 0.000000 1.819310 0.000000 
#    z -0.003870 0.000000 1.784250 
# 
# From -- ./inp_files/313841.got.cif
#   From: 2010.05.17/outbox.cif.g08.bks.cpg/sg12_157_cif.got.tgz:313841.got - 2010.06.03 13:09:07.
