data_PCOD9183956
_publ_section_title
;
Structure prediction by ZEFSAII (Michael W. Deem and Ramdas Pophale) SiO2 
 PCOD9183956
Probable space group: C 2/M
;
_chemical_formula_sum "Si O2"
_cell_formula_units_Z 64
_cell_length_a 20.496679
_cell_length_b 8.302160
_cell_length_c 22.082391
_cell_angle_alpha 90.000000
_cell_angle_beta 122.724810
_cell_angle_gamma 90.000000
_cell_volume 3161.255450
_symmetry_space_group_name_H-M "C 2/M"
_symmetry_group_IT_number 12
_symmetry_cell_setting 'monoclinic'
loop_
_space_group_symop_operation_xyz
x,y,z
-x,y,-z
-x,-y,-z
x,-y,z
1/2+x,1/2+y,z
1/2-x,1/2+y,-z
1/2-x,1/2-y,-z
1/2+x,1/2-y,z
loop_
_atom_site_type_symbol
_atom_site_label
_atom_site_fract_x
_atom_site_fract_y
_atom_site_fract_z
Si Si1 0.509497 0.807201 0.187616
Si Si2 0.826788 0.811183 0.426100
Si Si3 0.768088 0.694776 0.941091
Si Si4 0.338343 0.685901 0.676372
Si Si5 0.623631 0.305366 0.789066
Si Si6 0.556812 0.196790 0.975477
Si Si7 0.604369 0.813455 0.421459
Si Si8 0.434208 0.305051 0.369668
O O1 0.593814 0.737337 0.244056
O O2 0.450200 0.756343 0.210550
O O3 0.473895 0.752033 0.105755
O O4 0.514928 0.000000 0.189574
O O5 0.740386 0.786794 0.357871
O O6 0.837034 0.718094 0.494054
O O7 0.889680 0.755390 0.408086
O O8 0.840530 0.000000 0.445047
O O9 0.767326 0.500000 0.939711
O O10 0.701525 0.751619 0.861711
O O11 0.750000 0.750000 0.000000
O O12 0.854975 0.749260 0.969512
O O13 0.318851 0.500000 0.674907
O O14 0.372668 0.713648 0.626208
O O15 0.622526 0.500000 0.790795
O O16 0.614573 0.258565 0.714567
O O17 0.556839 0.000000 0.975234
O O18 0.500000 0.250595 0.000000
O O19 0.519856 0.764413 0.403816
O O20 0.604670 0.000000 0.403866
O O21 0.440267 0.500000 0.374092
#
# Coordination Sequence:
#
# PCOD9183956 Si02
#       8
#     8   8   8   8   8   8   8   8
#     4  11  21  36  61  90 117 154 201 250 301 357
#     4  11  24  42  63  90 124 159 202 251 303 362
#     4  10  19  33  56  85 114 151 195 241 293 342
#     4  12  25  42  63  88 122 161 204 251 307 363
#     4  10  20  35  59  87 118 157 199 246 300 355
#     4   9  19  35  57  87 122 156 197 244 294 352
#     4  12  24  40  64  92 122 160 204 249 302 361
#     4  10  22  40  62  90 122 161 203 249 302 361
#
# _framework density 20.245121000000001
#
# number of rings (size 3 to 8) (size 9 to 14) (size 15 to 20)
#    0.000    1.375    2.500    3.750    0.000    3.500 
#    0.000    3.750    0.000    4.875    0.000    0.000 
#    0.000    0.000    0.000    0.000    0.000    0.000 
#
# Total GULP energy -178928.271150 kJ/mol
# GULP energy per Si atom -5591.508473 kJ/mol
# Density = 2.019904 g / cm^3
# Si number density = 20.245121 Si / 1000 Ang^3
#
#
#
# Elastic Constant Matrix: (Units=GPa)
#
#
# Indices 1 2 3 4 5 6 
#
# 1 66.1815 -7.5468 -12.2652 0.0000 10.8256 0.0000
# 2 -7.5468 17.7812 2.3665 0.0000 -3.0386 0.0000
# 3 -12.2652 2.3665 64.9407 0.0000 15.4709 0.0000
# 4 0.0000 0.0000 0.0000 23.5554 0.0000 0.2209
# 5 10.8256 -3.0386 15.4709 0.0000 35.0476 0.0000
# 6 0.0000 0.0000 0.0000 0.2209 0.0000 21.2166
#
#
#
# Elastic Compliance Matrix: (Units=1/GPa)
#
#
# Indices 1 2 3 4 5 6 
#
# 1 0.017833 0.005697 0.004867 0.000000 -0.007163 0.000000
# 2 0.005697 0.059687 -0.002137 0.000000 0.004359 0.000000
# 3 0.004867 -0.002137 0.018772 0.000000 -0.009975 0.000000
# 4 0.000000 0.000000 0.000000 0.042457 0.000000 -0.000442
# 5 -0.007163 0.004359 -0.009975 0.000000 0.035526 0.000000
# 6 0.000000 0.000000 0.000000 -0.000442 0.000000 0.047137
#
#
# Mechanical properties :
#
#
# Convention : Reuss Voigt Hill
#
# Bulk Modulus (GPa) = 8.83820 12.66804 10.75312
# Shear Modulus (GPa) = 20.63773 27.05383 23.84578
#
# Velocity S-wave (km/s) = 3.19626 3.65953 3.43571
# Velocity P-wave (km/s) = 4.24223 4.91194 4.58931
#
# Compressibility (1/GPa) = 0.11314521
#
# Stress axis : x y z
#
# Youngs Moduli (GPa) = 56.07506 16.75420 53.27041
#
# Poissons Ratio (x) = -0.09545 -0.25926
# Poissons Ratio (y) = -0.31946 0.11386
# Poissons Ratio (z) = -0.27291 0.03581
#
# Static dielectric constant tensor:
#      x y z
#    x 1.685210 0.000000 0.016400 
#    y 0.000000 1.700150 0.000000 
#    z 0.016400 0.000000 1.710300 
# 
# From -- ./inp_files/320034.got.cif
#   From: 2010.05.17/outbox.cif.g08.bks.cpg/sg12_161_cif.got.tgz:320034.got - 2010.06.03 13:09:07.
