data_PCOD9183711
_publ_section_title
;
Structure prediction by ZEFSAII (Michael W. Deem and Ramdas Pophale) SiO2 
 PCOD9183711
Probable space group: C 2/M
;
_chemical_formula_sum "Si O2"
_cell_formula_units_Z 64
_cell_length_a 14.930991
_cell_length_b 7.886889
_cell_length_c 27.807695
_cell_angle_alpha 90.000000
_cell_angle_beta 128.769745
_cell_angle_gamma 90.000000
_cell_volume 2553.109681
_symmetry_space_group_name_H-M "C 2/M"
_symmetry_group_IT_number 12
_symmetry_cell_setting 'monoclinic'
loop_
_space_group_symop_operation_xyz
x,y,z
-x,y,-z
-x,-y,-z
x,-y,z
1/2+x,1/2+y,z
1/2-x,1/2+y,-z
1/2-x,1/2-y,-z
1/2+x,1/2-y,z
loop_
_atom_site_type_symbol
_atom_site_label
_atom_site_fract_x
_atom_site_fract_y
_atom_site_fract_z
Si Si1 0.482711 0.697900 0.845180
Si Si2 0.663343 0.202204 0.513662
Si Si3 0.753219 0.699329 0.354074
Si Si4 0.281470 0.706493 0.111063
Si Si5 0.254592 0.199704 0.205748
Si Si6 0.421943 0.203121 0.020781
Si Si7 0.024946 0.191434 0.616498
Si Si8 0.508433 0.807339 0.294622
O O1 0.471105 0.500000 0.828494
O O2 0.587277 0.768533 0.848998
O O3 0.354509 0.772591 0.802502
O O4 0.531692 0.709264 0.915986
O O5 0.750000 0.250000 0.500000
O O6 0.708535 0.264892 0.580261
O O7 0.539791 0.267225 0.454779
O O8 0.658132 0.000000 0.515296
O O9 0.777036 0.500000 0.358763
O O10 0.839507 0.783119 0.345281
O O11 0.616835 0.724720 0.305191
O O12 0.279405 0.500000 0.113661
O O13 0.225174 0.782193 0.139657
O O14 0.205604 0.753147 0.039392
O O15 0.382245 0.276980 0.250085
O O16 0.265531 0.000000 0.222552
O O17 0.425287 0.000000 0.030736
O O18 0.500000 0.235204 0.000000
O O19 0.973710 0.304617 0.641705
O O20 0.997367 0.000000 0.620929
O O21 0.501763 0.000000 0.275416
#
# Coordination Sequence:
#
# PCOD9183711 Si02
#       8
#     8   8   8   8   8   8   8   8
#     4  10  21  37  58  85 116 151 194 238 293 355
#     4  11  22  38  64  95 129 164 205 252 305 366
#     4  11  24  42  65  94 125 161 205 252 306 367
#     4  10  21  37  58  85 117 155 194 240 294 356
#     4  10  23  41  60  85 115 151 197 248 297 351
#     4  10  19  33  55  85 119 151 191 238 294 352
#     4  12  25  41  64  95 128 165 206 249 307 370
#     4  11  24  43  64  87 121 161 207 261 310 361
#
# _framework density 25.067471000000001
#
# number of rings (size 3 to 8) (size 9 to 14) (size 15 to 20)
#    0.000    1.375    2.500    3.000    0.000    6.250 
#    0.000    1.250    0.000    0.000    0.000    0.000 
#    0.000    0.000    0.000    0.000    0.000    0.000 
#
# Total GULP energy -179064.041755 kJ/mol
# GULP energy per Si atom -5595.751305 kJ/mol
# Density = 2.501042 g / cm^3
# Si number density = 25.067471 Si / 1000 Ang^3
#
#
#
# Elastic Constant Matrix: (Units=GPa)
#
#
# Indices 1 2 3 4 5 6 
#
# 1 145.0190 1.6922 22.6806 0.0000 26.6753 0.0000
# 2 1.6922 51.1693 -0.0459 0.0000 2.7984 0.0000
# 3 22.6806 -0.0459 83.1994 0.0000 23.4141 0.0000
# 4 0.0000 0.0000 0.0000 22.4206 0.0000 2.6817
# 5 26.6753 2.7984 23.4141 0.0000 51.7204 0.0000
# 6 0.0000 0.0000 0.0000 2.6817 0.0000 16.1219
#
#
#
# Elastic Compliance Matrix: (Units=1/GPa)
#
#
# Indices 1 2 3 4 5 6 
#
# 1 0.007710 -0.000067 -0.001127 0.000000 -0.003462 0.000000
# 2 -0.000067 0.019611 0.000364 0.000000 -0.001192 0.000000
# 3 -0.001127 0.000364 0.013945 0.000000 -0.005751 0.000000
# 4 0.000000 0.000000 0.000000 0.045507 0.000000 -0.007570
# 5 -0.003462 -0.001192 -0.005751 0.000000 0.023789 0.000000
# 6 0.000000 0.000000 0.000000 -0.007570 0.000000 0.063287
#
#
# Mechanical properties :
#
#
# Convention : Reuss Voigt Hill
#
# Bulk Modulus (GPa) = 25.24845 36.44907 30.84876
# Shear Modulus (GPa) = 26.49576 35.05663 30.77620
#
# Velocity S-wave (km/s) = 3.25465 3.74370 3.50771
# Velocity P-wave (km/s) = 4.92115 5.76706 5.36081
#
# Compressibility (1/GPa) = 0.03960639
#
# Stress axis : x y z
#
# Youngs Moduli (GPa) = 129.70813 50.99269 71.70823
#
# Poissons Ratio (x) = 0.00340 0.08084
# Poissons Ratio (y) = 0.00864 -0.02612
# Poissons Ratio (z) = 0.14622 -0.01858
#
# Static dielectric constant tensor:
#      x y z
#    x 1.951550 0.000000 0.031390 
#    y 0.000000 1.888540 0.000000 
#    z 0.031390 0.000000 2.062300 
# 
# From -- ./inp_files/375386.got.cif
#   From: 2010.05.17/outbox.cif.g08.bks.cpg/sg12_188_cif.got.tgz:375386.got - 2010.06.03 13:09:07.
