data_PCOD9183820
_publ_section_title
;
Structure prediction by ZEFSAII (Michael W. Deem and Ramdas Pophale) SiO2 
 PCOD9183820
Probable space group: C 2/M
;
_chemical_formula_sum "Si O2"
_cell_formula_units_Z 40
_cell_length_a 22.872444
_cell_length_b 10.662040
_cell_length_c 25.540255
_cell_angle_alpha 90.000000
_cell_angle_beta 16.750627
_cell_angle_gamma 90.000000
_cell_volume 1795.073572
_symmetry_space_group_name_H-M "C 2/M"
_symmetry_group_IT_number 12
_symmetry_cell_setting 'monoclinic'
loop_
_space_group_symop_operation_xyz
x,y,z
-x,y,-z
-x,-y,-z
x,-y,z
1/2+x,1/2+y,z
1/2-x,1/2+y,-z
1/2-x,1/2-y,-z
1/2+x,1/2-y,z
loop_
_atom_site_type_symbol
_atom_site_label
_atom_site_fract_x
_atom_site_fract_y
_atom_site_fract_z
Si Si1 0.967339 0.500000 0.183138
Si Si2 0.155399 0.356876 0.318674
Si Si3 0.946863 0.240189 0.150279
Si Si4 0.971329 0.500000 0.748950
Si Si5 0.068312 0.259764 0.282898
Si Si6 0.458385 0.500000 0.744022
Si Si7 0.017455 0.000000 0.813751
O O1 0.884958 0.373214 0.227660
O O2 0.940340 0.500000 0.268593
O O3 0.212298 0.500000 0.962982
O O4 0.207101 0.500000 0.258245
O O5 0.346643 0.287838 0.180406
O O6 0.058438 0.287106 0.352738
O O7 0.000000 0.362059 0.500000
O O8 0.898363 0.123784 0.230284
O O9 0.189605 0.241060 0.936244
O O10 0.020140 0.375034 0.674584
O O11 0.725885 0.500000 0.967675
O O12 0.987880 0.126394 0.332742
O O13 0.547307 0.500000 0.726218
#
# Coordination Sequence:
#
# PCOD9183820 Si02
#       7
#     4   8   8   4   8   4   4
#     4   9  18  31  51  84 116 135 162 213 266 305
#     4  11  23  38  55  74 102 138 179 224 264 305
#     4  10  19  33  56  82 107 137 174 213 255 308
#     4   9  16  29  53  82 110 139 170 207 254 309
#     4  10  19  33  56  82 107 137 174 213 255 308
#     4   9  18  31  51  84 116 135 162 213 266 305
#     4   9  16  29  53  82 110 139 170 207 254 309
#
# _framework density 22.283207999999998
#
# number of rings (size 3 to 8) (size 9 to 14) (size 15 to 20)
#    0.000    2.200    2.000    1.800    0.000    6.400 
#    0.000    5.000    0.000    7.200    0.000    0.000 
#    0.000    0.000    0.000    0.000    0.000    0.000 
#
# Total GULP energy -111901.535913 kJ/mol
# GULP energy per Si atom -5595.076796 kJ/mol
# Density = 2.223249 g / cm^3
# Si number density = 22.283208 Si / 1000 Ang^3
#
#
#
# Elastic Constant Matrix: (Units=GPa)
#
#
# Indices 1 2 3 4 5 6 
#
# 1 151.2409 85.9711 45.3992 -0.0215 45.1984 0.0097
# 2 85.9711 196.9892 52.3329 -0.0283 34.4449 0.0080
# 3 45.3992 52.3329 36.4574 -0.0535 -15.5844 0.0502
# 4 -0.0215 -0.0283 -0.0535 7.3728 0.0149 0.4789
# 5 45.1984 34.4449 -15.5844 0.0149 21.6802 -0.0025
# 6 0.0097 0.0080 0.0502 0.4789 -0.0025 21.0313
#
#
#
# Elastic Compliance Matrix: (Units=1/GPa)
#
#
# Indices 1 2 3 4 5 6 
#
# 1 0.002825 -0.006787 0.012005 0.000044 0.013523 -0.000027
# 2 -0.006787 0.005561 0.003957 0.000014 0.008158 -0.000008
# 3 0.012005 0.003957 -0.009507 0.000058 -0.038148 0.000010
# 4 0.000044 0.000014 0.000058 0.135836 -0.000166 -0.003093
# 5 0.013523 0.008158 -0.038148 -0.000166 -0.022450 0.000083
# 6 -0.000027 -0.000008 0.000010 -0.003093 0.000083 0.047619
#
#
# Mechanical properties :
#
#
# Convention : Reuss Voigt Hill
#
# Bulk Modulus (GPa) = 58.04225 83.56597 70.80411
# Shear Modulus (GPa) = 33.94995 23.41583 28.68289
#
# Velocity S-wave (km/s) = 3.90752 3.24517 3.59165
# Velocity P-wave (km/s) = 6.81633 7.18503 7.00311
#
# Compressibility (1/GPa) = 0.01722883
#
# Stress axis : x y z
#
# Youngs Moduli (GPa) = 354.00587 179.83572 -105.19032
#
# Poissons Ratio (x) = 1.22049 1.26281
# Poissons Ratio (y) = 2.40252 0.41620
# Poissons Ratio (z) = -4.24985 -0.71155
#
# Static dielectric constant tensor:
#      x y z
#    x 1.761140 0.000000 -0.011530 
#    y 0.000000 1.780270 0.000020 
#    z -0.011530 0.000020 1.884810 
# 
# From -- ./inp_files/83627.got.cif
#   From: 2010.05.17/outbox.cif.g08.bks.cpg/sg12_42_cif.got.tgz:83627.got - 2010.06.03 13:09:07.
