data_PCOD9183510
_publ_section_title
;
Structure prediction by ZEFSAII (Michael W. Deem and Ramdas Pophale) SiO2 
 PCOD9183510
Probable space group: C 2/M
;
_chemical_formula_sum "Si O2"
_cell_formula_units_Z 48
_cell_length_a 26.476011
_cell_length_b 14.684758
_cell_length_c 19.707568
_cell_angle_alpha 90.000000
_cell_angle_beta 18.167974
_cell_angle_gamma 90.000000
_cell_volume 2389.097575
_symmetry_space_group_name_H-M "C 2/M"
_symmetry_group_IT_number 12
_symmetry_cell_setting 'monoclinic'
loop_
_space_group_symop_operation_xyz
x,y,z
-x,y,-z
-x,-y,-z
x,-y,z
1/2+x,1/2+y,z
1/2-x,1/2+y,-z
1/2-x,1/2-y,-z
1/2+x,1/2-y,z
loop_
_atom_site_type_symbol
_atom_site_label
_atom_site_fract_x
_atom_site_fract_y
_atom_site_fract_z
Si Si1 0.733514 0.104202 0.887149
Si Si2 0.193117 0.796239 0.748757
Si Si3 0.695552 0.893437 0.256140
Si Si4 0.339192 0.776714 0.817809
Si Si5 0.812561 0.400625 0.215440
Si Si6 0.554502 0.107283 0.639152
O O1 0.859099 0.181619 0.751673
O O2 0.699521 0.110200 0.850586
O O3 0.786407 0.000000 0.834598
O O4 0.565334 0.119797 0.143829
O O5 0.240583 0.845809 0.758201
O O6 0.257312 0.692104 0.664514
O O7 0.265554 0.851246 0.592252
O O8 0.000000 0.792359 0.000000
O O9 0.500000 0.882659 0.500000
O O10 0.758397 0.840531 0.109640
O O11 0.732833 0.000000 0.208292
O O12 0.478397 0.839267 0.672273
O O13 0.250000 0.750000 0.000000
O O14 0.740418 0.500000 0.325253
O O15 0.000000 0.404077 0.000000
O O16 0.560372 0.000000 0.617701
#
# Coordination Sequence:
#
# PCOD9183510 Si02
#       6
#     8   8   8   8   8   8
#     4   9  18  34  57  83 108 142 188 232 277 329
#     4  11  22  36  56  88 116 148 186 233 283 331
#     4  11  21  35  58  84 113 151 191 229 279 340
#     4  10  19  33  55  80 111 141 186 227 274 329
#     4   9  18  35  57  77 102 143 190 228 271 329
#     4  10  20  35  56  81 112 150 185 223 278 340
#
# _framework density 20.091269
#
# number of rings (size 3 to 8) (size 9 to 14) (size 15 to 20)
#    0.000    2.000    3.333    1.000    0.000    2.000 
#    0.000    4.167    0.000    5.000    0.000    0.000 
#    0.000    0.000    0.000    0.000    0.000    0.000 
#
# Total GULP energy -133659.156739 kJ/mol
# GULP energy per Si atom -5569.131531 kJ/mol
# Density = 2.004554 g / cm^3
# Si number density = 20.091269 Si / 1000 Ang^3
#
#
#
# Elastic Constant Matrix: (Units=GPa)
#
#
# Indices 1 2 3 4 5 6 
#
# 1 50.5291 21.2949 0.5164 0.0003 1.9250 -0.0001
# 2 21.2949 161.7039 26.1622 -0.0002 -1.0162 -0.0001
# 3 0.5164 26.1622 39.3140 0.0006 5.5670 -0.0005
# 4 0.0003 -0.0002 0.0006 23.5883 -0.0006 -5.3900
# 5 1.9250 -1.0162 5.5670 -0.0006 17.4191 0.0002
# 6 -0.0001 -0.0001 -0.0005 -5.3900 0.0002 20.8915
#
#
#
# Elastic Compliance Matrix: (Units=1/GPa)
#
#
# Indices 1 2 3 4 5 6 
#
# 1 0.021236 -0.003190 0.002307 0.000000 -0.003270 0.000000
# 2 -0.003190 0.007475 -0.005283 0.000000 0.002477 0.000000
# 3 0.002307 -0.005283 0.030376 -0.000001 -0.010271 0.000001
# 4 0.000000 0.000000 -0.000001 0.045050 0.000002 0.011623
# 5 -0.003270 0.002477 -0.010271 0.000002 0.061197 0.000000
# 6 0.000000 0.000000 0.000001 0.011623 0.000000 0.050865
#
#
# Mechanical properties :
#
#
# Convention : Reuss Voigt Hill
#
# Bulk Modulus (GPa) = 21.38833 38.61045 29.99939
# Shear Modulus (GPa) = 20.48212 25.95134 23.21673
#
# Velocity S-wave (km/s) = 3.19635 3.59788 3.40305
# Velocity P-wave (km/s) = 4.92858 6.04309 5.51407
#
# Compressibility (1/GPa) = 0.04675448
#
# Stress axis : x y z
#
# Youngs Moduli (GPa) = 47.08950 133.78653 32.92079
#
# Poissons Ratio (x) = 0.42684 -0.07596
# Poissons Ratio (y) = 0.15024 0.17392
# Poissons Ratio (z) = -0.10865 0.70679
#
# Static dielectric constant tensor:
#      x y z
#    x 1.691950 0.000000 -0.028430 
#    y 0.000000 1.793530 0.000000 
#    z -0.028430 0.000000 1.851190 
# 
# From -- ./inp_files/328203.got.cif
#   From: 2010.05.17/outbox.cif.g08.bks.cpg/sg12_165_cif.got.tgz:328203.got - 2010.06.03 13:09:07.
