data_PCOD9183443
_publ_section_title
;
Structure prediction by ZEFSAII (Michael W. Deem and Ramdas Pophale) SiO2 
 PCOD9183443
Probable space group: C 2/M
;
_chemical_formula_sum "Si O2"
_cell_formula_units_Z 40
_cell_length_a 19.454932
_cell_length_b 8.553284
_cell_length_c 27.642484
_cell_angle_alpha 90.000000
_cell_angle_beta 28.438080
_cell_angle_gamma 90.000000
_cell_volume 2190.468619
_symmetry_space_group_name_H-M "C 2/M"
_symmetry_group_IT_number 12
_symmetry_cell_setting 'monoclinic'
loop_
_space_group_symop_operation_xyz
x,y,z
-x,y,-z
-x,-y,-z
x,-y,z
1/2+x,1/2+y,z
1/2-x,1/2+y,-z
1/2-x,1/2-y,-z
1/2+x,1/2-y,z
loop_
_atom_site_type_symbol
_atom_site_label
_atom_site_fract_x
_atom_site_fract_y
_atom_site_fract_z
Si Si1 0.335377 0.687249 0.590578
Si Si2 0.091753 0.687810 0.187536
Si Si3 0.934650 0.812045 0.189873
Si Si4 0.420863 0.309359 0.000185
Si Si5 0.181178 0.814233 0.591490
O O1 0.500000 0.728677 0.500000
O O2 0.324370 0.500000 0.592577
O O3 0.222731 0.743546 0.700901
O O4 0.281539 0.764821 0.574368
O O5 0.087968 0.500000 0.186723
O O6 0.038465 0.755630 0.169124
O O7 0.975230 0.742753 0.299146
O O8 0.253754 0.738726 0.099944
O O9 0.996097 0.761903 0.099993
O O10 0.927620 0.000000 0.195708
O O11 0.421567 0.500000 0.000468
O O12 0.500000 0.255742 0.000000
O O13 0.250000 0.750000 0.500000
O O14 0.169099 0.000000 0.596881
#
# Coordination Sequence:
#
# PCOD9183443 Si02
#       5
#     8   8   8   8   8
#     4  10  21  37  56  80 111 143 179 224 271 319
#     4  10  19  34  56  78 105 141 178 218 265 316
#     4  10  19  33  55  79 105 140 181 220 261 317
#     4   9  19  34  52  78 108 137 174 220 267 315
#     4  11  22  37  57  81 110 142 181 223 267 321
#
# _framework density 18.260932
#
# number of rings (size 3 to 8) (size 9 to 14) (size 15 to 20)
#    0.000    2.000    0.000    6.600    0.000    3.200 
#    0.000    5.000    0.000    8.400    0.000    0.000 
#    0.000    0.000    0.000    0.000    0.000    0.000 
#
# Total GULP energy -111692.855783 kJ/mol
# GULP energy per Si atom -5584.642789 kJ/mol
# Density = 1.821937 g / cm^3
# Si number density = 18.260932 Si / 1000 Ang^3
#
#
#
# Elastic Constant Matrix: (Units=GPa)
#
#
# Indices 1 2 3 4 5 6 
#
# 1 92.7100 11.6064 100.1093 -0.0003 4.1592 0.0003
# 2 11.6064 44.8081 14.8916 -0.0006 -2.4605 0.0006
# 3 100.1093 14.8916 158.1914 -0.0007 1.2587 -0.0001
# 4 -0.0003 -0.0006 -0.0007 23.9443 0.0001 2.5430
# 5 4.1592 -2.4605 1.2587 0.0001 39.7582 0.0000
# 6 0.0003 0.0006 -0.0001 2.5430 0.0000 22.9901
#
#
#
# Elastic Compliance Matrix: (Units=1/GPa)
#
#
# Indices 1 2 3 4 5 6 
#
# 1 0.034555 -0.001918 -0.021663 0.000000 -0.003048 0.000000
# 2 -0.001918 0.023234 -0.000986 0.000001 0.001670 -0.000001
# 3 -0.021663 -0.000986 0.020111 0.000000 0.001568 0.000000
# 4 0.000000 0.000001 0.000000 0.042260 0.000000 -0.004674
# 5 -0.003048 0.001670 0.001568 0.000000 0.025525 0.000000
# 6 0.000000 -0.000001 0.000000 -0.004674 0.000000 0.044014
#
#
# Mechanical properties :
#
#
# Convention : Reuss Voigt Hill
#
# Bulk Modulus (GPa) = 34.76523 60.99157 47.87840
# Shear Modulus (GPa) = 20.12705 28.61199 24.36952
#
# Velocity S-wave (km/s) = 3.32353 3.96263 3.65707
# Velocity P-wave (km/s) = 5.81439 7.37625 6.64140
#
# Compressibility (1/GPa) = 0.02876437
#
# Stress axis : x y z
#
# Youngs Moduli (GPa) = 28.93932 43.04070 49.72429
#
# Poissons Ratio (x) = 0.08257 1.07717
# Poissons Ratio (y) = 0.05552 0.04905
# Poissons Ratio (z) = 0.62691 0.04245
#
# Static dielectric constant tensor:
#      x y z
#    x 1.601180 0.000000 -0.002470 
#    y 0.000000 1.619590 0.000000 
#    z -0.002470 0.000000 1.619220 
# 
# From -- ./inp_files/162642.got.cif
#   From: 2010.05.17/outbox.cif.g08.bks.cpg/sg12_82_cif.got.tgz:162642.got - 2010.06.03 13:09:07.
