data_PCOD9183771
_publ_section_title
;
Structure prediction by ZEFSAII (Michael W. Deem and Ramdas Pophale) SiO2 
 PCOD9183771
Probable space group: C 2/M
;
_chemical_formula_sum "Si O2"
_cell_formula_units_Z 48
_cell_length_a 19.679109
_cell_length_b 7.427928
_cell_length_c 25.790388
_cell_angle_alpha 90.000000
_cell_angle_beta 29.144835
_cell_angle_gamma 90.000000
_cell_volume 1836.017744
_symmetry_space_group_name_H-M "C 2/M"
_symmetry_group_IT_number 12
_symmetry_cell_setting 'monoclinic'
loop_
_space_group_symop_operation_xyz
x,y,z
-x,y,-z
-x,-y,-z
x,-y,z
1/2+x,1/2+y,z
1/2-x,1/2+y,-z
1/2-x,1/2-y,-z
1/2+x,1/2-y,z
loop_
_atom_site_type_symbol
_atom_site_label
_atom_site_fract_x
_atom_site_fract_y
_atom_site_fract_z
Si Si1 0.111263 0.288204 0.536975
Si Si2 0.835839 0.719491 0.109887
Si Si3 0.586108 0.779586 0.774738
Si Si4 0.821549 0.286232 0.007302
Si Si5 0.668361 0.283227 0.323385
Si Si6 0.070456 0.296849 0.675728
O O1 0.139920 0.500000 0.525161
O O2 0.049384 0.215391 0.633119
O O3 0.260487 0.198816 0.429817
O O4 0.992787 0.266468 0.573366
O O5 0.833028 0.500000 0.114469
O O6 0.747785 0.781064 0.218186
O O7 0.773649 0.780159 0.095549
O O8 0.000000 0.769265 0.000000
O O9 0.480715 0.728086 0.890439
O O10 0.739753 0.720610 0.689148
O O11 0.528472 0.710453 0.758144
O O12 0.584895 0.000000 0.772110
O O13 0.822533 0.500000 0.011906
O O14 0.750000 0.250000 0.000000
O O15 0.673669 0.500000 0.320629
O O16 0.016665 0.500000 0.709972
#
# Coordination Sequence:
#
# PCOD9183771 Si02
#       6
#     8   8   8   8   8   8
#     4  10  21  36  54  78 106 135 168 213 267 313
#     4   9  16  31  54  78 104 137 176 214 247 293
#     4   9  18  34  56  78 101 136 179 217 250 298
#     4  10  20  34  53  79 109 139 173 212 256 303
#     4  10  19  33  56  80 103 136 177 214 252 303
#     4   9  19  37  57  75 100 136 177 214 253 308
#
# _framework density 26.143537999999999
#
# number of rings (size 3 to 8) (size 9 to 14) (size 15 to 20)
#    0.000    2.500    1.667    0.500    2.333    1.333 
#    0.000    5.833    0.000    1.000    0.000    0.000 
#    0.000    0.000    0.000    0.000    0.000    0.000 
#
# Total GULP energy -134139.852677 kJ/mol
# GULP energy per Si atom -5589.160528 kJ/mol
# Density = 2.608403 g / cm^3
# Si number density = 26.143538 Si / 1000 Ang^3
#
#
#
# Elastic Constant Matrix: (Units=GPa)
#
#
# Indices 1 2 3 4 5 6 
#
# 1 111.4781 -3.9533 1.9838 0.0039 -5.8843 -0.0093
# 2 -3.9533 97.0528 2.5025 0.0029 1.5363 -0.0030
# 3 1.9838 2.5025 55.2551 0.0017 1.9884 -0.0052
# 4 0.0039 0.0029 0.0017 1.6454 -0.0013 -0.8981
# 5 -5.8843 1.5363 1.9884 -0.0013 53.4389 0.0053
# 6 -0.0093 -0.0030 -0.0052 -0.8981 0.0053 7.9087
#
#
#
# Elastic Compliance Matrix: (Units=1/GPa)
#
#
# Indices 1 2 3 4 5 6 
#
# 1 0.009043 0.000362 -0.000377 -0.000017 0.000999 0.000008
# 2 0.000362 0.010334 -0.000472 -0.000017 -0.000240 0.000002
# 3 -0.000377 -0.000472 0.018158 -0.000013 -0.000704 0.000010
# 4 -0.000017 -0.000017 -0.000013 0.647908 0.000008 0.073574
# 5 0.000999 -0.000240 -0.000704 0.000008 0.018856 -0.000011
# 6 0.000008 0.000002 0.000010 0.073574 -0.000011 0.134798
#
#
# Mechanical properties :
#
#
# Convention : Reuss Voigt Hill
#
# Bulk Modulus (GPa) = 27.35170 29.42800 28.38985
# Shear Modulus (GPa) = 5.86676 30.14881 18.00779
#
# Velocity S-wave (km/s) = 1.49964 3.39957 2.62736
# Velocity P-wave (km/s) = 3.67198 5.16625 4.48183
#
# Compressibility (1/GPa) = 0.03656079
#
# Stress axis : x y z
#
# Youngs Moduli (GPa) = 110.58672 96.76418 55.07180
#
# Poissons Ratio (x) = -0.03505 0.02076
# Poissons Ratio (y) = -0.04006 0.02602
# Poissons Ratio (z) = 0.04169 0.04571
#
# Static dielectric constant tensor:
#      x y z
#    x 2.105140 0.000000 0.035060 
#    y 0.000000 2.027720 0.000000 
#    z 0.035060 0.000000 2.095070 
# 
# From -- ./inp_files/365354.got.cif
#   From: 2010.05.17/outbox.cif.g08.bks.cpg/sg12_183_cif.got.tgz:365354.got - 2010.06.03 13:09:07.
