data_PCOD9183872
_publ_section_title
;
Structure prediction by ZEFSAII (Michael W. Deem and Ramdas Pophale) SiO2 
 PCOD9183872
Probable space group: C 2/M
;
_chemical_formula_sum "Si O2"
_cell_formula_units_Z 52
_cell_length_a 14.020762
_cell_length_b 18.831114
_cell_length_c 9.797751
_cell_angle_alpha 90.000000
_cell_angle_beta 61.649475
_cell_angle_gamma 90.000000
_cell_volume 2276.595067
_symmetry_space_group_name_H-M "C 2/M"
_symmetry_group_IT_number 12
_symmetry_cell_setting 'monoclinic'
loop_
_space_group_symop_operation_xyz
x,y,z
-x,y,-z
-x,-y,-z
x,-y,z
1/2+x,1/2+y,z
1/2-x,1/2+y,-z
1/2-x,1/2-y,-z
1/2+x,1/2-y,z
loop_
_atom_site_type_symbol
_atom_site_label
_atom_site_fract_x
_atom_site_fract_y
_atom_site_fract_z
Si Si1 0.587679 0.878527 0.107542
Si Si2 0.187957 0.797020 0.366070
Si Si3 0.652780 0.917538 0.753475
Si Si4 0.148920 0.828428 0.787963
Si Si5 0.500000 0.796922 0.500000
Si Si6 0.167665 0.422406 0.317400
Si Si7 0.908743 0.207520 0.871660
O O1 0.464913 0.901564 0.231635
O O2 0.665437 0.921008 0.155200
O O3 0.587589 0.793271 0.119419
O O4 0.623815 0.897590 0.930188
O O5 0.248865 0.868983 0.365731
O O6 0.282632 0.738906 0.308630
O O7 0.083693 0.760885 0.509409
O O8 0.147131 0.807166 0.235863
O O9 0.677513 0.000000 0.724592
O O10 0.215151 0.899164 0.709711
O O11 0.028312 0.824191 0.813398
O O12 0.150768 0.818960 0.951548
O O13 0.589361 0.854863 0.393785
O O14 0.134529 0.500000 0.391295
#
# Coordination Sequence:
#
# PCOD9183872 Si02
#       7
#     8   8   8   8   4   8   8
#     4  11  18  33  59  87 115 136 172 223 275 324
#     4  11  20  36  55  77 108 148 186 219 265 308
#     4  11  21  33  54  89 119 137 166 219 282 337
#     4  10  19  33  56  83 110 140 173 221 273 322
#     4  10  23  38  57  76 100 146 196 232 249 302
#     4  11  22  38  56  80 110 143 179 225 276 314
#     4  11  18  33  57  86 110 137 181 224 257 328
#
# _framework density 22.841128000000001
#
# number of rings (size 3 to 8) (size 9 to 14) (size 15 to 20)
#    0.000    1.231    6.154    4.385    0.000    0.000 
#    0.000    9.615    0.000    0.000    0.000    0.000 
#    0.000    0.000    0.000    0.000    0.000    0.000 
#
# Total GULP energy -145070.975632 kJ/mol
# GULP energy per Si atom -5579.652909 kJ/mol
# Density = 2.278914 g / cm^3
# Si number density = 22.841128 Si / 1000 Ang^3
#
#
#
# Elastic Constant Matrix: (Units=GPa)
#
#
# Indices 1 2 3 4 5 6 
#
# 1 105.3683 50.0884 24.3935 0.0000 -17.9404 0.0000
# 2 50.0884 159.2774 34.6082 0.0000 -25.1070 0.0000
# 3 24.3935 34.6082 50.4489 0.0000 -7.7887 0.0000
# 4 0.0000 0.0000 0.0000 20.5093 0.0000 -14.4163
# 5 -17.9404 -25.1070 -7.7887 0.0000 43.6918 0.0000
# 6 0.0000 0.0000 0.0000 -14.4163 0.0000 -4.7860
#
#
#
# Elastic Compliance Matrix: (Units=1/GPa)
#
#
# Indices 1 2 3 4 5 6 
#
# 1 0.012023 -0.002547 -0.003630 0.000000 0.002826 0.000000
# 2 -0.002547 0.008454 -0.004092 0.000000 0.003083 0.000000
# 3 -0.003630 -0.004092 0.024465 0.000000 0.000519 0.000000
# 4 0.000000 0.000000 0.000000 0.015641 0.000000 -0.047114
# 5 0.002826 0.003083 0.000519 0.000000 0.025912 0.000000
# 6 0.000000 0.000000 0.000000 -0.047114 0.000000 -0.067027
#
#
# Mechanical properties :
#
#
# Convention : Reuss Voigt Hill
#
# Bulk Modulus (GPa) = 40.97719 59.25276 50.11497
# Shear Modulus (GPa) = 103.86105 25.61665 64.73885
#
# Velocity S-wave (km/s) = 6.75054 3.35253 5.32960
# Velocity P-wave (km/s) = 8.87349 6.40184 7.73700
#
# Compressibility (1/GPa) = 0.02440382
#
# Stress axis : x y z
#
# Youngs Moduli (GPa) = 83.17646 118.28204 40.87505
#
# Poissons Ratio (x) = 0.30121 0.14838
# Poissons Ratio (y) = 0.21181 0.16728
# Poissons Ratio (z) = 0.30193 0.48406
#
# Static dielectric constant tensor:
#      x y z
#    x 1.883520 0.000000 0.052550 
#    y 0.000000 1.800470 0.000000 
#    z 0.052550 0.000000 1.987900 
# 
# From -- ./inp_files/147547.got.cif
#   From: 2010.05.17/outbox.cif.g08.bks.cpg/sg12_74_cif.got.tgz:147547.got - 2010.06.03 13:09:07.
