data_PCOD9183594
_publ_section_title
;
Structure prediction by ZEFSAII (Michael W. Deem and Ramdas Pophale) SiO2 
 PCOD9183594
Probable space group: C 2/M
;
_chemical_formula_sum "Si O2"
_cell_formula_units_Z 56
_cell_length_a 31.144390
_cell_length_b 8.282102
_cell_length_c 11.945044
_cell_angle_alpha 90.000000
_cell_angle_beta 64.943890
_cell_angle_gamma 90.000000
_cell_volume 2791.163595
_symmetry_space_group_name_H-M "C 2/M"
_symmetry_group_IT_number 12
_symmetry_cell_setting 'monoclinic'
loop_
_space_group_symop_operation_xyz
x,y,z
-x,y,-z
-x,-y,-z
x,-y,z
1/2+x,1/2+y,z
1/2-x,1/2+y,-z
1/2-x,1/2-y,-z
1/2+x,1/2-y,z
loop_
_atom_site_type_symbol
_atom_site_label
_atom_site_fract_x
_atom_site_fract_y
_atom_site_fract_z
Si Si1 0.195676 0.694829 0.556054
Si Si2 0.977617 0.195221 0.200841
Si Si3 0.956038 0.694695 0.474441
Si Si4 0.762578 0.692294 0.862931
Si Si5 0.149185 0.697635 0.374368
Si Si6 0.571665 0.305733 0.974787
Si Si7 0.172316 0.692651 0.825361
O O1 0.195109 0.500000 0.555120
O O2 0.250000 0.750000 0.500000
O O3 0.169589 0.749826 0.472629
O O4 0.171087 0.750454 0.697796
O O5 0.962009 0.260134 0.337780
O O6 0.945311 0.247608 0.130841
O O7 0.976329 0.000000 0.205789
O O8 0.031113 0.245487 0.107140
O O9 0.956054 0.500000 0.481006
O O10 0.904994 0.751828 0.575942
O O11 0.000000 0.755627 0.500000
O O12 0.765033 0.500000 0.860937
O O13 0.812992 0.753062 0.759892
O O14 0.720036 0.743006 0.828371
O O15 0.750000 0.750000 0.000000
O O16 0.149003 0.500000 0.373446
O O17 0.571715 0.500000 0.974074
O O18 0.624358 0.245894 0.938945
O O19 0.174545 0.500000 0.823676
#
# Coordination Sequence:
#
# PCOD9183594 Si02
#       7
#     8   8   8   8   8   8   8
#     4  10  19  33  55  82 112 144 182 231 282 338
#     4   9  19  37  58  83 114 149 189 233 282 340
#     4  10  21  37  58  83 112 149 192 235 285 340
#     4  11  23  40  59  78 112 156 195 236 283 338
#     4   9  19  37  58  81 113 151 185 230 289 339
#     4   9  19  36  58  83 116 152 184 226 287 346
#     4  11  22  35  56  88 118 145 189 238 282 343
#
# _framework density 20.063314999999999
#
# number of rings (size 3 to 8) (size 9 to 14) (size 15 to 20)
#    0.000    2.143    1.429    2.571    0.000    4.286 
#    0.000    5.000    0.000    0.000    0.000    0.000 
#    0.000    0.000    0.000    0.000    0.000    0.000 
#
# Total GULP energy -156344.575520 kJ/mol
# GULP energy per Si atom -5583.734840 kJ/mol
# Density = 2.001765 g / cm^3
# Si number density = 20.063315 Si / 1000 Ang^3
#
#
#
# Elastic Constant Matrix: (Units=GPa)
#
#
# Indices 1 2 3 4 5 6 
#
# 1 127.0151 13.3157 74.9742 0.0000 -33.7530 0.0000
# 2 13.3157 11.5169 13.9369 0.0000 -3.7881 0.0000
# 3 74.9742 13.9369 144.3323 0.0000 -23.1977 0.0000
# 4 0.0000 0.0000 0.0000 23.7435 0.0000 10.8354
# 5 -33.7530 -3.7881 -23.1977 0.0000 35.3728 0.0000
# 6 0.0000 0.0000 0.0000 10.8354 0.0000 3.2969
#
#
#
# Elastic Compliance Matrix: (Units=1/GPa)
#
#
# Indices 1 2 3 4 5 6 
#
# 1 0.014145 -0.007026 -0.005165 0.000000 0.009358 0.000000
# 2 -0.007026 0.102545 -0.006220 0.000000 0.000198 0.000000
# 3 -0.005165 -0.006220 0.010410 0.000000 0.001232 0.000000
# 4 0.000000 0.000000 0.000000 -0.084265 0.000000 0.276940
# 5 0.009358 0.000198 0.001232 0.000000 0.038029 0.000000
# 6 0.000000 0.000000 0.000000 0.276940 0.000000 -0.606856
#
#
# Mechanical properties :
#
#
# Convention : Reuss Voigt Hill
#
# Bulk Modulus (GPa) = 11.07700 54.14643 32.61171
# Shear Modulus (GPa) = -10.89145 24.52514 6.81684
#
# Velocity S-wave (km/s) = -2.33245 3.50006 1.84528
# Velocity P-wave (km/s) = 1.31178 6.58637 4.56396
#
# Compressibility (1/GPa) = 0.09027718
#
# Stress axis : x y z
#
# Youngs Moduli (GPa) = 70.69406 9.75179 96.05813
#
# Poissons Ratio (x) = 0.06852 0.49619
# Poissons Ratio (y) = 0.49671 0.59751
# Poissons Ratio (z) = 0.36517 0.06066
#
# Static dielectric constant tensor:
#      x y z
#    x 1.700940 0.000000 -0.014520 
#    y 0.000000 1.701430 0.000000 
#    z -0.014520 0.000000 1.709220 
# 
# From -- ./inp_files/187207.got.cif
#   From: 2010.05.17/outbox.cif.g08.bks.cpg/sg12_94_cif.got.tgz:187207.got - 2010.06.03 13:09:07.
