data_PCOD9183007
_publ_section_title
;
Structure prediction by ZEFSAII (Michael W. Deem and Ramdas Pophale) SiO2 
 PCOD9183007
Probable space group: C 2/M
;
_chemical_formula_sum "Si O2"
_cell_formula_units_Z 56
_cell_length_a 12.801825
_cell_length_b 13.922957
_cell_length_c 28.469182
_cell_angle_alpha 90.000000
_cell_angle_beta 143.787935
_cell_angle_gamma 90.000000
_cell_volume 2997.787826
_symmetry_space_group_name_H-M "C 2/M"
_symmetry_group_IT_number 12
_symmetry_cell_setting 'monoclinic'
loop_
_space_group_symop_operation_xyz
x,y,z
-x,y,-z
-x,-y,-z
x,-y,z
1/2+x,1/2+y,z
1/2-x,1/2+y,-z
1/2-x,1/2-y,-z
1/2+x,1/2-y,z
loop_
_atom_site_type_symbol
_atom_site_label
_atom_site_fract_x
_atom_site_fract_y
_atom_site_fract_z
Si Si1 0.293928 0.608099 0.225794
Si Si2 0.159788 0.609827 0.449181
Si Si3 0.981689 0.193701 0.385930
Si Si4 0.523976 0.320614 0.954549
Si Si5 0.297925 0.889167 0.645744
Si Si6 0.142199 0.709198 0.812504
Si Si7 0.596810 0.840019 0.903111
O O1 0.360620 0.500000 0.241667
O O2 0.386091 0.656581 0.304394
O O3 0.325559 0.683313 0.195028
O O4 0.084057 0.601596 0.160019
O O5 0.107938 0.500000 0.441166
O O6 0.326225 0.643990 0.540452
O O7 0.220856 0.612917 0.417008
O O8 0.011224 0.691851 0.398735
O O9 0.863062 0.160962 0.386419
O O10 0.324020 0.351315 0.869620
O O11 0.568082 0.236079 0.934433
O O12 0.500000 0.287263 0.000000
O O13 0.704516 0.383066 0.019215
O O14 0.478712 0.837650 0.726307
O O15 0.304146 0.000000 0.663527
O O16 0.101496 0.707634 0.853154
#
# Coordination Sequence:
#
# PCOD9183007 Si02
#       7
#     8   8   8   8   8   8   8
#     4  11  21  34  55  83 113 149 191 237 284 338
#     4  10  22  39  59  83 114 151 191 235 283 334
#     4  11  21  36  61  84 114 148 193 236 282 331
#     4   8  16  31  54  80 106 146 186 228 277 332
#     4  11  21  36  58  83 111 149 193 236 282 338
#     4  10  19  33  53  83 114 145 185 234 283 336
#     4   9  17  32  56  77 109 148 187 226 282 337
#
# _framework density 18.680440999999998
#
# number of rings (size 3 to 8) (size 9 to 14) (size 15 to 20)
#    0.000    2.000    2.857    1.714    0.000    1.143 
#    0.000    1.429    0.000   50.571    0.000    0.000 
#    0.000    0.000    0.000    0.000    0.000    0.000 
#
# Total GULP energy -155911.498304 kJ/mol
# GULP energy per Si atom -5568.267797 kJ/mol
# Density = 1.863792 g / cm^3
# Si number density = 18.680441 Si / 1000 Ang^3
#
#
#
# Elastic Constant Matrix: (Units=GPa)
#
#
# Indices 1 2 3 4 5 6 
#
# 1 62.1855 35.1121 -0.7876 0.0000 4.1914 0.0000
# 2 35.1121 136.8736 30.1342 0.0000 10.9248 0.0000
# 3 -0.7876 30.1342 72.9226 0.0000 8.3846 0.0000
# 4 0.0000 0.0000 0.0000 -4.6600 0.0000 2.5041
# 5 4.1914 10.9248 8.3846 0.0000 20.9824 0.0000
# 6 0.0000 0.0000 0.0000 2.5041 0.0000 17.6356
#
#
#
# Elastic Compliance Matrix: (Units=1/GPa)
#
#
# Indices 1 2 3 4 5 6 
#
# 1 0.019288 -0.005366 0.002670 0.000000 -0.002126 0.000000
# 2 -0.005366 0.009714 -0.003788 0.000000 -0.002472 0.000000
# 3 0.002670 -0.003788 0.015871 0.000000 -0.004903 0.000000
# 4 0.000000 0.000000 0.000000 -0.199377 0.000000 0.028310
# 5 -0.002126 -0.002472 -0.004903 0.000000 0.051330 0.000000
# 6 0.000000 0.000000 0.000000 0.028310 0.000000 0.052684
#
#
# Mechanical properties :
#
#
# Convention : Reuss Voigt Hill
#
# Bulk Modulus (GPa) = 31.34263 44.54434 37.94348
# Shear Modulus (GPa) = -185.95833 20.62644 -82.66594
#
# Velocity S-wave (km/s) = -9.98815 3.32652 -6.65949
# Velocity P-wave (km/s) = 10.77974 6.21703 6.22701
#
# Compressibility (1/GPa) = 0.03190543
#
# Stress axis : x y z
#
# Youngs Moduli (GPa) = 51.84585 102.94612 63.00785
#
# Poissons Ratio (x) = 0.55242 -0.16825
# Poissons Ratio (y) = 0.27821 0.23866
# Poissons Ratio (z) = -0.13844 0.38994
#
# Static dielectric constant tensor:
#      x y z
#    x 1.629510 0.000000 0.025380 
#    y 0.000000 1.636800 0.000000 
#    z 0.025380 0.000000 1.696670 
# 
# From -- ./inp_files/263443.got.cif
#   From: 2010.05.17/outbox.cif.g08.bks.cpg/sg12_132_cif.got.tgz:263443.got - 2010.06.03 13:09:07.
