data_PCOD9183307
_publ_section_title
;
Structure prediction by ZEFSAII (Michael W. Deem and Ramdas Pophale) SiO2 
 PCOD9183307
Probable space group: C 2/M
;
_chemical_formula_sum "Si O2"
_cell_formula_units_Z 56
_cell_length_a 17.901493
_cell_length_b 12.600775
_cell_length_c 12.872248
_cell_angle_alpha 90.000000
_cell_angle_beta 68.162863
_cell_angle_gamma 90.000000
_cell_volume 2695.277537
_symmetry_space_group_name_H-M "C 2/M"
_symmetry_group_IT_number 12
_symmetry_cell_setting 'monoclinic'
loop_
_space_group_symop_operation_xyz
x,y,z
-x,y,-z
-x,-y,-z
x,-y,z
1/2+x,1/2+y,z
1/2-x,1/2+y,-z
1/2-x,1/2-y,-z
1/2+x,1/2-y,z
loop_
_atom_site_type_symbol
_atom_site_label
_atom_site_fract_x
_atom_site_fract_y
_atom_site_fract_z
Si Si1 0.783892 0.879980 0.098304
Si Si2 0.351561 0.291335 0.859249
Si Si3 0.534545 0.116931 0.095721
Si Si4 0.358219 0.617185 0.269890
Si Si5 0.934035 0.673904 0.332682
Si Si6 0.696761 0.821834 0.452411
Si Si7 0.436866 0.294281 0.613263
O O1 0.719072 0.786231 0.146133
O O2 0.853736 0.864494 0.148372
O O3 0.752325 0.000000 0.130251
O O4 0.815797 0.868542 0.964399
O O5 0.408724 0.210177 0.892985
O O6 0.399203 0.343446 0.737977
O O7 0.462469 0.114875 0.216089
O O8 0.574227 0.000000 0.074475
O O9 0.500000 0.137601 0.000000
O O10 0.391683 0.500000 0.274791
O O11 0.403250 0.710375 0.307727
O O12 0.263806 0.618134 0.351919
O O13 0.864768 0.621526 0.437360
O O14 0.010156 0.697158 0.367449
O O15 0.750000 0.750000 0.500000
O O16 0.638334 0.749569 0.412731
O O17 0.500000 0.349059 0.500000
#
# Coordination Sequence:
#
# PCOD9183307 Si02
#       7
#     8   8   8   8   8   8   8
#     4  10  20  33  54  83 111 144 186 227 273 333
#     4  10  19  34  56  77 112 144 178 229 282 325
#     4  10  20  34  52  74 104 141 184 224 273 331
#     4  10  19  33  54  82 112 145 185 225 274 330
#     4   9  19  33  53  78 109 144 178 225 279 331
#     4   9  17  32  54  77 103 139 181 228 272 327
#     4   9  17  33  55  80 104 141 182 220 274 331
#
# _framework density 20.777080000000002
#
# number of rings (size 3 to 8) (size 9 to 14) (size 15 to 20)
#    0.000    2.429    1.429    1.286    0.000    0.571 
#    0.000    2.857    0.000   31.714    0.000    0.000 
#    0.000    0.000    0.000    0.000    0.000    0.000 
#
# Total GULP energy -155949.062022 kJ/mol
# GULP energy per Si atom -5569.609358 kJ/mol
# Density = 2.072979 g / cm^3
# Si number density = 20.777080 Si / 1000 Ang^3
#
#
#
# Elastic Constant Matrix: (Units=GPa)
#
#
# Indices 1 2 3 4 5 6 
#
# 1 83.3199 18.6800 15.9143 0.0000 17.2291 0.0000
# 2 18.6800 67.8735 -0.2289 0.0000 12.7403 0.0000
# 3 15.9143 -0.2289 118.3004 0.0000 3.4466 0.0000
# 4 0.0000 0.0000 0.0000 -28.1612 0.0000 1.6219
# 5 17.2291 12.7403 3.4466 0.0000 35.0335 0.0000
# 6 0.0000 0.0000 0.0000 1.6219 0.0000 14.6183
#
#
#
# Elastic Compliance Matrix: (Units=1/GPa)
#
#
# Indices 1 2 3 4 5 6 
#
# 1 0.014159 -0.002820 -0.001742 0.000000 -0.005766 0.000000
# 2 -0.002820 0.016379 0.000546 0.000000 -0.004623 0.000000
# 3 -0.001742 0.000546 0.008694 0.000000 -0.000197 0.000000
# 4 0.000000 0.000000 0.000000 -0.035284 0.000000 0.003915
# 5 -0.005766 -0.004623 -0.000197 0.000000 0.033081 0.000000
# 6 0.000000 0.000000 0.000000 0.003915 0.000000 0.067973
#
#
# Mechanical properties :
#
#
# Convention : Reuss Voigt Hill
#
# Bulk Modulus (GPa) = 32.05223 37.58050 34.81636
# Shear Modulus (GPa) = 40.50704 19.97336 30.24020
#
# Velocity S-wave (km/s) = 4.42022 3.10387 3.81919
# Velocity P-wave (km/s) = 6.44293 5.56526 6.02011
#
# Compressibility (1/GPa) = 0.03119908
#
# Stress axis : x y z
#
# Youngs Moduli (GPa) = 70.62434 61.05323 115.01883
#
# Poissons Ratio (x) = 0.17220 0.20039
# Poissons Ratio (y) = 0.19919 -0.06278
# Poissons Ratio (z) = 0.12304 -0.03332
#
# Static dielectric constant tensor:
#      x y z
#    x 1.749710 0.000000 -0.043650 
#    y 0.000000 1.695860 0.000000 
#    z -0.043650 0.000000 1.812300 
# 
# From -- ./inp_files/155973.got.cif
#   From: 2010.05.17/outbox.cif.g08.bks.cpg/sg12_78_cif.got.tgz:155973.got - 2010.06.03 13:09:07.
