data_PCOD9183476
_publ_section_title
;
Structure prediction by ZEFSAII (Michael W. Deem and Ramdas Pophale) SiO2 
 PCOD9183476
Probable space group: C 2/M
;
_chemical_formula_sum "Si O2"
_cell_formula_units_Z 64
_cell_length_a 27.793925
_cell_length_b 9.610533
_cell_length_c 14.470977
_cell_angle_alpha 90.000000
_cell_angle_beta 104.120274
_cell_angle_gamma 90.000000
_cell_volume 3748.616461
_symmetry_space_group_name_H-M "C 2/M"
_symmetry_group_IT_number 12
_symmetry_cell_setting 'monoclinic'
loop_
_space_group_symop_operation_xyz
x,y,z
-x,y,-z
-x,-y,-z
x,-y,z
1/2+x,1/2+y,z
1/2-x,1/2+y,-z
1/2-x,1/2-y,-z
1/2+x,1/2-y,z
loop_
_atom_site_type_symbol
_atom_site_label
_atom_site_fract_x
_atom_site_fract_y
_atom_site_fract_z
Si Si1 0.482206 0.332884 0.092970
Si Si2 0.978267 0.160138 0.692822
Si Si3 0.415215 0.257276 0.327796
Si Si4 0.594240 0.160659 0.466808
Si Si5 0.102083 0.350579 0.878160
Si Si6 0.710006 0.167454 0.542137
Si Si7 0.196363 0.160302 0.721979
Si Si8 0.217527 0.663634 0.912991
O O1 0.480654 0.500000 0.093915
O O2 0.515067 0.290018 0.197714
O O3 0.428365 0.271426 0.089197
O O4 0.500000 0.288406 0.000000
O O5 0.939724 0.246858 0.614798
O O6 0.032865 0.168983 0.671202
O O7 0.962537 0.000000 0.687141
O O8 0.417129 0.191474 0.430439
O O9 0.407514 0.155720 0.236740
O O10 0.363942 0.343446 0.301602
O O11 0.653183 0.183605 0.479899
O O12 0.583173 0.000000 0.443596
O O13 0.084291 0.500000 0.904908
O O14 0.160483 0.338164 0.919777
O O15 0.750000 0.250000 0.500000
O O16 0.709930 0.246067 0.640219
O O17 0.719488 0.000000 0.553062
O O18 0.216394 0.246809 0.818482
O O19 0.213983 0.000000 0.725944
O O20 0.232145 0.500000 0.908071
O O21 0.250000 0.750000 0.000000
#
# Coordination Sequence:
#
# PCOD9183476 Si02
#       8
#     8   8   8   8   8   8   8   8
#     4   9  19  36  54  71  96 133 174 212 251 300
#     4  10  20  32  49  75 104 133 168 208 248 296
#     4   9  18  31  51  76 106 138 168 198 242 306
#     4  10  21  34  50  75 106 136 164 201 251 304
#     4   9  18  32  52  77 101 129 169 212 251 299
#     4  10  21  38  57  76 100 135 179 219 257 306
#     4  10  19  33  55  80 105 136 173 213 260 311
#     4  10  20  34  52  77 108 138 171 215 265 314
#
# _framework density 17.072966000000001
#
# number of rings (size 3 to 8) (size 9 to 14) (size 15 to 20)
#    0.000    2.375    0.000    2.250    0.000   13.250 
#    0.000    1.250    0.000    6.000    0.000    0.000 
#    0.000    0.000    0.000    0.000    0.000    0.000 
#
# Total GULP energy -178242.510852 kJ/mol
# GULP energy per Si atom -5570.078464 kJ/mol
# Density = 1.703411 g / cm^3
# Si number density = 17.072966 Si / 1000 Ang^3
#
#
#
# Elastic Constant Matrix: (Units=GPa)
#
#
# Indices 1 2 3 4 5 6 
#
# 1 66.5529 50.8794 73.5612 0.0000 -4.2797 0.0000
# 2 50.8794 116.8008 70.0793 0.0000 9.7300 0.0000
# 3 73.5612 70.0793 126.3523 0.0000 5.7113 0.0000
# 4 0.0000 0.0000 0.0000 2.0509 0.0000 -4.6867
# 5 -4.2797 9.7300 5.7113 0.0000 28.0156 0.0000
# 6 0.0000 0.0000 0.0000 -4.6867 0.0000 20.1862
#
#
#
# Elastic Compliance Matrix: (Units=1/GPa)
#
#
# Indices 1 2 3 4 5 6 
#
# 1 0.050516 -0.007856 -0.025763 0.000000 0.015697 0.000000
# 2 -0.007856 0.014314 -0.003115 0.000000 -0.005536 0.000000
# 3 -0.025763 -0.003115 0.025000 0.000000 -0.007950 0.000000
# 4 0.000000 0.000000 0.000000 1.038620 0.000000 0.241138
# 5 0.015697 -0.005536 -0.007950 0.000000 0.041636 0.000000
# 6 0.000000 0.000000 0.000000 0.241138 0.000000 0.105524
#
#
# Mechanical properties :
#
#
# Convention : Reuss Voigt Hill
#
# Bulk Modulus (GPa) = 61.11194 77.63841 69.37518
# Shear Modulus (GPa) = 3.69131 17.72961 10.71046
#
# Velocity S-wave (km/s) = 1.47200 3.22601 2.50738
# Velocity P-wave (km/s) = 6.22586 7.71034 7.00752
#
# Compressibility (1/GPa) = 0.01636342
#
# Stress axis : x y z
#
# Youngs Moduli (GPa) = 19.79566 69.86235 39.99949
#
# Poissons Ratio (x) = 0.54881 1.03049
# Poissons Ratio (y) = 0.15551 0.12461
# Poissons Ratio (z) = 0.50999 0.21764
#
# Static dielectric constant tensor:
#      x y z
#    x 1.568500 0.000000 -0.003830 
#    y 0.000000 3.451300 0.000000 
#    z -0.003830 0.000000 1.579590 
# 
# From -- ./inp_files/244061.got.cif
#   From: 2010.05.17/outbox.cif.g08.bks.cpg/sg12_123_cif.got.tgz:244061.got - 2010.06.03 13:09:07.
