data_PCOD9183894
_publ_section_title
;
Structure prediction by ZEFSAII (Michael W. Deem and Ramdas Pophale) SiO2 
 PCOD9183894
Probable space group: C 2/M
;
_chemical_formula_sum "Si O2"
_cell_formula_units_Z 40
_cell_length_a 8.509001
_cell_length_b 28.046042
_cell_length_c 8.271022
_cell_angle_alpha 90.000000
_cell_angle_beta 82.148756
_cell_angle_gamma 90.000000
_cell_volume 1955.325576
_symmetry_space_group_name_H-M "C 2/M"
_symmetry_group_IT_number 12
_symmetry_cell_setting 'monoclinic'
loop_
_space_group_symop_operation_xyz
x,y,z
-x,y,-z
-x,-y,-z
x,-y,z
1/2+x,1/2+y,z
1/2-x,1/2+y,-z
1/2-x,1/2-y,-z
1/2+x,1/2-y,z
loop_
_atom_site_type_symbol
_atom_site_label
_atom_site_fract_x
_atom_site_fract_y
_atom_site_fract_z
Si Si1 0.431380 0.902010 0.691386
Si Si2 0.552797 0.599105 0.804999
Si Si3 0.548900 0.199243 0.180946
Si Si4 0.578158 0.500000 0.316061
Si Si5 0.050427 0.500000 0.684197
Si Si6 0.425573 0.297399 0.189982
O O1 0.500000 0.903601 0.500000
O O2 0.241090 0.903555 0.740216
O O3 0.499312 0.852602 0.749122
O O4 0.487057 0.950898 0.765962
O O5 0.475066 0.550008 0.755921
O O6 0.513667 0.652544 0.742816
O O7 0.500000 0.601606 0.000000
O O8 0.473639 0.247470 0.264644
O O9 0.736985 0.201936 0.187355
O O10 0.500000 0.199119 0.000000
O O11 0.500000 0.500000 0.500000
O O12 0.763909 0.500000 0.318707
O O13 0.000000 0.500000 0.500000
O O14 0.500000 0.296134 0.000000
#
# Coordination Sequence:
#
# PCOD9183894 Si02
#       6
#     8   8   8   4   4   8
#     4  10  21  40  59  81 118 155 188 241 297 342
#     4  10  22  41  61  86 119 156 197 242 285 346
#     4  10  19  33  56  83 112 152 195 236 284 343
#     4  12  23  38  64  91 117 156 194 239 302 350
#     4  10  22  38  57  81 116 154 189 231 287 350
#     4   9  18  33  55  82 116 150 189 239 286 336
#
# _framework density 20.456949999999999
#
# number of rings (size 3 to 8) (size 9 to 14) (size 15 to 20)
#    0.000    2.000    0.000    5.700    0.000    6.400 
#    0.000    6.500    0.000    0.000    0.000    0.000 
#    0.000    0.000    0.000    0.000    0.000    0.000 
#
# Total GULP energy -111348.019096 kJ/mol
# GULP energy per Si atom -5567.400955 kJ/mol
# Density = 2.041039 g / cm^3
# Si number density = 20.456950 Si / 1000 Ang^3
#
#
#
# Elastic Constant Matrix: (Units=GPa)
#
#
# Indices 1 2 3 4 5 6 
#
# 1 90.6118 62.2158 16.4833 0.0000 -6.7117 0.0000
# 2 62.2158 283.7087 37.2813 0.0000 14.8270 0.0000
# 3 16.4833 37.2813 41.5898 0.0000 -8.2072 0.0000
# 4 0.0000 0.0000 0.0000 20.1281 0.0000 -3.8275
# 5 -6.7117 14.8270 -8.2072 0.0000 24.8665 0.0000
# 6 0.0000 0.0000 0.0000 -3.8275 0.0000 39.8373
#
#
#
# Elastic Compliance Matrix: (Units=1/GPa)
#
#
# Indices 1 2 3 4 5 6 
#
# 1 0.013826 -0.003062 -0.001752 0.000000 0.004979 0.000000
# 2 -0.003062 0.005043 -0.004346 0.000000 -0.005268 0.000000
# 3 -0.001752 -0.004346 0.031077 0.000000 0.012376 0.000000
# 4 0.000000 0.000000 0.000000 0.050606 0.000000 0.004862
# 5 0.004979 -0.005268 0.012376 0.000000 0.048784 0.000000
# 6 0.000000 0.000000 0.000000 0.004862 0.000000 0.025569
#
#
# Mechanical properties :
#
#
# Convention : Reuss Voigt Hill
#
# Bulk Modulus (GPa) = 31.62092 71.98565 51.80329
# Shear Modulus (GPa) = 24.53771 36.96170 30.74971
#
# Velocity S-wave (km/s) = 3.46711 4.25526 3.88124
# Velocity P-wave (km/s) = 5.61415 7.70768 6.74266
#
# Compressibility (1/GPa) = 0.03162463
#
# Stress axis : x y z
#
# Youngs Moduli (GPa) = 72.32729 198.30965 32.17816
#
# Poissons Ratio (x) = 0.60721 0.05639
# Poissons Ratio (y) = 0.22146 0.13985
# Poissons Ratio (z) = 0.12675 0.86189
#
# Static dielectric constant tensor:
#      x y z
#    x 1.725930 0.000000 0.027620 
#    y 0.000000 1.863410 0.000000 
#    z 0.027620 0.000000 1.732050 
# 
# From -- ./inp_files/40467.got.cif
#   From: 2010.05.17/outbox.cif.g08.bks.cpg/sg12_21_cif.got.tgz:40467.got - 2010.06.03 13:09:07.
