data_PCOD9183466
_publ_section_title
;
Structure prediction by ZEFSAII (Michael W. Deem and Ramdas Pophale) SiO2 
 PCOD9183466
Probable space group: C 2/M
;
_chemical_formula_sum "Si O2"
_cell_formula_units_Z 48
_cell_length_a 28.950031
_cell_length_b 7.445764
_cell_length_c 10.034963
_cell_angle_alpha 90.000000
_cell_angle_beta 93.074919
_cell_angle_gamma 90.000000
_cell_volume 2159.973128
_symmetry_space_group_name_H-M "C 2/M"
_symmetry_group_IT_number 12
_symmetry_cell_setting 'monoclinic'
loop_
_space_group_symop_operation_xyz
x,y,z
-x,y,-z
-x,-y,-z
x,-y,z
1/2+x,1/2+y,z
1/2-x,1/2+y,-z
1/2-x,1/2-y,-z
1/2+x,1/2-y,z
loop_
_atom_site_type_symbol
_atom_site_label
_atom_site_fract_x
_atom_site_fract_y
_atom_site_fract_z
Si Si1 0.194418 0.781052 0.859761
Si Si2 0.606774 0.779447 0.211196
Si Si3 0.049242 0.283187 0.949927
Si Si4 0.545638 0.203463 0.441635
Si Si5 0.294892 0.791866 0.826917
Si Si6 0.602061 0.292673 0.698154
O O1 0.243110 0.718184 0.804076
O O2 0.149223 0.722328 0.772255
O O3 0.194327 0.000000 0.864396
O O4 0.194549 0.717746 0.012777
O O5 0.587838 0.728540 0.063208
O O6 0.570526 0.716941 0.316638
O O7 0.659464 0.715805 0.236281
O O8 0.607393 0.000000 0.216089
O O9 0.048480 0.500000 0.943191
O O10 0.063109 0.217541 0.806817
O O11 0.000000 0.224455 0.000000
O O12 0.500000 0.288989 0.500000
O O13 0.583552 0.198191 0.564114
O O14 0.531632 0.000000 0.399766
O O15 0.292046 0.000000 0.787045
O O16 0.609708 0.500000 0.663735
#
# Coordination Sequence:
#
# PCOD9183466 Si02
#       6
#     8   8   8   8   8   8
#     4   9  18  31  49  76 108 138 167 209 263 314
#     4   9  17  31  53  79 100 129 176 224 265 301
#     4  10  19  33  55  80 103 130 174 226 265 303
#     4  10  21  38  57  75 101 139 181 222 262 307
#     4   9  16  30  53  77 102 133 174 219 260 306
#     4  11  22  35  51  77 111 142 172 208 263 325
#
# _framework density 22.222497000000001
#
# number of rings (size 3 to 8) (size 9 to 14) (size 15 to 20)
#    0.000    2.333    1.667    1.500    0.000    4.000 
#    0.000    2.500    0.000    0.000    0.000    0.000 
#    0.000    0.000    0.000    0.000    0.000    0.000 
#
# Total GULP energy -134014.382409 kJ/mol
# GULP energy per Si atom -5583.932600 kJ/mol
# Density = 2.217192 g / cm^3
# Si number density = 22.222497 Si / 1000 Ang^3
#
#
#
# Elastic Constant Matrix: (Units=GPa)
#
#
# Indices 1 2 3 4 5 6 
#
# 1 100.0479 -4.1877 -19.4182 0.0000 -13.6208 0.0000
# 2 -4.1877 70.6306 -8.7249 0.0000 -1.4236 0.0000
# 3 -19.4182 -8.7249 44.3903 0.0000 -8.1240 0.0000
# 4 0.0000 0.0000 0.0000 10.8819 0.0000 9.8881
# 5 -13.6208 -1.4236 -8.1240 0.0000 39.9155 0.0000
# 6 0.0000 0.0000 0.0000 9.8881 0.0000 7.9583
#
#
#
# Elastic Compliance Matrix: (Units=1/GPa)
#
#
# Indices 1 2 3 4 5 6 
#
# 1 0.012106 0.001649 0.006634 0.000000 0.005540 0.000000
# 2 0.001649 0.014785 0.003975 0.000000 0.001899 0.000000
# 3 0.006634 0.003975 0.027682 0.000000 0.008040 0.000000
# 4 0.000000 0.000000 0.000000 -0.712266 0.000000 0.884983
# 5 0.005540 0.001899 0.008040 0.000000 0.028647 0.000000
# 6 0.000000 0.000000 0.000000 0.884983 0.000000 -0.973926
#
#
# Mechanical properties :
#
#
# Convention : Reuss Voigt Hill
#
# Bulk Modulus (GPa) = 12.64416 16.71190 14.67803
# Shear Modulus (GPa) = -3.12281 28.24444 12.56082
#
# Velocity S-wave (km/s) = -1.18672 3.56895 2.38004
# Velocity P-wave (km/s) = 1.95561 4.95175 3.76459
#
# Compressibility (1/GPa) = 0.07908790
#
# Stress axis : x y z
#
# Youngs Moduli (GPa) = 82.60375 67.63510 36.12471
#
# Poissons Ratio (x) = -0.11152 -0.23964
# Poissons Ratio (y) = -0.13620 -0.14359
# Poissons Ratio (z) = -0.54797 -0.26884
#
# Static dielectric constant tensor:
#      x y z
#    x 1.860040 0.000000 -0.011380 
#    y 0.000000 1.950720 0.000000 
#    z -0.011380 0.000000 1.745810 
# 
# From -- ./inp_files/108777.got.cif
#   From: 2010.05.17/outbox.cif.g08.bks.cpg/sg12_55_cif.got.tgz:108777.got - 2010.06.03 13:09:07.
