data_PCOD9183895
_publ_section_title
;
Structure prediction by ZEFSAII (Michael W. Deem and Ramdas Pophale) SiO2 
 PCOD9183895
Probable space group: C 2/M
;
_chemical_formula_sum "Si O2"
_cell_formula_units_Z 56
_cell_length_a 28.741740
_cell_length_b 7.720184
_cell_length_c 17.686227
_cell_angle_alpha 90.000000
_cell_angle_beta 139.367321
_cell_angle_gamma 90.000000
_cell_volume 2555.612912
_symmetry_space_group_name_H-M "C 2/M"
_symmetry_group_IT_number 12
_symmetry_cell_setting 'monoclinic'
loop_
_space_group_symop_operation_xyz
x,y,z
-x,y,-z
-x,-y,-z
x,-y,z
1/2+x,1/2+y,z
1/2-x,1/2+y,-z
1/2-x,1/2-y,-z
1/2+x,1/2-y,z
loop_
_atom_site_type_symbol
_atom_site_label
_atom_site_fract_x
_atom_site_fract_y
_atom_site_fract_z
Si Si1 0.219045 0.786526 0.206961
Si Si2 0.567930 0.798478 0.815663
Si Si3 0.779373 0.193683 0.955236
Si Si4 0.579599 0.711420 0.118064
Si Si5 0.509867 0.211577 0.426743
Si Si6 0.156841 0.291162 0.529185
Si Si7 0.420298 0.295555 0.711703
O O1 0.239452 0.721086 0.148493
O O2 0.139885 0.731437 0.133881
O O3 0.273963 0.732452 0.339948
O O4 0.219470 0.000000 0.205858
O O5 0.549104 0.735045 0.707654
O O6 0.493786 0.784800 0.770183
O O7 0.588801 0.000000 0.837680
O O8 0.634531 0.700526 0.933335
O O9 0.751986 0.000000 0.913954
O O10 0.750000 0.250000 0.000000
O O11 0.579763 0.500000 0.116313
O O12 0.596785 0.765139 0.225033
O O13 0.500000 0.769239 0.000000
O O14 0.500000 0.270800 0.500000
O O15 0.586429 0.265370 0.488461
O O16 0.508648 0.000000 0.425331
O O17 0.157611 0.500000 0.529840
O O18 0.142679 0.235332 0.425952
O O19 0.434249 0.500000 0.732573
#
# Coordination Sequence:
#
# PCOD9183895 Si02
#       7
#     8   8   8   8   8   8   8
#     4   9  19  35  56  80 107 146 194 231 266 330
#     4  10  20  35  56  80 109 143 184 229 273 327
#     4  11  23  38  58  82 111 147 186 231 282 332
#     4   9  17  31  54  82 108 142 189 233 270 323
#     4   8  15  27  49  74  96 130 179 225 262 310
#     4   9  18  33  53  77 107 143 186 230 270 327
#     4  10  19  33  56  83 113 144 179 227 283 330
#
# _framework density 21.912552000000002
#
# number of rings (size 3 to 8) (size 9 to 14) (size 15 to 20)
#    0.000    2.571    0.000    3.000    2.000    2.857 
#    0.000    1.429    0.000   12.429    0.000    0.000 
#    0.000    0.000    0.000    0.000    0.000    0.000 
#
# Total GULP energy -156285.567771 kJ/mol
# GULP energy per Si atom -5581.627420 kJ/mol
# Density = 2.186268 g / cm^3
# Si number density = 21.912552 Si / 1000 Ang^3
#
#
#
# Elastic Constant Matrix: (Units=GPa)
#
#
# Indices 1 2 3 4 5 6 
#
# 1 104.0968 4.9577 52.8279 0.0000 -34.6266 0.0000
# 2 4.9577 33.0755 -2.1204 0.0000 -4.3020 0.0000
# 3 52.8279 -2.1204 112.2474 0.0000 -17.8943 0.0000
# 4 0.0000 0.0000 0.0000 19.1247 0.0000 -1.8381
# 5 -34.6266 -4.3020 -17.8943 0.0000 37.0280 0.0000
# 6 0.0000 0.0000 0.0000 -1.8381 0.0000 11.4791
#
#
#
# Elastic Compliance Matrix: (Units=1/GPa)
#
#
# Indices 1 2 3 4 5 6 
#
# 1 0.016960 -0.001255 -0.005960 0.000000 0.012834 0.000000
# 2 -0.001255 0.030952 0.001692 0.000000 0.003240 0.000000
# 3 -0.005960 0.001692 0.011797 0.000000 0.000325 0.000000
# 4 0.000000 0.000000 0.000000 0.053106 0.000000 0.008504
# 5 0.012834 0.003240 0.000325 0.000000 0.039542 0.000000
# 6 0.000000 0.000000 0.000000 0.008504 0.000000 0.088476
#
#
# Mechanical properties :
#
#
# Convention : Reuss Voigt Hill
#
# Bulk Modulus (GPa) = 20.54920 40.08333 30.31626
# Shear Modulus (GPa) = 18.64980 26.44333 22.54657
#
# Velocity S-wave (km/s) = 2.92053 3.47762 3.21118
# Velocity P-wave (km/s) = 4.55750 5.87003 5.25491
#
# Compressibility (1/GPa) = 0.04866369
#
# Stress axis : x y z
#
# Youngs Moduli (GPa) = 58.96326 32.30822 84.76412
#
# Poissons Ratio (x) = 0.04054 0.50516
# Poissons Ratio (y) = 0.07399 -0.14341
# Poissons Ratio (z) = 0.35140 -0.05466
#
# Static dielectric constant tensor:
#      x y z
#    x 1.786850 0.000000 -0.028970 
#    y 0.000000 1.850310 0.000000 
#    z -0.028970 0.000000 1.793280 
# 
# From -- ./inp_files/295168.got.cif
#   From: 2010.05.17/outbox.cif.g08.bks.cpg/sg12_148_cif.got.tgz:295168.got - 2010.06.03 13:09:07.
