data_PCOD9183265
_publ_section_title
;
Structure prediction by ZEFSAII (Michael W. Deem and Ramdas Pophale) SiO2 
 PCOD9183265
Probable space group: C 2/M
;
_chemical_formula_sum "Si O2"
_cell_formula_units_Z 64
_cell_length_a 21.118098
_cell_length_b 8.692147
_cell_length_c 32.800572
_cell_angle_alpha 90.000000
_cell_angle_beta 142.604442
_cell_angle_gamma 90.000000
_cell_volume 3656.594076
_symmetry_space_group_name_H-M "C 2/M"
_symmetry_group_IT_number 12
_symmetry_cell_setting 'monoclinic'
loop_
_space_group_symop_operation_xyz
x,y,z
-x,y,-z
-x,-y,-z
x,-y,z
1/2+x,1/2+y,z
1/2-x,1/2+y,-z
1/2-x,1/2-y,-z
1/2+x,1/2-y,z
loop_
_atom_site_type_symbol
_atom_site_label
_atom_site_fract_x
_atom_site_fract_y
_atom_site_fract_z
Si Si1 0.713166 0.685210 0.177583
Si Si2 0.093919 0.685372 0.672313
Si Si3 0.970904 0.685749 0.530566
Si Si4 0.014297 0.185201 0.959330
Si Si5 0.272117 0.816031 0.966903
Si Si6 0.849648 0.814504 0.173760
Si Si7 0.741490 0.682987 0.541357
Si Si8 0.456256 0.315867 0.675182
O O1 0.712790 0.500000 0.174183
O O2 0.789319 0.727662 0.253862
O O3 0.593112 0.733982 0.117629
O O4 0.768363 0.749585 0.165290
O O5 0.083300 0.500000 0.671464
O O6 0.059328 0.725675 0.609109
O O7 0.015438 0.764054 0.664151
O O8 0.960757 0.500000 0.525166
O O9 0.862850 0.755276 0.490989
O O10 0.000000 0.736193 0.500000
O O11 0.025701 0.000000 0.961777
O O12 0.116114 0.262262 0.992854
O O13 0.000000 0.220948 0.000000
O O14 0.186353 0.765189 0.889414
O O15 0.269667 0.000000 0.967611
O O16 0.250000 0.750000 0.000000
O O17 0.964867 0.769941 0.248089
O O18 0.844690 0.000000 0.173115
O O19 0.739127 0.500000 0.537520
O O20 0.750000 0.750000 0.500000
O O21 0.843991 0.738058 0.617884
O O22 0.444332 0.500000 0.669056
#
# Coordination Sequence:
#
# PCOD9183265 Si02
#       8
#     8   8   8   8   8   8   8   8
#     4   9  17  30  52  80 107 137 176 225 271 319
#     4   9  17  31  52  78 107 141 181 220 268 324
#     4  10  21  37  56  79 111 148 184 223 271 327
#     4  10  19  33  54  81 111 141 179 224 272 324
#     4  11  23  38  56  79 111 149 187 227 275 329
#     4   9  19  34  53  79 109 141 179 225 277 327
#     4  12  23  36  56  83 113 145 185 230 274 323
#     4  10  19  33  55  82 109 138 177 229 282 326
#
# _framework density 17.502627
#
# number of rings (size 3 to 8) (size 9 to 14) (size 15 to 20)
#    0.000    2.000    2.500    1.875    0.000    2.000 
#    0.000    1.250    0.000    4.500    0.000    0.000 
#    0.000    0.000    0.000    0.000    0.000    0.000 
#
# Total GULP energy -178558.368109 kJ/mol
# GULP energy per Si atom -5579.949003 kJ/mol
# Density = 1.746279 g / cm^3
# Si number density = 17.502627 Si / 1000 Ang^3
#
#
#
# Elastic Constant Matrix: (Units=GPa)
#
#
# Indices 1 2 3 4 5 6 
#
# 1 113.5976 36.0770 85.6795 -0.0001 -11.6469 0.0001
# 2 36.0770 28.8892 43.4869 -0.0002 -3.9821 0.0002
# 3 85.6795 43.4869 179.5686 0.0000 -10.8812 0.0000
# 4 -0.0001 -0.0002 0.0000 21.9405 0.0000 5.9357
# 5 -11.6469 -3.9821 -10.8812 0.0000 25.4828 0.0000
# 6 0.0001 0.0002 0.0000 5.9357 0.0000 25.3168
#
#
#
# Elastic Compliance Matrix: (Units=1/GPa)
#
#
# Indices 1 2 3 4 5 6 
#
# 1 0.017016 -0.013938 -0.004521 0.000000 0.003668 0.000000
# 2 -0.013938 0.066107 -0.009361 0.000001 -0.000037 0.000000
# 3 -0.004521 -0.009361 0.010039 0.000000 0.000757 0.000000
# 4 0.000000 0.000001 0.000000 0.048665 0.000000 -0.011410
# 5 0.003668 -0.000037 0.000757 0.000000 0.041236 0.000000
# 6 0.000000 0.000000 0.000000 -0.011410 0.000000 0.042175
#
#
# Mechanical properties :
#
#
# Convention : Reuss Voigt Hill
#
# Bulk Modulus (GPa) = 26.65166 72.50469 49.57817
# Shear Modulus (GPa) = 17.04243 25.00215 21.02229
#
# Velocity S-wave (km/s) = 3.12381 3.78362 3.46944
# Velocity P-wave (km/s) = 5.31707 7.78477 6.66611
#
# Compressibility (1/GPa) = 0.03752112
#
# Stress axis : x y z
#
# Youngs Moduli (GPa) = 58.76967 15.12696 99.61015
#
# Poissons Ratio (x) = 0.21084 0.45035
# Poissons Ratio (y) = 0.81912 0.93250
# Poissons Ratio (z) = 0.26571 0.14161
#
# Static dielectric constant tensor:
#      x y z
#    x 1.544470 0.000000 -0.009220 
#    y 0.000000 1.588900 0.000000 
#    z -0.009220 0.000000 1.638260 
# 
# From -- ./inp_files/378472.got.cif
#   From: 2010.05.17/outbox.cif.g08.bks.cpg/sg12_190_cif.got.tgz:378472.got - 2010.06.03 13:09:07.
