data_PCOD9183743
_publ_section_title
;
Structure prediction by ZEFSAII (Michael W. Deem and Ramdas Pophale) SiO2 
 PCOD9183743
Probable space group: C 2/M
;
_chemical_formula_sum "Si O2"
_cell_formula_units_Z 56
_cell_length_a 14.166527
_cell_length_b 29.393791
_cell_length_c 11.436634
_cell_angle_alpha 90.000000
_cell_angle_beta 33.087362
_cell_angle_gamma 90.000000
_cell_volume 2599.824133
_symmetry_space_group_name_H-M "C 2/M"
_symmetry_group_IT_number 12
_symmetry_cell_setting 'monoclinic'
loop_
_space_group_symop_operation_xyz
x,y,z
-x,y,-z
-x,-y,-z
x,-y,z
1/2+x,1/2+y,z
1/2-x,1/2+y,-z
1/2-x,1/2-y,-z
1/2+x,1/2-y,z
loop_
_atom_site_type_symbol
_atom_site_label
_atom_site_fract_x
_atom_site_fract_y
_atom_site_fract_z
Si Si1 0.184852 0.866193 0.782468
Si Si2 0.882692 0.703410 0.242395
Si Si3 0.313471 0.387070 0.488582
Si Si4 0.517213 0.948087 0.143595
Si Si5 0.892538 0.281337 0.503237
Si Si6 0.389564 0.448494 0.728987
Si Si7 0.669742 0.050070 0.245263
O O1 0.188011 0.885388 0.649301
O O2 0.329451 0.828096 0.627967
O O3 0.214293 0.907429 0.840930
O O4 0.000000 0.844475 0.000000
O O5 0.743352 0.661969 0.400663
O O6 0.961495 0.708072 0.296842
O O7 0.774328 0.749508 0.340500
O O8 0.000000 0.697264 0.000000
O O9 0.499607 0.409292 0.323530
O O10 0.152081 0.418719 0.690177
O O11 0.593578 0.946104 0.195342
O O12 0.472857 0.000000 0.161499
O O13 0.694961 0.934653 0.895604
O O14 0.000000 0.259438 0.500000
O O15 0.500000 0.454375 0.500000
O O16 0.382990 0.500000 0.791073
O O17 0.500000 0.052594 0.500000
O O18 0.750021 0.000000 0.180626
#
# Coordination Sequence:
#
# PCOD9183743 Si02
#       7
#     8   8   8   8   8   8   8
#     4  11  22  37  62  91 126 168 213 265 323 398
#     4  10  24  44  65 101 134 162 221 280 328 406
#     4  11  23  39  62  91 127 168 212 271 335 389
#     4  10  21  38  61  89 126 173 217 266 326 388
#     4  10  23  45  70  94 129 174 217 268 341 408
#     4  10  23  40  57  84 121 165 223 269 312 393
#     4  10  19  33  55  88 126 159 207 262 312 380
#
# _framework density 21.539919000000001
#
# number of rings (size 3 to 8) (size 9 to 14) (size 15 to 20)
#    0.000    1.714    1.429    2.143    4.000    2.000 
#    0.000    2.143    0.000    0.000    0.000    0.000 
#    0.000    0.000    0.000    0.000    0.000    0.000 
#
# Total GULP energy -155903.603285 kJ/mol
# GULP energy per Si atom -5567.985832 kJ/mol
# Density = 2.149089 g / cm^3
# Si number density = 21.539919 Si / 1000 Ang^3
#
#
#
# Elastic Constant Matrix: (Units=GPa)
#
#
# Indices 1 2 3 4 5 6 
#
# 1 66.0332 19.9724 27.2434 0.0000 26.1807 0.0000
# 2 19.9724 83.0636 8.7433 0.0000 0.3368 0.0000
# 3 27.2434 8.7433 116.8708 0.0000 22.5795 0.0001
# 4 0.0000 0.0000 0.0000 26.4131 0.0000 6.4660
# 5 26.1807 0.3368 22.5795 0.0000 28.6174 0.0000
# 6 0.0000 0.0000 0.0001 6.4660 0.0000 -17.2884
#
#
#
# Elastic Compliance Matrix: (Units=1/GPa)
#
#
# Indices 1 2 3 4 5 6 
#
# 1 0.026872 -0.006234 -0.001253 0.000000 -0.023522 0.000000
# 2 -0.006234 0.013592 -0.000749 0.000000 0.006134 0.000000
# 3 -0.001253 -0.000749 0.010243 0.000000 -0.006926 0.000000
# 4 0.000000 0.000000 0.000000 0.034684 0.000000 0.012972
# 5 -0.023522 0.006134 -0.006926 0.000000 0.061856 0.000000
# 6 0.000000 0.000000 0.000000 0.012972 0.000000 -0.052991
#
#
# Mechanical properties :
#
#
# Convention : Reuss Voigt Hill
#
# Bulk Modulus (GPa) = 29.20998 41.98732 35.59865
# Shear Modulus (GPa) = 40.93647 21.54899 31.24273
#
# Velocity S-wave (km/s) = 4.36419 3.16637 3.81262
# Velocity P-wave (km/s) = 6.24381 5.73612 5.99534
#
# Compressibility (1/GPa) = 0.03423488
#
# Stress axis : x y z
#
# Youngs Moduli (GPa) = 37.21280 73.57336 97.62974
#
# Poissons Ratio (x) = 0.45866 0.12236
# Poissons Ratio (y) = 0.23199 0.07310
# Poissons Ratio (z) = 0.04664 0.05509
#
# Static dielectric constant tensor:
#      x y z
#    x 1.880080 0.000000 0.036970 
#    y 0.000000 1.847050 0.000000 
#    z 0.036970 0.000000 1.748520 
# 
# From -- ./inp_files/150388.got.cif
#   From: 2010.05.17/outbox.cif.g08.bks.cpg/sg12_76_cif.got.tgz:150388.got - 2010.06.03 13:09:07.
