data_PCOD9183300
_publ_section_title
;
Structure prediction by ZEFSAII (Michael W. Deem and Ramdas Pophale) SiO2 
 PCOD9183300
Probable space group: C 2/M
;
_chemical_formula_sum "Si O2"
_cell_formula_units_Z 64
_cell_length_a 21.115909
_cell_length_b 8.711946
_cell_length_c 32.647501
_cell_angle_alpha 90.000000
_cell_angle_beta 142.599244
_cell_angle_gamma 90.000000
_cell_volume 3647.874661
_symmetry_space_group_name_H-M "C 2/M"
_symmetry_group_IT_number 12
_symmetry_cell_setting 'monoclinic'
loop_
_space_group_symop_operation_xyz
x,y,z
-x,y,-z
-x,-y,-z
x,-y,z
1/2+x,1/2+y,z
1/2-x,1/2+y,-z
1/2-x,1/2-y,-z
1/2+x,1/2-y,z
loop_
_atom_site_type_symbol
_atom_site_label
_atom_site_fract_x
_atom_site_fract_y
_atom_site_fract_z
Si Si1 0.711074 0.817000 0.178557
Si Si2 0.106894 0.684208 0.677563
Si Si3 0.974837 0.687225 0.532792
Si Si4 0.005361 0.184953 0.955349
Si Si5 0.270453 0.684531 0.965605
Si Si6 0.851992 0.815793 0.172738
Si Si7 0.747829 0.815528 0.544856
Si Si8 0.462957 0.816554 0.682174
O O1 0.785321 0.758766 0.252979
O O2 0.596019 0.748284 0.119468
O O3 0.769583 0.769737 0.166238
O O4 0.705999 0.000000 0.176513
O O5 0.119688 0.500000 0.683372
O O6 0.059476 0.736239 0.610083
O O7 0.022292 0.718754 0.669708
O O8 0.976608 0.500000 0.533635
O O9 0.859953 0.732147 0.488933
O O10 0.000000 0.739988 0.500000
O O11 0.000922 0.000000 0.952904
O O12 0.114482 0.231645 0.991206
O O13 0.000000 0.236844 0.000000
O O14 0.266098 0.500000 0.963983
O O15 0.188003 0.747708 0.890310
O O16 0.250000 0.750000 0.000000
O O17 0.963185 0.752117 0.244747
O O18 0.854963 0.000000 0.172453
O O19 0.750000 0.750000 0.500000
O O20 0.848765 0.754902 0.620622
O O21 0.750285 0.000000 0.544081
O O22 0.456949 0.000000 0.682891
#
# Coordination Sequence:
#
# PCOD9183300 Si02
#       8
#     8   8   8   8   8   8   8   8
#     4  10  20  32  53  84 113 141 179 233 280 319
#     4   9  17  32  53  77 106 142 182 223 271 329
#     4   9  18  34  55  79 107 142 183 223 268 324
#     4  10  20  36  58  83 110 144 186 226 271 330
#     4  11  23  39  59  83 114 151 187 229 277 333
#     4  10  20  35  55  83 114 147 185 227 279 330
#     4  11  20  33  54  82 110 141 183 231 278 327
#     4  10  19  33  54  82 110 142 184 229 278 326
#
# _framework density 17.544461999999999
#
# number of rings (size 3 to 8) (size 9 to 14) (size 15 to 20)
#    0.000    2.000    2.500    1.875    0.000    2.750 
#    0.000    1.250    0.000    9.375    0.000    0.000 
#    0.000    0.000    0.000    0.000    0.000    0.000 
#
# Total GULP energy -178643.919530 kJ/mol
# GULP energy per Si atom -5582.622485 kJ/mol
# Density = 1.750453 g / cm^3
# Si number density = 17.544462 Si / 1000 Ang^3
#
#
#
# Elastic Constant Matrix: (Units=GPa)
#
#
# Indices 1 2 3 4 5 6 
#
# 1 116.2662 34.2467 89.1199 0.0000 -7.9077 0.0000
# 2 34.2467 33.7263 43.5414 0.0000 -1.8241 0.0001
# 3 89.1199 43.5414 192.6912 0.0000 -6.3025 0.0000
# 4 0.0000 0.0000 0.0000 31.1389 0.0000 1.4851
# 5 -7.9077 -1.8241 -6.3025 0.0000 26.8043 0.0000
# 6 0.0000 0.0001 0.0000 1.4851 0.0000 20.6236
#
#
#
# Elastic Compliance Matrix: (Units=1/GPa)
#
#
# Indices 1 2 3 4 5 6 
#
# 1 0.015183 -0.008922 -0.004917 0.000000 0.002716 0.000000
# 2 -0.008922 0.047116 -0.006552 0.000000 -0.000966 0.000000
# 3 -0.004917 -0.006552 0.008951 0.000000 0.000208 0.000000
# 4 0.000000 0.000000 0.000000 0.032225 0.000000 -0.002320
# 5 0.002716 -0.000966 0.000208 0.000000 0.038092 0.000000
# 6 0.000000 0.000000 0.000000 -0.002320 0.000000 0.048655
#
#
# Mechanical properties :
#
#
# Convention : Reuss Voigt Hill
#
# Bulk Modulus (GPa) = 32.82094 75.16661 53.99377
# Shear Modulus (GPa) = 20.73312 27.43175 24.08244
#
# Velocity S-wave (km/s) = 3.44138 3.95847 3.70895
# Velocity P-wave (km/s) = 5.87697 7.98932 7.01313
#
# Compressibility (1/GPa) = 0.03046835
#
# Stress axis : x y z
#
# Youngs Moduli (GPa) = 65.86427 21.22406 111.71776
#
# Poissons Ratio (x) = 0.18936 0.54933
# Poissons Ratio (y) = 0.58764 0.73195
# Poissons Ratio (z) = 0.32387 0.13906
#
# Static dielectric constant tensor:
#      x y z
#    x 1.582940 0.000000 -0.000760 
#    y 0.000000 1.586470 0.000000 
#    z -0.000760 0.000000 1.583730 
# 
# From -- ./inp_files/378473.got.cif
#   From: 2010.05.17/outbox.cif.g08.bks.cpg/sg12_190_cif.got.tgz:378473.got - 2010.06.03 13:09:07.
