data_PCOD9183930
_publ_section_title
;
Structure prediction by ZEFSAII (Michael W. Deem and Ramdas Pophale) SiO2 
 PCOD9183930
Probable space group: C 2/M
;
_chemical_formula_sum "Si O2"
_cell_formula_units_Z 64
_cell_length_a 19.397596
_cell_length_b 20.790009
_cell_length_c 9.989436
_cell_angle_alpha 90.000000
_cell_angle_beta 63.788082
_cell_angle_gamma 90.000000
_cell_volume 3614.236864
_symmetry_space_group_name_H-M "C 2/M"
_symmetry_group_IT_number 12
_symmetry_cell_setting 'monoclinic'
loop_
_space_group_symop_operation_xyz
x,y,z
-x,y,-z
-x,-y,-z
x,-y,z
1/2+x,1/2+y,z
1/2-x,1/2+y,-z
1/2-x,1/2-y,-z
1/2+x,1/2-y,z
loop_
_atom_site_type_symbol
_atom_site_label
_atom_site_fract_x
_atom_site_fract_y
_atom_site_fract_z
Si Si1 0.285034 0.575242 0.133033
Si Si2 0.652314 0.759787 0.435462
Si Si3 0.810191 0.303422 0.888046
Si Si4 0.705964 0.163063 0.627828
Si Si5 0.533705 0.656833 0.612847
Si Si6 0.320525 0.425379 0.415990
Si Si7 0.910238 0.289292 0.050644
Si Si8 0.066617 0.145176 0.042541
O O1 0.264404 0.500000 0.131934
O O2 0.230292 0.629119 0.114722
O O3 0.295921 0.587722 0.283179
O O4 0.368246 0.592097 0.000622
O O5 0.654862 0.776036 0.278374
O O6 0.668407 0.819372 0.518027
O O7 0.724274 0.712254 0.400712
O O8 0.574971 0.724422 0.546473
O O9 0.750000 0.250000 0.000000
O O10 0.876903 0.312747 0.938703
O O11 0.750578 0.096397 0.571783
O O12 0.642162 0.177089 0.793000
O O13 0.500000 0.632949 0.500000
O O14 0.602709 0.613037 0.610840
O O15 0.470021 0.661936 0.782763
O O16 0.336381 0.500000 0.414486
O O17 0.900973 0.211099 0.052770
O O18 0.000000 0.300637 0.000000
O O19 0.000000 0.122083 0.000000
#
# Coordination Sequence:
#
# PCOD9183930 Si02
#       8
#     8   8   8   8   8   8   8   8
#     4  11  23  39  62  89 116 164 211 245 292 362
#     4  10  19  33  56  84 113 157 196 240 290 343
#     4  12  21  38  63  89 120 159 201 256 300 347
#     4  10  19  35  58  83 113 148 195 245 297 339
#     4  11  23  34  54  87 126 158 194 240 294 358
#     4  10  22  40  60  82 115 161 207 241 289 358
#     4  11  23  36  60  91 123 150 192 249 314 357
#     4  11  20  36  57  88 127 166 195 237 290 367
#
# _framework density 17.707749
#
# number of rings (size 3 to 8) (size 9 to 14) (size 15 to 20)
#    0.000    1.250    5.000    2.250    1.750    1.000 
#    0.000    1.875    0.000    1.500    0.000    1.750 
#    0.000    0.000    0.000    0.000    0.000    0.000 
#
# Total GULP energy -178567.422236 kJ/mol
# GULP energy per Si atom -5580.231945 kJ/mol
# Density = 1.766745 g / cm^3
# Si number density = 17.707749 Si / 1000 Ang^3
#
#
#
# Elastic Constant Matrix: (Units=GPa)
#
#
# Indices 1 2 3 4 5 6 
#
# 1 81.2501 33.6958 15.2288 0.0000 15.0769 0.0000
# 2 33.6958 80.6644 17.6190 0.0000 0.4964 0.0000
# 3 15.2288 17.6190 104.8000 0.0000 0.3353 0.0000
# 4 0.0000 0.0000 0.0000 15.7444 0.0000 1.8515
# 5 15.0769 0.4964 0.3353 0.0000 26.8862 0.0000
# 6 0.0000 0.0000 0.0000 1.8515 0.0000 19.9147
#
#
#
# Elastic Compliance Matrix: (Units=1/GPa)
#
#
# Indices 1 2 3 4 5 6 
#
# 1 0.017136 -0.006813 -0.001314 0.000000 -0.009467 0.000000
# 2 -0.006813 0.015579 -0.001641 0.000000 0.003553 0.000000
# 3 -0.001314 -0.001641 0.010007 0.000000 0.000643 0.000000
# 4 0.000000 0.000000 0.000000 0.064217 0.000000 -0.005970
# 5 -0.009467 0.003553 0.000643 0.000000 0.042429 0.000000
# 6 0.000000 0.000000 0.000000 -0.005970 0.000000 0.050769
#
#
# Mechanical properties :
#
#
# Convention : Reuss Voigt Hill
#
# Bulk Modulus (GPa) = 43.12846 44.42242 43.77544
# Shear Modulus (GPa) = 21.98748 25.85379 23.92064
#
# Velocity S-wave (km/s) = 3.52758 3.82518 3.67939
# Velocity P-wave (km/s) = 6.40315 6.68208 6.54410
#
# Compressibility (1/GPa) = 0.02318655
#
# Stress axis : x y z
#
# Youngs Moduli (GPa) = 58.35589 64.18707 99.93251
#
# Poissons Ratio (x) = 0.43730 0.13136
# Poissons Ratio (y) = 0.39757 0.16395
# Poissons Ratio (z) = 0.07671 0.10530
#
# Static dielectric constant tensor:
#      x y z
#    x 1.618730 0.000000 0.006130 
#    y 0.000000 1.597950 0.000000 
#    z 0.006130 0.000000 1.629560 
# 
# From -- ./inp_files/89596.got.cif
#   From: 2010.05.17/outbox.cif.g08.bks.cpg/sg12_45_cif.got.tgz:89596.got - 2010.06.03 13:09:07.
