data_PCOD9183933
_publ_section_title
;
Structure prediction by ZEFSAII (Michael W. Deem and Ramdas Pophale) SiO2 
 PCOD9183933
Probable space group: C 2/M
;
_chemical_formula_sum "Si O2"
_cell_formula_units_Z 56
_cell_length_a 31.888431
_cell_length_b 10.887926
_cell_length_c 25.190245
_cell_angle_alpha 90.000000
_cell_angle_beta 20.078287
_cell_angle_gamma 90.000000
_cell_volume 3002.543432
_symmetry_space_group_name_H-M "C 2/M"
_symmetry_group_IT_number 12
_symmetry_cell_setting 'monoclinic'
loop_
_space_group_symop_operation_xyz
x,y,z
-x,y,-z
-x,-y,-z
x,-y,z
1/2+x,1/2+y,z
1/2-x,1/2+y,-z
1/2-x,1/2-y,-z
1/2+x,1/2-y,z
loop_
_atom_site_type_symbol
_atom_site_label
_atom_site_fract_x
_atom_site_fract_y
_atom_site_fract_z
Si Si1 0.089756 0.706538 0.135658
Si Si2 0.190571 0.359646 0.535523
Si Si3 0.138911 0.144977 0.764282
Si Si4 0.093387 0.145847 0.023159
Si Si5 0.862681 0.866472 0.819218
Si Si6 0.957069 0.861219 0.490496
Si Si7 0.262829 0.852990 0.723225
O O1 0.095405 0.772239 0.185967
O O2 0.956301 0.646559 0.288880
O O3 0.102763 0.795333 0.069489
O O4 0.217176 0.633808 0.984085
O O5 0.228621 0.500000 0.505982
O O6 0.250000 0.250000 0.500000
O O7 0.242694 0.340026 0.413962
O O8 0.165049 0.180640 0.793501
O O9 0.112546 0.000000 0.799266
O O10 0.024621 0.198251 0.868021
O O11 0.206132 0.163809 0.849042
O O12 0.078597 0.000000 0.048034
O O13 0.930146 0.845103 0.683598
O O14 0.900848 0.000000 0.793871
O O15 0.869707 0.744468 0.587611
O O16 0.000000 0.861110 0.500000
O O17 0.904954 0.000000 0.541943
O O18 0.292876 0.000000 0.681310
#
# Coordination Sequence:
#
# PCOD9183933 Si02
#       7
#     8   8   8   8   8   8   8
#     4  11  21  36  58  85 116 151 194 241 286 341
#     4  11  22  37  59  86 117 151 190 236 285 341
#     4   9  18  34  55  82 114 147 184 230 285 340
#     4  10  19  33  56  84 114 150 190 234 288 345
#     4  10  22  38  57  82 115 155 196 239 292 346
#     4  10  21  39  59  79 110 153 191 231 289 347
#     4  10  20  35  59  86 111 144 190 242 286 333
#
# _framework density 18.650853000000001
#
# number of rings (size 3 to 8) (size 9 to 14) (size 15 to 20)
#    0.000    1.857    1.429    3.000    0.000    2.571 
#    0.000    5.000    0.000    0.857    0.000    0.000 
#    0.000    0.000    0.000    0.000    0.000    0.000 
#
# Total GULP energy -155968.432688 kJ/mol
# GULP energy per Si atom -5570.301167 kJ/mol
# Density = 1.860840 g / cm^3
# Si number density = 18.650853 Si / 1000 Ang^3
#
#
#
# Elastic Constant Matrix: (Units=GPa)
#
#
# Indices 1 2 3 4 5 6 
#
# 1 83.4678 34.2245 21.9416 0.0001 11.2880 0.0000
# 2 34.2245 81.4728 48.5157 0.0000 3.9837 0.0000
# 3 21.9416 48.5157 76.9782 0.0001 1.5577 0.0000
# 4 0.0001 0.0000 0.0001 25.6444 -0.0001 -0.8210
# 5 11.2880 3.9837 1.5577 -0.0001 29.9782 0.0001
# 6 0.0000 0.0000 0.0000 -0.8210 0.0001 17.4142
#
#
#
# Elastic Compliance Matrix: (Units=1/GPa)
#
#
# Indices 1 2 3 4 5 6 
#
# 1 0.015170 -0.005790 -0.000576 0.000000 -0.004913 0.000000
# 2 -0.005790 0.021974 -0.012197 0.000000 -0.000106 0.000000
# 3 -0.000576 -0.012197 0.020827 0.000000 0.000755 0.000000
# 4 0.000000 0.000000 0.000000 0.039054 0.000000 0.001841
# 5 -0.004913 -0.000106 0.000755 0.000000 0.035182 0.000000
# 6 0.000000 0.000000 0.000000 0.001841 0.000000 0.057511
#
#
# Mechanical properties :
#
#
# Convention : Reuss Voigt Hill
#
# Bulk Modulus (GPa) = 47.96919 50.14249 49.05584
# Shear Modulus (GPa) = 21.38647 23.75649 22.57148
#
# Velocity S-wave (km/s) = 3.38993 3.57283 3.48258
# Velocity P-wave (km/s) = 6.41074 6.63049 6.52154
#
# Compressibility (1/GPa) = 0.02084671
#
# Stress axis : x y z
#
# Youngs Moduli (GPa) = 65.91801 45.50748 48.01521
#
# Poissons Ratio (x) = 0.26347 0.02765
# Poissons Ratio (y) = 0.38164 0.58564
# Poissons Ratio (z) = 0.03796 0.55506
#
# Static dielectric constant tensor:
#      x y z
#    x 1.632950 0.000000 -0.015710 
#    y 0.000000 1.661570 0.000000 
#    z -0.015710 0.000000 1.669570 
# 
# From -- ./inp_files/173924.got.cif
#   From: 2010.05.17/outbox.cif.g08.bks.cpg/sg12_87_cif.got.tgz:173924.got - 2010.06.03 13:09:07.
