data_PCOD9183447
_publ_section_title
;
Structure prediction by ZEFSAII (Michael W. Deem and Ramdas Pophale) SiO2 
 PCOD9183447
Probable space group: C 2/M
;
_chemical_formula_sum "Si O2"
_cell_formula_units_Z 64
_cell_length_a 20.803845
_cell_length_b 7.429223
_cell_length_c 19.831103
_cell_angle_alpha 90.000000
_cell_angle_beta 58.146045
_cell_angle_gamma 90.000000
_cell_volume 2603.419357
_symmetry_space_group_name_H-M "C 2/M"
_symmetry_group_IT_number 12
_symmetry_cell_setting 'monoclinic'
loop_
_space_group_symop_operation_xyz
x,y,z
-x,y,-z
-x,-y,-z
x,-y,z
1/2+x,1/2+y,z
1/2-x,1/2+y,-z
1/2-x,1/2-y,-z
1/2+x,1/2-y,z
loop_
_atom_site_type_symbol
_atom_site_label
_atom_site_fract_x
_atom_site_fract_y
_atom_site_fract_z
Si Si1 0.564932 0.204380 0.011527
Si Si2 0.912776 0.780184 0.401938
Si Si3 0.312572 0.284109 0.577801
Si Si4 0.343878 0.780807 0.764829
Si Si5 0.835127 0.715795 0.925224
Si Si6 0.860412 0.210562 0.290320
Si Si7 0.671274 0.282495 0.835729
Si Si8 0.949534 0.756061 0.591327
O O1 0.636121 0.201587 0.921892
O O2 0.539334 0.000000 0.040836
O O3 0.500000 0.289706 0.000000
O O4 0.599400 0.286367 0.060653
O O5 0.836760 0.749426 0.487330
O O6 0.905269 0.717258 0.329563
O O7 0.979146 0.685186 0.405870
O O8 0.925916 0.000000 0.396840
O O9 0.320161 0.500000 0.585583
O O10 0.228328 0.226837 0.641909
O O11 0.376231 0.192716 0.589526
O O12 0.345620 0.726258 0.842199
O O13 0.259868 0.743085 0.784258
O O14 0.402846 0.684670 0.683569
O O15 0.356133 0.000000 0.753779
O O16 0.842498 0.500000 0.921333
O O17 0.750000 0.750000 0.000000
O O18 0.869160 0.283082 0.210107
O O19 0.879134 0.000000 0.276209
O O20 0.664140 0.500000 0.844057
O O21 0.000000 0.828700 0.500000
#
# Coordination Sequence:
#
# PCOD9183447 Si02
#       8
#     8   8   8   8   8   8   8   8
#     4  10  22  39  59  87 119 147 179 230 289 341
#     4   9  19  35  52  74 108 146 187 237 285 330
#     4  10  19  33  55  79 105 143 189 236 285 333
#     4  10  20  36  57  83 116 153 192 237 284 333
#     4  10  20  37  61  85 114 150 189 233 283 337
#     4  10  20  35  55  78 109 146 186 230 279 335
#     4  10  20  36  58  83 114 152 189 228 279 339
#     4  10  20  35  55  82 115 151 192 238 287 338
#
# _framework density 24.583054000000001
#
# number of rings (size 3 to 8) (size 9 to 14) (size 15 to 20)
#    0.000    2.125    2.500    0.750    0.000    3.500 
#    0.000    3.750    0.000    0.000    0.000    0.000 
#    0.000    0.000    0.000    0.000    0.000    0.000 
#
# Total GULP energy -178278.115278 kJ/mol
# GULP energy per Si atom -5571.191102 kJ/mol
# Density = 2.452710 g / cm^3
# Si number density = 24.583054 Si / 1000 Ang^3
#
#
#
# Elastic Constant Matrix: (Units=GPa)
#
#
# Indices 1 2 3 4 5 6 
#
# 1 147.1553 10.7842 32.2226 -0.0088 44.4785 -0.0005
# 2 10.7842 81.2406 16.5152 -0.0137 12.7264 0.0005
# 3 32.2226 16.5152 144.5637 0.0028 30.7220 0.0032
# 4 -0.0088 -0.0137 0.0028 130.7823 -0.0023 37.7647
# 5 44.4785 12.7264 30.7220 -0.0023 61.1679 -0.0014
# 6 -0.0005 0.0005 0.0032 37.7647 -0.0014 55.0317
#
#
#
# Elastic Compliance Matrix: (Units=1/GPa)
#
#
# Indices 1 2 3 4 5 6 
#
# 1 0.008768 -0.000085 -0.000664 0.000001 -0.006024 0.000000
# 2 -0.000085 0.012854 -0.001001 0.000002 -0.002110 -0.000001
# 3 -0.000664 -0.001001 0.007873 0.000000 -0.003263 0.000000
# 4 0.000001 0.000002 0.000000 0.009536 0.000000 -0.006544
# 5 -0.006024 -0.002110 -0.003263 0.000000 0.022807 0.000001
# 6 0.000000 -0.000001 0.000000 -0.006544 0.000001 0.022662
#
#
# Mechanical properties :
#
#
# Convention : Reuss Voigt Hill
#
# Bulk Modulus (GPa) = 38.46975 54.66707 46.56841
# Shear Modulus (GPa) = 51.72403 70.29224 61.00814
#
# Velocity S-wave (km/s) = 4.59197 5.35312 4.98709
# Velocity P-wave (km/s) = 6.61799 7.77778 7.22120
#
# Compressibility (1/GPa) = 0.02599445
#
# Stress axis : x y z
#
# Youngs Moduli (GPa) = 114.04886 77.79415 127.01210
#
# Poissons Ratio (x) = 0.00662 0.08438
# Poissons Ratio (y) = 0.00971 0.12716
# Poissons Ratio (z) = 0.07577 0.07789
#
# Static dielectric constant tensor:
#      x y z
#    x 1.938230 0.000000 0.017550 
#    y 0.000000 2.074300 0.000000 
#    z 0.017550 0.000000 1.898760 
# 
# From -- ./inp_files/283295.got.cif
#   From: 2010.05.17/outbox.cif.g08.bks.cpg/sg12_142_cif.got.tgz:283295.got - 2010.06.03 13:09:07.
