data_PCOD9183826
_publ_section_title
;
Structure prediction by ZEFSAII (Michael W. Deem and Ramdas Pophale) SiO2 
 PCOD9183826
Probable space group: C 2/M
;
_chemical_formula_sum "Si O2"
_cell_formula_units_Z 64
_cell_length_a 20.910073
_cell_length_b 8.844180
_cell_length_c 20.401662
_cell_angle_alpha 90.000000
_cell_angle_beta 102.751943
_cell_angle_gamma 90.000000
_cell_volume 3679.869404
_symmetry_space_group_name_H-M "C 2/M"
_symmetry_group_IT_number 12
_symmetry_cell_setting 'monoclinic'
loop_
_space_group_symop_operation_xyz
x,y,z
-x,y,-z
-x,-y,-z
x,-y,z
1/2+x,1/2+y,z
1/2-x,1/2+y,-z
1/2-x,1/2-y,-z
1/2+x,1/2-y,z
loop_
_atom_site_type_symbol
_atom_site_label
_atom_site_fract_x
_atom_site_fract_y
_atom_site_fract_z
Si Si1 0.034804 0.317892 0.355283
Si Si2 0.612685 0.818265 0.634038
Si Si3 0.955527 0.683925 0.790603
Si Si4 0.399927 0.818571 0.130070
Si Si5 0.835337 0.681535 0.855555
Si Si6 0.298319 0.181331 0.225847
Si Si7 0.180021 0.180449 0.005112
Si Si8 0.576170 0.323887 0.494524
O O1 0.038187 0.500000 0.358507
O O2 0.053133 0.265788 0.286558
O O3 0.078267 0.252529 0.423937
O O4 0.958657 0.276003 0.352118
O O5 0.668457 0.772511 0.698053
O O6 0.617022 0.750790 0.562417
O O7 0.613283 0.000000 0.629742
O O8 0.956125 0.500000 0.788939
O O9 0.896860 0.729546 0.824920
O O10 0.026851 0.729028 0.833522
O O11 0.350987 0.791181 0.179888
O O12 0.372251 0.734431 0.060546
O O13 0.399893 0.000000 0.118060
O O14 0.836209 0.500000 0.862774
O O15 0.768153 0.733347 0.806079
O O16 0.837599 0.756717 0.927414
O O17 0.286636 0.000000 0.224596
O O18 0.185303 0.000000 0.007836
O O19 0.250000 0.250000 0.000000
O O20 0.500000 0.307559 0.500000
O O21 0.591338 0.500000 0.493013
#
# Coordination Sequence:
#
# PCOD9183826 Si02
#       8
#     8   8   8   8   8   8   8   8
#     4   9  15  29  52  75 101 137 179 219 259 312
#     4   9  16  28  50  78 103 135 179 224 264 310
#     4   9  19  36  58  83 110 144 184 222 265 323
#     4  10  19  36  61  84 107 140 182 225 268 317
#     4  11  23  38  57  82 112 145 180 219 270 329
#     4  10  19  33  56  82 108 139 181 229 271 315
#     4  12  24  39  58  82 110 142 181 224 272 323
#     4   9  17  27  41  71 111 143 170 212 269 319
#
# _framework density 17.391921
#
# number of rings (size 3 to 8) (size 9 to 14) (size 15 to 20)
#    0.000    2.125    2.500    1.875    0.000    2.500 
#    0.000    5.625    0.000    0.750    0.000    0.000 
#    0.000    0.000    0.000    0.000    0.000    0.000 
#
# Total GULP energy -178550.468384 kJ/mol
# GULP energy per Si atom -5579.702137 kJ/mol
# Density = 1.735234 g / cm^3
# Si number density = 17.391921 Si / 1000 Ang^3
#
#
#
# Elastic Constant Matrix: (Units=GPa)
#
#
# Indices 1 2 3 4 5 6 
#
# 1 100.2877 40.0424 75.8105 0.0000 -5.4122 0.0000
# 2 40.0424 46.8344 60.9829 0.0000 1.8398 0.0000
# 3 75.8105 60.9829 199.1572 0.0000 5.0262 0.0000
# 4 0.0000 0.0000 0.0000 26.8578 0.0000 6.4491
# 5 -5.4122 1.8398 5.0262 0.0000 23.5414 0.0000
# 6 0.0000 0.0000 0.0000 6.4491 0.0000 18.7959
#
#
#
# Elastic Compliance Matrix: (Units=1/GPa)
#
#
# Indices 1 2 3 4 5 6 
#
# 1 0.016959 -0.010192 -0.003472 0.000000 0.005437 0.000000
# 2 -0.010192 0.041641 -0.008777 0.000000 -0.003724 0.000000
# 3 -0.003472 -0.008777 0.009082 0.000000 -0.002051 0.000000
# 4 0.000000 0.000000 0.000000 0.040576 0.000000 -0.013922
# 5 0.005437 -0.003724 -0.002051 0.000000 0.044457 0.000000
# 6 0.000000 0.000000 0.000000 -0.013922 0.000000 0.057980
#
#
# Mechanical properties :
#
#
# Convention : Reuss Voigt Hill
#
# Bulk Modulus (GPa) = 43.86065 77.77232 60.81649
# Shear Modulus (GPa) = 18.99871 25.13525 22.06698
#
# Velocity S-wave (km/s) = 3.30871 3.80574 3.56589
# Velocity P-wave (km/s) = 6.31431 8.00788 7.21098
#
# Compressibility (1/GPa) = 0.02279948
#
# Stress axis : x y z
#
# Youngs Moduli (GPa) = 58.96713 24.01507 110.10882
#
# Poissons Ratio (x) = 0.24477 0.38226
# Poissons Ratio (y) = 0.60101 0.96640
# Poissons Ratio (z) = 0.20471 0.21077
#
# Static dielectric constant tensor:
#      x y z
#    x 1.572070 0.000000 0.000760 
#    y 0.000000 1.586570 0.000000 
#    z 0.000760 0.000000 1.588870 
# 
# From -- ./inp_files/319225.got.cif
#   From: 2010.05.17/outbox.cif.g08.bks.cpg/sg12_160_cif.got.tgz:319225.got - 2010.06.03 13:09:07.
