data_PCOD9183779
_publ_section_title
;
Structure prediction by ZEFSAII (Michael W. Deem and Ramdas Pophale) SiO2 
 PCOD9183779
Probable space group: C 2/M
;
_chemical_formula_sum "Si O2"
_cell_formula_units_Z 64
_cell_length_a 24.832543
_cell_length_b 9.415526
_cell_length_c 15.659057
_cell_angle_alpha 90.000000
_cell_angle_beta 106.686018
_cell_angle_gamma 90.000000
_cell_volume 3507.100429
_symmetry_space_group_name_H-M "C 2/M"
_symmetry_group_IT_number 12
_symmetry_cell_setting 'monoclinic'
loop_
_space_group_symop_operation_xyz
x,y,z
-x,y,-z
-x,-y,-z
x,-y,z
1/2+x,1/2+y,z
1/2-x,1/2+y,-z
1/2-x,1/2-y,-z
1/2+x,1/2-y,z
loop_
_atom_site_type_symbol
_atom_site_label
_atom_site_fract_x
_atom_site_fract_y
_atom_site_fract_z
Si Si1 0.432292 0.670640 0.467324
Si Si2 0.643886 0.336190 0.203849
Si Si3 0.096542 0.830264 0.354577
Si Si4 0.005537 0.655277 0.763396
Si Si5 0.620439 0.837990 0.713471
Si Si6 0.178967 0.163974 0.889703
Si Si7 0.685786 0.163539 0.061569
Si Si8 0.510998 0.653635 0.104002
O O1 0.500000 0.708536 0.500000
O O2 0.430616 0.500000 0.451717
O O3 0.402128 0.702084 0.544413
O O4 0.397058 0.753697 0.379732
O O5 0.664394 0.500000 0.207356
O O6 0.642654 0.288186 0.303347
O O7 0.672227 0.237800 0.145848
O O8 0.577731 0.337384 0.149575
O O9 0.038242 0.761465 0.298800
O O10 0.092953 0.000000 0.345388
O O11 0.979340 0.500000 0.757582
O O12 0.018360 0.718803 0.861286
O O13 0.061312 0.649232 0.735062
O O14 0.658564 0.748878 0.796629
O O15 0.641446 0.000000 0.707751
O O16 0.246743 0.160501 0.917679
O O17 0.158759 0.000000 0.880803
O O18 0.163109 0.245435 0.970468
O O19 0.665465 0.000000 0.049804
O O20 0.491620 0.500000 0.129127
O O21 0.500000 0.658637 0.000000
#
# Coordination Sequence:
#
# PCOD9183779 Si02
#       8
#     8   8   8   8   8   8   8   8
#     4  10  19  33  56  80 106 147 188 221 261 313
#     4   9  18  32  52  77 104 139 177 215 262 315
#     4   9  18  34  53  76 105 140 184 218 248 307
#     4  10  20  31  45  70 104 139 173 213 263 307
#     4  11  23  35  51  80 113 142 175 224 275 317
#     4  10  22  39  59  80 105 140 180 221 268 325
#     4  10  21  38  59  83 108 135 174 225 275 323
#     4   9  19  33  47  68  99 138 180 215 249 306
#
# _framework density 18.248692999999999
#
# number of rings (size 3 to 8) (size 9 to 14) (size 15 to 20)
#    0.000    2.250    1.250    2.250    1.750    6.000 
#    0.000    0.000    0.000    0.750    0.000    0.000 
#    0.000    0.000    0.000    0.000    0.000    0.000 
#
# Total GULP energy -178241.874245 kJ/mol
# GULP energy per Si atom -5570.058570 kJ/mol
# Density = 1.820716 g / cm^3
# Si number density = 18.248693 Si / 1000 Ang^3
#
#
#
# Elastic Constant Matrix: (Units=GPa)
#
#
# Indices 1 2 3 4 5 6 
#
# 1 20.9088 22.4158 21.7887 0.0000 -12.3582 0.0000
# 2 22.4158 78.4920 72.1717 0.0000 -10.7503 0.0000
# 3 21.7887 72.1717 136.8713 0.0000 -15.6758 0.0000
# 4 0.0000 0.0000 0.0000 -20.8996 0.0000 -36.7740
# 5 -12.3582 -10.7503 -15.6758 0.0000 29.1312 0.0000
# 6 0.0000 0.0000 0.0000 -36.7740 0.0000 -1.6183
#
#
#
# Elastic Compliance Matrix: (Units=1/GPa)
#
#
# Indices 1 2 3 4 5 6 
#
# 1 0.087875 -0.021920 0.000972 0.000000 0.029713 0.000000
# 2 -0.021920 0.030337 -0.013097 0.000000 -0.005151 0.000000
# 3 0.000972 -0.013097 0.014441 0.000000 0.003350 0.000000
# 4 0.000000 0.000000 0.000000 0.001227 0.000000 -0.027891
# 5 0.029713 -0.005151 0.003350 0.000000 0.046834 0.000000
# 6 0.000000 0.000000 0.000000 -0.027891 0.000000 0.015851
#
#
# Mechanical properties :
#
#
# Convention : Reuss Voigt Hill
#
# Bulk Modulus (GPa) = 15.48852 52.11381 33.80117
# Shear Modulus (GPa) = 17.47169 9.31572 13.39371
#
# Velocity S-wave (km/s) = 3.09758 2.26185 2.71210
# Velocity P-wave (km/s) = 4.61511 5.95322 5.32635
#
# Compressibility (1/GPa) = 0.06456396
#
# Stress axis : x y z
#
# Youngs Moduli (GPa) = 11.37975 32.96292 69.24688
#
# Poissons Ratio (x) = 0.72255 -0.06734
# Poissons Ratio (y) = 0.24945 0.90694
# Poissons Ratio (z) = -0.01107 0.43172
#
# Static dielectric constant tensor:
#      x y z
#    x 1.623890 0.000000 -0.025280 
#    y 0.000000 1.673400 0.000000 
#    z -0.025280 0.000000 1.674310 
# 
# From -- ./inp_files/244031.got.cif
#   From: 2010.05.17/outbox.cif.g08.bks.cpg/sg12_123_cif.got.tgz:244031.got - 2010.06.03 13:09:07.
