data_PCOD9183170
_publ_section_title
;
Structure prediction by ZEFSAII (Michael W. Deem and Ramdas Pophale) SiO2 
 PCOD9183170
Probable space group: C 2/M
;
_chemical_formula_sum "Si O2"
_cell_formula_units_Z 64
_cell_length_a 15.843137
_cell_length_b 7.734697
_cell_length_c 27.705289
_cell_angle_alpha 90.000000
_cell_angle_beta 116.761222
_cell_angle_gamma 90.000000
_cell_volume 3031.415739
_symmetry_space_group_name_H-M "C 2/M"
_symmetry_group_IT_number 12
_symmetry_cell_setting 'monoclinic'
loop_
_space_group_symop_operation_xyz
x,y,z
-x,y,-z
-x,-y,-z
x,-y,z
1/2+x,1/2+y,z
1/2-x,1/2+y,-z
1/2-x,1/2-y,-z
1/2+x,1/2-y,z
loop_
_atom_site_type_symbol
_atom_site_label
_atom_site_fract_x
_atom_site_fract_y
_atom_site_fract_z
Si Si1 0.456398 0.211396 0.063389
Si Si2 0.645604 0.208760 0.060541
Si Si3 0.431746 0.787978 0.258162
Si Si4 0.338640 0.697405 0.555176
Si Si5 0.145293 0.294923 0.333930
Si Si6 0.027101 0.302175 0.558514
Si Si7 0.325574 0.208468 0.326454
Si Si8 0.138843 0.294766 0.863497
O O1 0.562547 0.264199 0.075944
O O2 0.417670 0.274623 0.104562
O O3 0.455672 0.000000 0.063633
O O4 0.388100 0.264271 0.001594
O O5 0.749664 0.269598 0.100253
O O6 0.646579 0.000000 0.060893
O O7 0.539444 0.733426 0.295659
O O8 0.366522 0.730937 0.285965
O O9 0.394964 0.726328 0.196895
O O10 0.430690 0.000000 0.257613
O O11 0.362260 0.500000 0.550528
O O12 0.250000 0.750000 0.500000
O O13 0.318125 0.716471 0.606452
O O14 0.431885 0.803691 0.565581
O O15 0.141331 0.500000 0.339950
O O16 0.218411 0.254888 0.310380
O O17 0.057349 0.500000 0.555552
O O18 0.108889 0.223486 0.612725
O O19 0.000000 0.221329 0.500000
O O20 0.334425 0.000000 0.328855
O O21 0.120409 0.500000 0.857886
#
# Coordination Sequence:
#
# PCOD9183170 Si02
#       8
#     8   8   8   8   8   8   8   8
#     4   8  16  31  52  76 109 149 186 224 281 344
#     4   9  17  32  52  77 109 146 184 233 286 329
#     4   9  20  38  57  77 111 153 185 224 284 343
#     4  12  24  38  59  87 118 149 186 231 280 337
#     4  11  22  40  62  85 112 148 190 232 281 340
#     4  10  20  36  59  84 114 149 184 224 282 340
#     4  10  20  38  59  81 112 148 182 227 287 339
#     4  10  19  33  54  79 106 145 192 230 274 337
#
# _framework density 21.112248999999998
#
# number of rings (size 3 to 8) (size 9 to 14) (size 15 to 20)
#    0.000    2.125    1.250    3.375    0.000    2.750 
#    0.000    5.000    0.000    0.000    0.000    0.000 
#    0.000    0.000    0.000    0.000    0.000    0.000 
#
# Total GULP energy -178757.595534 kJ/mol
# GULP energy per Si atom -5586.174860 kJ/mol
# Density = 2.106420 g / cm^3
# Si number density = 21.112249 Si / 1000 Ang^3
#
#
#
# Elastic Constant Matrix: (Units=GPa)
#
#
# Indices 1 2 3 4 5 6 
#
# 1 145.4980 -4.0566 82.6501 0.0000 -25.7022 0.0000
# 2 -4.0566 40.3446 10.7592 0.0000 -3.5128 0.0000
# 3 82.6501 10.7592 145.1512 0.0000 -31.2027 0.0000
# 4 0.0000 0.0000 0.0000 5.8675 0.0000 -0.1073
# 5 -25.7022 -3.5128 -31.2027 0.0000 15.5446 0.0000
# 6 0.0000 0.0000 0.0000 -0.1073 0.0000 11.1179
#
#
#
# Elastic Compliance Matrix: (Units=1/GPa)
#
#
# Indices 1 2 3 4 5 6 
#
# 1 0.011352 0.003246 -0.004418 0.000000 0.010634 0.000000
# 2 0.003246 0.026319 -0.002404 0.000000 0.006488 0.000000
# 3 -0.004418 -0.002404 0.013890 0.000000 0.020032 0.000000
# 4 0.000000 0.000000 0.000000 0.170461 0.000000 0.001646
# 5 0.010634 0.006488 0.020032 0.000000 0.123589 0.000000
# 6 0.000000 0.000000 0.000000 0.001646 0.000000 0.089961
#
#
# Mechanical properties :
#
#
# Convention : Reuss Voigt Hill
#
# Bulk Modulus (GPa) = 22.51941 56.63326 39.57634
# Shear Modulus (GPa) = 10.92830 22.61540 16.77185
#
# Velocity S-wave (km/s) = 2.27761 3.27647 2.82159
# Velocity P-wave (km/s) = 4.19599 6.41847 5.42232
#
# Compressibility (1/GPa) = 0.04440614
#
# Stress axis : x y z
#
# Youngs Moduli (GPa) = 88.09158 37.99553 71.99634
#
# Poissons Ratio (x) = -0.12332 0.31811
# Poissons Ratio (y) = -0.28591 0.17310
# Poissons Ratio (z) = 0.38923 0.09135
#
# Static dielectric constant tensor:
#      x y z
#    x 1.772970 0.000000 -0.018640 
#    y 0.000000 2.093220 0.000000 
#    z -0.018640 0.000000 1.745810 
# 
# From -- ./inp_files/360007.got.cif
#   From: 2010.05.17/outbox.cif.g08.bks.cpg/sg12_181_cif.got.tgz:360007.got - 2010.06.03 13:09:07.
