data_PCOD9183981
_publ_section_title
;
Structure prediction by ZEFSAII (Michael W. Deem and Ramdas Pophale) SiO2 
 PCOD9183981
Probable space group: C 2/M
;
_chemical_formula_sum "Si O2"
_cell_formula_units_Z 64
_cell_length_a 26.793660
_cell_length_b 14.028749
_cell_length_c 9.981662
_cell_angle_alpha 90.000000
_cell_angle_beta 68.680568
_cell_angle_gamma 90.000000
_cell_volume 3495.170752
_symmetry_space_group_name_H-M "C 2/M"
_symmetry_group_IT_number 12
_symmetry_cell_setting 'monoclinic'
loop_
_space_group_symop_operation_xyz
x,y,z
-x,y,-z
-x,-y,-z
x,-y,z
1/2+x,1/2+y,z
1/2-x,1/2+y,-z
1/2-x,1/2-y,-z
1/2+x,1/2-y,z
loop_
_atom_site_type_symbol
_atom_site_label
_atom_site_fract_x
_atom_site_fract_y
_atom_site_fract_z
Si Si1 0.268858 0.657543 0.901438
Si Si2 0.149977 0.395834 0.992812
Si Si3 0.344775 0.108638 0.333479
Si Si4 0.778347 0.113179 0.590105
Si Si5 0.438502 0.388378 0.604228
Si Si6 0.616060 0.298627 0.591209
Si Si7 0.059373 0.114176 0.894106
Si Si8 0.380466 0.316016 0.910429
O O1 0.280270 0.666478 0.731695
O O2 0.325340 0.633201 0.915610
O O3 0.250000 0.750000 0.000000
O O4 0.213838 0.598529 0.958357
O O5 0.126577 0.500000 0.052291
O O6 0.127942 0.298927 0.081303
O O7 0.144440 0.383181 0.837032
O O8 0.280921 0.125241 0.411544
O O9 0.376468 0.187963 0.383696
O O10 0.356762 0.000000 0.361242
O O11 0.825702 0.151855 0.451708
O O12 0.785641 0.000000 0.609262
O O13 0.500000 0.381437 0.500000
O O14 0.422867 0.500000 0.609985
O O15 0.403874 0.325628 0.536274
O O16 0.426266 0.350661 0.764112
O O17 0.574821 0.343972 0.735884
O O18 0.102298 0.152337 0.959138
O O19 0.061307 0.000000 0.887081
O O20 0.000000 0.142617 0.000000
#
# Coordination Sequence:
#
# PCOD9183981 Si02
#       8
#     8   8   8   8   8   8   8   8
#     4   9  18  31  55  83 116 150 189 227 274 337
#     4   9  18  35  58  86 117 151 190 231 280 336
#     4   9  19  36  58  84 117 154 190 231 278 339
#     4  10  19  33  56  86 120 155 189 228 283 347
#     4  11  24  40  60  85 113 150 192 236 294 353
#     4  12  21  37  61  85 116 154 195 234 288 351
#     4  11  24  39  56  82 115 148 191 249 299 338
#     4  11  20  37  60  85 112 151 195 237 282 343
#
# _framework density 18.310979
#
# number of rings (size 3 to 8) (size 9 to 14) (size 15 to 20)
#    0.000    1.750    2.500    3.750    0.000    3.500 
#    0.000    0.625    0.000    4.500    0.000    0.000 
#    0.000    0.000    0.000    0.000    0.000    0.000 
#
# Total GULP energy -178446.579101 kJ/mol
# GULP energy per Si atom -5576.455597 kJ/mol
# Density = 1.826930 g / cm^3
# Si number density = 18.310979 Si / 1000 Ang^3
#
#
#
# Elastic Constant Matrix: (Units=GPa)
#
#
# Indices 1 2 3 4 5 6 
#
# 1 35.2810 23.8997 -5.0707 0.0000 -4.7336 0.0000
# 2 23.8997 108.7171 18.0783 0.0000 -2.5562 0.0000
# 3 -5.0707 18.0783 40.7172 0.0000 -12.5807 0.0000
# 4 0.0000 0.0000 0.0000 30.4819 0.0000 9.6526
# 5 -4.7336 -2.5562 -12.5807 0.0000 26.7772 0.0000
# 6 0.0000 0.0000 0.0000 9.6526 0.0000 34.6527
#
#
#
# Elastic Compliance Matrix: (Units=1/GPa)
#
#
# Indices 1 2 3 4 5 6 
#
# 1 0.038979 -0.010488 0.013255 0.000000 0.012117 0.000000
# 2 -0.010488 0.012793 -0.008401 0.000000 -0.004580 0.000000
# 3 0.013255 -0.008401 0.035582 0.000000 0.018258 0.000000
# 4 0.000000 0.000000 0.000000 0.035980 0.000000 -0.010022
# 5 0.012117 -0.004580 0.018258 0.000000 0.047628 0.000000
# 6 0.000000 0.000000 0.000000 -0.010022 0.000000 0.031650
#
#
# Mechanical properties :
#
#
# Convention : Reuss Voigt Hill
#
# Bulk Modulus (GPa) = 13.14322 28.72557 20.93439
# Shear Modulus (GPa) = 20.89921 28.23623 24.56772
#
# Velocity S-wave (km/s) = 3.38205 3.93114 3.66689
# Velocity P-wave (km/s) = 4.73755 6.02717 5.42085
#
# Compressibility (1/GPa) = 0.07608487
#
# Stress axis : x y z
#
# Youngs Moduli (GPa) = 25.65461 78.16652 28.10418
#
# Poissons Ratio (x) = 0.81983 -0.37251
# Poissons Ratio (y) = 0.26907 0.23611
# Poissons Ratio (z) = -0.34005 0.65671
#
# Static dielectric constant tensor:
#      x y z
#    x 1.647890 0.000000 -0.012220 
#    y 0.000000 1.628410 0.000000 
#    z -0.012220 0.000000 1.609400 
# 
# From -- ./inp_files/104503.got.cif
#   From: 2010.05.17/outbox.cif.g08.bks.cpg/sg12_53_cif.got.tgz:104503.got - 2010.06.03 13:09:07.
