data_PCOD9183197
_publ_section_title
;
Structure prediction by ZEFSAII (Michael W. Deem and Ramdas Pophale) SiO2 
 PCOD9183197
Probable space group: C 2/M
;
_chemical_formula_sum "Si O2"
_cell_formula_units_Z 52
_cell_length_a 18.454717
_cell_length_b 20.064350
_cell_length_c 7.679819
_cell_angle_alpha 90.000000
_cell_angle_beta 132.843140
_cell_angle_gamma 90.000000
_cell_volume 2085.050776
_symmetry_space_group_name_H-M "C 2/M"
_symmetry_group_IT_number 12
_symmetry_cell_setting 'monoclinic'
loop_
_space_group_symop_operation_xyz
x,y,z
-x,y,-z
-x,-y,-z
x,-y,z
1/2+x,1/2+y,z
1/2-x,1/2+y,-z
1/2-x,1/2-y,-z
1/2+x,1/2-y,z
loop_
_atom_site_type_symbol
_atom_site_label
_atom_site_fract_x
_atom_site_fract_y
_atom_site_fract_z
Si Si1 0.083829 0.399038 0.275699
Si Si2 0.955571 0.924902 0.193140
Si Si3 0.404851 0.260729 0.728867
Si Si4 0.703394 0.823300 0.922721
Si Si5 0.000000 0.627914 0.500000
Si Si6 0.713691 0.621940 0.303769
Si Si7 0.373929 0.643554 0.396544
O O1 0.096695 0.318534 0.273536
O O2 0.043501 0.412035 0.405746
O O3 0.199856 0.418812 0.457750
O O4 0.000000 0.420441 0.000000
O O5 0.914633 0.873766 0.271935
O O6 0.072023 0.908460 0.387348
O O7 0.940310 0.000000 0.228856
O O8 0.887976 0.914480 0.915345
O O9 0.317664 0.307109 0.663331
O O10 0.406752 0.286629 0.533594
O O11 0.500000 0.279786 0.000000
O O12 0.586428 0.828779 0.731661
O O13 0.736587 0.859010 0.799942
O O14 0.750000 0.750000 0.000000
O O15 0.756738 0.857778 0.175107
#
# Coordination Sequence:
#
# PCOD9183197 Si02
#       7
#     8   8   8   8   4   8   8
#     4  10  23  36  58  83 121 165 196 238 283 359
#     4  10  21  39  61  83 111 148 199 255 299 343
#     4  11  21  33  51  85 123 156 185 236 290 355
#     4  10  22  33  55  78 112 156 193 238 276 350
#     4  10  22  38  48  82 113 160 203 236 280 328
#     4  10  21  38  53  83 117 153 194 240 300 341
#     4  10  19  33  54  80 105 147 187 230 288 347
#
# _framework density 24.939440000000001
#
# number of rings (size 3 to 8) (size 9 to 14) (size 15 to 20)
#    0.000    1.846    1.538    3.231    6.462    3.692 
#    0.000    2.308    0.000    0.462    0.000   53.846 
#    0.000    0.000    0.000    0.000    0.000    0.000 
#
# Total GULP energy -145095.320393 kJ/mol
# GULP energy per Si atom -5580.589246 kJ/mol
# Density = 2.488268 g / cm^3
# Si number density = 24.939440 Si / 1000 Ang^3
#
#
#
# Elastic Constant Matrix: (Units=GPa)
#
#
# Indices 1 2 3 4 5 6 
#
# 1 68.4619 4.4708 56.2197 0.0000 -7.1522 0.0000
# 2 4.4708 59.4647 29.9285 0.0000 5.9873 0.0000
# 3 56.2197 29.9285 251.9752 0.0000 24.8791 0.0000
# 4 0.0000 0.0000 0.0000 -9.8881 0.0000 1.4271
# 5 -7.1522 5.9873 24.8791 0.0000 48.9275 0.0000
# 6 0.0000 0.0000 0.0000 1.4271 0.0000 -11.3878
#
#
#
# Elastic Compliance Matrix: (Units=1/GPa)
#
#
# Indices 1 2 3 4 5 6 
#
# 1 0.019080 0.000472 -0.004825 0.000000 0.005185 0.000000
# 2 0.000472 0.017961 -0.002136 0.000000 -0.001043 0.000000
# 3 -0.004825 -0.002136 0.005625 0.000000 -0.003304 0.000000
# 4 0.000000 0.000000 0.000000 -0.102995 0.000000 -0.012907
# 5 0.005185 -0.001043 -0.003304 0.000000 0.023004 0.000000
# 6 0.000000 0.000000 0.000000 -0.012907 0.000000 -0.089431
#
#
# Mechanical properties :
#
#
# Convention : Reuss Voigt Hill
#
# Bulk Modulus (GPa) = 33.68316 62.34884 48.01600
# Shear Modulus (GPa) = -48.13149 24.81585 -11.65782
#
# Velocity S-wave (km/s) = -4.39787 3.15785 -2.16439
# Velocity P-wave (km/s) = 3.50043 6.19277 3.61230
#
# Compressibility (1/GPa) = 0.02968843
#
# Stress axis : x y z
#
# Youngs Moduli (GPa) = 52.41185 55.67586 177.77536
#
# Poissons Ratio (x) = -0.02627 0.85776
# Poissons Ratio (y) = -0.02473 0.37966
# Poissons Ratio (z) = 0.25288 0.11890
#
# Static dielectric constant tensor:
#      x y z
#    x 2.094580 0.000000 0.035900 
#    y 0.000000 1.938700 0.000000 
#    z 0.035900 0.000000 2.083000 
# 
# From -- ./inp_files/90726.got.cif
#   From: 2010.05.17/outbox.cif.g08.bks.cpg/sg12_46_cif.got.tgz:90726.got - 2010.06.03 13:09:07.
