data_PCOD9183588
_publ_section_title
;
Structure prediction by ZEFSAII (Michael W. Deem and Ramdas Pophale) SiO2 
 PCOD9183588
Probable space group: C 2/M
;
_chemical_formula_sum "Si O2"
_cell_formula_units_Z 64
_cell_length_a 30.194292
_cell_length_b 8.520299
_cell_length_c 13.052541
_cell_angle_alpha 90.000000
_cell_angle_beta 100.894637
_cell_angle_gamma 90.000000
_cell_volume 3297.431682
_symmetry_space_group_name_H-M "C 2/M"
_symmetry_group_IT_number 12
_symmetry_cell_setting 'monoclinic'
loop_
_space_group_symop_operation_xyz
x,y,z
-x,y,-z
-x,-y,-z
x,-y,z
1/2+x,1/2+y,z
1/2-x,1/2+y,-z
1/2-x,1/2-y,-z
1/2+x,1/2-y,z
loop_
_atom_site_type_symbol
_atom_site_label
_atom_site_fract_x
_atom_site_fract_y
_atom_site_fract_z
Si Si1 0.320470 0.316966 0.605166
Si Si2 0.143351 0.810935 0.008122
Si Si3 0.450094 0.310386 0.945611
Si Si4 0.212351 0.312625 0.203956
Si Si5 0.646592 0.811651 0.590363
Si Si6 0.547366 0.812629 0.482039
Si Si7 0.189380 0.810158 0.817929
Si Si8 0.085587 0.316088 0.282075
O O1 0.311269 0.500000 0.591456
O O2 0.288750 0.244818 0.679021
O O3 0.323217 0.242325 0.493428
O O4 0.370278 0.284849 0.673552
O O5 0.166203 0.754694 0.912866
O O6 0.146200 0.000000 0.011242
O O7 0.090696 0.768067 0.995358
O O8 0.170703 0.749579 0.118474
O O9 0.450091 0.500000 0.935402
O O10 0.436778 0.234820 0.832341
O O11 0.500000 0.261021 0.000000
O O12 0.210364 0.500000 0.203928
O O13 0.258492 0.260780 0.169162
O O14 0.594935 0.754033 0.548872
O O15 0.664554 0.749547 0.705615
O O16 0.646283 0.000000 0.589741
O O17 0.500000 0.745457 0.500000
O O18 0.551924 0.794411 0.362291
O O19 0.547017 0.000000 0.503929
O O20 0.188154 0.000000 0.817139
O O21 0.099183 0.500000 0.286093
#
# Coordination Sequence:
#
# PCOD9183588 Si02
#       8
#     8   8   8   8   8   8   8   8
#     4  11  21  36  60  84 112 150 187 232 290 350
#     4  10  21  39  60  82 115 158 197 236 286 344
#     4  10  21  36  55  82 116 154 192 233 286 341
#     4  11  22  37  60  87 113 146 195 246 289 341
#     4  10  21  37  58  85 116 151 193 239 287 340
#     4   8  16  32  54  80 110 144 183 231 285 335
#     4  10  23  40  57  82 118 156 192 237 292 346
#     4  10  19  33  55  82 111 144 188 239 284 335
#
# _framework density 19.409046
#
# number of rings (size 3 to 8) (size 9 to 14) (size 15 to 20)
#    0.000    2.000    1.250    3.375    0.000    3.250 
#    0.000    0.000    0.000   12.750    0.000    0.000 
#    0.000    0.000    0.000    0.000    0.000    0.000 
#
# Total GULP energy -178641.706330 kJ/mol
# GULP energy per Si atom -5582.553323 kJ/mol
# Density = 1.936487 g / cm^3
# Si number density = 19.409046 Si / 1000 Ang^3
#
#
#
# Elastic Constant Matrix: (Units=GPa)
#
#
# Indices 1 2 3 4 5 6 
#
# 1 107.3761 17.5094 34.1128 0.0000 -19.4175 0.0000
# 2 17.5094 14.8688 7.7801 0.0000 -7.7170 0.0000
# 3 34.1128 7.7801 82.5794 0.0000 -8.1519 0.0000
# 4 0.0000 0.0000 0.0000 26.9648 0.0000 -2.9607
# 5 -19.4175 -7.7170 -8.1519 0.0000 22.6058 0.0000
# 6 0.0000 0.0000 0.0000 -2.9607 0.0000 4.3148
#
#
#
# Elastic Compliance Matrix: (Units=1/GPa)
#
#
# Indices 1 2 3 4 5 6 
#
# 1 0.013441 -0.010350 -0.003926 0.000000 0.006596 0.000000
# 2 -0.010350 0.091857 -0.002241 0.000000 0.021659 0.000000
# 3 -0.003926 -0.002241 0.014034 0.000000 0.000923 0.000000
# 4 0.000000 0.000000 0.000000 0.040107 0.000000 0.027521
# 5 0.006596 0.021659 0.000923 0.000000 0.057629 0.000000
# 6 0.000000 0.000000 0.000000 0.027521 0.000000 0.250647
#
#
# Mechanical properties :
#
#
# Convention : Reuss Voigt Hill
#
# Bulk Modulus (GPa) = 11.58777 35.95876 23.77327
# Shear Modulus (GPa) = 9.44262 20.47188 14.95725
#
# Velocity S-wave (km/s) = 2.20808 3.25123 2.77904
# Velocity P-wave (km/s) = 3.53328 5.71498 4.75106
#
# Compressibility (1/GPa) = 0.08629787
#
# Stress axis : x y z
#
# Youngs Moduli (GPa) = 74.39960 10.88651 71.25739
#
# Poissons Ratio (x) = 0.11268 0.27976
# Poissons Ratio (y) = 0.77005 0.15965
# Poissons Ratio (z) = 0.29210 0.02439
#
# Static dielectric constant tensor:
#      x y z
#    x 1.706200 0.000000 -0.024170 
#    y 0.000000 1.663910 0.000000 
#    z -0.024170 0.000000 1.650740 
# 
# From -- ./inp_files/187595.got.cif
#   From: 2010.05.17/outbox.cif.g08.bks.cpg/sg12_94_cif.got.tgz:187595.got - 2010.06.03 13:09:07.
