data_PCOD9183165
_publ_section_title
;
Structure prediction by ZEFSAII (Michael W. Deem and Ramdas Pophale) SiO2 
 PCOD9183165
Probable space group: C 2/M
;
_chemical_formula_sum "Si O2"
_cell_formula_units_Z 64
_cell_length_a 18.118892
_cell_length_b 15.560648
_cell_length_c 13.085511
_cell_angle_alpha 90.000000
_cell_angle_beta 63.448509
_cell_angle_gamma 90.000000
_cell_volume 3300.246448
_symmetry_space_group_name_H-M "C 2/M"
_symmetry_group_IT_number 12
_symmetry_cell_setting 'monoclinic'
loop_
_space_group_symop_operation_xyz
x,y,z
-x,y,-z
-x,-y,-z
x,-y,z
1/2+x,1/2+y,z
1/2-x,1/2+y,-z
1/2-x,1/2-y,-z
1/2+x,1/2-y,z
loop_
_atom_site_type_symbol
_atom_site_label
_atom_site_fract_x
_atom_site_fract_y
_atom_site_fract_z
Si Si1 0.650480 0.341724 0.154986
Si Si2 0.666273 0.095674 0.984560
Si Si3 0.648562 0.403744 0.767483
Si Si4 0.021045 0.094337 0.669101
Si Si5 0.880464 0.342162 0.764139
Si Si6 0.044784 0.719733 0.580906
Si Si7 0.403735 0.273594 0.033729
Si Si8 0.175340 0.402548 0.422301
O O1 0.576578 0.392682 0.254531
O O2 0.662797 0.251535 0.206734
O O3 0.735888 0.390801 0.090852
O O4 0.618422 0.312262 0.063336
O O5 0.645140 0.109048 0.117665
O O6 0.642022 0.000000 0.967561
O O7 0.622357 0.174061 0.953385
O O8 0.657141 0.500000 0.807998
O O9 0.566152 0.402824 0.750912
O O10 0.644635 0.330444 0.853877
O O11 0.726552 0.391415 0.644924
O O12 0.053987 0.178774 0.591880
O O13 0.038367 0.000000 0.613273
O O14 0.855502 0.389876 0.675902
O O15 0.978323 0.319119 0.701701
O O16 0.128232 0.665979 0.521256
O O17 0.000000 0.708357 0.500000
O O18 0.500000 0.281456 0.000000
O O19 0.155821 0.500000 0.466317
#
# Coordination Sequence:
#
# PCOD9183165 Si02
#       8
#     8   8   8   8   8   8   8   8
#     4  10  19  35  54  81 111 145 185 225 273 321
#     4  11  22  34  55  82 114 155 191 223 264 325
#     4  10  21  35  55  82 106 137 179 224 279 328
#     4  10  20  35  55  78 107 137 174 224 275 329
#     4   9  18  33  53  77 107 138 181 226 271 315
#     4   9  20  35  54  78 102 134 176 221 275 325
#     4  11  21  36  56  81 117 150 182 226 275 328
#     4  10  19  33  54  79 106 135 174 226 272 319
#
# _framework density 19.392491
#
# number of rings (size 3 to 8) (size 9 to 14) (size 15 to 20)
#    0.000    2.000    1.250    3.750    0.000    6.000 
#    0.000    0.000    0.000    0.750    0.000    0.000 
#    0.000    0.000    0.000    0.000    0.000    0.000 
#
# Total GULP energy -178587.969147 kJ/mol
# GULP energy per Si atom -5580.874036 kJ/mol
# Density = 1.934835 g / cm^3
# Si number density = 19.392491 Si / 1000 Ang^3
#
#
#
# Elastic Constant Matrix: (Units=GPa)
#
#
# Indices 1 2 3 4 5 6 
#
# 1 31.8704 12.1255 5.3124 0.0000 -13.1627 0.0000
# 2 12.1255 114.3925 46.0442 0.0000 -27.0941 0.0000
# 3 5.3124 46.0442 65.7725 0.0000 -23.5078 0.0000
# 4 0.0000 0.0000 0.0000 24.5437 0.0000 6.9639
# 5 -13.1627 -27.0941 -23.5078 0.0000 18.4623 0.0000
# 6 0.0000 0.0000 0.0000 6.9639 0.0000 3.1664
#
#
#
# Elastic Compliance Matrix: (Units=1/GPa)
#
#
# Indices 1 2 3 4 5 6 
#
# 1 0.053600 0.002648 0.016267 0.000000 0.062814 0.000000
# 2 0.002648 0.014233 -0.003739 0.000000 0.018014 0.000000
# 3 0.016267 -0.003739 0.034302 0.000000 0.049787 0.000000
# 4 0.000000 0.000000 0.000000 0.108363 0.000000 -0.238319
# 5 0.062814 0.018014 0.049787 0.000000 0.188777 0.000000
# 6 0.000000 0.000000 0.000000 -0.238319 0.000000 0.839939
#
#
# Mechanical properties :
#
#
# Convention : Reuss Voigt Hill
#
# Bulk Modulus (GPa) = 7.54787 37.66662 22.60724
# Shear Modulus (GPa) = 3.99035 19.13804 11.56419
#
# Velocity S-wave (km/s) = 1.43602 3.14487 2.44462
# Velocity P-wave (km/s) = 2.57879 5.71423 4.43298
#
# Compressibility (1/GPa) = 0.13248777
#
# Stress axis : x y z
#
# Youngs Moduli (GPa) = 18.65655 70.25976 29.15289
#
# Poissons Ratio (x) = -0.18607 -0.47423
# Poissons Ratio (y) = -0.04941 0.10901
# Poissons Ratio (z) = -0.30349 0.26271
#
# Static dielectric constant tensor:
#      x y z
#    x 1.674860 0.000000 -0.018900 
#    y 0.000000 1.690100 0.000000 
#    z -0.018900 0.000000 1.690390 
# 
# From -- ./inp_files/225261.got.cif
#   From: 2010.05.17/outbox.cif.g08.bks.cpg/sg12_113_cif.got.tgz:225261.got - 2010.06.03 13:09:07.
