data_PCOD9183968
_publ_section_title
;
Structure prediction by ZEFSAII (Michael W. Deem and Ramdas Pophale) SiO2 
 PCOD9183968
Probable space group: C 2/M
;
_chemical_formula_sum "Si O2"
_cell_formula_units_Z 56
_cell_length_a 15.326413
_cell_length_b 14.511072
_cell_length_c 12.728370
_cell_angle_alpha 90.000000
_cell_angle_beta 88.442935
_cell_angle_gamma 90.000000
_cell_volume 2829.778372
_symmetry_space_group_name_H-M "C 2/M"
_symmetry_group_IT_number 12
_symmetry_cell_setting 'monoclinic'
loop_
_space_group_symop_operation_xyz
x,y,z
-x,y,-z
-x,-y,-z
x,-y,z
1/2+x,1/2+y,z
1/2-x,1/2+y,-z
1/2-x,1/2-y,-z
1/2+x,1/2-y,z
loop_
_atom_site_type_symbol
_atom_site_label
_atom_site_fract_x
_atom_site_fract_y
_atom_site_fract_z
Si Si1 0.701102 0.755940 0.333842
Si Si2 0.738098 0.896374 0.513449
Si Si3 0.073100 0.099415 0.585473
Si Si4 0.749772 0.192574 0.893571
Si Si5 0.945087 0.610155 0.109966
Si Si6 0.002705 0.757132 0.275542
Si Si7 0.059128 0.107205 0.098661
O O1 0.704286 0.844451 0.410243
O O2 0.755922 0.673860 0.388854
O O3 0.736710 0.754615 0.212501
O O4 0.596862 0.741932 0.328160
O O5 0.838275 0.906256 0.479780
O O6 0.701892 0.000000 0.534089
O O7 0.000000 0.101978 0.500000
O O8 0.068576 0.196395 0.646672
O O9 0.063693 0.000000 0.644997
O O10 0.656957 0.139731 0.893728
O O11 0.838129 0.132217 0.901701
O O12 0.750000 0.250000 0.000000
O O13 0.951735 0.500000 0.122887
O O14 0.982359 0.664869 0.210624
O O15 0.000000 0.633520 0.000000
O O16 0.013488 0.835252 0.189090
O O17 0.052342 0.000000 0.117140
O O18 0.000000 0.129833 0.000000
#
# Coordination Sequence:
#
# PCOD9183968 Si02
#       7
#     8   8   8   8   8   8   8
#     4  10  22  37  59  87 115 154 198 244 299 359
#     4  10  21  38  58  84 119 154 194 243 296 355
#     4  10  19  33  56  86 114 145 185 235 295 354
#     4  11  22  40  64  88 120 161 202 249 307 364
#     4  11  24  41  60  85 119 162 209 250 294 356
#     4  11  20  36  60  83 119 155 197 243 296 354
#     4  10  21  36  58  91 124 153 192 245 303 362
#
# _framework density 19.789535999999998
#
# number of rings (size 3 to 8) (size 9 to 14) (size 15 to 20)
#    0.000    1.571    1.429    4.714    0.000    3.429 
#    0.000    2.857    0.000    0.429    0.000    0.000 
#    0.000    0.000    0.000    0.000    0.000    0.000 
#
# Total GULP energy -155907.294275 kJ/mol
# GULP energy per Si atom -5568.117653 kJ/mol
# Density = 1.974449 g / cm^3
# Si number density = 19.789536 Si / 1000 Ang^3
#
#
#
# Elastic Constant Matrix: (Units=GPa)
#
#
# Indices 1 2 3 4 5 6 
#
# 1 40.0736 -6.3015 25.2563 0.0000 4.0099 0.0000
# 2 -6.3015 112.2790 43.3531 0.0000 8.7040 0.0000
# 3 25.2563 43.3531 82.3591 0.0000 10.0252 0.0000
# 4 0.0000 0.0000 0.0000 17.0808 0.0000 -1.7939
# 5 4.0099 8.7040 10.0252 0.0000 32.4763 0.0000
# 6 0.0000 0.0000 0.0000 -1.7939 0.0000 23.9565
#
#
#
# Elastic Compliance Matrix: (Units=1/GPa)
#
#
# Indices 1 2 3 4 5 6 
#
# 1 0.035785 0.007913 -0.014903 0.000000 -0.001939 0.000000
# 2 0.007913 0.012975 -0.009055 0.000000 -0.001659 0.000000
# 3 -0.014903 -0.009055 0.021778 0.000000 -0.002456 0.000000
# 4 0.000000 0.000000 0.000000 0.059009 0.000000 0.004419
# 5 -0.001939 -0.001659 -0.002456 0.000000 0.032234 0.000000
# 6 0.000000 0.000000 0.000000 0.004419 0.000000 0.042073
#
#
# Mechanical properties :
#
#
# Convention : Reuss Voigt Hill
#
# Bulk Modulus (GPa) = 26.00908 39.92529 32.96718
# Shear Modulus (GPa) = 20.09964 26.19629 23.14797
#
# Velocity S-wave (km/s) = 3.19042 3.64228 3.42381
# Velocity P-wave (km/s) = 5.17137 6.15687 5.68551
#
# Compressibility (1/GPa) = 0.03844811
#
# Stress axis : x y z
#
# Youngs Moduli (GPa) = 27.94448 77.06915 45.91892
#
# Poissons Ratio (x) = -0.60986 0.68435
# Poissons Ratio (y) = -0.22113 0.41579
# Poissons Ratio (z) = 0.41647 0.69784
#
# Static dielectric constant tensor:
#      x y z
#    x 1.635150 0.000000 -0.085860 
#    y 0.000000 1.776520 0.000000 
#    z -0.085860 0.000000 1.683030 
# 
# From -- ./inp_files/143745.got.cif
#   From: 2010.05.17/outbox.cif.g08.bks.cpg/sg12_72_cif.got.tgz:143745.got - 2010.06.03 13:09:07.
