data_PCOD9183607
_publ_section_title
;
Structure prediction by ZEFSAII (Michael W. Deem and Ramdas Pophale) SiO2 
 PCOD9183607
Probable space group: C 2/M
;
_chemical_formula_sum "Si O2"
_cell_formula_units_Z 56
_cell_length_a 23.718944
_cell_length_b 9.429044
_cell_length_c 16.129934
_cell_angle_alpha 90.000000
_cell_angle_beta 53.022686
_cell_angle_gamma 90.000000
_cell_volume 2881.865742
_symmetry_space_group_name_H-M "C 2/M"
_symmetry_group_IT_number 12
_symmetry_cell_setting 'monoclinic'
loop_
_space_group_symop_operation_xyz
x,y,z
-x,y,-z
-x,-y,-z
x,-y,z
1/2+x,1/2+y,z
1/2-x,1/2+y,-z
1/2-x,1/2-y,-z
1/2+x,1/2-y,z
loop_
_atom_site_type_symbol
_atom_site_label
_atom_site_fract_x
_atom_site_fract_y
_atom_site_fract_z
Si Si1 0.818948 0.828957 0.973784
Si Si2 0.176327 0.165046 0.462566
Si Si3 0.396284 0.163456 0.047462
Si Si4 0.456083 0.835325 0.454663
Si Si5 0.466714 0.342836 0.754700
Si Si6 0.041337 0.270414 0.840701
Si Si7 0.175436 0.344321 0.626508
O O1 0.886148 0.810490 0.852288
O O2 0.809262 0.000000 0.992834
O O3 0.750000 0.750000 0.000000
O O4 0.842205 0.748848 0.037719
O O5 0.118543 0.257182 0.467335
O O6 0.172792 0.222943 0.560027
O O7 0.259223 0.183132 0.369077
O O8 0.158272 0.000000 0.473053
O O9 0.418032 0.255943 0.108794
O O10 0.375162 0.000000 0.086960
O O11 0.469923 0.152256 0.931683
O O12 0.500000 0.823796 0.500000
O O13 0.498270 0.763981 0.341238
O O14 0.444244 0.000000 0.445640
O O15 0.469632 0.500000 0.715415
O O16 0.511164 0.341587 0.801407
O O17 0.100967 0.349843 0.736490
O O18 0.190684 0.500000 0.575082
#
# Coordination Sequence:
#
# PCOD9183607 Si02
#       7
#     8   8   8   8   8   8   8
#     4  10  22  41  62  86 119 156 196 241 290 343
#     4  10  21  35  54  82 113 148 189 236 286 338
#     4  10  20  34  57  90 122 154 194 237 285 341
#     4  11  24  41  61  84 113 151 196 245 292 350
#     4  10  22  39  63  90 114 149 195 242 294 348
#     4  10  19  33  59  89 119 152 193 234 284 347
#     4  10  19  33  55  82 114 151 188 229 282 342
#
# _framework density 19.431856
#
# number of rings (size 3 to 8) (size 9 to 14) (size 15 to 20)
#    0.000    1.857    1.429    3.000    0.000    5.714 
#    2.571    2.857    0.000    0.000    0.000    0.000 
#    0.000    0.000    0.000    0.000    0.000    0.000 
#
# Total GULP energy -155947.632672 kJ/mol
# GULP energy per Si atom -5569.558310 kJ/mol
# Density = 1.938763 g / cm^3
# Si number density = 19.431856 Si / 1000 Ang^3
#
#
#
# Elastic Constant Matrix: (Units=GPa)
#
#
# Indices 1 2 3 4 5 6 
#
# 1 155.6611 63.0135 24.9030 0.0000 -5.3791 0.0000
# 2 63.0135 107.3506 24.8265 0.0000 -3.8159 0.0000
# 3 24.9030 24.8265 41.5036 0.0000 -2.4665 0.0000
# 4 0.0000 0.0000 0.0000 8.9657 0.0000 -1.9154
# 5 -5.3791 -3.8159 -2.4665 0.0000 28.3325 0.0000
# 6 0.0000 0.0000 0.0000 -1.9154 0.0000 11.9753
#
#
#
# Elastic Compliance Matrix: (Units=1/GPa)
#
#
# Indices 1 2 3 4 5 6 
#
# 1 0.008663 -0.004485 -0.002466 0.000000 0.000826 0.000000
# 2 -0.004485 0.013156 -0.005150 0.000000 0.000472 0.000000
# 3 -0.002466 -0.005150 0.028734 0.000000 0.001340 0.000000
# 4 0.000000 0.000000 0.000000 0.115482 0.000000 0.018470
# 5 0.000826 0.000472 0.001340 0.000000 0.035632 0.000000
# 6 0.000000 0.000000 0.000000 0.018470 0.000000 0.086459
#
#
# Mechanical properties :
#
#
# Convention : Reuss Voigt Hill
#
# Bulk Modulus (GPa) = 37.95029 58.88904 48.41966
# Shear Modulus (GPa) = 15.57085 22.63953 19.10519
#
# Velocity S-wave (km/s) = 2.83380 3.41702 3.13899
# Velocity P-wave (km/s) = 5.50269 6.77785 6.17328
#
# Compressibility (1/GPa) = 0.02635026
#
# Stress axis : x y z
#
# Youngs Moduli (GPa) = 115.43333 76.01076 34.80175
#
# Poissons Ratio (x) = 0.34094 0.08581
# Poissons Ratio (y) = 0.51777 0.17924
# Poissons Ratio (z) = 0.28463 0.39147
#
# Static dielectric constant tensor:
#      x y z
#    x 1.713000 0.000000 -0.006510 
#    y 0.000000 1.685300 0.000000 
#    z -0.006510 0.000000 1.689420 
# 
# From -- ./inp_files/238309.got.cif
#   From: 2010.05.17/outbox.cif.g08.bks.cpg/sg12_120_cif.got.tgz:238309.got - 2010.06.03 13:09:07.
