data_PCOD9183001
_publ_section_title
;
Structure prediction by ZEFSAII (Michael W. Deem and Ramdas Pophale) SiO2 
 PCOD9183001
Probable space group: C 2/M
;
_chemical_formula_sum "Si O2"
_cell_formula_units_Z 56
_cell_length_a 8.300293
_cell_length_b 21.153039
_cell_length_c 18.840150
_cell_angle_alpha 90.000000
_cell_angle_beta 64.925743
_cell_angle_gamma 90.000000
_cell_volume 2996.148616
_symmetry_space_group_name_H-M "C 2/M"
_symmetry_group_IT_number 12
_symmetry_cell_setting 'monoclinic'
loop_
_space_group_symop_operation_xyz
x,y,z
-x,y,-z
-x,-y,-z
x,-y,z
1/2+x,1/2+y,z
1/2-x,1/2+y,-z
1/2-x,1/2-y,-z
1/2+x,1/2-y,z
loop_
_atom_site_type_symbol
_atom_site_label
_atom_site_fract_x
_atom_site_fract_y
_atom_site_fract_z
Si Si1 0.671805 0.768246 0.438602
Si Si2 0.009867 0.425214 0.327691
Si Si3 0.477263 0.923588 0.833815
Si Si4 0.862021 0.122525 0.327726
Si Si5 0.887451 0.873746 0.589816
Si Si6 0.186748 0.923227 0.999950
Si Si7 0.356072 0.423610 0.828671
O O1 0.500000 0.806247 0.500000
O O2 0.750000 0.750000 0.500000
O O3 0.798528 0.808473 0.365015
O O4 0.619720 0.703008 0.409787
O O5 0.983337 0.500000 0.329414
O O6 0.064713 0.402213 0.238094
O O7 0.816285 0.395710 0.378304
O O8 0.173147 0.411691 0.350009
O O9 0.346088 0.900059 0.920006
O O10 0.680775 0.909839 0.815301
O O11 0.460274 0.000000 0.837212
O O12 0.999853 0.101433 0.363894
O O13 0.976536 0.112623 0.235327
O O14 0.000000 0.892763 0.500000
O O15 0.195961 0.000000 0.998233
O O16 0.187562 0.905541 0.082242
O O17 0.000000 0.905088 0.000000
O O18 0.390599 0.500000 0.819818
#
# Coordination Sequence:
#
# PCOD9183001 Si02
#       7
#     8   8   8   8   8   8   8
#     4  11  21  41  66  86 108 141 200 265 305 342
#     4  11  24  39  58  89 129 163 197 240 296 370
#     4   9  17  32  51  77 118 162 199 236 279 342
#     4  12  23  37  64  88 117 154 199 249 309 352
#     4  11  24  42  63  86 115 154 199 258 306 354
#     4   9  16  27  48  78 114 156 200 237 277 339
#     4  10  19  33  53  82 122 160 191 234 296 360
#
# _framework density 18.690662
#
# number of rings (size 3 to 8) (size 9 to 14) (size 15 to 20)
#    0.000    1.571    4.286    2.571    0.000    4.857 
#    0.000    0.714    0.000    0.000    0.000    1.000 
#    4.286    0.143    0.000    0.000    0.000    0.000 
#
# Total GULP energy -155990.834070 kJ/mol
# GULP energy per Si atom -5571.101217 kJ/mol
# Density = 1.864812 g / cm^3
# Si number density = 18.690662 Si / 1000 Ang^3
#
#
#
# Elastic Constant Matrix: (Units=GPa)
#
#
# Indices 1 2 3 4 5 6 
#
# 1 106.3187 20.0098 51.8629 0.0000 -18.4576 0.0000
# 2 20.0098 33.2666 32.2253 0.0000 -8.3762 0.0000
# 3 51.8629 32.2253 117.4539 0.0000 -27.4437 0.0000
# 4 0.0000 0.0000 0.0000 -7.1406 0.0000 -1.8511
# 5 -18.4576 -8.3762 -27.4437 0.0000 34.9734 0.0000
# 6 0.0000 0.0000 0.0000 -1.8511 0.0000 20.1140
#
#
#
# Elastic Compliance Matrix: (Units=1/GPa)
#
#
# Indices 1 2 3 4 5 6 
#
# 1 0.012387 -0.002839 -0.004068 0.000000 0.002665 0.000000
# 2 -0.002839 0.041634 -0.010028 0.000000 0.000604 0.000000
# 3 -0.004068 -0.010028 0.014693 0.000000 0.006981 0.000000
# 4 0.000000 0.000000 0.000000 -0.136781 0.000000 -0.012588
# 5 0.002665 0.000604 0.006981 0.000000 0.035622 0.000000
# 6 0.000000 0.000000 0.000000 -0.012588 0.000000 0.048558
#
#
# Mechanical properties :
#
#
# Convention : Reuss Voigt Hill
#
# Bulk Modulus (GPa) = 28.69974 51.69280 40.19627
# Shear Modulus (GPa) = 81.17048 19.78543 50.47796
#
# Velocity S-wave (km/s) = 6.59717 3.25710 5.20247
# Velocity P-wave (km/s) = 8.56847 6.47009 7.59212
#
# Compressibility (1/GPa) = 0.03484352
#
# Stress axis : x y z
#
# Youngs Moduli (GPa) = 80.72916 24.01863 68.06105
#
# Poissons Ratio (x) = 0.06819 0.27687
# Poissons Ratio (y) = 0.22920 0.68253
# Poissons Ratio (z) = 0.32840 0.24086
#
# Static dielectric constant tensor:
#      x y z
#    x 1.680580 0.000000 0.009410 
#    y 0.000000 1.641290 0.000000 
#    z 0.009410 0.000000 1.670920 
# 
# From -- ./inp_files/258863.got.cif
#   From: 2010.05.17/outbox.cif.g08.bks.cpg/sg12_130_cif.got.tgz:258863.got - 2010.06.03 13:09:07.
