data_PCOD9183272
_publ_section_title
;
Structure prediction by ZEFSAII (Michael W. Deem and Ramdas Pophale) SiO2 
 PCOD9183272
Probable space group: C 2/M
;
_chemical_formula_sum "Si O2"
_cell_formula_units_Z 64
_cell_length_a 32.395313
_cell_length_b 13.656796
_cell_length_c 23.774130
_cell_angle_alpha 90.000000
_cell_angle_beta 162.461839
_cell_angle_gamma 90.000000
_cell_volume 3169.522046
_symmetry_space_group_name_H-M "C 2/M"
_symmetry_group_IT_number 12
_symmetry_cell_setting 'monoclinic'
loop_
_space_group_symop_operation_xyz
x,y,z
-x,y,-z
-x,-y,-z
x,-y,z
1/2+x,1/2+y,z
1/2-x,1/2+y,-z
1/2-x,1/2-y,-z
1/2+x,1/2-y,z
loop_
_atom_site_type_symbol
_atom_site_label
_atom_site_fract_x
_atom_site_fract_y
_atom_site_fract_z
Si Si1 0.286363 0.880883 0.434529
Si Si2 0.398489 0.753062 0.325520
Si Si3 0.649914 0.384185 0.959319
Si Si4 0.131879 0.883894 0.805259
Si Si5 0.139472 0.768679 0.146333
Si Si6 0.066400 0.616674 0.853965
Si Si7 0.514375 0.616691 0.148235
Si Si8 0.709717 0.883740 0.151195
O O1 0.244088 0.825805 0.322479
O O2 0.431794 0.846549 0.647914
O O3 0.165700 0.858016 0.322762
O O4 0.287017 0.000000 0.426697
O O5 0.500000 0.806849 0.500000
O O6 0.281817 0.825495 0.151932
O O7 0.453049 0.692221 0.342828
O O8 0.335596 0.668106 0.283595
O O9 0.677417 0.500000 0.999031
O O10 0.618316 0.364008 0.853407
O O11 0.525397 0.359792 0.839496
O O12 0.104378 0.000000 0.758635
O O13 0.290599 0.864386 0.992730
O O14 0.187930 0.667264 0.182381
O O15 0.000000 0.754269 0.000000
O O16 0.096428 0.834597 0.036974
O O17 0.051826 0.500000 0.834022
O O18 0.087536 0.640254 0.947450
O O19 0.502549 0.500000 0.126465
O O20 0.725194 0.000000 0.174412
#
# Coordination Sequence:
#
# PCOD9183272 Si02
#       8
#     8   8   8   8   8   8   8   8
#     4   9  17  31  58  89 112 141 185 229 274 332
#     4  11  22  37  60  83 109 146 188 231 272 331
#     4  10  20  36  58  83 117 149 177 224 285 339
#     4   9  19  36  58  83 110 146 187 230 278 323
#     4  10  19  33  54  81 112 145 185 226 273 329
#     4   8  16  33  56  81 108 141 184 229 269 321
#     4   9  17  32  54  81 117 152 178 218 280 340
#     4  10  21  38  58  76 106 149 189 229 274 325
#
# _framework density 20.192319999999999
#
# number of rings (size 3 to 8) (size 9 to 14) (size 15 to 20)
#    0.000    2.500    1.250    1.875    0.000    4.000 
#    0.000    2.500    2.750    0.000    0.000    0.875 
#    0.000    0.000    0.000    0.000    0.000    0.000 
#
# Total GULP energy -178505.341434 kJ/mol
# GULP energy per Si atom -5578.291920 kJ/mol
# Density = 2.014636 g / cm^3
# Si number density = 20.192320 Si / 1000 Ang^3
#
#
#
# Elastic Constant Matrix: (Units=GPa)
#
#
# Indices 1 2 3 4 5 6 
#
# 1 120.8773 29.7793 29.6253 0.0000 -28.2438 0.0000
# 2 29.7793 74.8401 12.9811 0.0000 -9.0411 0.0000
# 3 29.6253 12.9811 56.1772 -0.0002 -17.1485 -0.0001
# 4 0.0000 0.0000 -0.0002 18.8523 -0.0001 -7.1874
# 5 -28.2438 -9.0411 -17.1485 -0.0001 14.3902 -0.0001
# 6 0.0000 0.0000 -0.0001 -7.1874 -0.0001 29.2222
#
#
#
# Elastic Compliance Matrix: (Units=1/GPa)
#
#
# Indices 1 2 3 4 5 6 
#
# 1 0.015923 -0.002834 0.001971 0.000000 0.031821 0.000000
# 2 -0.002834 0.014992 -0.001245 0.000000 0.002373 0.000000
# 3 0.001971 -0.001245 0.028278 0.000001 0.036785 0.000000
# 4 0.000000 0.000000 0.000001 0.058532 0.000002 0.014396
# 5 0.031821 0.002373 0.036785 0.000002 0.177274 0.000001
# 6 0.000000 0.000000 0.000000 0.014396 0.000001 0.037762
#
#
# Mechanical properties :
#
#
# Convention : Reuss Voigt Hill
#
# Bulk Modulus (GPa) = 18.18928 44.07400 31.13164
# Shear Modulus (GPa) = 14.07253 24.46020 19.26637
#
# Velocity S-wave (km/s) = 2.64280 3.48424 3.09227
# Velocity P-wave (km/s) = 4.28253 6.16936 5.31042
#
# Compressibility (1/GPa) = 0.05497744
#
# Stress axis : x y z
#
# Youngs Moduli (GPa) = 62.80208 66.70188 35.36345
#
# Poissons Ratio (x) = 0.18901 -0.06971
# Poissons Ratio (y) = 0.17796 0.04404
# Poissons Ratio (z) = -0.12380 0.08307
#
# Static dielectric constant tensor:
#      x y z
#    x 1.724100 0.000000 -0.005770 
#    y 0.000000 1.722460 0.000000 
#    z -0.005770 0.000000 1.748690 
# 
# From -- ./inp_files/330399.got.cif
#   From: 2010.05.17/outbox.cif.g08.bks.cpg/sg12_166_cif.got.tgz:330399.got - 2010.06.03 13:09:07.
