data_PCOD9183267
_publ_section_title
;
Structure prediction by ZEFSAII (Michael W. Deem and Ramdas Pophale) SiO2 
 PCOD9183267
Probable space group: C 2/M
;
_chemical_formula_sum "Si O2"
_cell_formula_units_Z 56
_cell_length_a 26.049198
_cell_length_b 7.841696
_cell_length_c 15.109476
_cell_angle_alpha 90.000000
_cell_angle_beta 123.537985
_cell_angle_gamma 90.000000
_cell_volume 2572.584470
_symmetry_space_group_name_H-M "C 2/M"
_symmetry_group_IT_number 12
_symmetry_cell_setting 'monoclinic'
loop_
_space_group_symop_operation_xyz
x,y,z
-x,y,-z
-x,-y,-z
x,-y,z
1/2+x,1/2+y,z
1/2-x,1/2+y,-z
1/2-x,1/2-y,-z
1/2+x,1/2-y,z
loop_
_atom_site_type_symbol
_atom_site_label
_atom_site_fract_x
_atom_site_fract_y
_atom_site_fract_z
Si Si1 0.228390 0.705740 0.333077
Si Si2 0.900034 0.808850 0.102615
Si Si3 0.786583 0.702389 0.881188
Si Si4 0.114467 0.290227 0.339018
Si Si5 0.643364 0.795485 0.750827
Si Si6 0.368806 0.801862 0.454950
Si Si7 0.987418 0.305510 0.892717
O O1 0.236949 0.500000 0.344371
O O2 0.200395 0.745544 0.209311
O O3 0.181372 0.757670 0.364713
O O4 0.295074 0.790693 0.400137
O O5 0.892642 0.771432 0.198928
O O6 0.949146 0.691534 0.100624
O O7 0.922444 0.000000 0.110613
O O8 0.833871 0.788316 0.992835
O O9 0.793371 0.500000 0.898439
O O10 0.715468 0.749220 0.829519
O O11 0.113037 0.500000 0.340389
O O12 0.103231 0.228250 0.428240
O O13 0.064089 0.230134 0.220682
O O14 0.621336 0.728017 0.633775
O O15 0.639171 0.000000 0.745909
O O16 0.387382 0.000000 0.467987
O O17 0.965840 0.500000 0.890457
O O18 0.000000 0.223716 0.000000
#
# Coordination Sequence:
#
# PCOD9183267 Si02
#       7
#     8   8   8   8   8   8   8
#     4   9  17  30  52  81 111 141 171 208 257 315
#     4  12  24  37  54  77 106 140 178 221 267 313
#     4  10  19  33  54  81 111 142 176 215 264 318
#     4   9  17  32  54  79 106 138 178 217 256 308
#     4  10  20  35  54  78 108 141 177 217 264 315
#     4   9  18  32  52  79 109 139 173 216 260 306
#     4  10  21  39  61  81 104 138 177 216 260 313
#
# _framework density 21.767993000000001
#
# number of rings (size 3 to 8) (size 9 to 14) (size 15 to 20)
#    0.000    2.143    0.000    3.857    0.000    3.714 
#    0.000    2.143    0.000    4.286    0.000    0.000 
#    0.000    0.000    0.000    0.000    0.000    0.000 
#
# Total GULP energy -156370.609219 kJ/mol
# GULP energy per Si atom -5584.664615 kJ/mol
# Density = 2.171845 g / cm^3
# Si number density = 21.767993 Si / 1000 Ang^3
#
#
#
# Elastic Constant Matrix: (Units=GPa)
#
#
# Indices 1 2 3 4 5 6 
#
# 1 42.4191 1.9945 30.7194 0.0000 -22.9196 0.0000
# 2 1.9945 29.0399 -3.3544 0.0000 -8.0534 0.0000
# 3 30.7194 -3.3544 132.8036 0.0000 -29.5547 0.0000
# 4 0.0000 0.0000 0.0000 0.4471 0.0000 5.1535
# 5 -22.9196 -8.0534 -29.5547 0.0000 26.5927 0.0000
# 6 0.0000 0.0000 0.0000 5.1535 0.0000 13.5587
#
#
#
# Elastic Compliance Matrix: (Units=1/GPa)
#
#
# Indices 1 2 3 4 5 6 
#
# 1 0.046184 0.007917 -0.001450 0.000000 0.040591 0.000000
# 2 0.007917 0.041220 0.004659 0.000000 0.024484 0.000000
# 3 -0.001450 0.004659 0.010654 0.000000 0.012002 0.000000
# 4 0.000000 0.000000 0.000000 -0.661523 0.000000 0.251438
# 5 0.040591 0.024484 0.012002 0.000000 0.093342 0.000000
# 6 0.000000 0.000000 0.000000 0.251438 0.000000 -0.021815
#
#
# Mechanical properties :
#
#
# Convention : Reuss Voigt Hill
#
# Bulk Modulus (GPa) = 8.31186 29.22018 18.76602
# Shear Modulus (GPa) = -10.54657 19.77991 4.61667
#
# Velocity S-wave (km/s) = -2.20352 3.01768 1.45789
# Velocity P-wave (km/s) = 1.62706 5.05910 3.38727
#
# Compressibility (1/GPa) = 0.12031000
#
# Stress axis : x y z
#
# Youngs Moduli (GPa) = 21.65261 24.26023 93.86258
#
# Poissons Ratio (x) = -0.19208 0.13607
# Poissons Ratio (y) = -0.17143 -0.43727
# Poissons Ratio (z) = 0.03139 -0.11302
#
# Static dielectric constant tensor:
#      x y z
#    x 1.768620 0.000000 -0.027070 
#    y 0.000000 1.797480 0.000000 
#    z -0.027070 0.000000 1.824750 
# 
# From -- ./inp_files/238332.got.cif
#   From: 2010.05.17/outbox.cif.g08.bks.cpg/sg12_120_cif.got.tgz:238332.got - 2010.06.03 13:09:07.
