data_PCOD9183483
_publ_section_title
;
Structure prediction by ZEFSAII (Michael W. Deem and Ramdas Pophale) SiO2 
 PCOD9183483
Probable space group: C 2/M
;
_chemical_formula_sum "Si O2"
_cell_formula_units_Z 56
_cell_length_a 21.232925
_cell_length_b 7.476648
_cell_length_c 30.192261
_cell_angle_alpha 90.000000
_cell_angle_beta 31.822834
_cell_angle_gamma 90.000000
_cell_volume 2527.351261
_symmetry_space_group_name_H-M "C 2/M"
_symmetry_group_IT_number 12
_symmetry_cell_setting 'monoclinic'
loop_
_space_group_symop_operation_xyz
x,y,z
-x,y,-z
-x,-y,-z
x,-y,z
1/2+x,1/2+y,z
1/2-x,1/2+y,-z
1/2-x,1/2-y,-z
1/2+x,1/2-y,z
loop_
_atom_site_type_symbol
_atom_site_label
_atom_site_fract_x
_atom_site_fract_y
_atom_site_fract_z
Si Si1 0.500673 0.219438 0.448268
Si Si2 0.907573 0.797091 0.091280
Si Si3 0.496345 0.282795 0.711788
Si Si4 0.742098 0.786624 0.452578
Si Si5 0.662713 0.207951 0.274425
Si Si6 0.919171 0.289819 0.937291
Si Si7 0.152074 0.784517 0.116145
O O1 0.500000 0.272230 0.500000
O O2 0.378012 0.281691 0.498315
O O3 0.612341 0.279978 0.351074
O O4 0.503124 0.000000 0.445621
O O5 0.779005 0.712866 0.180015
O O6 0.979222 0.799691 0.094536
O O7 0.884265 0.000000 0.088839
O O8 0.000000 0.715803 0.000000
O O9 0.495704 0.500000 0.710730
O O10 0.630623 0.222228 0.641685
O O11 0.446993 0.218431 0.694304
O O12 0.407666 0.222267 0.803213
O O13 0.750000 0.750000 0.500000
O O14 0.739170 0.000000 0.448161
O O15 0.693666 0.000000 0.263702
O O16 0.925032 0.500000 0.943965
O O17 0.923145 0.266362 0.882234
O O18 0.787799 0.220030 0.029399
O O19 0.156995 0.000000 0.113998
#
# Coordination Sequence:
#
# PCOD9183483 Si02
#       7
#     8   8   8   8   8   8   8
#     4   9  18  33  53  78 106 138 179 221 264 319
#     4  10  21  35  52  76 106 141 180 220 266 321
#     4  10  20  33  54  81 106 137 176 219 271 322
#     4  10  19  33  55  80 106 137 173 219 270 319
#     4  10  20  34  54  77 103 140 179 222 270 317
#     4  10  20  34  53  76 105 141 178 220 270 315
#     4   9  19  35  53  76 106 139 176 218 265 320
#
# _framework density 22.157585999999998
#
# number of rings (size 3 to 8) (size 9 to 14) (size 15 to 20)
#    0.000    2.286    1.429    1.286    0.000    3.143 
#    0.000    4.286    0.000    1.714    0.000    0.000 
#    0.000    0.000    0.000    0.000    0.000    0.000 
#
# Total GULP energy -156335.256330 kJ/mol
# GULP energy per Si atom -5583.402012 kJ/mol
# Density = 2.210715 g / cm^3
# Si number density = 22.157586 Si / 1000 Ang^3
#
#
#
# Elastic Constant Matrix: (Units=GPa)
#
#
# Indices 1 2 3 4 5 6 
#
# 1 101.5371 -6.3403 54.6898 0.0539 1.7090 -0.0911
# 2 -6.3403 67.3444 4.8406 0.0806 -0.7900 0.0642
# 3 54.6898 4.8406 149.5003 -0.0041 15.3990 -0.0089
# 4 0.0539 0.0806 -0.0041 -6.5981 0.0038 3.1474
# 5 1.7090 -0.7900 15.3990 0.0038 39.4588 0.0136
# 6 -0.0911 0.0642 -0.0089 3.1474 0.0136 13.8158
#
#
#
# Elastic Compliance Matrix: (Units=1/GPa)
#
#
# Indices 1 2 3 4 5 6 
#
# 1 0.012482 0.001533 -0.004755 0.000143 0.001346 0.000038
# 2 0.001533 0.015081 -0.001118 0.000152 0.000672 -0.000096
# 3 -0.004755 -0.001118 0.008799 -0.000061 -0.003250 -0.000003
# 4 0.000143 0.000152 -0.000061 -0.136700 0.000023 0.031142
# 5 0.001346 0.000672 -0.003250 0.000023 0.026567 -0.000028
# 6 0.000038 -0.000096 -0.000003 0.031142 -0.000028 0.065287
#
#
# Mechanical properties :
#
#
# Convention : Reuss Voigt Hill
#
# Bulk Modulus (GPa) = 36.12339 47.19580 41.65959
# Shear Modulus (GPa) = 530.51045 27.01475 278.76260
#
# Velocity S-wave (km/s) = 15.49019 3.49551 11.22863
# Velocity P-wave (km/s) = 18.33756 6.13496 13.67304
#
# Compressibility (1/GPa) = 0.02768289
#
# Stress axis : x y z
#
# Youngs Moduli (GPa) = 80.11220 66.30647 113.64613
#
# Poissons Ratio (x) = -0.10162 0.54033
# Poissons Ratio (y) = -0.12277 0.12707
# Poissons Ratio (z) = 0.38090 0.07414
#
# Static dielectric constant tensor:
#      x y z
#    x 1.760590 0.000000 -0.003640 
#    y 0.000000 1.832130 0.000010 
#    z -0.003640 0.000010 1.848670 
# 
# From -- ./inp_files/380654.got.cif
#   From: 2010.05.17/outbox.cif.g08.bks.cpg/sg12_191_cif.got.tgz:380654.got - 2010.06.03 13:09:07.
