data_PCOD9183846
_publ_section_title
;
Structure prediction by ZEFSAII (Michael W. Deem and Ramdas Pophale) SiO2 
 PCOD9183846
Probable space group: C 2/M
;
_chemical_formula_sum "Si O2"
_cell_formula_units_Z 60
_cell_length_a 13.766017
_cell_length_b 12.318211
_cell_length_c 23.535272
_cell_angle_alpha 90.000000
_cell_angle_beta 130.287277
_cell_angle_gamma 90.000000
_cell_volume 3044.336413
_symmetry_space_group_name_H-M "C 2/M"
_symmetry_group_IT_number 12
_symmetry_cell_setting 'monoclinic'
loop_
_space_group_symop_operation_xyz
x,y,z
-x,y,-z
-x,-y,-z
x,-y,z
1/2+x,1/2+y,z
1/2-x,1/2+y,-z
1/2-x,1/2-y,-z
1/2+x,1/2-y,z
loop_
_atom_site_type_symbol
_atom_site_label
_atom_site_fract_x
_atom_site_fract_y
_atom_site_fract_z
Si Si1 0.523079 0.875408 0.628208
Si Si2 0.312900 0.122059 0.122873
Si Si3 0.938234 0.281357 0.824701
Si Si4 0.229853 0.284677 0.427566
Si Si5 0.086111 0.125319 0.292086
Si Si6 0.567044 0.376500 0.963866
Si Si7 0.000000 0.749533 0.500000
Si Si8 0.674270 0.281875 0.767432
O O1 0.389510 0.865970 0.612822
O O2 0.507371 0.824703 0.559383
O O3 0.620814 0.800991 0.699862
O O4 0.562437 0.000000 0.639772
O O5 0.457521 0.134073 0.157421
O O6 0.294931 0.209831 0.165356
O O7 0.286689 0.000000 0.134094
O O8 0.215249 0.142171 0.034431
O O9 0.909248 0.197996 0.762552
O O10 0.004939 0.209652 0.898768
O O11 0.806061 0.331166 0.795846
O O12 0.250000 0.250000 0.500000
O O13 0.368038 0.316471 0.455432
O O14 0.180381 0.182067 0.372597
O O15 0.942107 0.138993 0.261663
O O16 0.116133 0.000000 0.293929
O O17 0.551597 0.500000 0.935894
O O18 0.500000 0.371358 0.000000
#
# Coordination Sequence:
#
# PCOD9183846 Si02
#       8
#     8   8   8   8   8   8   4   8
#     4  10  20  34  54  79 107 138 176 220 267 320
#     4  10  21  36  54  79 111 147 185 228 279 330
#     4  11  21  35  58  83 110 145 188 233 274 324
#     4   9  20  36  54  79 111 140 172 218 269 321
#     4  10  22  38  57  82 111 143 182 227 275 324
#     4  10  19  33  56  82 110 146 187 231 279 329
#     4  10  19  34  55  78 106 138 175 220 265 318
#     4  10  21  36  54  79 109 143 180 225 274 326
#
# _framework density 19.708728000000001
#
# number of rings (size 3 to 8) (size 9 to 14) (size 15 to 20)
#    0.000    2.000    1.333    2.200    0.000    5.867 
#    0.000    0.333    0.000   13.200    0.000    0.000 
#    0.000    0.000    0.000    0.000    0.000    0.000 
#
# Total GULP energy -167423.306157 kJ/mol
# GULP energy per Si atom -5580.776872 kJ/mol
# Density = 1.966387 g / cm^3
# Si number density = 19.708728 Si / 1000 Ang^3
#
#
#
# Elastic Constant Matrix: (Units=GPa)
#
#
# Indices 1 2 3 4 5 6 
#
# 1 109.8980 -9.8128 10.6623 0.0000 31.6506 0.0000
# 2 -9.8128 30.0981 7.7071 0.0000 -6.8939 0.0000
# 3 10.6623 7.7071 67.8182 0.0000 6.8630 0.0000
# 4 0.0000 0.0000 0.0000 1.4700 0.0000 -2.9827
# 5 31.6506 -6.8939 6.8630 0.0000 36.7510 0.0000
# 6 0.0000 0.0000 0.0000 -2.9827 0.0000 7.5847
#
#
#
# Elastic Compliance Matrix: (Units=1/GPa)
#
#
# Indices 1 2 3 4 5 6 
#
# 1 0.012261 0.002008 -0.001147 0.000000 -0.009968 0.000000
# 2 0.002008 0.036575 -0.005088 0.000000 0.006082 0.000000
# 3 -0.001147 -0.005088 0.015799 0.000000 -0.002917 0.000000
# 4 0.000000 0.000000 0.000000 3.366556 0.000000 1.323906
# 5 -0.009968 0.006082 -0.002917 0.000000 0.037481 0.000000
# 6 0.000000 0.000000 0.000000 1.323906 0.000000 0.652473
#
#
# Mechanical properties :
#
#
# Convention : Reuss Voigt Hill
#
# Bulk Modulus (GPa) = 17.79956 24.99195 21.39576
# Shear Modulus (GPa) = 1.20531 22.44498 11.82514
#
# Velocity S-wave (km/s) = 0.78287 3.37832 2.45214
# Velocity P-wave (km/s) = 3.14135 5.28447 4.34705
#
# Compressibility (1/GPa) = 0.05618117
#
# Stress axis : x y z
#
# Youngs Moduli (GPa) = 81.56064 27.34100 63.29514
#
# Poissons Ratio (x) = -0.05490 0.07260
# Poissons Ratio (y) = -0.16376 0.32202
# Poissons Ratio (z) = 0.09355 0.13910
#
# Static dielectric constant tensor:
#      x y z
#    x 1.737610 0.000000 0.041140 
#    y 0.000000 1.625680 0.000000 
#    z 0.041140 0.000000 1.691520 
# 
# From -- ./inp_files/336065.got.cif
#   From: 2010.05.17/outbox.cif.g08.bks.cpg/sg12_169_cif.got.tgz:336065.got - 2010.06.03 13:09:07.
