data_PCOD9183144
_publ_section_title
;
Structure prediction by ZEFSAII (Michael W. Deem and Ramdas Pophale) SiO2 
 PCOD9183144
Probable space group: C 2/M
;
_chemical_formula_sum "Si O2"
_cell_formula_units_Z 56
_cell_length_a 9.616476
_cell_length_b 26.196437
_cell_length_c 19.453900
_cell_angle_alpha 90.000000
_cell_angle_beta 140.149980
_cell_angle_gamma 90.000000
_cell_volume 3140.320152
_symmetry_space_group_name_H-M "C 2/M"
_symmetry_group_IT_number 12
_symmetry_cell_setting 'monoclinic'
loop_
_space_group_symop_operation_xyz
x,y,z
-x,y,-z
-x,-y,-z
x,-y,z
1/2+x,1/2+y,z
1/2-x,1/2+y,-z
1/2-x,1/2-y,-z
1/2+x,1/2-y,z
loop_
_atom_site_type_symbol
_atom_site_label
_atom_site_fract_x
_atom_site_fract_y
_atom_site_fract_z
Si Si1 0.639410 0.561204 0.920530
Si Si2 0.557153 0.206486 0.634234
Si Si3 0.314963 0.885803 0.229753
Si Si4 0.086011 0.088582 0.749809
Si Si5 0.853091 0.191578 0.613052
Si Si6 0.383785 0.943052 0.393070
Si Si7 0.998169 0.441983 0.825198
O O1 0.590618 0.500000 0.894194
O O2 0.429755 0.592016 0.868833
O O3 0.690936 0.586150 0.865981
O O4 0.835492 0.564576 0.048353
O O5 0.656716 0.171740 0.732840
O O6 0.723634 0.206986 0.633442
O O7 0.331207 0.184404 0.516094
O O8 0.500113 0.262121 0.641445
O O9 0.408705 0.916288 0.330626
O O10 0.442199 0.901297 0.210200
O O11 0.256829 0.065398 0.762138
O O12 0.997587 0.142705 0.688475
O O13 0.866867 0.057041 0.680612
O O14 0.500000 0.915211 0.500000
O O15 0.471007 0.000000 0.420087
O O16 0.027673 0.500000 0.809743
#
# Coordination Sequence:
#
# PCOD9183144 Si02
#       7
#     8   8   8   8   8   8   8
#     4  10  20  37  60  82 109 151 195 232 279 340
#     4  10  21  38  61  86 110 142 187 234 282 339
#     4  11  20  35  58  82 112 147 186 235 281 332
#     4  11  20  35  58  82 112 147 186 235 281 332
#     4  10  21  38  61  86 110 142 187 234 282 339
#     4  10  19  33  54  78 108 148 185 217 270 345
#     4  11  23  36  54  86 119 148 190 239 279 324
#
# _framework density 17.832576
#
# number of rings (size 3 to 8) (size 9 to 14) (size 15 to 20)
#    0.000    1.571    2.857    5.143    2.000    2.286 
#    0.000    2.143    0.000   10.286    0.000    0.000 
#    0.000    0.000    0.000    0.000    0.000    0.000 
#
# Total GULP energy -156107.354825 kJ/mol
# GULP energy per Si atom -5575.262672 kJ/mol
# Density = 1.779199 g / cm^3
# Si number density = 17.832576 Si / 1000 Ang^3
#
#
#
# Elastic Constant Matrix: (Units=GPa)
#
#
# Indices 1 2 3 4 5 6 
#
# 1 62.1145 8.6689 15.9253 0.0000 -8.5574 0.0000
# 2 8.6689 91.8784 28.2936 0.0000 0.3306 0.0000
# 3 15.9253 28.2936 74.0625 -0.0001 -4.2531 0.0003
# 4 0.0000 0.0000 -0.0001 27.3452 0.0000 -6.5570
# 5 -8.5574 0.3306 -4.2531 0.0000 10.6198 0.0001
# 6 0.0000 0.0000 0.0003 -6.5570 0.0001 31.7485
#
#
#
# Elastic Compliance Matrix: (Units=1/GPa)
#
#
# Indices 1 2 3 4 5 6 
#
# 1 0.018918 -0.000944 -0.002897 0.000000 0.014113 0.000000
# 2 -0.000944 0.012438 -0.004723 0.000000 -0.003039 0.000000
# 3 -0.002897 -0.004723 0.016176 0.000000 0.004291 0.000000
# 4 0.000000 0.000000 0.000000 0.038475 0.000000 0.007946
# 5 0.014113 -0.003039 0.004291 0.000000 0.107349 0.000000
# 6 0.000000 0.000000 0.000000 0.007946 0.000000 0.033139
#
#
# Mechanical properties :
#
#
# Convention : Reuss Voigt Hill
#
# Bulk Modulus (GPa) = 32.88987 37.09234 34.99111
# Shear Modulus (GPa) = 19.70381 25.62053 22.66217
#
# Velocity S-wave (km/s) = 3.32766 3.79453 3.56874
# Velocity P-wave (km/s) = 5.76612 6.32799 6.05358
#
# Compressibility (1/GPa) = 0.03040450
#
# Stress axis : x y z
#
# Youngs Moduli (GPa) = 52.85943 80.39563 61.82043
#
# Poissons Ratio (x) = 0.07587 0.17909
# Poissons Ratio (y) = 0.04988 0.29200
# Poissons Ratio (z) = 0.15313 0.37974
#
# Static dielectric constant tensor:
#      x y z
#    x 1.595820 0.000000 0.010580 
#    y 0.000000 1.623100 0.000000 
#    z 0.010580 0.000000 1.634680 
# 
# From -- ./inp_files/259584.got.cif
#   From: 2010.05.17/outbox.cif.g08.bks.cpg/sg12_130_cif.got.tgz:259584.got - 2010.06.03 13:09:07.
