data_PCOD9183833
_publ_section_title
;
Structure prediction by ZEFSAII (Michael W. Deem and Ramdas Pophale) SiO2 
 PCOD9183833
Probable space group: C 2/M
;
_chemical_formula_sum "Si O2"
_cell_formula_units_Z 64
_cell_length_a 29.477627
_cell_length_b 7.558975
_cell_length_c 14.848053
_cell_angle_alpha 90.000000
_cell_angle_beta 58.978740
_cell_angle_gamma 90.000000
_cell_volume 2835.265049
_symmetry_space_group_name_H-M "C 2/M"
_symmetry_group_IT_number 12
_symmetry_cell_setting 'monoclinic'
loop_
_space_group_symop_operation_xyz
x,y,z
-x,y,-z
-x,-y,-z
x,-y,z
1/2+x,1/2+y,z
1/2-x,1/2+y,-z
1/2-x,1/2-y,-z
1/2+x,1/2-y,z
loop_
_atom_site_type_symbol
_atom_site_label
_atom_site_fract_x
_atom_site_fract_y
_atom_site_fract_z
Si Si1 0.591044 0.708791 0.544698
Si Si2 0.806343 0.288206 0.898655
Si Si3 0.980188 0.700007 0.611559
Si Si4 0.264050 0.712554 0.381298
Si Si5 0.179730 0.286968 0.320165
Si Si6 0.122282 0.212717 0.703911
Si Si7 0.495059 0.789754 0.105854
Si Si8 0.582505 0.782743 0.158394
O O1 0.580970 0.500000 0.562563
O O2 0.535275 0.805501 0.609105
O O3 0.622523 0.744062 0.420964
O O4 0.625243 0.765635 0.595744
O O5 0.811320 0.500000 0.887925
O O6 0.811218 0.221458 0.790609
O O7 0.856308 0.228355 0.908209
O O8 0.750000 0.250000 0.000000
O O9 0.962490 0.500000 0.606424
O O10 0.000000 0.790824 0.500000
O O11 0.937984 0.777413 0.722379
O O12 0.263874 0.500000 0.372792
O O13 0.250000 0.750000 0.500000
O O14 0.222520 0.780702 0.349696
O O15 0.324246 0.777567 0.303491
O O16 0.183438 0.500000 0.313895
O O17 0.064920 0.264991 0.798990
O O18 0.123722 0.000000 0.705974
O O19 0.540661 0.720297 0.126488
O O20 0.504382 0.000000 0.091625
O O21 0.500000 0.716496 0.000000
O O22 0.579769 0.000000 0.161746
#
# Coordination Sequence:
#
# PCOD9183833 Si02
#       8
#     8   8   8   8   8   8   8   8
#     4  11  21  33  53  83 119 149 180 230 285 336
#     4  10  22  41  61  83 110 146 190 235 282 329
#     4  10  19  33  56  82 108 148 192 225 272 338
#     4  10  20  35  55  81 114 151 189 233 282 339
#     4  10  21  37  59  83 111 151 198 236 275 340
#     4  10  21  36  53  79 115 149 180 224 286 340
#     4  10  21  37  58  83 108 143 192 234 272 329
#     4   9  18  35  57  79 109 143 179 228 275 324
#
# _framework density 22.572845999999998
#
# number of rings (size 3 to 8) (size 9 to 14) (size 15 to 20)
#    0.000    2.000    2.500    1.125    0.000    5.000 
#    0.000    1.250    0.000    0.000    0.000    0.000 
#    0.000    0.000    0.000    0.000    0.000    0.000 
#
# Total GULP energy -178677.100016 kJ/mol
# GULP energy per Si atom -5583.659376 kJ/mol
# Density = 2.252147 g / cm^3
# Si number density = 22.572846 Si / 1000 Ang^3
#
#
#
# Elastic Constant Matrix: (Units=GPa)
#
#
# Indices 1 2 3 4 5 6 
#
# 1 145.7074 3.0473 60.6699 0.0000 -22.1835 0.0000
# 2 3.0473 57.5894 -5.0142 0.0000 5.0558 0.0000
# 3 60.6699 -5.0142 137.1097 0.0000 -13.2569 0.0000
# 4 0.0000 0.0000 0.0000 16.4193 0.0000 -7.9876
# 5 -22.1835 5.0558 -13.2569 0.0000 35.3946 0.0000
# 6 0.0000 0.0000 0.0000 -7.9876 0.0000 14.1441
#
#
#
# Elastic Compliance Matrix: (Units=1/GPa)
#
#
# Indices 1 2 3 4 5 6 
#
# 1 0.009084 -0.001192 -0.003628 0.000000 0.004505 0.000000
# 2 -0.001192 0.017764 0.000892 0.000000 -0.002951 0.000000
# 3 -0.003628 0.000892 0.009026 0.000000 0.000980 0.000000
# 4 0.000000 0.000000 0.000000 0.083974 0.000000 0.047423
# 5 0.004505 -0.002951 0.000980 0.000000 0.031865 0.000000
# 6 0.000000 0.000000 0.000000 0.047423 0.000000 0.097482
#
#
# Mechanical properties :
#
#
# Convention : Reuss Voigt Hill
#
# Bulk Modulus (GPa) = 35.69072 50.86806 43.27939
# Shear Modulus (GPa) = 18.76940 31.97185 25.37063
#
# Velocity S-wave (km/s) = 2.88671 3.76757 3.35617
# Velocity P-wave (km/s) = 5.19196 6.44284 5.85092
#
# Compressibility (1/GPa) = 0.02801849
#
# Stress axis : x y z
#
# Youngs Moduli (GPa) = 110.07837 56.29349 110.79078
#
# Poissons Ratio (x) = 0.06711 0.40193
# Poissons Ratio (y) = 0.13122 -0.09881
# Poissons Ratio (z) = 0.39934 -0.05020
#
# Static dielectric constant tensor:
#      x y z
#    x 1.898150 0.000000 0.023920 
#    y 0.000000 1.859820 0.000000 
#    z 0.023920 0.000000 1.814860 
# 
# From -- ./inp_files/248948.got.cif
#   From: 2010.05.17/outbox.cif.g08.bks.cpg/sg12_125_cif.got.tgz:248948.got - 2010.06.03 13:09:07.
