data_PCOD9183044
_publ_section_title
;
Structure prediction by ZEFSAII (Michael W. Deem and Ramdas Pophale) SiO2 
 PCOD9183044
Probable space group: C 2/M
;
_chemical_formula_sum "Si O2"
_cell_formula_units_Z 56
_cell_length_a 14.939288
_cell_length_b 7.433755
_cell_length_c 19.545192
_cell_angle_alpha 90.000000
_cell_angle_beta 103.039089
_cell_angle_gamma 90.000000
_cell_volume 2114.625704
_symmetry_space_group_name_H-M "C 2/M"
_symmetry_group_IT_number 12
_symmetry_cell_setting 'monoclinic'
loop_
_space_group_symop_operation_xyz
x,y,z
-x,y,-z
-x,-y,-z
x,-y,z
1/2+x,1/2+y,z
1/2-x,1/2+y,-z
1/2-x,1/2-y,-z
1/2+x,1/2-y,z
loop_
_atom_site_type_symbol
_atom_site_label
_atom_site_fract_x
_atom_site_fract_y
_atom_site_fract_z
Si Si1 0.307374 0.221845 0.731086
Si Si2 0.690956 0.294263 0.837598
Si Si3 0.471815 0.796936 0.679166
Si Si4 0.033853 0.780859 0.898137
Si Si5 0.641290 0.713609 0.473251
Si Si6 0.640064 0.717174 0.055226
Si Si7 0.638950 0.708217 0.618918
O O1 0.255141 0.286105 0.789912
O O2 0.409023 0.285021 0.728409
O O3 0.235875 0.283035 0.660249
O O4 0.311409 0.000000 0.732742
O O5 0.673285 0.500000 0.814057
O O6 0.593875 0.215665 0.844465
O O7 0.759456 0.292753 0.914346
O O8 0.405170 0.798383 0.600964
O O9 0.565669 0.715231 0.667261
O O10 0.494366 0.000000 0.701506
O O11 0.930297 0.722461 0.896426
O O12 0.032892 0.000000 0.895459
O O13 0.091574 0.731310 0.976177
O O14 0.623550 0.500000 0.462023
O O15 0.750000 0.750000 0.500000
O O16 0.603563 0.779930 0.540496
O O17 0.645306 0.500000 0.057263
O O18 0.657106 0.500000 0.607810
#
# Coordination Sequence:
#
# PCOD9183044 Si02
#       7
#     8   8   8   8   8   8   8
#     4   9  20  38  54  72 107 146 177 215 264 316
#     4  10  19  33  54  76 101 141 182 212 258 319
#     4  11  22  38  57  81 109 141 178 223 273 318
#     4   8  16  31  52  76 104 139 173 209 264 323
#     4  11  21  36  60  85 111 140 175 220 271 321
#     4   9  17  32  52  77 107 134 169 221 267 308
#     4  10  21  39  58  79 107 142 178 218 268 322
#
# _framework density 26.482227999999999
#
# number of rings (size 3 to 8) (size 9 to 14) (size 15 to 20)
#    0.000    2.286    1.429    2.571    0.000    4.000 
#    0.000    5.714    0.000    0.000    0.000    0.000 
#    0.000    0.000    0.000    0.000    0.000    0.000 
#
# Total GULP energy -156587.121652 kJ/mol
# GULP energy per Si atom -5592.397202 kJ/mol
# Density = 2.642195 g / cm^3
# Si number density = 26.482228 Si / 1000 Ang^3
#
#
#
# Elastic Constant Matrix: (Units=GPa)
#
#
# Indices 1 2 3 4 5 6 
#
# 1 157.3793 -4.1760 34.1733 0.0000 -26.1986 0.0000
# 2 -4.1760 96.3573 7.6753 0.0000 -2.1075 0.0000
# 3 34.1733 7.6753 76.6202 0.0000 -24.2633 0.0000
# 4 0.0000 0.0000 0.0000 12.3250 0.0000 4.9304
# 5 -26.1986 -2.1075 -24.2633 0.0000 60.3525 0.0000
# 6 0.0000 0.0000 0.0000 4.9304 0.0000 13.0820
#
#
#
# Elastic Compliance Matrix: (Units=1/GPa)
#
#
# Indices 1 2 3 4 5 6 
#
# 1 0.007296 0.000573 -0.002638 0.000000 0.002127 0.000000
# 2 0.000573 0.010507 -0.001275 0.000000 0.000103 0.000000
# 3 -0.002638 -0.001275 0.016018 0.000000 0.005250 0.000000
# 4 0.000000 0.000000 0.000000 0.095540 0.000000 -0.036007
# 5 0.002127 0.000103 0.005250 0.000000 0.019607 0.000000
# 6 0.000000 0.000000 0.000000 -0.036007 0.000000 0.090011
#
#
# Mechanical properties :
#
#
# Convention : Reuss Voigt Hill
#
# Bulk Modulus (GPa) = 36.84624 45.07800 40.96212
# Shear Modulus (GPa) = 19.63042 36.66421 28.14731
#
# Velocity S-wave (km/s) = 2.72558 3.72490 3.26371
# Velocity P-wave (km/s) = 4.88352 5.96312 5.45012
#
# Compressibility (1/GPa) = 0.02713981
#
# Stress axis : x y z
#
# Youngs Moduli (GPa) = 137.05906 95.17733 62.42860
#
# Poissons Ratio (x) = -0.05452 0.16469
# Poissons Ratio (y) = -0.07851 0.07962
# Poissons Ratio (z) = 0.36157 0.12139
#
# Static dielectric constant tensor:
#      x y z
#    x 2.033060 0.000000 -0.041370 
#    y 0.000000 1.976840 0.000000 
#    z -0.041370 0.000000 2.163110 
# 
# From -- ./inp_files/309054.got.cif
#   From: 2010.05.17/outbox.cif.g08.bks.cpg/sg12_155_cif.got.tgz:309054.got - 2010.06.03 13:09:07.
