data_PCOD9183409
_publ_section_title
;
Structure prediction by ZEFSAII (Michael W. Deem and Ramdas Pophale) SiO2 
 PCOD9183409
Probable space group: C 2/M
;
_chemical_formula_sum "Si O2"
_cell_formula_units_Z 56
_cell_length_a 19.270829
_cell_length_b 7.369473
_cell_length_c 21.654165
_cell_angle_alpha 90.000000
_cell_angle_beta 126.973339
_cell_angle_gamma 90.000000
_cell_volume 2456.852578
_symmetry_space_group_name_H-M "C 2/M"
_symmetry_group_IT_number 12
_symmetry_cell_setting 'monoclinic'
loop_
_space_group_symop_operation_xyz
x,y,z
-x,y,-z
-x,-y,-z
x,-y,z
1/2+x,1/2+y,z
1/2-x,1/2+y,-z
1/2-x,1/2-y,-z
1/2+x,1/2-y,z
loop_
_atom_site_type_symbol
_atom_site_label
_atom_site_fract_x
_atom_site_fract_y
_atom_site_fract_z
Si Si1 0.472094 0.278307 0.836165
Si Si2 0.976462 0.221385 0.701418
Si Si3 0.348849 0.709355 0.880451
Si Si4 0.654102 0.719821 0.737271
Si Si5 0.842198 0.217036 0.016257
Si Si6 0.344645 0.715677 0.525757
Si Si7 0.902979 0.220391 0.428518
O O1 0.468765 0.500000 0.834191
O O2 0.446142 0.220460 0.753127
O O3 0.410420 0.214795 0.859186
O O4 0.571846 0.222817 0.901343
O O5 0.916161 0.284849 0.612584
O O6 0.076017 0.273719 0.741053
O O7 0.974237 0.000000 0.699459
O O8 0.377170 0.500000 0.902022
O O9 0.249045 0.714707 0.805894
O O10 0.349730 0.788627 0.950039
O O11 0.657439 0.500000 0.739611
O O12 0.627563 0.782547 0.654520
O O13 0.848011 0.000000 0.015791
O O14 0.750000 0.250000 0.000000
O O15 0.361012 0.500000 0.530531
O O16 0.250000 0.750000 0.500000
O O17 0.348094 0.783479 0.457599
O O18 0.000000 0.271512 0.500000
O O19 0.901473 0.000000 0.423652
#
# Coordination Sequence:
#
# PCOD9183409 Si02
#       7
#     8   8   8   8   8   8   8
#     4   9  18  33  53  76 104 137 172 207 248 306
#     4   9  17  31  52  75  98 133 178 214 246 299
#     4  10  21  35  53  79 109 137 167 210 259 305
#     4  10  19  33  55  78 102 136 177 216 255 303
#     4  10  20  36  58  81 105 136 172 210 254 304
#     4  10  20  33  51  75 103 135 172 214 260 306
#     4   9  16  31  53  75 100 134 177 219 255 299
#
# _framework density 22.793389999999999
#
# number of rings (size 3 to 8) (size 9 to 14) (size 15 to 20)
#    0.000    2.429    1.429    1.286    2.000    3.429 
#    0.000    1.429    0.000    4.286    0.000    0.000 
#    0.000    0.000    0.000    0.000    0.000    0.000 
#
# Total GULP energy -156392.869216 kJ/mol
# GULP energy per Si atom -5585.459615 kJ/mol
# Density = 2.274151 g / cm^3
# Si number density = 22.793390 Si / 1000 Ang^3
#
#
#
# Elastic Constant Matrix: (Units=GPa)
#
#
# Indices 1 2 3 4 5 6 
#
# 1 130.8071 -4.3523 19.0949 0.0000 -24.1905 0.0000
# 2 -4.3523 81.2253 -0.9448 0.0000 -7.1357 0.0000
# 3 19.0949 -0.9448 93.6351 0.0000 -23.9266 0.0000
# 4 0.0000 0.0000 0.0000 -5.7123 0.0000 14.1442
# 5 -24.1905 -7.1357 -23.9266 0.0000 46.6897 0.0000
# 6 0.0000 0.0000 0.0000 14.1442 0.0000 14.9090
#
#
#
# Elastic Compliance Matrix: (Units=1/GPa)
#
#
# Indices 1 2 3 4 5 6 
#
# 1 0.008548 0.000821 -0.000657 0.000000 0.004218 0.000000
# 2 0.000821 0.012598 0.000645 0.000000 0.002681 0.000000
# 3 -0.000657 0.000645 0.012380 0.000000 0.006102 0.000000
# 4 0.000000 0.000000 0.000000 -0.052271 0.000000 0.049590
# 5 0.004218 0.002681 0.006102 0.000000 0.027140 0.000000
# 6 0.000000 0.000000 0.000000 0.049590 0.000000 0.020028
#
#
# Mechanical properties :
#
#
# Convention : Reuss Voigt Hill
#
# Bulk Modulus (GPa) = 28.45505 37.02926 32.74215
# Shear Modulus (GPa) = 129.80450 30.63526 80.21988
#
# Velocity S-wave (km/s) = 7.55460 3.67009 5.93892
# Velocity P-wave (km/s) = 9.41312 5.85152 7.83732
#
# Compressibility (1/GPa) = 0.03514315
#
# Stress axis : x y z
#
# Youngs Moduli (GPa) = 116.98578 79.37470 80.77838
#
# Poissons Ratio (x) = -0.06516 0.05309
# Poissons Ratio (y) = -0.09603 -0.05209
# Poissons Ratio (z) = 0.07688 -0.05119
#
# Static dielectric constant tensor:
#      x y z
#    x 1.977410 0.000000 -0.101060 
#    y 0.000000 1.909910 0.000000 
#    z -0.101060 0.000000 1.837200 
# 
# From -- ./inp_files/223107.got.cif
#   From: 2010.05.17/outbox.cif.g08.bks.cpg/sg12_112_cif.got.tgz:223107.got - 2010.06.03 13:09:07.
