data_PCOD9183239
_publ_section_title
;
Structure prediction by ZEFSAII (Michael W. Deem and Ramdas Pophale) SiO2 
 PCOD9183239
Probable space group: C 2/M
;
_chemical_formula_sum "Si O2"
_cell_formula_units_Z 64
_cell_length_a 9.309519
_cell_length_b 18.968619
_cell_length_c 21.612460
_cell_angle_alpha 90.000000
_cell_angle_beta 56.360459
_cell_angle_gamma 90.000000
_cell_volume 3177.399452
_symmetry_space_group_name_H-M "C 2/M"
_symmetry_group_IT_number 12
_symmetry_cell_setting 'monoclinic'
loop_
_space_group_symop_operation_xyz
x,y,z
-x,y,-z
-x,-y,-z
x,-y,z
1/2+x,1/2+y,z
1/2-x,1/2+y,-z
1/2-x,1/2-y,-z
1/2+x,1/2-y,z
loop_
_atom_site_type_symbol
_atom_site_label
_atom_site_fract_x
_atom_site_fract_y
_atom_site_fract_z
Si Si1 0.132067 0.914353 0.730225
Si Si2 0.753418 0.759488 0.146415
Si Si3 0.162461 0.081553 0.294189
Si Si4 0.549051 0.347115 0.108568
Si Si5 0.137399 0.580129 0.023157
Si Si6 0.964788 0.656202 0.175071
Si Si7 0.014775 0.414032 0.424464
Si Si8 0.317602 0.414011 0.573309
O O1 0.313604 0.894170 0.655141
O O2 0.982766 0.891674 0.717618
O O3 0.074337 0.880140 0.808907
O O4 0.129690 0.000000 0.737879
O O5 0.681201 0.707438 0.110734
O O6 0.591069 0.810887 0.195629
O O7 0.921987 0.806355 0.092408
O O8 0.823173 0.713165 0.186661
O O9 0.351756 0.089772 0.220732
O O10 0.176387 0.114312 0.358470
O O11 0.116469 0.000000 0.313597
O O12 0.672740 0.403459 0.047437
O O13 0.127948 0.500000 0.048629
O O14 0.081994 0.634750 0.088999
O O15 0.000000 0.586623 0.000000
O O16 0.016905 0.500000 0.425499
O O17 0.000000 0.391410 0.500000
O O18 0.845456 0.390392 0.427647
O O19 0.500000 0.396680 0.500000
O O20 0.304444 0.500000 0.578355
#
# Coordination Sequence:
#
# PCOD9183239 Si02
#       8
#     8   8   8   8   8   8   8   8
#     4  10  19  33  54  80 114 149 183 229 285 343
#     4  10  24  39  60  78 111 146 196 238 279 316
#     4  10  19  33  54  80 114 149 183 229 285 343
#     4  11  22  40  57  85 109 150 191 236 278 331
#     4  11  22  38  62  87 116 149 184 230 283 342
#     4  11  22  40  57  85 109 150 191 236 278 331
#     4   9  17  29  48  78 113 147 182 222 277 341
#     4   9  17  29  48  78 113 147 182 222 277 341
#
# _framework density 20.142257000000001
#
# number of rings (size 3 to 8) (size 9 to 14) (size 15 to 20)
#    0.000    1.875    2.500    1.500    1.750    8.500 
#    0.000    2.500    0.000    0.000    0.000    5.250 
#    0.000    0.000    0.000    0.000    0.000    0.000 
#
# Total GULP energy -178419.179271 kJ/mol
# GULP energy per Si atom -5575.599352 kJ/mol
# Density = 2.009641 g / cm^3
# Si number density = 20.142257 Si / 1000 Ang^3
#
#
#
# Elastic Constant Matrix: (Units=GPa)
#
#
# Indices 1 2 3 4 5 6 
#
# 1 124.3457 27.6658 44.7693 0.0000 -15.7749 0.0000
# 2 27.6658 34.8242 13.3300 0.0000 -5.4588 0.0000
# 3 44.7693 13.3300 118.2554 0.0000 -13.4990 0.0000
# 4 0.0000 0.0000 0.0000 -10.0264 0.0000 -1.1722
# 5 -15.7749 -5.4588 -13.4990 0.0000 26.1492 0.0000
# 6 0.0000 0.0000 0.0000 -1.1722 0.0000 17.9020
#
#
#
# Elastic Compliance Matrix: (Units=1/GPa)
#
#
# Indices 1 2 3 4 5 6 
#
# 1 0.011186 -0.007156 -0.003006 0.000000 0.003703 0.000000
# 2 -0.007156 0.035166 -0.000967 0.000000 0.002525 0.000000
# 3 -0.003006 -0.000967 0.010066 0.000000 0.003182 0.000000
# 4 0.000000 0.000000 0.000000 -0.098979 0.000000 -0.006481
# 5 0.003703 0.002525 0.003182 0.000000 0.042645 0.000000
# 6 0.000000 0.000000 0.000000 -0.006481 0.000000 0.055435
#
#
# Mechanical properties :
#
#
# Convention : Reuss Voigt Hill
#
# Bulk Modulus (GPa) = 29.27174 49.88395 39.57784
# Shear Modulus (GPa) = 56.07610 19.58229 37.82919
#
# Velocity S-wave (km/s) = 5.28209 3.12139 4.33841
# Velocity P-wave (km/s) = 7.19477 6.14901 6.69235
#
# Compressibility (1/GPa) = 0.03416265
#
# Stress axis : x y z
#
# Youngs Moduli (GPa) = 89.39707 28.43622 99.34169
#
# Poissons Ratio (x) = 0.20348 0.29858
# Poissons Ratio (y) = 0.63971 0.09604
# Poissons Ratio (z) = 0.26869 0.02749
#
# Static dielectric constant tensor:
#      x y z
#    x 1.708880 0.000000 0.004370 
#    y 0.000000 1.732080 0.000000 
#    z 0.004370 0.000000 1.739950 
# 
# From -- ./inp_files/301711.got.cif
#   From: 2010.05.17/outbox.cif.g08.bks.cpg/sg12_151_cif.got.tgz:301711.got - 2010.06.03 13:09:07.
