data_PCOD9183996
_publ_section_title
;
Structure prediction by ZEFSAII (Michael W. Deem and Ramdas Pophale) SiO2 
 PCOD9183996
Probable space group: C 2/M
;
_chemical_formula_sum "Si O2"
_cell_formula_units_Z 64
_cell_length_a 22.492776
_cell_length_b 11.580654
_cell_length_c 21.581894
_cell_angle_alpha 90.000000
_cell_angle_beta 144.966181
_cell_angle_gamma 90.000000
_cell_volume 3227.177610
_symmetry_space_group_name_H-M "C 2/M"
_symmetry_group_IT_number 12
_symmetry_cell_setting 'monoclinic'
loop_
_space_group_symop_operation_xyz
x,y,z
-x,y,-z
-x,-y,-z
x,-y,z
1/2+x,1/2+y,z
1/2-x,1/2+y,-z
1/2-x,1/2-y,-z
1/2+x,1/2-y,z
loop_
_atom_site_type_symbol
_atom_site_label
_atom_site_fract_x
_atom_site_fract_y
_atom_site_fract_z
Si Si1 0.647074 0.625354 0.311387
Si Si2 0.104650 0.627522 0.470978
Si Si3 0.334288 0.363970 0.185248
Si Si4 0.503001 0.204598 0.263119
Si Si5 0.760039 0.366845 0.765330
Si Si6 0.550582 0.295742 0.103819
Si Si7 0.915853 0.128762 0.482584
Si Si8 0.399698 0.130159 0.051197
O O1 0.616914 0.500000 0.310996
O O2 0.770704 0.634759 0.420573
O O3 0.591242 0.722633 0.303390
O O4 0.606039 0.633224 0.205703
O O5 0.077070 0.500000 0.475377
O O6 0.068281 0.750474 0.468526
O O7 0.058684 0.629685 0.362778
O O8 0.360021 0.500000 0.204651
O O9 0.421616 0.289031 0.227450
O O10 0.312502 0.332635 0.238582
O O11 0.222729 0.347254 0.057424
O O12 0.441249 0.139332 0.156465
O O13 0.789057 0.500000 0.801179
O O14 0.860536 0.289361 0.845591
O O15 0.694629 0.362053 0.646357
O O16 0.462731 0.220858 0.063688
O O17 0.500000 0.354006 0.000000
O O18 0.000000 0.123906 0.500000
O O19 0.920354 0.000000 0.517944
O O20 0.418060 0.000000 0.043632
#
# Coordination Sequence:
#
# PCOD9183996 Si02
#       8
#     8   8   8   8   8   8   8   8
#     4  10  23  41  60  85 118 157 203 252 303 362
#     4  11  23  41  62  87 123 161 203 257 307 361
#     4  10  20  35  58  85 116 153 193 245 303 360
#     4  11  22  38  59  83 114 158 205 248 298 359
#     4  10  19  33  56  88 119 147 190 244 300 361
#     4  11  20  35  61  86 115 150 192 243 304 365
#     4  10  21  38  61  91 125 159 201 250 299 365
#     4  10  21  35  55  85 117 150 191 246 302 357
#
# _framework density 19.831569999999999
#
# number of rings (size 3 to 8) (size 9 to 14) (size 15 to 20)
#    0.000    1.625    2.500    2.625    0.000    3.000 
#    0.000    0.625    0.000    1.500    0.000    0.000 
#    0.000    0.000    0.000    0.000    0.000    0.000 
#
# Total GULP energy -178534.620989 kJ/mol
# GULP energy per Si atom -5579.206906 kJ/mol
# Density = 1.978643 g / cm^3
# Si number density = 19.831570 Si / 1000 Ang^3
#
#
#
# Elastic Constant Matrix: (Units=GPa)
#
#
# Indices 1 2 3 4 5 6 
#
# 1 56.0892 32.2637 19.5673 0.0000 -3.1396 0.0000
# 2 32.2637 109.2953 32.4553 0.0000 -6.5732 0.0000
# 3 19.5673 32.4553 120.2819 0.0000 -8.4683 0.0000
# 4 0.0000 0.0000 0.0000 6.5125 0.0000 0.2846
# 5 -3.1396 -6.5732 -8.4683 0.0000 28.0138 0.0000
# 6 0.0000 0.0000 0.0000 0.2846 0.0000 26.8103
#
#
#
# Elastic Compliance Matrix: (Units=1/GPa)
#
#
# Indices 1 2 3 4 5 6 
#
# 1 0.021906 -0.005858 -0.001948 0.000000 0.000491 0.000000
# 2 -0.005858 0.011580 -0.002071 0.000000 0.001435 0.000000
# 3 -0.001948 -0.002071 0.009339 0.000000 0.002119 0.000000
# 4 0.000000 0.000000 0.000000 0.153623 0.000000 -0.001631
# 5 0.000491 0.001435 0.002119 0.000000 0.036729 0.000000
# 6 0.000000 0.000000 0.000000 -0.001631 0.000000 0.037316
#
#
# Mechanical properties :
#
#
# Convention : Reuss Voigt Hill
#
# Bulk Modulus (GPa) = 43.34640 50.47102 46.90871
# Shear Modulus (GPa) = 16.78208 25.69265 21.23736
#
# Velocity S-wave (km/s) = 2.91216 3.60327 3.27599
# Velocity P-wave (km/s) = 5.76301 6.54343 6.16558
#
# Compressibility (1/GPa) = 0.02306997
#
# Stress axis : x y z
#
# Youngs Moduli (GPa) = 45.64995 86.35531 107.08238
#
# Poissons Ratio (x) = 0.50591 0.20862
# Poissons Ratio (y) = 0.26744 0.22172
# Poissons Ratio (z) = 0.08894 0.17880
#
# Static dielectric constant tensor:
#      x y z
#    x 1.666800 0.000000 -0.031780 
#    y 0.000000 1.709250 0.000000 
#    z -0.031780 0.000000 1.729530 
# 
# From -- ./inp_files/321278.got.cif
#   From: 2010.05.17/outbox.cif.g08.bks.cpg/sg12_161_cif.got.tgz:321278.got - 2010.06.03 13:09:07.
