data_PCOD9183699
_publ_section_title
;
Structure prediction by ZEFSAII (Michael W. Deem and Ramdas Pophale) SiO2 
 PCOD9183699
Probable space group: C 2/M
;
_chemical_formula_sum "Si O2"
_cell_formula_units_Z 56
_cell_length_a 24.171088
_cell_length_b 9.079187
_cell_length_c 13.289363
_cell_angle_alpha 90.000000
_cell_angle_beta 90.968424
_cell_angle_gamma 90.000000
_cell_volume 2915.985007
_symmetry_space_group_name_H-M "C 2/M"
_symmetry_group_IT_number 12
_symmetry_cell_setting 'monoclinic'
loop_
_space_group_symop_operation_xyz
x,y,z
-x,y,-z
-x,-y,-z
x,-y,z
1/2+x,1/2+y,z
1/2-x,1/2+y,-z
1/2-x,1/2-y,-z
1/2+x,1/2-y,z
loop_
_atom_site_type_symbol
_atom_site_label
_atom_site_fract_x
_atom_site_fract_y
_atom_site_fract_z
Si Si1 0.308084 0.323812 0.218634
Si Si2 0.916837 0.674268 0.146023
Si Si3 0.319005 0.176008 0.819365
Si Si4 0.912070 0.828378 0.943172
Si Si5 0.988241 0.829204 0.745954
Si Si6 0.880642 0.822795 0.634279
Si Si7 0.196458 0.823921 0.547584
O O1 0.318066 0.500000 0.211094
O O2 0.355776 0.236264 0.164267
O O3 0.246259 0.294160 0.177395
O O4 0.309740 0.281643 0.336639
O O5 0.917620 0.500000 0.140806
O O6 0.958092 0.732250 0.233648
O O7 0.934830 0.744136 0.040289
O O8 0.354665 0.254782 0.906431
O O9 0.342904 0.239650 0.715044
O O10 0.327514 0.000000 0.822632
O O11 0.951873 0.819738 0.847390
O O12 0.904742 0.000000 0.967822
O O13 0.944580 0.784966 0.658229
O O14 0.004392 0.000000 0.732035
O O15 0.856481 0.790352 0.523805
O O16 0.876012 0.000000 0.652311
O O17 0.250000 0.750000 0.500000
O O18 0.204638 0.000000 0.545613
#
# Coordination Sequence:
#
# PCOD9183699 Si02
#       7
#     8   8   8   8   8   8   8
#     4  10  22  38  55  79 115 154 186 222 274 333
#     4  12  25  38  55  80 109 147 189 234 280 324
#     4  10  19  33  55  85 115 144 182 228 275 323
#     4  10  21  38  61  84 109 145 184 226 277 333
#     4   9  19  37  59  82 109 145 184 224 273 331
#     4   9  18  33  57  86 114 144 182 226 275 328
#     4  10  19  34  58  87 114 145 185 226 272 326
#
# _framework density 19.204488000000001
#
# number of rings (size 3 to 8) (size 9 to 14) (size 15 to 20)
#    0.000    2.000    1.429    3.429    0.000    6.857 
#    0.000    0.714    0.000    4.286    0.000    0.000 
#    0.000    0.000    0.000    0.000    0.000    0.000 
#
# Total GULP energy -156373.880787 kJ/mol
# GULP energy per Si atom -5584.781457 kJ/mol
# Density = 1.916078 g / cm^3
# Si number density = 19.204488 Si / 1000 Ang^3
#
#
#
# Elastic Constant Matrix: (Units=GPa)
#
#
# Indices 1 2 3 4 5 6 
#
# 1 81.6495 45.7400 6.6460 0.0000 26.7721 0.0000
# 2 45.7400 67.4209 6.3846 0.0000 11.3878 0.0000
# 3 6.6460 6.3846 36.4908 0.0000 17.5713 0.0000
# 4 0.0000 0.0000 0.0000 21.4284 0.0000 3.3474
# 5 26.7721 11.3878 17.5713 0.0000 28.5247 0.0000
# 6 0.0000 0.0000 0.0000 3.3474 0.0000 29.2081
#
#
#
# Elastic Compliance Matrix: (Units=1/GPa)
#
#
# Indices 1 2 3 4 5 6 
#
# 1 0.029879 -0.016546 0.011055 0.000000 -0.028247 0.000000
# 2 -0.016546 0.025072 -0.005731 0.000000 0.009051 0.000000
# 3 0.011055 -0.005731 0.043061 0.000000 -0.034613 0.000000
# 4 0.000000 0.000000 0.000000 0.047518 0.000000 -0.005446
# 5 -0.028247 0.009051 -0.034613 0.000000 0.079278 0.000000
# 6 0.000000 0.000000 0.000000 -0.005446 0.000000 0.034861
#
#
# Mechanical properties :
#
#
# Convention : Reuss Voigt Hill
#
# Bulk Modulus (GPa) = 13.23342 33.67801 23.45572
# Shear Modulus (GPa) = 16.27065 24.28495 20.27780
#
# Velocity S-wave (km/s) = 2.91388 3.55990 3.25297
# Velocity P-wave (km/s) = 4.26927 5.87127 5.13315
#
# Compressibility (1/GPa) = 0.07556626
#
# Stress axis : x y z
#
# Youngs Moduli (GPa) = 33.46846 39.88581 23.22294
#
# Poissons Ratio (x) = 0.65996 -0.25673
# Poissons Ratio (y) = 0.55378 0.13310
# Poissons Ratio (z) = -0.37000 0.22860
#
# Static dielectric constant tensor:
#      x y z
#    x 1.674020 0.000000 0.021880 
#    y 0.000000 1.637340 0.000000 
#    z 0.021880 0.000000 1.681840 
# 
# From -- ./inp_files/230872.got.cif
#   From: 2010.05.17/outbox.cif.g08.bks.cpg/sg12_116_cif.got.tgz:230872.got - 2010.06.03 13:09:07.
