data_PCOD9183426
_publ_section_title
;
Structure prediction by ZEFSAII (Michael W. Deem and Ramdas Pophale) SiO2 
 PCOD9183426
Probable space group: C 2/M
;
_chemical_formula_sum "Si O2"
_cell_formula_units_Z 36
_cell_length_a 15.158519
_cell_length_b 17.919237
_cell_length_c 18.002921
_cell_angle_alpha 90.000000
_cell_angle_beta 158.542737
_cell_angle_gamma 90.000000
_cell_volume 1788.839689
_symmetry_space_group_name_H-M "C 2/M"
_symmetry_group_IT_number 12
_symmetry_cell_setting 'monoclinic'
loop_
_space_group_symop_operation_xyz
x,y,z
-x,y,-z
-x,-y,-z
x,-y,z
1/2+x,1/2+y,z
1/2-x,1/2+y,-z
1/2-x,1/2-y,-z
1/2+x,1/2-y,z
loop_
_atom_site_type_symbol
_atom_site_label
_atom_site_fract_x
_atom_site_fract_y
_atom_site_fract_z
Si Si1 0.602799 0.213674 0.220277
Si Si2 0.000000 0.201272 0.000000
Si Si3 0.551815 0.341160 0.798584
Si Si4 0.786875 0.914307 0.454196
Si Si5 0.759556 0.917681 0.913968
O O1 0.647406 0.250681 0.175599
O O2 0.609472 0.274827 0.292113
O O3 0.758902 0.142100 0.363589
O O4 0.319958 0.190606 0.995102
O O5 0.822839 0.147614 0.906998
O O6 0.454591 0.378468 0.648371
O O7 0.583926 0.401260 0.889685
O O8 0.518006 0.914772 0.279093
O O9 0.851348 0.000000 0.486858
O O10 0.811328 0.000000 0.924898
#
# Coordination Sequence:
#
# PCOD9183426 Si02
#       5
#     8   4   8   8   8
#     4   9  19  33  51  74 100 134 171 204 247 297
#     4  10  19  34  51  72 108 142 162 200 253 304
#     4   9  17  33  54  74  98 131 172 213 245 288
#     4  10  19  33  55  78  99 129 171 214 250 289
#     4   9  18  32  52  79 106 132 163 203 255 306
#
# _framework density 20.124777000000002
#
# number of rings (size 3 to 8) (size 9 to 14) (size 15 to 20)
#    0.000    2.667    0.000    3.000    0.000    0.889 
#    0.000   10.556    0.000   13.333    0.000    0.000 
#    0.000    0.000    0.000    0.000    0.000    0.000 
#
# Total GULP energy -100466.013939 kJ/mol
# GULP energy per Si atom -5581.445219 kJ/mol
# Density = 2.007897 g / cm^3
# Si number density = 20.124777 Si / 1000 Ang^3
#
#
#
# Elastic Constant Matrix: (Units=GPa)
#
#
# Indices 1 2 3 4 5 6 
#
# 1 52.6748 39.5572 18.7912 -0.0184 -21.5743 -0.0238
# 2 39.5572 154.1166 64.5758 -0.0322 -32.1840 -0.0396
# 3 18.7912 64.5758 71.7430 0.0023 -25.1156 -0.0078
# 4 -0.0184 -0.0322 0.0023 10.8245 -0.0234 -1.1814
# 5 -21.5743 -32.1840 -25.1156 -0.0234 26.6528 -0.0500
# 6 -0.0238 -0.0396 -0.0078 -1.1814 -0.0500 22.0076
#
#
#
# Elastic Compliance Matrix: (Units=1/GPa)
#
#
# Indices 1 2 3 4 5 6 
#
# 1 0.030474 -0.004897 0.004464 0.000095 0.022961 0.000083
# 2 -0.004897 0.011794 -0.008558 0.000035 0.002212 0.000020
# 3 0.004464 -0.008558 0.027040 0.000022 0.018760 0.000043
# 4 0.000095 0.000035 0.000022 0.092929 0.000231 0.004989
# 5 0.022961 0.002212 0.018760 0.000231 0.076455 0.000221
# 6 0.000083 0.000020 0.000043 0.004989 0.000221 0.045707
#
#
# Mechanical properties :
#
#
# Convention : Reuss Voigt Hill
#
# Bulk Modulus (GPa) = 19.48370 58.26476 38.87423
# Shear Modulus (GPa) = 15.64998 22.27099 18.96049
#
# Velocity S-wave (km/s) = 2.79166 3.33024 3.07277
# Velocity P-wave (km/s) = 4.48259 6.61830 5.65223
#
# Compressibility (1/GPa) = 0.05132497
#
# Stress axis : x y z
#
# Youngs Moduli (GPa) = 32.81507 84.79222 36.98226
#
# Poissons Ratio (x) = 0.41527 -0.16510
# Poissons Ratio (y) = 0.16071 0.31650
# Poissons Ratio (z) = -0.14650 0.72566
#
# Static dielectric constant tensor:
#      x y z
#    x 1.713110 -0.000010 0.002470 
#    y -0.000010 1.745370 -0.000020 
#    z 0.002470 -0.000020 1.689630 
# 
# From -- ./inp_files/14935.got.cif
#   From: 2010.05.17/outbox.cif.g08.bks.cpg/sg12_8_cif.got.tgz:14935.got - 2010.06.03 13:09:07.
