data_PCOD9183269
_publ_section_title
;
Structure prediction by ZEFSAII (Michael W. Deem and Ramdas Pophale) SiO2 
 PCOD9183269
Probable space group: C 2/M
;
_chemical_formula_sum "Si O2"
_cell_formula_units_Z 56
_cell_length_a 34.341880
_cell_length_b 8.587611
_cell_length_c 15.423378
_cell_angle_alpha 90.000000
_cell_angle_beta 46.125261
_cell_angle_gamma 90.000000
_cell_volume 3278.875331
_symmetry_space_group_name_H-M "C 2/M"
_symmetry_group_IT_number 12
_symmetry_cell_setting 'monoclinic'
loop_
_space_group_symop_operation_xyz
x,y,z
-x,y,-z
-x,-y,-z
x,-y,z
1/2+x,1/2+y,z
1/2-x,1/2+y,-z
1/2-x,1/2-y,-z
1/2+x,1/2-y,z
loop_
_atom_site_type_symbol
_atom_site_label
_atom_site_fract_x
_atom_site_fract_y
_atom_site_fract_z
Si Si1 0.394332 0.683629 0.992657
Si Si2 0.171044 0.685109 0.059747
Si Si3 0.121167 0.186605 0.665053
Si Si4 0.504522 0.186120 0.891332
Si Si5 0.705993 0.687559 0.184020
Si Si6 0.801986 0.189555 0.607820
Si Si7 0.818456 0.313549 0.260627
O O1 0.388902 0.500000 0.014393
O O2 0.356487 0.770545 0.121042
O O3 0.373036 0.730487 0.930898
O O4 0.455430 0.735527 0.916076
O O5 0.164112 0.500000 0.063367
O O6 0.173010 0.736644 0.156594
O O7 0.230633 0.724674 0.929596
O O8 0.062654 0.261974 0.767216
O O9 0.152100 0.238356 0.530272
O O10 0.157648 0.234478 0.690817
O O11 0.115547 0.000000 0.672305
O O12 0.499098 0.000000 0.894446
O O13 0.500000 0.230599 0.000000
O O14 0.700948 0.500000 0.185978
O O15 0.690358 0.739577 0.304630
O O16 0.742703 0.237248 0.665687
O O17 0.801363 0.000000 0.609847
O O18 0.819182 0.500000 0.270991
#
# Coordination Sequence:
#
# PCOD9183269 Si02
#       7
#     8   8   8   8   8   8   8
#     4  12  23  35  56  83 110 141 182 229 273 321
#     4  10  19  33  54  81 112 143 178 222 272 323
#     4  11  22  36  55  81 110 145 188 227 266 318
#     4  11  23  39  58  77 105 145 184 226 277 323
#     4   9  17  33  54  78 111 147 181 217 264 322
#     4   9  19  35  55  79 113 151 182 219 268 323
#     4  11  20  35  54  78 113 151 182 217 270 323
#
# _framework density 17.079025999999999
#
# number of rings (size 3 to 8) (size 9 to 14) (size 15 to 20)
#    0.000    1.571    2.857    3.429    0.000    1.143 
#    0.000    3.571    0.000    0.857    0.000    6.000 
#    0.000    0.000    0.000    0.000    0.000    0.000 
#
# Total GULP energy -156409.156053 kJ/mol
# GULP energy per Si atom -5586.041288 kJ/mol
# Density = 1.704015 g / cm^3
# Si number density = 17.079026 Si / 1000 Ang^3
#
#
#
# Elastic Constant Matrix: (Units=GPa)
#
#
# Indices 1 2 3 4 5 6 
#
# 1 106.3596 15.0195 48.3122 0.0000 10.1690 0.0000
# 2 15.0195 24.0019 -2.4118 -0.0001 -4.1973 0.0001
# 3 48.3122 -2.4118 100.1614 0.0000 -3.3369 0.0001
# 4 0.0000 -0.0001 0.0000 11.9599 0.0000 7.7141
# 5 10.1690 -4.1973 -3.3369 0.0000 16.3484 0.0000
# 6 0.0000 0.0001 0.0001 7.7141 0.0000 21.6694
#
#
#
# Elastic Compliance Matrix: (Units=1/GPa)
#
#
# Indices 1 2 3 4 5 6 
#
# 1 0.017179 -0.014520 -0.009178 0.000000 -0.016287 0.000000
# 2 -0.014520 0.056100 0.009198 0.000001 0.025312 -0.000001
# 3 -0.009178 0.009198 0.015003 0.000000 0.011133 0.000000
# 4 0.000000 0.000001 0.000000 0.108533 0.000001 -0.038637
# 5 -0.016287 0.025312 0.011133 0.000001 0.080070 0.000000
# 6 0.000000 -0.000001 0.000000 -0.038637 0.000000 0.059902
#
#
# Mechanical properties :
#
#
# Convention : Reuss Voigt Hill
#
# Bulk Modulus (GPa) = 16.86882 39.15142 28.01012
# Shear Modulus (GPa) = 12.96853 21.30242 17.13548
#
# Velocity S-wave (km/s) = 2.75857 3.53552 3.17094
# Velocity P-wave (km/s) = 4.47713 6.29603 5.46282
#
# Compressibility (1/GPa) = 0.05928095
#
# Stress axis : x y z
#
# Youngs Moduli (GPa) = 58.21132 17.82525 66.65181
#
# Poissons Ratio (x) = 0.25883 0.61175
# Poissons Ratio (y) = 0.84524 -0.61305
# Poissons Ratio (z) = 0.53428 -0.16395
#
# Static dielectric constant tensor:
#      x y z
#    x 1.560140 0.000000 0.011040 
#    y 0.000000 1.575100 0.000000 
#    z 0.011040 0.000000 1.563940 
# 
# From -- ./inp_files/248920.got.cif
#   From: 2010.05.17/outbox.cif.g08.bks.cpg/sg12_125_cif.got.tgz:248920.got - 2010.06.03 13:09:07.
