data_PCOD9183410
_publ_section_title
;
Structure prediction by ZEFSAII (Michael W. Deem and Ramdas Pophale) SiO2 
 PCOD9183410
Probable space group: C 2/M
;
_chemical_formula_sum "Si O2"
_cell_formula_units_Z 48
_cell_length_a 13.889493
_cell_length_b 11.430619
_cell_length_c 26.841163
_cell_angle_alpha 90.000000
_cell_angle_beta 148.719425
_cell_angle_gamma 90.000000
_cell_volume 2212.670485
_symmetry_space_group_name_H-M "C 2/M"
_symmetry_group_IT_number 12
_symmetry_cell_setting 'monoclinic'
loop_
_space_group_symop_operation_xyz
x,y,z
-x,y,-z
-x,-y,-z
x,-y,z
1/2+x,1/2+y,z
1/2-x,1/2+y,-z
1/2-x,1/2-y,-z
1/2+x,1/2-y,z
loop_
_atom_site_type_symbol
_atom_site_label
_atom_site_fract_x
_atom_site_fract_y
_atom_site_fract_z
Si Si1 0.279298 0.134970 0.547522
Si Si2 0.031341 0.203339 0.239199
Si Si3 0.872785 0.870124 0.382449
Si Si4 0.608380 0.714419 0.721626
Si Si5 0.808194 0.864243 0.942404
Si Si6 0.548595 0.629012 0.136712
O O1 0.250000 0.250000 0.500000
O O2 0.472301 0.171908 0.657670
O O3 0.088440 0.136940 0.494308
O O4 0.293017 0.000000 0.534093
O O5 0.228688 0.268898 0.332532
O O6 0.040590 0.129345 0.192880
O O7 0.968072 0.148523 0.263606
O O8 0.868854 0.294810 0.154086
O O9 0.892947 0.856697 0.330572
O O10 0.799287 0.000000 0.360969
O O11 0.812084 0.768067 0.816688
O O12 0.776705 0.000000 0.917971
O O13 0.000000 0.828843 0.000000
O O14 0.856826 0.853466 0.022505
O O15 0.615661 0.500000 0.150183
#
# Coordination Sequence:
#
# PCOD9183410 Si02
#       6
#     8   8   8   8   8   8
#     4   9  18  34  55  80 112 148 185 229 278 330
#     4  11  21  34  55  80 106 138 177 223 271 320
#     4   9  20  36  53  77 108 140 177 221 271 322
#     4  10  20  34  55  79 106 142 180 221 269 324
#     4  10  19  33  55  78 102 136 177 220 268 321
#     4  10  21  36  53  77 107 140 178 219 266 324
#
# _framework density 21.693245000000001
#
# number of rings (size 3 to 8) (size 9 to 14) (size 15 to 20)
#    0.000    2.167    1.667    1.500    0.000    3.333 
#    0.000    1.667    0.000    0.500    0.000   16.333 
#    0.000    0.000    0.000    0.000    0.000    0.000 
#
# Total GULP energy -133729.995484 kJ/mol
# GULP energy per Si atom -5572.083145 kJ/mol
# Density = 2.164387 g / cm^3
# Si number density = 21.693245 Si / 1000 Ang^3
#
#
#
# Elastic Constant Matrix: (Units=GPa)
#
#
# Indices 1 2 3 4 5 6 
#
# 1 89.8673 11.4347 -17.5242 0.0000 -8.4534 0.0000
# 2 11.4347 81.9338 17.3940 0.0000 3.0313 0.0000
# 3 -17.5242 17.3940 76.0501 0.0000 4.4586 0.0000
# 4 0.0000 0.0000 0.0000 10.3936 0.0000 -1.2809
# 5 -8.4534 3.0313 4.4586 0.0000 29.9303 0.0000
# 6 0.0000 0.0000 0.0000 -1.2809 0.0000 17.1672
#
#
#
# Elastic Compliance Matrix: (Units=1/GPa)
#
#
# Indices 1 2 3 4 5 6 
#
# 1 0.012391 -0.002539 0.003244 0.000000 0.003274 0.000000
# 2 -0.002539 0.013371 -0.003553 0.000000 -0.001542 0.000000
# 3 0.003244 -0.003553 0.014763 0.000000 -0.000923 0.000000
# 4 0.000000 0.000000 0.000000 0.097106 0.000000 0.007245
# 5 0.003274 -0.001542 -0.000923 0.000000 0.034629 0.000000
# 6 0.000000 0.000000 0.000000 0.007245 0.000000 0.058791
#
#
# Mechanical properties :
#
#
# Convention : Reuss Voigt Hill
#
# Bulk Modulus (GPa) = 28.71119 30.05114 29.38116
# Shear Modulus (GPa) = 20.13235 27.26802 23.70018
#
# Velocity S-wave (km/s) = 3.04969 3.54924 3.30891
# Velocity P-wave (km/s) = 5.06603 5.53886 5.30771
#
# Compressibility (1/GPa) = 0.03482962
#
# Stress axis : x y z
#
# Youngs Moduli (GPa) = 80.70285 74.79084 67.73472
#
# Poissons Ratio (x) = 0.18990 -0.21974
# Poissons Ratio (y) = 0.20491 0.24065
# Poissons Ratio (z) = -0.26181 0.26572
#
# Static dielectric constant tensor:
#      x y z
#    x 1.909780 0.000000 -0.082130 
#    y 0.000000 1.731060 0.000000 
#    z -0.082130 0.000000 1.825390 
# 
# From -- ./inp_files/212546.got.cif
#   From: 2010.05.17/outbox.cif.g08.bks.cpg/sg12_107_cif.got.tgz:212546.got - 2010.06.03 13:09:07.
