data_PCOD9183927
_publ_section_title
;
Structure prediction by ZEFSAII (Michael W. Deem and Ramdas Pophale) SiO2 
 PCOD9183927
Probable space group: C 2/M
;
_chemical_formula_sum "Si O2"
_cell_formula_units_Z 44
_cell_length_a 11.649190
_cell_length_b 28.500319
_cell_length_c 11.762081
_cell_angle_alpha 90.000000
_cell_angle_beta 142.814517
_cell_angle_gamma 90.000000
_cell_volume 2360.217989
_symmetry_space_group_name_H-M "C 2/M"
_symmetry_group_IT_number 12
_symmetry_cell_setting 'monoclinic'
loop_
_space_group_symop_operation_xyz
x,y,z
-x,y,-z
-x,-y,-z
x,-y,z
1/2+x,1/2+y,z
1/2-x,1/2+y,-z
1/2-x,1/2-y,-z
1/2+x,1/2-y,z
loop_
_atom_site_type_symbol
_atom_site_label
_atom_site_fract_x
_atom_site_fract_y
_atom_site_fract_z
Si Si1 0.000000 0.353487 0.500000
Si Si2 0.784291 0.792569 0.877650
Si Si3 0.230823 0.126042 0.478192
Si Si4 0.312988 0.130593 0.802872
Si Si5 0.575323 0.446519 0.690513
Si Si6 0.081694 0.194921 0.771552
O O1 0.158947 0.323426 0.693267
O O2 0.114680 0.381998 0.495852
O O3 0.653747 0.746798 0.798896
O O4 0.819070 0.816173 0.028887
O O5 0.000000 0.782548 0.000000
O O6 0.317463 0.125822 0.672466
O O7 0.068870 0.085802 0.351545
O O8 0.134984 0.177653 0.384801
O O9 0.272588 0.081274 0.833901
O O10 0.146116 0.163478 0.716039
O O11 0.500000 0.153245 0.000000
O O12 0.500000 0.446208 0.500000
O O13 0.588376 0.500000 0.739155
#
# Coordination Sequence:
#
# PCOD9183927 Si02
#       6
#     4   8   8   8   8   8
#     4  12  24  36  57  82 112 154 191 228 282 336
#     4  11  23  38  55  82 111 148 191 238 276 332
#     4  10  21  37  57  82 112 150 187 230 289 333
#     4  10  19  33  56  84 113 145 184 236 283 332
#     4   8  16  33  57  82 110 143 182 232 283 335
#     4  10  21  39  55  77 111 145 193 233 281 325
#
# _framework density 18.642346
#
# number of rings (size 3 to 8) (size 9 to 14) (size 15 to 20)
#    0.000    2.000    1.818    3.273    2.545    2.545 
#    0.000    0.455    0.000    0.000    0.000   11.455 
#    0.000    0.000    0.000    0.000    0.000    0.000 
#
# Total GULP energy -122485.891305 kJ/mol
# GULP energy per Si atom -5567.540514 kJ/mol
# Density = 1.859992 g / cm^3
# Si number density = 18.642346 Si / 1000 Ang^3
#
#
#
# Elastic Constant Matrix: (Units=GPa)
#
#
# Indices 1 2 3 4 5 6 
#
# 1 145.5840 31.0414 30.3971 0.0000 -7.7692 0.0000
# 2 31.0414 59.9881 12.9453 0.0000 -4.5558 0.0000
# 3 30.3971 12.9453 60.6435 0.0000 -5.9629 0.0000
# 4 0.0000 0.0000 0.0000 16.6856 0.0000 -0.4734
# 5 -7.7692 -4.5558 -5.9629 0.0000 30.3713 0.0000
# 6 0.0000 0.0000 0.0000 -0.4734 0.0000 10.5432
#
#
#
# Elastic Compliance Matrix: (Units=1/GPa)
#
#
# Indices 1 2 3 4 5 6 
#
# 1 0.008373 -0.003538 -0.003348 0.000000 0.000954 0.000000
# 2 -0.003538 0.019081 -0.002149 0.000000 0.001535 0.000000
# 3 -0.003348 -0.002149 0.018875 0.000000 0.002527 0.000000
# 4 0.000000 0.000000 0.000000 0.060008 0.000000 0.002695
# 5 0.000954 0.001535 0.002527 0.000000 0.033896 0.000000
# 6 0.000000 0.000000 0.000000 0.002695 0.000000 0.094969
#
#
# Mechanical properties :
#
#
# Convention : Reuss Voigt Hill
#
# Bulk Modulus (GPa) = 35.38576 46.10924 40.74750
# Shear Modulus (GPa) = 19.03368 24.30881 21.67125
#
# Velocity S-wave (km/s) = 3.19876 3.61495 3.41321
# Velocity P-wave (km/s) = 5.71536 6.49701 6.11868
#
# Compressibility (1/GPa) = 0.02825995
#
# Stress axis : x y z
#
# Youngs Moduli (GPa) = 119.42906 52.40827 52.97968
#
# Poissons Ratio (x) = 0.18541 0.17738
# Poissons Ratio (y) = 0.42252 0.11384
# Poissons Ratio (z) = 0.39985 0.11262
#
# Static dielectric constant tensor:
#      x y z
#    x 1.721150 0.000000 0.048720 
#    y 0.000000 1.658570 0.000000 
#    z 0.048720 0.000000 1.664970 
# 
# From -- ./inp_files/137494.got.cif
#   From: 2010.05.17/outbox.cif.g08.bks.cpg/sg12_69_cif.got.tgz:137494.got - 2010.06.03 13:09:07.
