data_PCOD9183565
_publ_section_title
;
Structure prediction by ZEFSAII (Michael W. Deem and Ramdas Pophale) SiO2 
 PCOD9183565
Probable space group: C 2/M
;
_chemical_formula_sum "Si O2"
_cell_formula_units_Z 56
_cell_length_a 28.013070
_cell_length_b 8.730813
_cell_length_c 18.071911
_cell_angle_alpha 90.000000
_cell_angle_beta 44.006767
_cell_angle_gamma 90.000000
_cell_volume 3070.745714
_symmetry_space_group_name_H-M "C 2/M"
_symmetry_group_IT_number 12
_symmetry_cell_setting 'monoclinic'
loop_
_space_group_symop_operation_xyz
x,y,z
-x,y,-z
-x,-y,-z
x,-y,z
1/2+x,1/2+y,z
1/2-x,1/2+y,-z
1/2-x,1/2-y,-z
1/2+x,1/2-y,z
loop_
_atom_site_type_symbol
_atom_site_label
_atom_site_fract_x
_atom_site_fract_y
_atom_site_fract_z
Si Si1 0.321744 0.816487 0.390562
Si Si2 0.562898 0.186729 0.620474
Si Si3 0.410972 0.185025 0.833634
Si Si4 0.194773 0.182262 0.748874
Si Si5 0.164896 0.315568 0.936856
Si Si6 0.852596 0.684191 0.614544
Si Si7 0.820877 0.182489 0.804488
O O1 0.250000 0.750000 0.500000
O O2 0.382892 0.766611 0.376979
O O3 0.331791 0.761056 0.295671
O O4 0.318082 0.000000 0.396952
O O5 0.486322 0.238614 0.724859
O O6 0.591990 0.234243 0.508094
O O7 0.562376 0.000000 0.620381
O O8 0.355027 0.243417 0.837827
O O9 0.410343 0.000000 0.832785
O O10 0.389931 0.231253 0.940086
O O11 0.158418 0.239612 0.864022
O O12 0.276165 0.219377 0.668427
O O13 0.189215 0.000000 0.748104
O O14 0.163012 0.500000 0.930233
O O15 0.240760 0.274648 0.883399
O O16 0.856655 0.500000 0.618819
O O17 0.858302 0.760576 0.688128
O O18 0.824823 0.000000 0.805400
#
# Coordination Sequence:
#
# PCOD9183565 Si02
#       7
#     8   8   8   8   8   8   8
#     4  11  20  34  56  82 109 136 172 216 262 312
#     4   9  19  35  54  77 105 137 177 217 255 310
#     4  10  20  36  56  75 101 141 182 217 256 307
#     4  10  19  33  55  82 107 136 174 217 264 308
#     4   9  19  35  55  79 104 136 179 220 259 305
#     4   9  17  33  53  75 103 135 175 214 256 311
#     4  10  20  33  51  78 108 134 171 220 267 310
#
# _framework density 18.236612999999998
#
# number of rings (size 3 to 8) (size 9 to 14) (size 15 to 20)
#    0.000    2.286    1.429    1.714    0.000    2.286 
#    0.000    5.714    0.000    4.286    0.000    0.000 
#    0.000    0.000    0.000    0.000    0.000    0.000 
#
# Total GULP energy -156281.060096 kJ/mol
# GULP energy per Si atom -5581.466432 kJ/mol
# Density = 1.819511 g / cm^3
# Si number density = 18.236613 Si / 1000 Ang^3
#
#
#
# Elastic Constant Matrix: (Units=GPa)
#
#
# Indices 1 2 3 4 5 6 
#
# 1 20.7947 7.0283 7.3288 -0.0068 17.4188 0.0017
# 2 7.0283 14.0454 16.1704 -0.0108 5.1636 0.0039
# 3 7.3288 16.1704 115.2122 -0.0069 22.2700 0.0030
# 4 -0.0068 -0.0108 -0.0069 22.2352 0.0018 7.8219
# 5 17.4188 5.1636 22.2700 0.0018 24.5798 -0.0005
# 6 0.0017 0.0039 0.0030 7.8219 -0.0005 27.6458
#
#
#
# Elastic Compliance Matrix: (Units=1/GPa)
#
#
# Indices 1 2 3 4 5 6 
#
# 1 0.165777 -0.062913 0.022353 0.000043 -0.124516 -0.000018
# 2 -0.062913 0.110299 -0.018934 0.000032 0.038568 -0.000018
# 3 0.022353 -0.018934 0.014800 0.000005 -0.025273 -0.000002
# 4 0.000043 0.000032 0.000005 0.049945 -0.000046 -0.014131
# 5 -0.124516 0.038568 -0.025273 -0.000046 0.143720 0.000021
# 6 -0.000018 -0.000018 -0.000002 -0.014131 0.000021 0.040170
#
#
# Mechanical properties :
#
#
# Convention : Reuss Voigt Hill
#
# Bulk Modulus (GPa) = 5.81771 23.45636 14.63703
# Shear Modulus (GPa) = 7.13273 22.86047 14.99660
#
# Velocity S-wave (km/s) = 1.97983 3.54439 2.87075
# Velocity P-wave (km/s) = 2.90230 5.44430 4.36255
#
# Compressibility (1/GPa) = 0.17188901
#
# Stress axis : x y z
#
# Youngs Moduli (GPa) = 6.03222 9.06629 67.56618
#
# Poissons Ratio (x) = 0.57038 -1.51032
# Poissons Ratio (y) = 0.37950 1.27929
# Poissons Ratio (z) = -0.13484 0.17166
#
# Static dielectric constant tensor:
#      x y z
#    x 1.600840 0.000000 -0.000670 
#    y 0.000000 1.619090 0.000000 
#    z -0.000670 0.000000 1.633770 
# 
# From -- ./inp_files/288197.got.cif
#   From: 2010.05.17/outbox.cif.g08.bks.cpg/sg12_145_cif.got.tgz:288197.got - 2010.06.03 13:09:07.
