data_PCOD9183804
_publ_section_title
;
Structure prediction by ZEFSAII (Michael W. Deem and Ramdas Pophale) SiO2 
 PCOD9183804
Probable space group: C 2/M
;
_chemical_formula_sum "Si O2"
_cell_formula_units_Z 60
_cell_length_a 18.762426
_cell_length_b 9.846384
_cell_length_c 16.056253
_cell_angle_alpha 90.000000
_cell_angle_beta 62.678207
_cell_angle_gamma 90.000000
_cell_volume 2635.356635
_symmetry_space_group_name_H-M "C 2/M"
_symmetry_group_IT_number 12
_symmetry_cell_setting 'monoclinic'
loop_
_space_group_symop_operation_xyz
x,y,z
-x,y,-z
-x,-y,-z
x,-y,z
1/2+x,1/2+y,z
1/2-x,1/2+y,-z
1/2-x,1/2-y,-z
1/2+x,1/2-y,z
loop_
_atom_site_type_symbol
_atom_site_label
_atom_site_fract_x
_atom_site_fract_y
_atom_site_fract_z
Si Si1 0.974553 0.654355 0.112034
Si Si2 0.009127 0.347435 0.595787
Si Si3 0.839334 0.150446 0.135203
Si Si4 0.359331 0.738233 0.935370
Si Si5 0.330839 0.848965 0.696048
Si Si6 0.137284 0.848313 0.605446
Si Si7 0.244490 0.150539 0.384367
Si Si8 0.245716 0.000000 0.035258
O O1 0.963894 0.500000 0.146250
O O2 0.892577 0.737480 0.151434
O O3 0.046769 0.725592 0.123370
O O4 0.000000 0.649717 0.000000
O O5 0.043018 0.500000 0.591359
O O6 0.920161 0.342967 0.682428
O O7 0.000000 0.332106 0.500000
O O8 0.063354 0.232467 0.606216
O O9 0.744700 0.160446 0.202716
O O10 0.865623 0.000000 0.147085
O O11 0.852457 0.165299 0.029852
O O12 0.310039 0.878950 0.970556
O O13 0.317479 0.623195 0.901969
O O14 0.318980 0.726851 0.639149
O O15 0.324466 0.000000 0.658321
O O16 0.202320 0.861600 0.496401
O O17 0.181024 0.751792 0.647636
O O18 0.118374 0.000000 0.645496
O O19 0.265264 0.000000 0.343380
#
# Coordination Sequence:
#
# PCOD9183804 Si02
#       8
#     8   8   8   8   8   8   8   4
#     4   9  18  32  54  80 105 135 180 229 264 306
#     4  10  19  33  56  81 107 143 189 231 276 331
#     4  10  21  35  56  79 110 143 181 227 277 326
#     4  10  19  35  56  84 110 144 185 222 269 319
#     4  10  21  37  56  79 111 146 183 228 281 336
#     4  10  20  33  55  80 109 138 177 233 279 324
#     4  10  20  34  54  81 106 140 181 224 278 330
#     4  10  20  32  58  84 114 144 180 226 260 324
#
# _framework density 22.767318
#
# number of rings (size 3 to 8) (size 9 to 14) (size 15 to 20)
#    0.000    2.133    2.667    0.800    1.867    3.200 
#    0.000    0.000    5.867    0.000    0.000    0.000 
#    0.000    0.000    0.000    0.000    0.000    0.000 
#
# Total GULP energy -167049.882838 kJ/mol
# GULP energy per Si atom -5568.329428 kJ/mol
# Density = 2.271550 g / cm^3
# Si number density = 22.767318 Si / 1000 Ang^3
#
#
#
# Elastic Constant Matrix: (Units=GPa)
#
#
# Indices 1 2 3 4 5 6 
#
# 1 74.9070 65.0374 7.5474 0.0000 -27.2580 0.0000
# 2 65.0374 220.6044 18.2609 0.0000 -23.0092 0.0000
# 3 7.5474 18.2609 54.7187 0.0000 -12.8042 0.0000
# 4 0.0000 0.0000 0.0000 8.9155 0.0000 -2.3763
# 5 -27.2580 -23.0092 -12.8042 0.0000 28.6918 0.0000
# 6 0.0000 0.0000 0.0000 -2.3763 0.0000 -28.4701
#
#
#
# Elastic Compliance Matrix: (Units=1/GPa)
#
#
# Indices 1 2 3 4 5 6 
#
# 1 0.025663 -0.005613 0.003333 0.000000 0.021366 0.000000
# 2 -0.005613 0.006207 -0.001541 0.000000 -0.001043 0.000000
# 3 0.003333 -0.001541 0.020972 0.000000 0.011290 0.000000
# 4 0.000000 0.000000 0.000000 0.109723 0.000000 -0.009158
# 5 0.021366 -0.001043 0.011290 0.000000 0.059354 0.000000
# 6 0.000000 0.000000 0.000000 -0.009158 0.000000 -0.034360
#
#
# Mechanical properties :
#
#
# Convention : Reuss Voigt Hill
#
# Bulk Modulus (GPa) = 22.12438 59.10239 40.61339
# Shear Modulus (GPa) = 23.77940 19.11972 21.44956
#
# Velocity S-wave (km/s) = 3.23531 2.90105 3.07273
# Velocity P-wave (km/s) = 4.86775 6.10222 5.51961
#
# Compressibility (1/GPa) = 0.04519901
#
# Stress axis : x y z
#
# Youngs Moduli (GPa) = 38.96715 161.11856 47.68340
#
# Poissons Ratio (x) = 0.90438 -0.15894
# Poissons Ratio (y) = 0.21873 0.07349
# Poissons Ratio (z) = -0.12989 0.24831
#
# Static dielectric constant tensor:
#      x y z
#    x 1.885990 0.000000 0.021130 
#    y 0.000000 1.826070 0.000000 
#    z 0.021130 0.000000 1.902840 
# 
# From -- ./inp_files/320501.got.cif
#   From: 2010.05.17/outbox.cif.g08.bks.cpg/sg12_161_cif.got.tgz:320501.got - 2010.06.03 13:09:07.
