data_PCOD9183111
_publ_section_title
;
Structure prediction by ZEFSAII (Michael W. Deem and Ramdas Pophale) SiO2 
 PCOD9183111
Probable space group: C 2/M
;
_chemical_formula_sum "Si O2"
_cell_formula_units_Z 56
_cell_length_a 19.386303
_cell_length_b 8.021715
_cell_length_c 26.141220
_cell_angle_alpha 90.000000
_cell_angle_beta 139.020516
_cell_angle_gamma 90.000000
_cell_volume 2665.950224
_symmetry_space_group_name_H-M "C 2/M"
_symmetry_group_IT_number 12
_symmetry_cell_setting 'monoclinic'
loop_
_space_group_symop_operation_xyz
x,y,z
-x,y,-z
-x,-y,-z
x,-y,z
1/2+x,1/2+y,z
1/2-x,1/2+y,-z
1/2-x,1/2-y,-z
1/2+x,1/2-y,z
loop_
_atom_site_type_symbol
_atom_site_label
_atom_site_fract_x
_atom_site_fract_y
_atom_site_fract_z
Si Si1 0.136504 0.799242 0.916375
Si Si2 0.419887 0.305774 0.832283
Si Si3 0.317639 0.299535 0.489461
Si Si4 0.704487 0.197720 0.748813
Si Si5 0.651526 0.804885 0.317191
Si Si6 0.463324 0.298550 0.422654
Si Si7 0.560425 0.697571 0.762027
O O1 0.116773 0.747525 0.846486
O O2 0.037926 0.733952 0.895142
O O3 0.129982 0.000000 0.913331
O O4 0.250000 0.750000 0.000000
O O5 0.429464 0.500000 0.851990
O O6 0.323660 0.233306 0.811364
O O7 0.379771 0.292731 0.751199
O O8 0.319475 0.500000 0.487701
O O9 0.250000 0.250000 0.500000
O O10 0.255334 0.242714 0.403974
O O11 0.438157 0.244792 0.557447
O O12 0.642804 0.231221 0.661310
O O13 0.634303 0.269541 0.755172
O O14 0.710735 0.000000 0.759695
O O15 0.552945 0.785815 0.300702
O O16 0.664346 0.000000 0.311088
O O17 0.500000 0.249591 0.500000
O O18 0.454112 0.500000 0.417462
O O19 0.539736 0.500000 0.753047
#
# Coordination Sequence:
#
# PCOD9183111 Si02
#       7
#     8   8   8   8   8   8   8
#     4   9  19  37  60  84 109 138 172 212 261 319
#     4   9  20  37  55  78 109 141 172 212 264 316
#     4  10  21  33  47  70  99 132 172 221 271 315
#     4  11  22  36  55  80 109 143 186 229 267 315
#     4  10  19  33  54  78 101 133 183 228 263 317
#     4  10  21  37  54  73 103 144 185 227 278 325
#     4  10  21  37  56  80 112 146 177 217 272 323
#
# _framework density 21.005644
#
# number of rings (size 3 to 8) (size 9 to 14) (size 15 to 20)
#    0.000    2.143    0.000    3.857    0.000    9.429 
#    0.000    0.714    0.000    4.286    0.000    0.000 
#    0.000    0.000    0.000    0.000    0.000    0.000 
#
# Total GULP energy -156318.486204 kJ/mol
# GULP energy per Si atom -5582.803079 kJ/mol
# Density = 2.095783 g / cm^3
# Si number density = 21.005644 Si / 1000 Ang^3
#
#
#
# Elastic Constant Matrix: (Units=GPa)
#
#
# Indices 1 2 3 4 5 6 
#
# 1 90.1137 -4.5524 15.0554 0.0000 24.5645 0.0000
# 2 -4.5524 21.8571 2.0101 0.0000 0.9867 0.0001
# 3 15.0554 2.0101 90.9655 0.0000 30.8687 0.0000
# 4 0.0000 0.0000 0.0000 24.8852 0.0000 -4.0575
# 5 24.5645 0.9867 30.8687 0.0000 34.3183 0.0000
# 6 0.0000 0.0001 0.0000 -4.0575 0.0000 16.9533
#
#
#
# Elastic Compliance Matrix: (Units=1/GPa)
#
#
# Indices 1 2 3 4 5 6 
#
# 1 0.014177 0.003337 0.001520 0.000000 -0.011611 0.000000
# 2 0.003337 0.046638 -0.000457 0.000000 -0.003319 0.000000
# 3 0.001520 -0.000457 0.016000 0.000000 -0.015467 0.000000
# 4 0.000000 0.000000 0.000000 0.041816 0.000000 0.010008
# 5 -0.011611 -0.003319 -0.015467 0.000000 0.051457 0.000000
# 6 0.000000 0.000000 0.000000 0.010008 0.000000 0.061381
#
#
# Mechanical properties :
#
#
# Convention : Reuss Voigt Hill
#
# Bulk Modulus (GPa) = 11.68007 25.32919 18.50463
# Shear Modulus (GPa) = 19.90381 27.92622 23.91502
#
# Velocity S-wave (km/s) = 3.08156 3.65014 3.37783
# Velocity P-wave (km/s) = 4.27012 5.46343 4.90321
#
# Compressibility (1/GPa) = 0.08561594
#
# Stress axis : x y z
#
# Youngs Moduli (GPa) = 70.53827 21.44152 62.49893
#
# Poissons Ratio (x) = -0.07155 -0.09499
# Poissons Ratio (y) = -0.23539 0.02854
# Poissons Ratio (z) = -0.10721 0.00979
#
# Static dielectric constant tensor:
#      x y z
#    x 1.807670 0.000000 0.025310 
#    y 0.000000 1.757730 0.000000 
#    z 0.025310 0.000000 1.740520 
# 
# From -- ./inp_files/342317.got.cif
#   From: 2010.05.17/outbox.cif.g08.bks.cpg/sg12_172_cif.got.tgz:342317.got - 2010.06.03 13:09:07.
