data_PCOD9183038
_publ_section_title
;
Structure prediction by ZEFSAII (Michael W. Deem and Ramdas Pophale) SiO2 
 PCOD9183038
Probable space group: C 2/M
;
_chemical_formula_sum "Si O2"
_cell_formula_units_Z 48
_cell_length_a 15.463714
_cell_length_b 18.325571
_cell_length_c 9.850400
_cell_angle_alpha 90.000000
_cell_angle_beta 137.644408
_cell_angle_gamma 90.000000
_cell_volume 1880.662954
_symmetry_space_group_name_H-M "C 2/M"
_symmetry_group_IT_number 12
_symmetry_cell_setting 'monoclinic'
loop_
_space_group_symop_operation_xyz
x,y,z
-x,y,-z
-x,-y,-z
x,-y,z
1/2+x,1/2+y,z
1/2-x,1/2+y,-z
1/2-x,1/2-y,-z
1/2+x,1/2-y,z
loop_
_atom_site_type_symbol
_atom_site_label
_atom_site_fract_x
_atom_site_fract_y
_atom_site_fract_z
Si Si1 0.967531 0.611690 0.812156
Si Si2 0.312054 0.421689 0.557836
Si Si3 0.350798 0.610362 0.307085
Si Si4 0.304814 0.919691 0.132487
Si Si5 0.649042 0.764358 0.762163
Si Si6 0.403498 0.735204 0.662332
O O1 0.836994 0.590621 0.581550
O O2 0.960167 0.699483 0.817871
O O3 0.000000 0.582925 0.000000
O O4 0.079121 0.588125 0.839859
O O5 0.360047 0.500000 0.663870
O O6 0.293667 0.425694 0.372829
O O7 0.403018 0.351828 0.692244
O O8 0.500000 0.598511 0.500000
O O9 0.312237 0.587988 0.110966
O O10 0.316049 0.695551 0.289476
O O11 0.303465 0.000000 0.194621
O O12 0.322375 0.847726 0.246106
O O13 0.504593 0.750670 0.652724
O O14 0.750000 0.750000 0.000000
O O15 0.250000 0.750000 0.500000
#
# Coordination Sequence:
#
# PCOD9183038 Si02
#       6
#     8   8   8   8   8   8
#     4  10  19  33  54  76 101 130 173 209 251 302
#     4  11  21  32  51  81 107 129 163 212 261 302
#     4  11  20  32  49  72 106 135 163 200 253 306
#     4  10  20  33  52  75 103 133 166 215 258 294
#     4   9  19  35  48  70 101 139 171 195 247 310
#     4   9  19  35  50  70 100 138 169 200 247 305
#
# _framework density 25.522915000000001
#
# number of rings (size 3 to 8) (size 9 to 14) (size 15 to 20)
#    0.000    2.000    3.333    1.000    0.000    2.000 
#    0.000    0.000    0.000    1.000    0.000    1.167 
#    0.000    0.000    0.000    0.000    0.000    0.000 
#
# Total GULP energy -133701.787429 kJ/mol
# GULP energy per Si atom -5570.907810 kJ/mol
# Density = 2.546482 g / cm^3
# Si number density = 25.522915 Si / 1000 Ang^3
#
#
#
# Elastic Constant Matrix: (Units=GPa)
#
#
# Indices 1 2 3 4 5 6 
#
# 1 59.7466 1.8132 15.9231 0.0000 12.4425 0.0000
# 2 1.8132 263.4295 28.1897 0.0000 -0.1122 0.0000
# 3 15.9231 28.1897 57.5550 0.0000 19.0059 0.0000
# 4 0.0000 0.0000 0.0000 21.7006 0.0000 8.1190
# 5 12.4425 -0.1122 19.0059 0.0000 23.7167 0.0000
# 6 0.0000 0.0000 0.0000 8.1190 0.0000 34.4617
#
#
#
# Elastic Compliance Matrix: (Units=1/GPa)
#
#
# Indices 1 2 3 4 5 6 
#
# 1 0.019097 0.000164 -0.002795 0.000000 -0.007778 0.000000
# 2 0.000164 0.004091 -0.002756 0.000000 0.002142 0.000000
# 3 -0.002795 -0.002756 0.025862 0.000000 -0.019272 0.000000
# 4 0.000000 0.000000 0.000000 0.050536 0.000000 -0.011906
# 5 -0.007778 0.002142 -0.019272 0.000000 0.061699 0.000000
# 6 0.000000 0.000000 0.000000 -0.011906 0.000000 0.031823
#
#
# Mechanical properties :
#
#
# Convention : Reuss Voigt Hill
#
# Bulk Modulus (GPa) = 26.12677 52.50926 39.31801
# Shear Modulus (GPa) = 23.07965 38.29615 30.68790
#
# Velocity S-wave (km/s) = 3.01037 3.87778 3.47128
# Velocity P-wave (km/s) = 4.72673 6.37712 5.61291
#
# Compressibility (1/GPa) = 0.03827492
#
# Stress axis : x y z
#
# Youngs Moduli (GPa) = 52.36373 244.44889 38.66668
#
# Poissons Ratio (x) = -0.04018 0.10809
# Poissons Ratio (y) = -0.00861 0.10658
# Poissons Ratio (z) = 0.14638 0.67382
#
# Static dielectric constant tensor:
#      x y z
#    x 2.147990 0.000000 0.001370 
#    y 0.000000 2.141840 0.000000 
#    z 0.001370 0.000000 2.060270 
# 
# From -- ./inp_files/157395.got.cif
#   From: 2010.05.17/outbox.cif.g08.bks.cpg/sg12_79_cif.got.tgz:157395.got - 2010.06.03 13:09:07.
