data_PCOD9183471
_publ_section_title
;
Structure prediction by ZEFSAII (Michael W. Deem and Ramdas Pophale) SiO2 
 PCOD9183471
Probable space group: C 2/M
;
_chemical_formula_sum "Si O2"
_cell_formula_units_Z 56
_cell_length_a 22.154356
_cell_length_b 7.530680
_cell_length_c 19.844155
_cell_angle_alpha 90.000000
_cell_angle_beta 53.353109
_cell_angle_gamma 90.000000
_cell_volume 2656.308806
_symmetry_space_group_name_H-M "C 2/M"
_symmetry_group_IT_number 12
_symmetry_cell_setting 'monoclinic'
loop_
_space_group_symop_operation_xyz
x,y,z
-x,y,-z
-x,-y,-z
x,-y,z
1/2+x,1/2+y,z
1/2-x,1/2+y,-z
1/2-x,1/2-y,-z
1/2+x,1/2-y,z
loop_
_atom_site_type_symbol
_atom_site_label
_atom_site_fract_x
_atom_site_fract_y
_atom_site_fract_z
Si Si1 0.196516 0.785143 0.941895
Si Si2 0.447459 0.717444 0.473120
Si Si3 0.126312 0.211854 0.731639
Si Si4 0.494442 0.282467 0.294927
Si Si5 0.577075 0.282765 0.911743
Si Si6 0.777975 0.209567 0.557970
Si Si7 0.858265 0.791777 0.877281
O O1 0.146391 0.729191 0.912822
O O2 0.282629 0.726693 0.884549
O O3 0.196601 0.000000 0.943658
O O4 0.160253 0.718464 0.036260
O O5 0.500000 0.775963 0.500000
O O6 0.445633 0.500000 0.477275
O O7 0.485963 0.771249 0.377387
O O8 0.360405 0.780038 0.524672
O O9 0.075907 0.276939 0.703113
O O10 0.093988 0.278844 0.824485
O O11 0.212732 0.243451 0.654647
O O12 0.116599 0.000000 0.740799
O O13 0.494626 0.500000 0.295268
O O14 0.569926 0.218357 0.208549
O O15 0.574392 0.500000 0.912019
O O16 0.500000 0.226134 0.000000
O O17 0.750000 0.250000 0.500000
O O18 0.786205 0.000000 0.553091
O O19 0.873793 0.000000 0.877552
#
# Coordination Sequence:
#
# PCOD9183471 Si02
#       7
#     8   8   8   8   8   8   8
#     4   9  17  30  46  70 100 129 163 209 263 309
#     4   9  18  32  51  76 104 133 169 218 264 305
#     4  10  19  33  55  80 104 137 179 222 266 315
#     4   9  16  29  49  72  95 127 174 213 248 302
#     4   9  17  30  51  77 104 134 173 219 261 309
#     4  11  21  36  58  82 109 141 179 224 272 324
#     4   9  17  29  49  70  93 130 172 211 251 308
#
# _framework density 21.081885
#
# number of rings (size 3 to 8) (size 9 to 14) (size 15 to 20)
#    0.000    2.571    1.429    1.286    0.000    4.571 
#    0.000    2.857    0.000    5.143    0.000    0.000 
#    0.000    0.000    0.000    0.000    0.000    0.000 
#
# Total GULP energy -156244.001329 kJ/mol
# GULP energy per Si atom -5580.142905 kJ/mol
# Density = 2.103390 g / cm^3
# Si number density = 21.081885 Si / 1000 Ang^3
#
#
#
# Elastic Constant Matrix: (Units=GPa)
#
#
# Indices 1 2 3 4 5 6 
#
# 1 141.8676 -1.4063 75.7701 -0.0011 4.7157 -0.0004
# 2 -1.4063 48.0829 4.0511 0.0155 4.1472 -0.0011
# 3 75.7701 4.0511 139.7465 -0.0070 -15.5881 0.0001
# 4 -0.0011 0.0155 -0.0070 40.9033 -0.0074 -15.0312
# 5 4.7157 4.1472 -15.5881 -0.0074 32.9034 0.0001
# 6 -0.0004 -0.0011 0.0001 -15.0312 0.0001 15.2961
#
#
#
# Elastic Compliance Matrix: (Units=1/GPa)
#
#
# Indices 1 2 3 4 5 6 
#
# 1 0.010574 0.001240 -0.006288 -0.000003 -0.004651 -0.000003
# 2 0.001240 0.021293 -0.001699 -0.000013 -0.003666 -0.000011
# 3 -0.006288 -0.001699 0.011338 0.000005 0.006487 0.000005
# 4 -0.000003 -0.000013 0.000005 0.038267 0.000013 0.037604
# 5 -0.004651 -0.003666 0.006487 0.000013 0.034594 0.000012
# 6 -0.000003 -0.000011 0.000005 0.037604 0.000012 0.102329
#
#
# Mechanical properties :
#
#
# Convention : Reuss Voigt Hill
#
# Bulk Modulus (GPa) = 33.65624 54.05854 43.85739
# Shear Modulus (GPa) = 20.67903 34.57270 27.62587
#
# Velocity S-wave (km/s) = 3.13532 4.05399 3.62388
# Velocity P-wave (km/s) = 5.39501 6.90007 6.19343
#
# Compressibility (1/GPa) = 0.02971217
#
# Stress axis : x y z
#
# Youngs Moduli (GPa) = 94.57143 46.96375 88.19984
#
# Poissons Ratio (x) = -0.05824 0.55459
# Poissons Ratio (y) = -0.11728 0.14982
# Poissons Ratio (z) = 0.59466 0.07977
#
# Static dielectric constant tensor:
#      x y z
#    x 1.738440 0.000000 -0.006760 
#    y 0.000000 1.803510 0.000000 
#    z -0.006760 0.000000 1.722030 
# 
# From -- ./inp_files/319697.got.cif
#   From: 2010.05.17/outbox.cif.g08.bks.cpg/sg12_160_cif.got.tgz:319697.got - 2010.06.03 13:09:07.
