data_PCOD9183802
_publ_section_title
;
Structure prediction by ZEFSAII (Michael W. Deem and Ramdas Pophale) SiO2 
 PCOD9183802
Probable space group: C 2/M
;
_chemical_formula_sum "Si O2"
_cell_formula_units_Z 48
_cell_length_a 14.907524
_cell_length_b 9.024536
_cell_length_c 28.203582
_cell_angle_alpha 90.000000
_cell_angle_beta 137.905747
_cell_angle_gamma 90.000000
_cell_volume 2543.534909
_symmetry_space_group_name_H-M "C 2/M"
_symmetry_group_IT_number 12
_symmetry_cell_setting 'monoclinic'
loop_
_space_group_symop_operation_xyz
x,y,z
-x,y,-z
-x,-y,-z
x,-y,z
1/2+x,1/2+y,z
1/2-x,1/2+y,-z
1/2-x,1/2-y,-z
1/2+x,1/2-y,z
loop_
_atom_site_type_symbol
_atom_site_label
_atom_site_fract_x
_atom_site_fract_y
_atom_site_fract_z
Si Si1 0.598441 0.822229 0.995250
Si Si2 0.583135 0.822342 0.670872
Si Si3 0.343187 0.177662 0.742474
Si Si4 0.667992 0.823367 0.369525
Si Si5 0.590375 0.676694 0.889472
Si Si6 0.411184 0.173935 0.512376
O O1 0.756286 0.792698 0.066261
O O2 0.583989 0.000000 0.982360
O O3 0.500000 0.780258 0.000000
O O4 0.569401 0.739644 0.934439
O O5 0.722690 0.738728 0.727098
O O6 0.483842 0.791251 0.675165
O O7 0.498356 0.774433 0.591141
O O8 0.605676 0.000000 0.676449
O O9 0.309409 0.226446 0.675398
O O10 0.482600 0.245614 0.813791
O O11 0.349135 0.000000 0.746103
O O12 0.772541 0.754062 0.447094
O O13 0.685703 0.000000 0.378543
O O14 0.571528 0.500000 0.882077
O O15 0.500000 0.191516 0.500000
O O16 0.384357 0.000000 0.509300
#
# Coordination Sequence:
#
# PCOD9183802 Si02
#       6
#     8   8   8   8   8   8
#     4   9  19  38  63  90 118 147 183 223 265 319
#     4  10  21  38  56  78 109 144 186 233 284 338
#     4  11  23  38  55  79 112 148 186 229 276 328
#     4  10  22  37  55  79 108 144 186 234 283 333
#     4  10  21  37  59  86 116 150 183 223 272 321
#     4  10  19  33  56  81 106 141 184 234 285 336
#
# _framework density 18.871375
#
# number of rings (size 3 to 8) (size 9 to 14) (size 15 to 20)
#    0.000    2.000    1.667    1.500    0.000    4.667 
#    0.000    3.333    0.000    0.000    0.000    0.000 
#    0.000    0.000    0.000    0.000    0.000    0.000 
#
# Total GULP energy -133983.104333 kJ/mol
# GULP energy per Si atom -5582.629347 kJ/mol
# Density = 1.882842 g / cm^3
# Si number density = 18.871375 Si / 1000 Ang^3
#
#
#
# Elastic Constant Matrix: (Units=GPa)
#
#
# Indices 1 2 3 4 5 6 
#
# 1 88.4905 33.7900 27.4634 0.0000 13.2633 0.0000
# 2 33.7900 29.2920 24.3712 0.0000 11.6252 0.0000
# 3 27.4634 24.3712 65.3605 0.0000 18.8478 0.0000
# 4 0.0000 0.0000 0.0000 34.2435 0.0000 3.7870
# 5 13.2633 11.6252 18.8478 0.0000 17.7049 0.0000
# 6 0.0000 0.0000 0.0000 3.7870 0.0000 23.9691
#
#
#
# Elastic Compliance Matrix: (Units=1/GPa)
#
#
# Indices 1 2 3 4 5 6 
#
# 1 0.020201 -0.023551 0.000286 0.000000 0.000026 0.000000
# 2 -0.023551 0.081564 -0.014662 0.000000 -0.020304 0.000000
# 3 0.000286 -0.014662 0.025876 0.000000 -0.018133 0.000000
# 4 0.000000 0.000000 0.000000 0.029722 0.000000 -0.004696
# 5 0.000026 -0.020304 -0.018133 0.000000 0.089097 0.000000
# 6 0.000000 0.000000 0.000000 -0.004696 0.000000 0.042462
#
#
# Mechanical properties :
#
#
# Convention : Reuss Voigt Hill
#
# Bulk Modulus (GPa) = 19.31042 39.37690 29.34366
# Shear Modulus (GPa) = 13.08766 21.68472 17.38619
#
# Velocity S-wave (km/s) = 2.63633 3.39349 3.03858
# Velocity P-wave (km/s) = 4.41836 6.02209 5.28145
#
# Compressibility (1/GPa) = 0.05178551
#
# Stress axis : x y z
#
# Youngs Moduli (GPa) = 49.50240 12.26030 38.64634
#
# Poissons Ratio (x) = 0.28875 -0.01105
# Poissons Ratio (y) = 1.16585 0.56664
# Poissons Ratio (z) = -0.01415 0.17976
#
# Static dielectric constant tensor:
#      x y z
#    x 1.664090 0.000000 -0.001880 
#    y 0.000000 1.630910 0.000000 
#    z -0.001880 0.000000 1.636980 
# 
# From -- ./inp_files/308301.got.cif
#   From: 2010.05.17/outbox.cif.g08.bks.cpg/sg12_155_cif.got.tgz:308301.got - 2010.06.03 13:09:07.
