data_PCOD9183435
_publ_section_title
;
Structure prediction by ZEFSAII (Michael W. Deem and Ramdas Pophale) SiO2 
 PCOD9183435
Probable space group: C 2/M
;
_chemical_formula_sum "Si O2"
_cell_formula_units_Z 64
_cell_length_a 20.888925
_cell_length_b 7.466595
_cell_length_c 20.446088
_cell_angle_alpha 90.000000
_cell_angle_beta 112.232510
_cell_angle_gamma 90.000000
_cell_volume 2951.879016
_symmetry_space_group_name_H-M "C 2/M"
_symmetry_group_IT_number 12
_symmetry_cell_setting 'monoclinic'
loop_
_space_group_symop_operation_xyz
x,y,z
-x,y,-z
-x,-y,-z
x,-y,z
1/2+x,1/2+y,z
1/2-x,1/2+y,-z
1/2-x,1/2-y,-z
1/2+x,1/2-y,z
loop_
_atom_site_type_symbol
_atom_site_label
_atom_site_fract_x
_atom_site_fract_y
_atom_site_fract_z
Si Si1 0.540438 0.718370 0.950211
Si Si2 0.299351 0.711676 0.344711
Si Si3 0.799184 0.712642 0.580031
Si Si4 0.932231 0.780722 0.800312
Si Si5 0.211574 0.784305 0.188869
Si Si6 0.194940 0.214354 0.035026
Si Si7 0.044382 0.780049 0.580266
Si Si8 0.951494 0.205508 0.661433
O O1 0.541206 0.500000 0.949659
O O2 0.495866 0.774104 0.870639
O O3 0.500000 0.771729 0.000000
O O4 0.619135 0.781180 0.984973
O O5 0.302231 0.500000 0.359176
O O6 0.240113 0.783496 0.370492
O O7 0.274451 0.735807 0.260861
O O8 0.376066 0.780751 0.389193
O O9 0.809296 0.500000 0.590116
O O10 0.750000 0.750000 0.500000
O O11 0.874978 0.792988 0.601031
O O12 0.859893 0.722112 0.804708
O O13 0.942607 0.716009 0.730387
O O14 0.929593 0.000000 0.798509
O O15 0.215176 0.719480 0.115423
O O16 0.208920 0.000000 0.186190
O O17 0.188956 0.000000 0.038728
O O18 0.250000 0.250000 0.000000
O O19 0.000000 0.725632 0.500000
O O20 0.005461 0.717257 0.630775
O O21 0.044252 0.000000 0.580580
O O22 0.973407 0.000000 0.680051
#
# Coordination Sequence:
#
# PCOD9183435 Si02
#       8
#     8   8   8   8   8   8   8   8
#     4   9  15  28  52  79 102 134 183 229 263 307
#     4  10  21  36  56  82 109 142 181 220 270 329
#     4  11  22  35  54  80 109 141 179 222 267 320
#     4   9  16  28  51  80 105 131 175 228 270 309
#     4  10  19  34  55  80 111 144 176 222 279 324
#     4  10  21  35  55  82 113 146 181 224 272 321
#     4   9  18  34  54  76 106 141 177 220 269 320
#     4  10  19  33  55  79 103 135 177 224 270 317
#
# _framework density 21.681107000000001
#
# number of rings (size 3 to 8) (size 9 to 14) (size 15 to 20)
#    0.000    2.250    2.500    1.125    0.000    4.000 
#    0.000    3.125    0.000    3.375    0.000    0.000 
#    0.000    0.000    0.000    0.000    0.000    0.000 
#
# Total GULP energy -178775.165760 kJ/mol
# GULP energy per Si atom -5586.723930 kJ/mol
# Density = 2.163176 g / cm^3
# Si number density = 21.681107 Si / 1000 Ang^3
#
#
#
# Elastic Constant Matrix: (Units=GPa)
#
#
# Indices 1 2 3 4 5 6 
#
# 1 106.6177 1.0634 17.2812 0.0000 2.6487 0.0000
# 2 1.0634 64.6106 -8.2695 0.0000 -2.5652 0.0000
# 3 17.2812 -8.2695 104.3876 0.0000 5.3238 0.0000
# 4 0.0000 0.0000 0.0000 -0.3511 0.0000 -20.6112
# 5 2.6487 -2.5652 5.3238 0.0000 41.6409 0.0000
# 6 0.0000 0.0000 0.0000 -20.6112 0.0000 -35.1939
#
#
#
# Elastic Compliance Matrix: (Units=1/GPa)
#
#
# Indices 1 2 3 4 5 6 
#
# 1 0.009654 -0.000382 -0.001606 0.000000 -0.000432 0.000000
# 2 -0.000382 0.015678 0.001263 0.000000 0.000829 0.000000
# 3 -0.001606 0.001263 0.010002 0.000000 -0.001099 0.000000
# 4 0.000000 0.000000 0.000000 0.085326 0.000000 -0.049971
# 5 -0.000432 0.000829 -0.001099 0.000000 0.024234 0.000000
# 6 0.000000 0.000000 0.000000 -0.049971 0.000000 0.000851
#
#
# Mechanical properties :
#
#
# Convention : Reuss Voigt Hill
#
# Bulk Modulus (GPa) = 29.51265 32.86290 31.18777
# Shear Modulus (GPa) = 31.54768 18.92189 25.23478
#
# Velocity S-wave (km/s) = 3.81869 2.95742 3.41531
# Velocity P-wave (km/s) = 5.75194 5.18190 5.47434
#
# Compressibility (1/GPa) = 0.03388378
#
# Stress axis : x y z
#
# Youngs Moduli (GPa) = 103.58158 63.78301 99.98289
#
# Poissons Ratio (x) = 0.02434 0.16062
# Poissons Ratio (y) = 0.03953 -0.12627
# Poissons Ratio (z) = 0.16640 -0.08055
#
# Static dielectric constant tensor:
#      x y z
#    x 1.832390 0.000000 -0.013380 
#    y 0.000000 1.856430 0.000000 
#    z -0.013380 0.000000 1.766050 
# 
# From -- ./inp_files/319989.got.cif
#   From: 2010.05.17/outbox.cif.g08.bks.cpg/sg12_160_cif.got.tgz:319989.got - 2010.06.03 13:09:07.
