data_PCOD9183430
_publ_section_title
;
Structure prediction by ZEFSAII (Michael W. Deem and Ramdas Pophale) SiO2 
 PCOD9183430
Probable space group: C 2/M
;
_chemical_formula_sum "Si O2"
_cell_formula_units_Z 48
_cell_length_a 13.809623
_cell_length_b 13.562798
_cell_length_c 14.692314
_cell_angle_alpha 90.000000
_cell_angle_beta 139.627759
_cell_angle_gamma 90.000000
_cell_volume 1782.499114
_symmetry_space_group_name_H-M "C 2/M"
_symmetry_group_IT_number 12
_symmetry_cell_setting 'monoclinic'
loop_
_space_group_symop_operation_xyz
x,y,z
-x,y,-z
-x,-y,-z
x,-y,z
1/2+x,1/2+y,z
1/2-x,1/2+y,-z
1/2-x,1/2-y,-z
1/2+x,1/2-y,z
loop_
_atom_site_type_symbol
_atom_site_label
_atom_site_fract_x
_atom_site_fract_y
_atom_site_fract_z
Si Si1 0.348075 0.611592 0.741415
Si Si2 0.285613 0.863562 0.034903
Si Si3 0.104500 0.324037 0.198277
Si Si4 0.722280 0.889699 0.460308
Si Si5 0.098432 0.337303 0.693928
Si Si6 0.850849 0.107179 0.245641
O O1 0.396805 0.500000 0.798320
O O2 0.429786 0.707857 0.840712
O O3 0.340757 0.621376 0.626158
O O4 0.180463 0.626520 0.662503
O O5 0.455112 0.878551 0.121810
O O6 0.292785 0.878776 0.147549
O O7 0.250000 0.750000 0.000000
O O8 0.173408 0.903607 0.879718
O O9 0.217610 0.324716 0.366373
O O10 0.187759 0.375843 0.175454
O O11 0.562780 0.876567 0.394694
O O12 0.734953 0.000000 0.434022
O O13 0.084434 0.216931 0.686330
O O14 0.910425 0.000000 0.321766
#
# Coordination Sequence:
#
# PCOD9183430 Si02
#       6
#     8   8   8   8   8   8
#     4  10  20  34  54  78 105 138 172 209 257 307
#     4   9  19  35  52  72 100 134 170 211 256 303
#     4  10  20  34  53  77 106 134 171 218 258 302
#     4  10  19  33  55  79 102 136 177 211 250 302
#     4   9  19  34  53  78 107 133 171 216 253 298
#     4  10  20  34  54  78 104 136 172 212 260 309
#
# _framework density 26.928485999999999
#
# number of rings (size 3 to 8) (size 9 to 14) (size 15 to 20)
#    0.000    2.333    0.000    2.500    0.000    6.000 
#    0.000    7.500    0.000   23.000    0.000    0.000 
#    0.000    0.000    0.000    0.000    0.000    0.000 
#
# Total GULP energy -134084.871472 kJ/mol
# GULP energy per Si atom -5586.869645 kJ/mol
# Density = 2.686720 g / cm^3
# Si number density = 26.928486 Si / 1000 Ang^3
#
#
#
# Elastic Constant Matrix: (Units=GPa)
#
#
# Indices 1 2 3 4 5 6 
#
# 1 86.1984 9.2079 32.7155 0.0000 -6.7910 0.0000
# 2 9.2079 208.1778 2.8925 0.0000 -3.9151 0.0000
# 3 32.7155 2.8925 101.5077 0.0000 -18.6451 0.0000
# 4 0.0000 0.0000 0.0000 -16.4129 0.0000 -27.1554
# 5 -6.7910 -3.9151 -18.6451 0.0000 49.1010 0.0000
# 6 0.0000 0.0000 0.0000 -27.1554 0.0000 4.4500
#
#
#
# Elastic Compliance Matrix: (Units=1/GPa)
#
#
# Indices 1 2 3 4 5 6 
#
# 1 0.013277 -0.000525 -0.004230 0.000000 0.000188 0.000000
# 2 -0.000525 0.004832 0.000096 0.000000 0.000349 0.000000
# 3 -0.004230 0.000096 0.011939 0.000000 0.003956 0.000000
# 4 0.000000 0.000000 0.000000 -0.005491 0.000000 -0.033506
# 5 0.000188 0.000349 0.003956 0.000000 0.021922 0.000000
# 6 0.000000 0.000000 0.000000 -0.033506 0.000000 0.020252
#
#
# Mechanical properties :
#
#
# Convention : Reuss Voigt Hill
#
# Bulk Modulus (GPa) = 48.23941 53.94620 51.09281
# Shear Modulus (GPa) = 60.27056 30.83214 45.55135
#
# Velocity S-wave (km/s) = 4.73606 3.38740 4.11733
# Velocity P-wave (km/s) = 6.91808 5.94777 6.45119
#
# Compressibility (1/GPa) = 0.02072994
#
# Stress axis : x y z
#
# Youngs Moduli (GPa) = 75.31605 206.95193 83.76181
#
# Poissons Ratio (x) = 0.10864 0.35429
# Poissons Ratio (y) = 0.03954 -0.00801
# Poissons Ratio (z) = 0.31856 -0.01979
#
# Static dielectric constant tensor:
#      x y z
#    x 2.060270 0.000000 0.053270 
#    y 0.000000 2.919680 0.000000 
#    z 0.053270 0.000000 2.181000 
# 
# From -- ./inp_files/214995.got.cif
#   From: 2010.05.17/outbox.cif.g08.bks.cpg/sg12_108_cif.got.tgz:214995.got - 2010.06.03 13:09:07.
