data_PCOD9183415
_publ_section_title
;
Structure prediction by ZEFSAII (Michael W. Deem and Ramdas Pophale) SiO2 
 PCOD9183415
Probable space group: C 2/M
;
_chemical_formula_sum "Si O2"
_cell_formula_units_Z 56
_cell_length_a 13.207147
_cell_length_b 13.340655
_cell_length_c 15.840687
_cell_angle_alpha 90.000000
_cell_angle_beta 73.901668
_cell_angle_gamma 90.000000
_cell_volume 2681.559256
_symmetry_space_group_name_H-M "C 2/M"
_symmetry_group_IT_number 12
_symmetry_cell_setting 'monoclinic'
loop_
_space_group_symop_operation_xyz
x,y,z
-x,y,-z
-x,-y,-z
x,-y,z
1/2+x,1/2+y,z
1/2-x,1/2+y,-z
1/2-x,1/2-y,-z
1/2+x,1/2-y,z
loop_
_atom_site_type_symbol
_atom_site_label
_atom_site_fract_x
_atom_site_fract_y
_atom_site_fract_z
Si Si1 0.574901 0.348962 0.907683
Si Si2 0.306299 0.113722 0.410654
Si Si3 0.912391 0.300181 0.901069
Si Si4 0.777631 0.886277 0.983635
Si Si5 0.705166 0.179671 0.395349
Si Si6 0.969136 0.678352 0.704284
Si Si7 0.065428 0.108632 0.715101
O O1 0.527420 0.237965 0.903433
O O2 0.685579 0.363598 0.927834
O O3 0.569445 0.392806 0.816200
O O4 0.500000 0.390817 0.000000
O O5 0.323501 0.139834 0.505385
O O6 0.228616 0.200808 0.395407
O O7 0.419138 0.126620 0.339430
O O8 0.267945 0.000000 0.410230
O O9 0.846401 0.365609 0.982097
O O10 0.924419 0.347532 0.806753
O O11 0.843382 0.195547 0.915387
O O12 0.800784 0.000000 0.954433
O O13 0.614938 0.157375 0.348836
O O14 0.816047 0.130297 0.343369
O O15 0.995164 0.797727 0.702573
O O16 0.029179 0.000000 0.692922
#
# Coordination Sequence:
#
# PCOD9183415 Si02
#       7
#     8   8   8   8   8   8   8
#     4   9  18  31  51  76 106 140 177 219 262 301
#     4  10  22  39  58  81 106 135 174 216 261 318
#     4   9  20  34  50  78 113 138 173 226 265 303
#     4  10  19  33  55  78 103 143 186 219 259 308
#     4  10  21  38  57  78 107 139 172 215 265 316
#     4  10  21  35  54  80 109 140 174 215 266 316
#     4  10  20  33  52  80 109 139 179 221 260 309
#
# _framework density 20.883372999999999
#
# number of rings (size 3 to 8) (size 9 to 14) (size 15 to 20)
#    0.000    2.286    0.000    2.143    0.000   10.857 
#    0.000    0.000    0.000   15.857    0.000    0.000 
#    0.000    0.000    0.000    0.000    0.000    0.000 
#
# Total GULP energy -156138.760243 kJ/mol
# GULP energy per Si atom -5576.384294 kJ/mol
# Density = 2.083584 g / cm^3
# Si number density = 20.883373 Si / 1000 Ang^3
#
#
#
# Elastic Constant Matrix: (Units=GPa)
#
#
# Indices 1 2 3 4 5 6 
#
# 1 30.1536 -13.0145 -1.9074 0.0000 -4.1401 0.0000
# 2 -13.0145 67.3449 4.0564 0.0000 -6.5992 0.0000
# 3 -1.9074 4.0564 96.0931 0.0000 -18.5488 0.0000
# 4 0.0000 0.0000 0.0000 -16.0511 0.0000 6.2297
# 5 -4.1401 -6.5992 -18.5488 0.0000 27.5941 0.0000
# 6 0.0000 0.0000 0.0000 6.2297 0.0000 2.7389
#
#
#
# Elastic Compliance Matrix: (Units=1/GPa)
#
#
# Indices 1 2 3 4 5 6 
#
# 1 0.038055 0.008116 0.002171 0.000000 0.009110 0.000000
# 2 0.008116 0.016937 0.000532 0.000000 0.005626 0.000000
# 3 0.002171 0.000532 0.012082 0.000000 0.008575 0.000000
# 4 0.000000 0.000000 0.000000 -0.033090 0.000000 0.075264
# 5 0.009110 0.005626 0.008575 0.000000 0.044716 0.000000
# 6 0.000000 0.000000 0.000000 0.075264 0.000000 0.193923
#
#
# Mechanical properties :
#
#
# Convention : Reuss Voigt Hill
#
# Bulk Modulus (GPa) = 11.27237 19.09561 15.18399
# Shear Modulus (GPa) = 17.82184 16.48685 17.15434
#
# Velocity S-wave (km/s) = 2.92447 2.81280 2.86918
# Velocity P-wave (km/s) = 4.10035 4.43992 4.27351
#
# Compressibility (1/GPa) = 0.08871249
#
# Stress axis : x y z
#
# Youngs Moduli (GPa) = 26.27802 59.04375 82.76496
#
# Poissons Ratio (x) = -0.47920 -0.17971
# Poissons Ratio (y) = -0.21327 -0.04404
# Poissons Ratio (z) = -0.05706 -0.03142
#
# Static dielectric constant tensor:
#      x y z
#    x 1.802490 0.000000 -0.014910 
#    y 0.000000 1.797490 0.000000 
#    z -0.014910 0.000000 1.734990 
# 
# From -- ./inp_files/268620.got.cif
#   From: 2010.05.17/outbox.cif.g08.bks.cpg/sg12_135_cif.got.tgz:268620.got - 2010.06.03 13:09:07.
