data_PCOD9183557
_publ_section_title
;
Structure prediction by ZEFSAII (Michael W. Deem and Ramdas Pophale) SiO2 
 PCOD9183557
Probable space group: C 2/M
;
_chemical_formula_sum "Si O2"
_cell_formula_units_Z 56
_cell_length_a 25.475506
_cell_length_b 8.757694
_cell_length_c 17.067872
_cell_angle_alpha 90.000000
_cell_angle_beta 120.266565
_cell_angle_gamma 90.000000
_cell_volume 3288.893147
_symmetry_space_group_name_H-M "C 2/M"
_symmetry_group_IT_number 12
_symmetry_cell_setting 'monoclinic'
loop_
_space_group_symop_operation_xyz
x,y,z
-x,y,-z
-x,-y,-z
x,-y,z
1/2+x,1/2+y,z
1/2-x,1/2+y,-z
1/2-x,1/2-y,-z
1/2+x,1/2-y,z
loop_
_atom_site_type_symbol
_atom_site_label
_atom_site_fract_x
_atom_site_fract_y
_atom_site_fract_z
Si Si1 0.126223 0.182154 0.616554
Si Si2 0.728267 0.317483 0.099755
Si Si3 0.444003 0.818478 0.287072
Si Si4 0.261499 0.682212 0.714685
Si Si5 0.193071 0.317896 0.409017
Si Si6 0.424004 0.682127 0.593654
Si Si7 0.654019 0.681310 0.893450
O O1 0.089521 0.245589 0.662818
O O2 0.191648 0.262206 0.659826
O O3 0.090027 0.210242 0.508773
O O4 0.134860 0.000000 0.631408
O O5 0.740574 0.500000 0.102813
O O6 0.714898 0.283807 0.179979
O O7 0.788669 0.230379 0.117198
O O8 0.675346 0.281501 0.997866
O O9 0.512151 0.755809 0.335550
O O10 0.404568 0.767584 0.182550
O O11 0.443668 0.000000 0.294348
O O12 0.263563 0.500000 0.703656
O O13 0.297678 0.765752 0.673387
O O14 0.194061 0.500000 0.416047
O O15 0.250000 0.250000 0.500000
O O16 0.131545 0.251791 0.399305
O O17 0.426139 0.500000 0.606740
O O18 0.644762 0.500000 0.880024
#
# Coordination Sequence:
#
# PCOD9183557 Si02
#       7
#     8   8   8   8   8   8   8
#     4  11  22  36  56  83 114 150 190 230 278 335
#     4   9  19  34  54  83 113 146 185 229 281 335
#     4  12  24  37  55  82 117 153 189 229 282 340
#     4  11  21  35  58  85 117 149 185 232 283 333
#     4  12  24  39  59  83 112 149 192 235 279 327
#     4  11  24  41  59  80 110 149 194 236 280 334
#     4  10  19  33  55  81 113 148 186 229 278 334
#
# _framework density 17.027006
#
# number of rings (size 3 to 8) (size 9 to 14) (size 15 to 20)
#    0.000    1.143    2.857    4.714    0.000    4.571 
#    0.000    0.000    0.000    0.857    0.000    6.000 
#    0.000    0.000    0.000    0.000    0.000    0.000 
#
# Total GULP energy -156520.019650 kJ/mol
# GULP energy per Si atom -5590.000702 kJ/mol
# Density = 1.698825 g / cm^3
# Si number density = 17.027006 Si / 1000 Ang^3
#
#
#
# Elastic Constant Matrix: (Units=GPa)
#
#
# Indices 1 2 3 4 5 6 
#
# 1 80.6354 24.3478 43.0725 0.0000 13.1616 0.0000
# 2 24.3478 65.9300 46.3510 0.0000 4.4174 0.0000
# 3 43.0725 46.3510 112.4442 0.0000 3.5924 0.0000
# 4 0.0000 0.0000 0.0000 23.9739 0.0000 0.8065
# 5 13.1616 4.4174 3.5924 0.0000 20.1935 0.0000
# 6 0.0000 0.0000 0.0000 0.8065 0.0000 32.0432
#
#
#
# Elastic Compliance Matrix: (Units=1/GPa)
#
#
# Indices 1 2 3 4 5 6 
#
# 1 0.017634 -0.001851 -0.005670 0.000000 -0.010080 0.000000
# 2 -0.001851 0.021749 -0.008189 0.000000 -0.002095 0.000000
# 3 -0.005670 -0.008189 0.014347 0.000000 0.002935 0.000000
# 4 0.000000 0.000000 0.000000 0.041747 0.000000 -0.001051
# 5 -0.010080 -0.002095 0.002935 0.000000 0.056027 0.000000
# 6 0.000000 0.000000 0.000000 -0.001051 0.000000 0.031234
#
#
# Mechanical properties :
#
#
# Convention : Reuss Voigt Hill
#
# Bulk Modulus (GPa) = 44.82246 54.06138 49.44192
# Shear Modulus (GPa) = 22.56362 24.92466 23.74414
#
# Velocity S-wave (km/s) = 3.64423 3.83016 3.73835
# Velocity P-wave (km/s) = 6.63993 7.16794 6.90899
#
# Compressibility (1/GPa) = 0.02231024
#
# Stress axis : x y z
#
# Youngs Moduli (GPa) = 56.70755 45.97962 69.69999
#
# Poissons Ratio (x) = 0.08510 0.39520
# Poissons Ratio (y) = 0.10495 0.57079
# Poissons Ratio (z) = 0.32153 0.37654
#
# Static dielectric constant tensor:
#      x y z
#    x 1.531580 0.000000 -0.003040 
#    y 0.000000 1.566930 0.000000 
#    z -0.003040 0.000000 1.590100 
# 
# From -- ./inp_files/237892.got.cif
#   From: 2010.05.17/outbox.cif.g08.bks.cpg/sg12_119_cif.got.tgz:237892.got - 2010.06.03 13:09:07.
