data_PCOD9183821
_publ_section_title
;
Structure prediction by ZEFSAII (Michael W. Deem and Ramdas Pophale) SiO2 
 PCOD9183821
Probable space group: C 2/M
;
_chemical_formula_sum "Si O2"
_cell_formula_units_Z 56
_cell_length_a 21.803792
_cell_length_b 9.492769
_cell_length_c 14.363205
_cell_angle_alpha 90.000000
_cell_angle_beta 85.863289
_cell_angle_gamma 90.000000
_cell_volume 2965.127603
_symmetry_space_group_name_H-M "C 2/M"
_symmetry_group_IT_number 12
_symmetry_cell_setting 'monoclinic'
loop_
_space_group_symop_operation_xyz
x,y,z
-x,y,-z
-x,-y,-z
x,-y,z
1/2+x,1/2+y,z
1/2-x,1/2+y,-z
1/2-x,1/2-y,-z
1/2+x,1/2-y,z
loop_
_atom_site_type_symbol
_atom_site_label
_atom_site_fract_x
_atom_site_fract_y
_atom_site_fract_z
Si Si1 0.706183 0.163920 0.667233
Si Si2 0.630034 0.662468 0.817509
Si Si3 0.909398 0.662715 0.461263
Si Si4 0.174327 0.334288 0.362861
Si Si5 0.484584 0.338848 0.314123
Si Si6 0.926510 0.333157 0.007016
Si Si7 0.091607 0.335118 0.204359
O O1 0.682766 0.249450 0.759739
O O2 0.651223 0.170641 0.597963
O O3 0.767210 0.238949 0.623358
O O4 0.717211 0.000000 0.686864
O O5 0.647932 0.500000 0.831456
O O6 0.572438 0.662239 0.752295
O O7 0.607375 0.739498 0.912939
O O8 0.929897 0.500000 0.460397
O O9 0.883683 0.702547 0.565204
O O10 0.960571 0.758317 0.408036
O O11 0.187970 0.500000 0.378741
O O12 0.152671 0.317133 0.258902
O O13 0.500764 0.500000 0.332932
O O14 0.539188 0.258498 0.256730
O O15 0.918360 0.500000 0.028635
O O16 0.902885 0.304228 0.905328
O O17 0.000000 0.305602 0.000000
O O18 0.073196 0.500000 0.214316
#
# Coordination Sequence:
#
# PCOD9183821 Si02
#       7
#     8   8   8   8   8   8   8
#     4  10  20  35  57  81 106 138 178 221 264 310
#     4  10  20  34  55  82 109 137 174 222 267 309
#     4   9  19  35  56  79 105 140 179 218 262 314
#     4  10  21  37  55  77 107 143 180 217 261 314
#     4  10  20  33  52  80 110 139 175 221 265 309
#     4  10  19  33  56  82 107 137 175 218 263 314
#     4  10  21  36  54  77 109 145 176 212 264 322
#
# _framework density 18.886202000000001
#
# number of rings (size 3 to 8) (size 9 to 14) (size 15 to 20)
#    0.000    2.143    1.429    1.714    0.000    4.286 
#    0.000    3.571    0.000    0.000    0.000    0.000 
#    0.000    0.000    0.000    0.000    0.000    0.000 
#
# Total GULP energy -156374.779907 kJ/mol
# GULP energy per Si atom -5584.813568 kJ/mol
# Density = 1.884322 g / cm^3
# Si number density = 18.886202 Si / 1000 Ang^3
#
#
#
# Elastic Constant Matrix: (Units=GPa)
#
#
# Indices 1 2 3 4 5 6 
#
# 1 29.5245 26.4835 9.8626 0.0000 -6.9055 0.0000
# 2 26.4835 79.2795 46.0548 0.0000 -11.2622 0.0000
# 3 9.8626 46.0548 105.9555 0.0000 -7.0705 0.0000
# 4 0.0000 0.0000 0.0000 24.4365 0.0000 -10.8187
# 5 -6.9055 -11.2622 -7.0705 0.0000 19.2787 0.0000
# 6 0.0000 0.0000 0.0000 -10.8187 0.0000 22.8666
#
#
#
# Elastic Compliance Matrix: (Units=1/GPa)
#
#
# Indices 1 2 3 4 5 6 
#
# 1 0.050709 -0.017733 0.003596 0.000000 0.009123 0.000000
# 2 -0.017733 0.024156 -0.008540 0.000000 0.004627 0.000000
# 3 0.003596 -0.008540 0.012884 0.000000 0.001024 0.000000
# 4 0.000000 0.000000 0.000000 0.051765 0.000000 0.024491
# 5 0.009123 0.004627 0.001024 0.000000 0.058218 0.000000
# 6 0.000000 0.000000 0.000000 0.024491 0.000000 0.055319
#
#
# Mechanical properties :
#
#
# Convention : Reuss Voigt Hill
#
# Bulk Modulus (GPa) = 23.58747 42.17350 32.88048
# Shear Modulus (GPa) = 15.99821 22.14026 19.06924
#
# Velocity S-wave (km/s) = 2.91363 3.42760 3.18101
# Velocity P-wave (km/s) = 4.88215 6.16793 5.56232
#
# Compressibility (1/GPa) = 0.04239539
#
# Stress axis : x y z
#
# Youngs Moduli (GPa) = 19.72043 41.39807 77.61798
#
# Poissons Ratio (x) = 0.73409 -0.27914
# Poissons Ratio (y) = 0.34969 0.66287
# Poissons Ratio (z) = -0.07092 0.35355
#
# Static dielectric constant tensor:
#      x y z
#    x 1.636260 0.000000 0.025630 
#    y 0.000000 1.634850 0.000000 
#    z 0.025630 0.000000 1.656490 
# 
# From -- ./inp_files/230915.got.cif
#   From: 2010.05.17/outbox.cif.g08.bks.cpg/sg12_116_cif.got.tgz:230915.got - 2010.06.03 13:09:07.
