data_PCOD9183869
_publ_section_title
;
Structure prediction by ZEFSAII (Michael W. Deem and Ramdas Pophale) SiO2 
 PCOD9183869
Probable space group: C 2/M
;
_chemical_formula_sum "Si O2"
_cell_formula_units_Z 56
_cell_length_a 24.821770
_cell_length_b 22.846767
_cell_length_c 12.576447
_cell_angle_alpha 90.000000
_cell_angle_beta 27.157752
_cell_angle_gamma 90.000000
_cell_volume 3255.375137
_symmetry_space_group_name_H-M "C 2/M"
_symmetry_group_IT_number 12
_symmetry_cell_setting 'monoclinic'
loop_
_space_group_symop_operation_xyz
x,y,z
-x,y,-z
-x,-y,-z
x,-y,z
1/2+x,1/2+y,z
1/2-x,1/2+y,-z
1/2-x,1/2-y,-z
1/2+x,1/2-y,z
loop_
_atom_site_type_symbol
_atom_site_label
_atom_site_fract_x
_atom_site_fract_y
_atom_site_fract_z
Si Si1 0.017864 0.640869 0.582187
Si Si2 0.779939 0.733750 0.824400
Si Si3 0.615693 0.569647 0.512135
Si Si4 0.291555 0.931318 0.639337
Si Si5 0.128374 0.929083 0.735565
Si Si6 0.365951 0.374522 0.908403
Si Si7 0.250596 0.140429 0.118881
O O1 0.100846 0.696550 0.405393
O O2 0.091725 0.603509 0.535611
O O3 0.000000 0.608866 0.500000
O O4 0.888003 0.651258 0.854006
O O5 0.792916 0.798168 0.753930
O O6 0.750000 0.750000 0.000000
O O7 0.673517 0.689910 0.979429
O O8 0.591240 0.500000 0.548880
O O9 0.643504 0.584942 0.585562
O O10 0.501113 0.606400 0.675890
O O11 0.721797 0.588428 0.249482
O O12 0.227586 0.909539 0.644499
O O13 0.314257 0.000000 0.590243
O O14 0.203286 0.919110 0.893062
O O15 0.127054 0.000000 0.745452
O O16 0.000000 0.908351 0.000000
O O17 0.315113 0.374065 0.877466
#
# Coordination Sequence:
#
# PCOD9183869 Si02
#       7
#     8   8   8   8   8   8   8
#     4  11  20  36  53  83 112 145 186 226 274 345
#     4   9  19  34  57  80 108 145 197 231 267 328
#     4  11  23  36  55  87 118 148 188 236 292 337
#     4  10  19  33  56  83 109 143 189 234 276 330
#     4   9  17  34  58  79 105 144 194 238 272 327
#     4  10  19  34  55  85 111 144 184 236 285 328
#     4  11  23  36  53  83 120 153 178 224 288 345
#
# _framework density 17.202318000000002
#
# number of rings (size 3 to 8) (size 9 to 14) (size 15 to 20)
#    0.000    1.857    5.714    0.857    2.000    2.571 
#    0.000    0.714    0.000    6.000    7.429    0.000 
#    0.000    0.000    0.000    0.000    0.000    0.000 
#
# Total GULP energy -155912.325803 kJ/mol
# GULP energy per Si atom -5568.297350 kJ/mol
# Density = 1.716317 g / cm^3
# Si number density = 17.202318 Si / 1000 Ang^3
#
#
#
# Elastic Constant Matrix: (Units=GPa)
#
#
# Indices 1 2 3 4 5 6 
#
# 1 122.2770 48.4140 53.1345 0.0002 -10.2704 0.0012
# 2 48.4140 66.5060 33.1582 0.0001 -8.9993 0.0011
# 3 53.1345 33.1582 84.1551 0.0000 -7.1591 0.0006
# 4 0.0002 0.0001 0.0000 9.2059 -0.0001 -8.8602
# 5 -10.2704 -8.9993 -7.1591 -0.0001 26.8674 -0.0009
# 6 0.0012 0.0011 0.0006 -8.8602 -0.0009 -3.0940
#
#
#
# Elastic Compliance Matrix: (Units=1/GPa)
#
#
# Indices 1 2 3 4 5 6 
#
# 1 0.013452 -0.006760 -0.005714 0.000000 0.001355 0.000000
# 2 -0.006760 0.022632 -0.004322 0.000001 0.003845 0.000001
# 3 -0.005714 -0.004322 0.017277 0.000000 0.000971 0.000000
# 4 0.000000 0.000001 0.000000 0.028920 -0.000002 -0.082816
# 5 0.001355 0.003845 0.000971 -0.000002 0.039285 -0.000003
# 6 0.000000 0.000001 0.000000 -0.082816 -0.000003 -0.086047
#
#
# Mechanical properties :
#
#
# Convention : Reuss Voigt Hill
#
# Bulk Modulus (GPa) = 50.58832 60.26128 55.42480
# Shear Modulus (GPa) = 66.05023 15.81128 40.93076
#
# Velocity S-wave (km/s) = 6.20318 3.03502 4.88317
# Velocity P-wave (km/s) = 8.98764 6.88395 8.00520
#
# Compressibility (1/GPa) = 0.01976741
#
# Stress axis : x y z
#
# Youngs Moduli (GPa) = 74.34051 44.18436 57.88203
#
# Poissons Ratio (x) = 0.29868 0.33076
# Poissons Ratio (y) = 0.50253 0.25018
# Poissons Ratio (z) = 0.42481 0.19098
#
# Static dielectric constant tensor:
#      x y z
#    x 1.589450 0.000000 -0.011440 
#    y 0.000000 1.619670 0.000000 
#    z -0.011440 0.000000 1.604870 
# 
# From -- ./inp_files/178278.got.cif
#   From: 2010.05.17/outbox.cif.g08.bks.cpg/sg12_90_cif.got.tgz:178278.got - 2010.06.03 13:09:07.
