data_PCOD9183636
_publ_section_title
;
Structure prediction by ZEFSAII (Michael W. Deem and Ramdas Pophale) SiO2 
 PCOD9183636
Probable space group: C 2/M
;
_chemical_formula_sum "Si O2"
_cell_formula_units_Z 56
_cell_length_a 15.715589
_cell_length_b 7.597187
_cell_length_c 21.826815
_cell_angle_alpha 90.000000
_cell_angle_beta 96.672290
_cell_angle_gamma 90.000000
_cell_volume 2588.346087
_symmetry_space_group_name_H-M "C 2/M"
_symmetry_group_IT_number 12
_symmetry_cell_setting 'monoclinic'
loop_
_space_group_symop_operation_xyz
x,y,z
-x,y,-z
-x,-y,-z
x,-y,z
1/2+x,1/2+y,z
1/2-x,1/2+y,-z
1/2-x,1/2-y,-z
1/2+x,1/2-y,z
loop_
_atom_site_type_symbol
_atom_site_label
_atom_site_fract_x
_atom_site_fract_y
_atom_site_fract_z
Si Si1 0.903920 0.786815 0.514157
Si Si2 0.904004 0.291774 0.156457
Si Si3 0.132361 0.297527 0.349956
Si Si4 0.451359 0.786362 0.293644
Si Si5 0.040246 0.715715 0.068676
Si Si6 0.684989 0.290672 0.614152
Si Si7 0.267303 0.209054 0.930147
O O1 0.885568 0.708159 0.578772
O O2 0.840254 0.723740 0.455281
O O3 0.000000 0.745110 0.500000
O O4 0.898431 0.000000 0.519088
O O5 0.919886 0.500000 0.162124
O O6 0.912364 0.223111 0.226131
O O7 0.811648 0.270441 0.117696
O O8 0.977624 0.221717 0.117236
O O9 0.137279 0.500000 0.328883
O O10 0.226632 0.216387 0.351305
O O11 0.048497 0.220191 0.310853
O O12 0.392907 0.734041 0.345917
O O13 0.453437 0.000000 0.294630
O O14 0.040648 0.500000 0.069552
O O15 0.138537 0.776299 0.080581
O O16 0.000000 0.766978 0.000000
O O17 0.697772 0.500000 0.607595
O O18 0.270057 0.000000 0.924527
O O19 0.250000 0.250000 0.000000
#
# Coordination Sequence:
#
# PCOD9183636 Si02
#       7
#     8   8   8   8   8   8   8
#     4  10  19  33  55  83 112 145 180 228 291 334
#     4  10  21  39  58  79 112 147 184 228 273 329
#     4  10  21  36  56  82 109 144 191 234 272 325
#     4  10  22  38  56  79 109 147 186 229 277 323
#     4   9  17  33  58  83 108 144 180 214 268 329
#     4  10  21  37  57  81 112 146 185 231 278 332
#     4  11  21  35  59  88 113 143 181 223 273 326
#
# _framework density 21.635435999999999
#
# number of rings (size 3 to 8) (size 9 to 14) (size 15 to 20)
#    0.000    2.000    2.857    0.857    0.000    3.143 
#    0.000    5.000    0.000    0.000    0.000    0.000 
#    0.000    0.000    0.000    0.000    0.000    0.000 
#
# Total GULP energy -156413.172107 kJ/mol
# GULP energy per Si atom -5586.184718 kJ/mol
# Density = 2.158619 g / cm^3
# Si number density = 21.635436 Si / 1000 Ang^3
#
#
#
# Elastic Constant Matrix: (Units=GPa)
#
#
# Indices 1 2 3 4 5 6 
#
# 1 137.8454 -8.4948 22.1617 0.0000 28.1864 0.0000
# 2 -8.4948 40.4377 -11.9214 0.0000 -2.0554 0.0000
# 3 22.1617 -11.9214 91.0948 0.0000 31.6237 0.0000
# 4 0.0000 0.0000 0.0000 6.6203 0.0000 6.8691
# 5 28.1864 -2.0554 31.6237 0.0000 31.9733 0.0000
# 6 0.0000 0.0000 0.0000 6.8691 0.0000 7.7752
#
#
#
# Elastic Compliance Matrix: (Units=1/GPa)
#
#
# Indices 1 2 3 4 5 6 
#
# 1 0.009013 0.001778 0.001155 0.000000 -0.008974 0.000000
# 2 0.001778 0.026210 0.004503 0.000000 -0.004336 0.000000
# 3 0.001155 0.004503 0.017572 0.000000 -0.018109 0.000000
# 4 0.000000 0.000000 0.000000 1.812561 0.000000 -1.601333
# 5 -0.008974 -0.004336 -0.018109 0.000000 0.056820 0.000000
# 6 0.000000 0.000000 0.000000 -1.601333 0.000000 1.543335
#
#
# Mechanical properties :
#
#
# Convention : Reuss Voigt Hill
#
# Bulk Modulus (GPa) = 14.77812 30.31875 22.54843
# Shear Modulus (GPa) = 1.43960 27.11593 14.27776
#
# Velocity S-wave (km/s) = 0.81660 3.54405 2.57169
# Velocity P-wave (km/s) = 2.78109 5.54896 4.38893
#
# Compressibility (1/GPa) = 0.06766760
#
# Stress axis : x y z
#
# Youngs Moduli (GPa) = 110.94657 38.15341 56.90726
#
# Poissons Ratio (x) = -0.06783 -0.06574
# Poissons Ratio (y) = -0.19725 -0.25624
# Poissons Ratio (z) = -0.12817 -0.17180
#
# Static dielectric constant tensor:
#      x y z
#    x 1.797660 0.000000 0.016460 
#    y 0.000000 1.825610 0.000000 
#    z 0.016460 0.000000 1.736320 
# 
# From -- ./inp_files/309073.got.cif
#   From: 2010.05.17/outbox.cif.g08.bks.cpg/sg12_155_cif.got.tgz:309073.got - 2010.06.03 13:09:07.
