data_PCOD9183031
_publ_section_title
;
Structure prediction by ZEFSAII (Michael W. Deem and Ramdas Pophale) SiO2 
 PCOD9183031
Probable space group: C 2/M
;
_chemical_formula_sum "Si O2"
_cell_formula_units_Z 56
_cell_length_a 19.760720
_cell_length_b 7.413157
_cell_length_c 20.271726
_cell_angle_alpha 90.000000
_cell_angle_beta 126.306601
_cell_angle_gamma 90.000000
_cell_volume 2393.075100
_symmetry_space_group_name_H-M "C 2/M"
_symmetry_group_IT_number 12
_symmetry_cell_setting 'monoclinic'
loop_
_space_group_symop_operation_xyz
x,y,z
-x,y,-z
-x,-y,-z
x,-y,z
1/2+x,1/2+y,z
1/2-x,1/2+y,-z
1/2-x,1/2-y,-z
1/2+x,1/2-y,z
loop_
_atom_site_type_symbol
_atom_site_label
_atom_site_fract_x
_atom_site_fract_y
_atom_site_fract_z
Si Si1 0.561062 0.788054 0.471088
Si Si2 0.192181 0.792438 0.881982
Si Si3 0.791924 0.721243 0.357808
Si Si4 0.858677 0.288559 0.910699
Si Si5 0.589741 0.218968 0.696935
Si Si6 0.110849 0.795728 0.220697
Si Si7 0.566216 0.281169 0.912385
O O1 0.500000 0.776736 0.500000
O O2 0.650394 0.716783 0.547688
O O3 0.502462 0.716185 0.378931
O O4 0.573911 0.000000 0.464895
O O5 0.274494 0.710852 0.896205
O O6 0.121042 0.786429 0.784749
O O7 0.148960 0.714798 0.921984
O O8 0.212963 0.000000 0.908287
O O9 0.791028 0.500000 0.357509
O O10 0.842057 0.771967 0.319866
O O11 0.695943 0.784543 0.299880
O O12 0.846564 0.500000 0.888829
O O13 0.875036 0.198587 0.850340
O O14 0.927529 0.270749 0.007732
O O15 0.588697 0.000000 0.697205
O O16 0.018296 0.712880 0.171635
O O17 0.105321 0.000000 0.243224
O O18 0.564792 0.500000 0.908604
#
# Coordination Sequence:
#
# PCOD9183031 Si02
#       7
#     8   8   8   8   8   8   8
#     4   7  11  20  39  70 100 119 145 194 239 268
#     4  10  21  35  49  69  99 130 159 195 238 285
#     4   8  13  24  45  73  98 119 152 197 237 272
#     4  11  22  35  52  72  95 124 159 201 246 285
#     4   9  15  26  48  74  96 122 158 198 236 274
#     4  10  19  33  54  75  95 124 161 199 237 281
#     4  10  22  37  51  69  95 128 164 198 235 283
#
# _framework density 23.400852
#
# number of rings (size 3 to 8) (size 9 to 14) (size 15 to 20)
#    0.000    2.714    1.429    3.000    0.000    3.429 
#    0.000    0.000    0.000    5.571    0.000    0.000 
#    0.000    0.000    0.000    0.000    0.000    0.000 
#
# Total GULP energy -156289.923343 kJ/mol
# GULP energy per Si atom -5581.782977 kJ/mol
# Density = 2.334759 g / cm^3
# Si number density = 23.400852 Si / 1000 Ang^3
#
#
#
# Elastic Constant Matrix: (Units=GPa)
#
#
# Indices 1 2 3 4 5 6 
#
# 1 56.6041 2.9816 -4.9457 0.0000 18.5012 0.0000
# 2 2.9816 89.5670 0.5457 0.0000 4.7584 0.0000
# 3 -4.9457 0.5457 119.3337 0.0000 28.2275 0.0000
# 4 0.0000 0.0000 0.0000 52.4883 0.0000 -9.3318
# 5 18.5012 4.7584 28.2275 0.0000 35.0225 0.0000
# 6 0.0000 0.0000 0.0000 -9.3318 0.0000 -0.5962
#
#
#
# Elastic Compliance Matrix: (Units=1/GPa)
#
#
# Indices 1 2 3 4 5 6 
#
# 1 0.023393 0.000055 0.004811 0.000000 -0.016243 0.000000
# 2 0.000055 0.011260 0.000395 0.000000 -0.001877 0.000000
# 3 0.004811 0.000395 0.011356 0.000000 -0.011749 0.000000
# 4 0.000000 0.000000 0.000000 0.005036 0.000000 -0.078833
# 5 -0.016243 -0.001877 -0.011749 0.000000 0.046858 0.000000
# 6 0.000000 0.000000 0.000000 -0.078833 0.000000 -0.443407
#
#
# Mechanical properties :
#
#
# Convention : Reuss Voigt Hill
#
# Bulk Modulus (GPa) = 17.68895 29.18534 23.43715
# Shear Modulus (GPa) = -14.82885 35.17779 10.17447
#
# Velocity S-wave (km/s) = -2.52005 3.88141 2.08743
# Velocity P-wave (km/s) = 0.94446 5.70842 3.98083
#
# Compressibility (1/GPa) = 0.05653246
#
# Stress axis : x y z
#
# Youngs Moduli (GPa) = 42.74735 88.80740 88.05536
#
# Poissons Ratio (x) = -0.00488 -0.42368
# Poissons Ratio (y) = -0.00235 -0.03476
# Poissons Ratio (z) = -0.20568 -0.03506
#
# Static dielectric constant tensor:
#      x y z
#    x 1.877150 0.000000 0.055240 
#    y 0.000000 1.865840 0.000000 
#    z 0.055240 0.000000 1.905110 
# 
# From -- ./inp_files/280226.got.cif
#   From: 2010.05.17/outbox.cif.g08.bks.cpg/sg12_141_cif.got.tgz:280226.got - 2010.06.03 13:09:07.
