data_PCOD9183549
_publ_section_title
;
Structure prediction by ZEFSAII (Michael W. Deem and Ramdas Pophale) SiO2 
 PCOD9183549
Probable space group: C 2/M
;
_chemical_formula_sum "Si O2"
_cell_formula_units_Z 56
_cell_length_a 25.937431
_cell_length_b 8.580702
_cell_length_c 16.656297
_cell_angle_alpha 90.000000
_cell_angle_beta 55.506891
_cell_angle_gamma 90.000000
_cell_volume 3055.328025
_symmetry_space_group_name_H-M "C 2/M"
_symmetry_group_IT_number 12
_symmetry_cell_setting 'monoclinic'
loop_
_space_group_symop_operation_xyz
x,y,z
-x,y,-z
-x,-y,-z
x,-y,z
1/2+x,1/2+y,z
1/2-x,1/2+y,-z
1/2-x,1/2-y,-z
1/2+x,1/2-y,z
loop_
_atom_site_type_symbol
_atom_site_label
_atom_site_fract_x
_atom_site_fract_y
_atom_site_fract_z
Si Si1 0.148541 0.186381 0.588777
Si Si2 0.987358 0.315327 0.264980
Si Si3 0.116690 0.186734 0.208962
Si Si4 0.722883 0.811586 0.216508
Si Si5 0.665579 0.688683 0.993700
Si Si6 0.751170 0.311653 0.624546
Si Si7 0.470818 0.688156 0.941637
O O1 0.080189 0.259607 0.646254
O O2 0.192438 0.241271 0.477183
O O3 0.186849 0.232186 0.635892
O O4 0.142905 0.000000 0.593040
O O5 0.991899 0.500000 0.265024
O O6 0.045586 0.243014 0.262470
O O7 0.996311 0.259397 0.165173
O O8 0.155257 0.250778 0.249873
O O9 0.117175 0.000000 0.208835
O O10 0.152807 0.242710 0.095810
O O11 0.773539 0.753728 0.106363
O O12 0.743498 0.763928 0.287598
O O13 0.722427 0.000000 0.214978
O O14 0.669721 0.500000 0.993186
O O15 0.602615 0.726665 0.000180
O O16 0.755455 0.500000 0.617265
O O17 0.476536 0.500000 0.930732
O O18 0.500000 0.738396 0.000000
#
# Coordination Sequence:
#
# PCOD9183549 Si02
#       7
#     8   8   8   8   8   8   8
#     4  10  20  37  60  82 109 143 182 223 274 331
#     4  11  22  36  56  79 109 145 183 226 277 325
#     4  10  20  36  54  78 110 145 188 226 267 322
#     4  10  19  33  55  81 110 143 182 223 271 322
#     4   8  16  30  50  77 108 145 182 217 261 316
#     4   9  20  36  57  84 112 141 178 224 274 329
#     4   9  18  32  53  79 111 146 185 224 264 321
#
# _framework density 18.328638999999999
#
# number of rings (size 3 to 8) (size 9 to 14) (size 15 to 20)
#    0.000    2.429    0.000    3.429    2.000    1.429 
#    0.000    3.571    0.000    4.286    0.000    0.000 
#    0.000    0.000    0.000    0.000    0.000    0.000 
#
# Total GULP energy -156239.839341 kJ/mol
# GULP energy per Si atom -5579.994262 kJ/mol
# Density = 1.828692 g / cm^3
# Si number density = 18.328639 Si / 1000 Ang^3
#
#
#
# Elastic Constant Matrix: (Units=GPa)
#
#
# Indices 1 2 3 4 5 6 
#
# 1 101.2334 21.0262 52.1270 0.0000 -1.9263 0.0001
# 2 21.0262 28.4908 18.0712 0.0000 -1.1977 0.0002
# 3 52.1270 18.0712 48.0957 0.0000 -11.8389 0.0000
# 4 0.0000 0.0000 0.0000 22.6088 0.0000 -0.0814
# 5 -1.9263 -1.1977 -11.8389 0.0000 25.7436 0.0000
# 6 0.0001 0.0002 0.0000 -0.0814 0.0000 24.7791
#
#
#
# Elastic Compliance Matrix: (Units=1/GPa)
#
#
# Indices 1 2 3 4 5 6 
#
# 1 0.025299 0.000134 -0.030449 0.000000 -0.012104 0.000000
# 2 0.000134 0.047086 -0.019503 0.000000 -0.006768 0.000000
# 3 -0.030449 -0.019503 0.068039 0.000000 0.028104 0.000000
# 4 0.000000 0.000000 0.000000 0.044231 0.000000 0.000145
# 5 -0.012104 -0.006768 0.028104 0.000000 0.050548 0.000000
# 6 0.000000 0.000000 0.000000 0.000145 0.000000 0.040357
#
#
# Mechanical properties :
#
#
# Convention : Reuss Voigt Hill
#
# Bulk Modulus (GPa) = 24.51727 40.02983 32.27355
# Shear Modulus (GPa) = 12.86036 20.39935 16.62986
#
# Velocity S-wave (km/s) = 2.65175 3.33975 3.01544
# Velocity P-wave (km/s) = 4.77297 6.06295 5.45622
#
# Compressibility (1/GPa) = 0.04078757
#
# Stress axis : x y z
#
# Youngs Moduli (GPa) = 39.52761 21.23772 14.69751
#
# Poissons Ratio (x) = -0.00284 0.44752
# Poissons Ratio (y) = -0.00529 0.28665
# Poissons Ratio (z) = 1.20357 0.41420
#
# Static dielectric constant tensor:
#      x y z
#    x 1.627060 0.000000 0.004280 
#    y 0.000000 1.619470 0.000000 
#    z 0.004280 0.000000 1.616290 
# 
# From -- ./inp_files/238277.got.cif
#   From: 2010.05.17/outbox.cif.g08.bks.cpg/sg12_120_cif.got.tgz:238277.got - 2010.06.03 13:09:07.
