data_PCOD9183474
_publ_section_title
;
Structure prediction by ZEFSAII (Michael W. Deem and Ramdas Pophale) SiO2 
 PCOD9183474
Probable space group: C 2/M
;
_chemical_formula_sum "Si O2"
_cell_formula_units_Z 64
_cell_length_a 19.366991
_cell_length_b 9.445416
_cell_length_c 16.293914
_cell_angle_alpha 90.000000
_cell_angle_beta 69.887868
_cell_angle_gamma 90.000000
_cell_volume 2798.879362
_symmetry_space_group_name_H-M "C 2/M"
_symmetry_group_IT_number 12
_symmetry_cell_setting 'monoclinic'
loop_
_space_group_symop_operation_xyz
x,y,z
-x,y,-z
-x,-y,-z
x,-y,z
1/2+x,1/2+y,z
1/2-x,1/2+y,-z
1/2-x,1/2-y,-z
1/2+x,1/2-y,z
loop_
_atom_site_type_symbol
_atom_site_label
_atom_site_fract_x
_atom_site_fract_y
_atom_site_fract_z
Si Si1 0.367299 0.661210 0.851440
Si Si2 0.033395 0.664407 0.600730
Si Si3 0.083463 0.335745 0.935843
Si Si4 0.507912 0.160747 0.806598
Si Si5 0.276303 0.663748 0.105204
Si Si6 0.250404 0.840703 0.688825
Si Si7 0.822452 0.165354 0.444470
Si Si8 0.889610 0.838340 0.643960
O O1 0.360775 0.500000 0.881326
O O2 0.441050 0.735021 0.852569
O O3 0.293453 0.748577 0.898296
O O4 0.378505 0.660411 0.747614
O O5 0.040613 0.500000 0.573495
O O6 0.104780 0.758086 0.553459
O O7 0.026891 0.667792 0.703092
O O8 0.958857 0.737064 0.599248
O O9 0.103212 0.500000 0.943243
O O10 0.145665 0.234776 0.945977
O O11 0.075060 0.315233 0.840931
O O12 0.000000 0.312735 0.000000
O O13 0.481761 0.000000 0.833645
O O14 0.271596 0.500000 0.083467
O O15 0.270021 0.670289 0.207543
O O16 0.183487 0.828543 0.652727
O O17 0.313363 0.726811 0.643729
O O18 0.281799 0.000000 0.663840
O O19 0.750000 0.250000 0.500000
O O20 0.819934 0.000000 0.468534
O O21 0.902694 0.000000 0.612502
#
# Coordination Sequence:
#
# PCOD9183474 Si02
#       8
#     8   8   8   8   8   8   8   8
#     4   9  17  30  51  79 107 133 166 211 260 307
#     4  10  19  33  55  80 106 136 171 212 258 307
#     4  10  21  36  52  73 105 141 175 214 259 305
#     4   9  18  33  54  79 105 135 172 213 257 306
#     4  10  19  33  55  80 105 134 171 213 257 307
#     4   9  19  35  55  79 106 136 169 211 260 306
#     4  11  23  38  54  75 106 140 175 213 255 304
#     4   9  17  30  52  81 108 133 166 211 258 306
#
# _framework density 22.866294
#
# number of rings (size 3 to 8) (size 9 to 14) (size 15 to 20)
#    0.000    2.375    0.000    2.625    0.000    5.750 
#    0.000    1.250    0.000    3.750    0.000    0.000 
#    0.000    0.000    0.000    0.000    0.000    0.000 
#
# Total GULP energy -179015.162852 kJ/mol
# GULP energy per Si atom -5594.223839 kJ/mol
# Density = 2.281425 g / cm^3
# Si number density = 22.866294 Si / 1000 Ang^3
#
#
#
# Elastic Constant Matrix: (Units=GPa)
#
#
# Indices 1 2 3 4 5 6 
#
# 1 111.1002 93.9734 8.0830 0.0000 -16.9943 0.0000
# 2 93.9734 206.5077 24.7219 0.0000 -40.0061 0.0000
# 3 8.0830 24.7219 68.8463 0.0000 -2.4336 0.0000
# 4 0.0000 0.0000 0.0000 15.2724 0.0000 -14.3574
# 5 -16.9943 -40.0061 -2.4336 0.0000 43.5961 0.0000
# 6 0.0000 0.0000 0.0000 -14.3574 0.0000 42.3877
#
#
#
# Elastic Compliance Matrix: (Units=1/GPa)
#
#
# Indices 1 2 3 4 5 6 
#
# 1 0.014677 -0.006871 0.000725 0.000000 -0.000543 0.000000
# 2 -0.006871 0.009373 -0.002354 0.000000 0.005791 0.000000
# 3 0.000725 -0.002354 0.015249 0.000000 -0.001027 0.000000
# 4 0.000000 0.000000 0.000000 0.096068 0.000000 0.032540
# 5 -0.000543 0.005791 -0.001027 0.000000 0.027983 0.000000
# 6 0.000000 0.000000 0.000000 0.032540 0.000000 0.034613
#
#
# Mechanical properties :
#
#
# Convention : Reuss Voigt Hill
#
# Bulk Modulus (GPa) = 44.84671 71.11231 57.97951
# Shear Modulus (GPa) = 22.48241 37.56297 30.02269
#
# Velocity S-wave (km/s) = 3.13902 4.05745 3.62742
# Velocity P-wave (km/s) = 5.72653 7.28816 6.55402
#
# Compressibility (1/GPa) = 0.02229818
#
# Stress axis : x y z
#
# Youngs Moduli (GPa) = 68.13544 106.69136 65.57760
#
# Poissons Ratio (x) = 0.73306 -0.04754
# Poissons Ratio (y) = 0.46815 0.15439
# Poissons Ratio (z) = -0.04939 0.25118
#
# Static dielectric constant tensor:
#      x y z
#    x 1.789290 0.000000 0.060630 
#    y 0.000000 1.787370 0.000000 
#    z 0.060630 0.000000 1.934660 
# 
# From -- ./inp_files/319956.got.cif
#   From: 2010.05.17/outbox.cif.g08.bks.cpg/sg12_160_cif.got.tgz:319956.got - 2010.06.03 13:09:07.
