data_PCOD9183992
_publ_section_title
;
Structure prediction by ZEFSAII (Michael W. Deem and Ramdas Pophale) SiO2 
 PCOD9183992
Probable space group: C 2/M
;
_chemical_formula_sum "Si O2"
_cell_formula_units_Z 52
_cell_length_a 20.203815
_cell_length_b 12.155260
_cell_length_c 21.602998
_cell_angle_alpha 90.000000
_cell_angle_beta 30.217923
_cell_angle_gamma 90.000000
_cell_volume 2670.116465
_symmetry_space_group_name_H-M "C 2/M"
_symmetry_group_IT_number 12
_symmetry_cell_setting 'monoclinic'
loop_
_space_group_symop_operation_xyz
x,y,z
-x,y,-z
-x,-y,-z
x,-y,z
1/2+x,1/2+y,z
1/2-x,1/2+y,-z
1/2-x,1/2-y,-z
1/2+x,1/2-y,z
loop_
_atom_site_type_symbol
_atom_site_label
_atom_site_fract_x
_atom_site_fract_y
_atom_site_fract_z
Si Si1 0.751906 0.000000 0.092599
Si Si2 0.534441 0.881757 0.043551
Si Si3 0.769173 0.000000 0.224153
Si Si4 0.376747 0.782009 0.853020
Si Si5 0.348563 0.764762 0.640776
Si Si6 0.609640 0.740645 0.751076
Si Si7 0.456460 0.500000 0.181485
Si Si8 0.338487 0.374481 0.775493
O O1 0.784600 0.000000 0.138515
O O2 0.670220 0.892622 0.141687
O O3 0.886820 0.000000 0.944561
O O4 0.471970 0.772820 0.121513
O O5 0.487316 0.000000 0.109124
O O6 0.500000 0.884815 0.000000
O O7 0.689963 0.878474 0.921572
O O8 0.695025 0.888256 0.304724
O O9 0.904447 0.000000 0.153001
O O10 0.513877 0.798810 0.778972
O O11 0.407042 0.693737 0.774576
O O12 0.250000 0.750000 0.000000
O O13 0.500000 0.763190 0.500000
O O14 0.256341 0.731492 0.656234
O O15 0.332398 0.686619 0.714096
O O16 0.599162 0.611783 0.745001
O O17 0.385549 0.500000 0.730259
#
# Coordination Sequence:
#
# PCOD9183992 Si02
#       8
#     4   8   4   8   8   8   4   8
#     4  12  21  37  61  94 132 163 196 235 311 379
#     4  10  19  33  56  87 123 154 187 242 307 365
#     4  10  22  40  64  92 118 159 208 262 303 349
#     4  12  24  36  59  94 134 164 189 240 306 385
#     4  11  24  45  67  86 115 162 218 265 299 345
#     4  11  23  37  59  92 125 159 201 246 305 360
#     4  10  21  33  59  92 128 158 190 250 303 371
#     4  11  23  39  63  90 126 162 198 248 309 366
#
# _framework density 19.474805
#
# number of rings (size 3 to 8) (size 9 to 14) (size 15 to 20)
#    0.000    1.077    6.154    0.462    3.231    0.308 
#    0.000    0.769    0.000    0.000    0.000    0.000 
#    0.000    0.000    0.000    0.000    0.000    0.000 
#
# Total GULP energy -144903.919050 kJ/mol
# GULP energy per Si atom -5573.227656 kJ/mol
# Density = 1.943048 g / cm^3
# Si number density = 19.474805 Si / 1000 Ang^3
#
#
#
# Elastic Constant Matrix: (Units=GPa)
#
#
# Indices 1 2 3 4 5 6 
#
# 1 119.8230 13.1209 13.6656 -0.0001 -20.4144 0.0001
# 2 13.1209 92.2462 12.5742 0.0000 4.6914 -0.0001
# 3 13.6656 12.5742 41.9158 0.0001 -22.5768 -0.0003
# 4 -0.0001 0.0000 0.0001 1.8149 0.0000 22.8060
# 5 -20.4144 4.6914 -22.5768 0.0000 20.1559 0.0001
# 6 0.0001 -0.0001 -0.0003 22.8060 0.0001 2.2850
#
#
#
# Elastic Compliance Matrix: (Units=1/GPa)
#
#
# Indices 1 2 3 4 5 6 
#
# 1 0.011994 -0.004618 0.011589 0.000000 0.026204 0.000000
# 2 -0.004618 0.015660 -0.019348 0.000000 -0.029994 0.000000
# 3 0.011589 -0.019348 0.087301 0.000001 0.114028 0.000000
# 4 0.000000 0.000000 0.000001 -0.004429 0.000000 0.044201
# 5 0.026204 -0.029994 0.114028 0.000000 0.210859 0.000000
# 6 0.000000 0.000000 0.000000 0.044201 0.000000 -0.003517
#
#
# Mechanical properties :
#
#
# Convention : Reuss Voigt Hill
#
# Bulk Modulus (GPa) = 11.08625 36.96735 24.02680
# Shear Modulus (GPa) = 13.41598 19.15944 16.28771
#
# Velocity S-wave (km/s) = 2.62752 3.13997 2.89510
# Velocity P-wave (km/s) = 3.86136 5.67179 4.85177
#
# Compressibility (1/GPa) = 0.09020180
#
# Stress axis : x y z
#
# Youngs Moduli (GPa) = 83.37458 63.85616 11.45457
#
# Poissons Ratio (x) = 0.29491 -0.13275
# Poissons Ratio (y) = 0.38506 0.22162
# Poissons Ratio (z) = -0.96625 1.23547
#
# Static dielectric constant tensor:
#      x y z
#    x 1.746140 0.000000 0.000530 
#    y 0.000000 1.774570 0.000000 
#    z 0.000530 0.000000 1.646480 
# 
# From -- ./inp_files/321566.got.cif
#   From: 2010.05.17/outbox.cif.g08.bks.cpg/sg12_161_cif.got.tgz:321566.got - 2010.06.03 13:09:07.
