data_PCOD9183164
_publ_section_title
;
Structure prediction by ZEFSAII (Michael W. Deem and Ramdas Pophale) SiO2 
 PCOD9183164
Probable space group: C 2/M
;
_chemical_formula_sum "Si O2"
_cell_formula_units_Z 48
_cell_length_a 20.307725
_cell_length_b 14.475580
_cell_length_c 17.116659
_cell_angle_alpha 90.000000
_cell_angle_beta 33.450850
_cell_angle_gamma 90.000000
_cell_volume 2773.590594
_symmetry_space_group_name_H-M "C 2/M"
_symmetry_group_IT_number 12
_symmetry_cell_setting 'monoclinic'
loop_
_space_group_symop_operation_xyz
x,y,z
-x,y,-z
-x,-y,-z
x,-y,z
1/2+x,1/2+y,z
1/2-x,1/2+y,-z
1/2-x,1/2-y,-z
1/2+x,1/2-y,z
loop_
_atom_site_type_symbol
_atom_site_label
_atom_site_fract_x
_atom_site_fract_y
_atom_site_fract_z
Si Si1 0.462323 0.106681 0.451950
Si Si2 0.652927 0.389105 0.149176
Si Si3 0.068380 0.220852 0.700869
Si Si4 0.641546 0.609732 0.343295
Si Si5 0.226916 0.239534 0.396815
Si Si6 0.911387 0.392931 0.825403
O O1 0.500000 0.134609 0.500000
O O2 0.355151 0.171856 0.535439
O O3 0.573151 0.115140 0.283137
O O4 0.425450 0.000000 0.487808
O O5 0.636579 0.500000 0.163570
O O6 0.545702 0.342177 0.207155
O O7 0.656635 0.361825 0.237370
O O8 0.780944 0.367014 0.984507
O O9 0.163554 0.197132 0.537455
O O10 0.143371 0.222984 0.706575
O O11 0.013674 0.324236 0.752862
O O12 0.500000 0.619345 0.500000
O O13 0.671801 0.500000 0.320458
O O14 0.712264 0.670780 0.337563
O O15 0.933307 0.500000 0.825343
#
# Coordination Sequence:
#
# PCOD9183164 Si02
#       6
#     8   8   8   8   8   8
#     4   9  18  33  55  78  99 133 176 217 260 303
#     4  10  20  35  57  79 103 138 179 218 259 310
#     4  10  20  33  51  78 105 139 172 210 266 311
#     4  10  19  33  54  79 105 139 177 216 259 306
#     4  10  20  32  51  77 109 136 168 218 261 307
#     4   9  19  35  54  77 103 134 175 217 256 309
#
# _framework density 17.306086000000001
#
# number of rings (size 3 to 8) (size 9 to 14) (size 15 to 20)
#    0.000    2.333    1.667    1.000    2.333    1.333 
#    0.000    4.167    0.000    3.000    0.000    4.667 
#    0.000    0.000    0.000    0.000    0.000    0.000 
#
# Total GULP energy -133606.300790 kJ/mol
# GULP energy per Si atom -5566.929200 kJ/mol
# Density = 1.726670 g / cm^3
# Si number density = 17.306086 Si / 1000 Ang^3
#
#
#
# Elastic Constant Matrix: (Units=GPa)
#
#
# Indices 1 2 3 4 5 6 
#
# 1 130.6785 47.0161 57.0633 0.0000 -10.7604 0.0000
# 2 47.0161 75.5237 32.7136 0.0000 14.1271 0.0000
# 3 57.0633 32.7136 80.9431 0.0000 2.9880 0.0000
# 4 0.0000 0.0000 0.0000 13.7849 0.0000 13.6005
# 5 -10.7604 14.1271 2.9880 0.0000 25.1578 0.0000
# 6 0.0000 0.0000 0.0000 13.6005 0.0000 58.8410
#
#
#
# Elastic Compliance Matrix: (Units=1/GPa)
#
#
# Indices 1 2 3 4 5 6 
#
# 1 0.014921 -0.008203 -0.007642 0.000000 0.011896 0.000000
# 2 -0.008203 0.022483 -0.002720 0.000000 -0.015811 0.000000
# 3 -0.007642 -0.002720 0.018989 0.000000 -0.003997 0.000000
# 4 0.000000 0.000000 0.000000 0.093974 0.000000 -0.021721
# 5 0.011896 -0.015811 -0.003997 0.000000 0.054190 0.000000
# 6 0.000000 0.000000 0.000000 -0.021721 0.000000 0.022016
#
#
# Mechanical properties :
#
#
# Convention : Reuss Voigt Hill
#
# Bulk Modulus (GPa) = 51.91703 62.30348 57.11026
# Shear Modulus (GPa) = 18.50996 29.58022 24.04509
#
# Velocity S-wave (km/s) = 3.27397 4.13878 3.73151
# Velocity P-wave (km/s) = 6.66005 7.67583 7.18591
#
# Compressibility (1/GPa) = 0.01926150
#
# Stress axis : x y z
#
# Youngs Moduli (GPa) = 67.02157 44.47710 52.66234
#
# Poissons Ratio (x) = 0.36486 0.40247
# Poissons Ratio (y) = 0.54981 0.14324
# Poissons Ratio (z) = 0.51220 0.12097
#
# Static dielectric constant tensor:
#      x y z
#    x 1.604180 0.000000 0.030880 
#    y 0.000000 1.617050 0.000000 
#    z 0.030880 0.000000 1.575170 
# 
# From -- ./inp_files/166522.got.cif
#   From: 2010.05.17/outbox.cif.g08.bks.cpg/sg12_84_cif.got.tgz:166522.got - 2010.06.03 13:09:07.
