data_PCOD9183055
_publ_section_title
;
Structure prediction by ZEFSAII (Michael W. Deem and Ramdas Pophale) SiO2 
 PCOD9183055
Probable space group: C 2/M
;
_chemical_formula_sum "Si O2"
_cell_formula_units_Z 56
_cell_length_a 27.233196
_cell_length_b 14.053752
_cell_length_c 15.435688
_cell_angle_alpha 90.000000
_cell_angle_beta 27.065436
_cell_angle_gamma 90.000000
_cell_volume 2688.040012
_symmetry_space_group_name_H-M "C 2/M"
_symmetry_group_IT_number 12
_symmetry_cell_setting 'monoclinic'
loop_
_space_group_symop_operation_xyz
x,y,z
-x,y,-z
-x,-y,-z
x,-y,z
1/2+x,1/2+y,z
1/2-x,1/2+y,-z
1/2-x,1/2-y,-z
1/2+x,1/2-y,z
loop_
_atom_site_type_symbol
_atom_site_label
_atom_site_fract_x
_atom_site_fract_y
_atom_site_fract_z
Si Si1 0.420429 0.390693 0.456096
Si Si2 0.496826 0.894246 0.600503
Si Si3 0.910782 0.232531 0.207463
Si Si4 0.970587 0.273526 0.799680
Si Si5 0.247746 0.893682 0.965099
Si Si6 0.776342 0.789272 0.824692
Si Si7 0.746419 0.607482 0.441768
O O1 0.444563 0.500000 0.442474
O O2 0.520904 0.330921 0.259442
O O3 0.361611 0.332774 0.624752
O O4 0.332635 0.392834 0.516579
O O5 0.500000 0.846882 0.500000
O O6 0.530345 0.839085 0.633953
O O7 0.368735 0.904980 0.812127
O O8 0.546921 0.000000 0.514845
O O9 0.967620 0.266127 0.207141
O O10 0.845485 0.321661 0.271659
O O11 0.824221 0.152343 0.369484
O O12 0.000000 0.198466 0.000000
O O13 0.848463 0.309646 0.005345
O O14 0.266988 0.824530 0.853240
O O15 0.205880 0.000000 0.014519
O O16 0.193820 0.834925 0.128498
O O17 0.780862 0.500000 0.405607
#
# Coordination Sequence:
#
# PCOD9183055 Si02
#       7
#     8   8   8   8   8   8   8
#     4  10  20  36  56  78 108 145 182 222 271 325
#     4   9  17  31  51  74 104 141 179 223 273 321
#     4  10  20  36  57  81 112 145 179 223 272 324
#     4  10  21  34  54  83 110 139 184 229 269 321
#     4   9  18  31  48  73 105 142 183 225 271 325
#     4  10  19  33  54  76 107 147 184 224 274 326
#     4   9  20  37  56  80 110 143 180 222 269 325
#
# _framework density 20.833023000000001
#
# number of rings (size 3 to 8) (size 9 to 14) (size 15 to 20)
#    0.000    2.429    0.000    2.143    0.000    2.286 
#    0.000    0.000    0.000   19.286    0.000    0.000 
#    0.000    0.000    0.000    0.000    0.000    0.000 
#
# Total GULP energy -156025.498708 kJ/mol
# GULP energy per Si atom -5572.339240 kJ/mol
# Density = 2.078561 g / cm^3
# Si number density = 20.833023 Si / 1000 Ang^3
#
#
#
# Elastic Constant Matrix: (Units=GPa)
#
#
# Indices 1 2 3 4 5 6 
#
# 1 42.6903 1.7742 -3.9752 0.0000 8.8952 0.0000
# 2 1.7742 94.0384 3.4123 0.0000 18.6133 0.0000
# 3 -3.9752 3.4123 66.3053 0.0000 11.7367 0.0000
# 4 0.0000 0.0000 0.0000 17.0186 0.0000 -1.8874
# 5 8.8952 18.6133 11.7367 0.0000 29.2589 0.0000
# 6 0.0000 0.0000 0.0000 -1.8874 0.0000 22.0711
#
#
#
# Elastic Compliance Matrix: (Units=1/GPa)
#
#
# Indices 1 2 3 4 5 6 
#
# 1 0.025755 0.001377 0.003245 0.000000 -0.010007 0.000000
# 2 0.001377 0.012279 0.000977 0.000000 -0.008622 0.000000
# 3 0.003245 0.000977 0.016696 0.000000 -0.008305 0.000000
# 4 0.000000 0.000000 0.000000 0.059322 0.000000 0.005073
# 5 -0.010007 -0.008622 -0.008305 0.000000 0.046036 0.000000
# 6 0.000000 0.000000 0.000000 0.005073 0.000000 0.045742
#
#
# Mechanical properties :
#
#
# Convention : Reuss Voigt Hill
#
# Bulk Modulus (GPa) = 15.16829 22.82851 18.99840
# Shear Modulus (GPa) = 23.08311 27.12457 25.10384
#
# Velocity S-wave (km/s) = 3.33228 3.61224 3.47508
# Velocity P-wave (km/s) = 4.70129 5.32722 5.02402
#
# Compressibility (1/GPa) = 0.06592702
#
# Stress axis : x y z
#
# Youngs Moduli (GPa) = 38.82800 81.43924 59.89417
#
# Poissons Ratio (x) = -0.11215 -0.19433
# Poissons Ratio (y) = -0.05347 -0.05851
# Poissons Ratio (z) = -0.12598 -0.07955
#
# Static dielectric constant tensor:
#      x y z
#    x 1.734840 0.000000 -0.028030 
#    y 0.000000 1.816260 0.000000 
#    z -0.028030 0.000000 1.792790 
# 
# From -- ./inp_files/246554.got.cif
#   From: 2010.05.17/outbox.cif.g08.bks.cpg/sg12_124_cif.got.tgz:246554.got - 2010.06.03 13:09:07.
