data_PCOD9183348
_publ_section_title
;
Structure prediction by ZEFSAII (Michael W. Deem and Ramdas Pophale) SiO2 
 PCOD9183348
Probable space group: C 2/M
;
_chemical_formula_sum "Si O2"
_cell_formula_units_Z 52
_cell_length_a 21.595426
_cell_length_b 8.076887
_cell_length_c 12.446318
_cell_angle_alpha 90.000000
_cell_angle_beta 112.109852
_cell_angle_gamma 90.000000
_cell_volume 2011.292290
_symmetry_space_group_name_H-M "C 2/M"
_symmetry_group_IT_number 12
_symmetry_cell_setting 'monoclinic'
loop_
_space_group_symop_operation_xyz
x,y,z
-x,y,-z
-x,-y,-z
x,-y,z
1/2+x,1/2+y,z
1/2-x,1/2+y,-z
1/2-x,1/2-y,-z
1/2+x,1/2-y,z
loop_
_atom_site_type_symbol
_atom_site_label
_atom_site_fract_x
_atom_site_fract_y
_atom_site_fract_z
Si Si1 0.377297 0.684573 0.661181
Si Si2 0.394215 0.500000 0.892201
Si Si3 0.742658 0.195041 0.652657
Si Si4 0.936774 0.318950 0.037869
Si Si5 0.775435 0.808155 0.131525
Si Si6 0.936133 0.810018 0.259643
Si Si7 0.409532 0.804462 0.471304
O O1 0.369694 0.500000 0.608237
O O2 0.397937 0.642000 0.796395
O O3 0.304672 0.771021 0.628691
O O4 0.424148 0.773311 0.606210
O O5 0.398065 0.649481 0.984464
O O6 0.755623 0.208608 0.788904
O O7 0.668055 0.257285 0.586060
O O8 0.743641 0.000000 0.628690
O O9 0.902844 0.500000 0.004239
O O10 0.960674 0.299842 0.176627
O O11 0.000000 0.317845 0.000000
O O12 0.855360 0.790486 0.192883
O O13 0.759674 0.000000 0.137508
O O14 0.750000 0.750000 0.000000
O O15 0.946080 0.770368 0.391971
O O16 0.956973 0.000000 0.255164
O O17 0.410845 0.000000 0.453024
#
# Coordination Sequence:
#
# PCOD9183348 Si02
#       7
#     8   4   8   8   8   8   8
#     4   9  20  34  53  78 117 160 202 247 296 351
#     4  10  23  40  62  93 128 157 199 254 315 369
#     4   9  18  32  48  72 109 159 206 246 288 335
#     4  11  24  43  69  96 121 152 196 252 315 387
#     4  10  21  31  46  74 113 154 195 241 296 351
#     4  10  21  37  60  84 116 158 200 248 302 366
#     4  10  19  33  54  83 117 158 212 255 291 344
#
# _framework density 25.854023000000002
#
# number of rings (size 3 to 8) (size 9 to 14) (size 15 to 20)
#    0.462    1.692    0.769    2.077    2.154    3.692 
#    0.000    0.000    0.000    1.846    0.000    3.231 
#    0.000    0.000    0.000    0.000    0.000    0.000 
#
# Total GULP energy -144805.200265 kJ/mol
# GULP energy per Si atom -5569.430779 kJ/mol
# Density = 2.579518 g / cm^3
# Si number density = 25.854023 Si / 1000 Ang^3
#
#
#
# Elastic Constant Matrix: (Units=GPa)
#
#
# Indices 1 2 3 4 5 6 
#
# 1 96.1834 5.5392 42.7453 0.0000 -25.7301 0.0000
# 2 5.5392 106.4389 31.7770 0.0000 -1.3811 0.0000
# 3 42.7453 31.7770 195.6743 0.0000 -16.8740 0.0000
# 4 0.0000 0.0000 0.0000 39.5122 0.0000 -11.4135
# 5 -25.7301 -1.3811 -16.8740 0.0000 52.6721 0.0000
# 6 0.0000 0.0000 0.0000 -11.4135 0.0000 -2.9837
#
#
#
# Elastic Compliance Matrix: (Units=1/GPa)
#
#
# Indices 1 2 3 4 5 6 
#
# 1 0.012928 0.000104 -0.002362 0.000000 0.005561 0.000000
# 2 0.000104 0.009878 -0.001646 0.000000 -0.000217 0.000000
# 3 -0.002362 -0.001646 0.005955 0.000000 0.000711 0.000000
# 4 0.000000 0.000000 0.000000 0.012023 0.000000 -0.045993
# 5 0.005561 -0.000217 0.000711 0.000000 0.021924 0.000000
# 6 0.000000 0.000000 0.000000 -0.045993 0.000000 -0.159222
#
#
# Mechanical properties :
#
#
# Convention : Reuss Voigt Hill
#
# Bulk Modulus (GPa) = 47.72019 62.04662 54.88341
# Shear Modulus (GPa) = -61.18278 39.05581 -11.06349
#
# Velocity S-wave (km/s) = -4.86992 3.89090 -2.07087
# Velocity P-wave (km/s) = 3.62268 6.65104 3.94414
#
# Compressibility (1/GPa) = 0.02095549
#
# Stress axis : x y z
#
# Youngs Moduli (GPa) = 77.35133 101.23364 167.92663
#
# Poissons Ratio (x) = -0.01057 0.39656
# Poissons Ratio (y) = -0.00808 0.27636
# Poissons Ratio (z) = 0.18267 0.16660
#
# Static dielectric constant tensor:
#      x y z
#    x 2.192140 0.000000 0.046560 
#    y 0.000000 1.969950 0.000000 
#    z 0.046560 0.000000 2.081210 
# 
# From -- ./inp_files/180021.got.cif
#   From: 2010.05.17/outbox.cif.g08.bks.cpg/sg12_91_cif.got.tgz:180021.got - 2010.06.03 13:09:07.
