data_PCOD9183578
_publ_section_title
;
Structure prediction by ZEFSAII (Michael W. Deem and Ramdas Pophale) SiO2 
 PCOD9183578
Probable space group: C 2/M
;
_chemical_formula_sum "Si O2"
_cell_formula_units_Z 56
_cell_length_a 13.544603
_cell_length_b 11.001506
_cell_length_c 20.424511
_cell_angle_alpha 90.000000
_cell_angle_beta 71.473928
_cell_angle_gamma 90.000000
_cell_volume 2885.761918
_symmetry_space_group_name_H-M "C 2/M"
_symmetry_group_IT_number 12
_symmetry_cell_setting 'monoclinic'
loop_
_space_group_symop_operation_xyz
x,y,z
-x,y,-z
-x,-y,-z
x,-y,z
1/2+x,1/2+y,z
1/2-x,1/2+y,-z
1/2-x,1/2-y,-z
1/2+x,1/2-y,z
loop_
_atom_site_type_symbol
_atom_site_label
_atom_site_fract_x
_atom_site_fract_y
_atom_site_fract_z
Si Si1 0.292555 0.210386 0.390046
Si Si2 0.014101 0.639338 0.733772
Si Si3 0.455674 0.857048 0.122283
Si Si4 0.896581 0.137906 0.483593
Si Si5 0.688955 0.134731 0.040327
Si Si6 0.181340 0.359433 0.301478
Si Si7 0.312073 0.365566 0.142890
O O1 0.376661 0.143596 0.326989
O O2 0.203599 0.137719 0.447399
O O3 0.360362 0.282061 0.429905
O O4 0.227581 0.295782 0.354935
O O5 0.980070 0.500000 0.749255
O O6 0.026423 0.682559 0.805507
O O7 0.924055 0.696791 0.707466
O O8 0.565279 0.852630 0.061907
O O9 0.379298 0.753185 0.112246
O O10 0.420265 0.000000 0.128605
O O11 0.000000 0.183205 0.500000
O O12 0.919347 0.000000 0.457468
O O13 0.718018 0.131716 0.111063
O O14 0.718737 0.000000 0.007273
O O15 0.750000 0.250000 0.000000
O O16 0.161717 0.500000 0.323005
O O17 0.265204 0.354784 0.225213
O O18 0.364416 0.500000 0.126358
#
# Coordination Sequence:
#
# PCOD9183578 Si02
#       7
#     8   8   8   8   8   8   8
#     4  11  20  34  58  80 103 144 190 230 281 338
#     4  10  19  33  55  82 110 140 182 233 286 340
#     4  10  20  37  59  85 116 151 187 235 292 343
#     4  10  22  38  52  74 112 148 182 228 282 340
#     4  10  22  40  62  84 118 161 196 233 287 342
#     4  10  19  33  55  82 110 140 182 233 286 340
#     4  10  20  37  59  85 116 151 187 235 292 343
#
# _framework density 19.405621
#
# number of rings (size 3 to 8) (size 9 to 14) (size 15 to 20)
#    0.000    1.857    2.857    1.714    0.000    1.714 
#    0.000    2.857    0.000    8.571    0.000    0.000 
#    0.000    0.000    0.000    0.000    0.000    0.000 
#
# Total GULP energy -156058.229612 kJ/mol
# GULP energy per Si atom -5573.508200 kJ/mol
# Density = 1.936145 g / cm^3
# Si number density = 19.405621 Si / 1000 Ang^3
#
#
#
# Elastic Constant Matrix: (Units=GPa)
#
#
# Indices 1 2 3 4 5 6 
#
# 1 94.4207 31.9440 0.1759 0.0000 2.3929 0.0000
# 2 31.9440 79.6864 14.0805 0.0000 -8.7665 0.0000
# 3 0.1759 14.0805 50.9148 0.0000 -3.0108 0.0000
# 4 0.0000 0.0000 0.0000 -4.0901 0.0000 -5.0206
# 5 2.3929 -8.7665 -3.0108 0.0000 32.1153 0.0000
# 6 0.0000 0.0000 0.0000 -5.0206 0.0000 26.2594
#
#
#
# Elastic Compliance Matrix: (Units=1/GPa)
#
#
# Indices 1 2 3 4 5 6 
#
# 1 0.012510 -0.005506 0.001343 0.000000 -0.002309 0.000000
# 2 -0.005506 0.015970 -0.004138 0.000000 0.004382 0.000000
# 3 0.001343 -0.004138 0.020823 0.000000 0.000722 0.000000
# 4 0.000000 0.000000 0.000000 -0.198021 0.000000 -0.037860
# 5 -0.002309 0.004382 0.000722 0.000000 0.032574 0.000000
# 6 0.000000 0.000000 0.000000 -0.037860 0.000000 0.030843
#
#
# Mechanical properties :
#
#
# Convention : Reuss Voigt Hill
#
# Bulk Modulus (GPa) = 30.58138 35.26919 32.92529
# Shear Modulus (GPa) = -86.50681 22.77836 -31.86423
#
# Velocity S-wave (km/s) = -6.68394 3.42980 -4.05657
# Velocity P-wave (km/s) = 6.61615 5.82227 2.22200
#
# Compressibility (1/GPa) = 0.03269963
#
# Stress axis : x y z
#
# Youngs Moduli (GPa) = 79.93782 62.61856 48.02341
#
# Poissons Ratio (x) = 0.34479 -0.06449
# Poissons Ratio (y) = 0.44015 0.19874
# Poissons Ratio (z) = -0.10735 0.25914
#
# Static dielectric constant tensor:
#      x y z
#    x 1.697980 0.000000 0.020960 
#    y 0.000000 1.676580 0.000000 
#    z 0.020960 0.000000 1.678040 
# 
# From -- ./inp_files/304202.got.cif
#   From: 2010.05.17/outbox.cif.g08.bks.cpg/sg12_153_cif.got.tgz:304202.got - 2010.06.03 13:09:07.
