data_PCOD9183581
_publ_section_title
;
Structure prediction by ZEFSAII (Michael W. Deem and Ramdas Pophale) SiO2 
 PCOD9183581
Probable space group: C 2/M
;
_chemical_formula_sum "Si O2"
_cell_formula_units_Z 56
_cell_length_a 17.183819
_cell_length_b 13.474221
_cell_length_c 17.033960
_cell_angle_alpha 90.000000
_cell_angle_beta 136.357905
_cell_angle_gamma 90.000000
_cell_volume 2721.970127
_symmetry_space_group_name_H-M "C 2/M"
_symmetry_group_IT_number 12
_symmetry_cell_setting 'monoclinic'
loop_
_space_group_symop_operation_xyz
x,y,z
-x,y,-z
-x,-y,-z
x,-y,z
1/2+x,1/2+y,z
1/2-x,1/2+y,-z
1/2-x,1/2-y,-z
1/2+x,1/2-y,z
loop_
_atom_site_type_symbol
_atom_site_label
_atom_site_fract_x
_atom_site_fract_y
_atom_site_fract_z
Si Si1 0.669641 0.118174 0.326405
Si Si2 0.131631 0.110783 0.078619
Si Si3 0.949891 0.610701 0.358998
Si Si4 0.189153 0.113617 0.936546
Si Si5 0.280819 0.886246 0.463295
Si Si6 0.233635 0.731251 0.699471
Si Si7 0.083430 0.315949 0.835653
O O1 0.731253 0.143721 0.454345
O O2 0.744310 0.156348 0.308648
O O3 0.545008 0.167317 0.231438
O O4 0.653147 0.000000 0.315357
O O5 0.152761 0.119544 0.001584
O O6 0.192349 0.193255 0.174392
O O7 0.170785 0.000000 0.131779
O O8 0.000000 0.116563 0.000000
O O9 0.921866 0.500000 0.368149
O O10 0.890012 0.693914 0.366994
O O11 0.906501 0.623812 0.238351
O O12 0.083933 0.618264 0.450587
O O13 0.321707 0.143174 0.035318
O O14 0.172976 0.000000 0.898015
O O15 0.117007 0.201225 0.844051
O O16 0.230104 0.825315 0.354396
O O17 0.243489 0.000000 0.428889
#
# Coordination Sequence:
#
# PCOD9183581 Si02
#       7
#     8   8   8   8   8   8   8
#     4  10  22  38  54  76 112 149 184 224 272 333
#     4  10  20  32  49  79 116 142 169 220 279 325
#     4  10  19  34  58  88 113 138 179 234 284 324
#     4  10  19  33  55  82 110 144 187 228 272 323
#     4   9  19  35  58  86 109 135 179 229 277 331
#     4  12  20  32  56  81 110 142 178 224 278 325
#     4  10  19  35  59  78 107 150 186 222 274 326
#
# _framework density 20.573333000000002
#
# number of rings (size 3 to 8) (size 9 to 14) (size 15 to 20)
#    0.000    1.857    1.429    5.143    0.000    1.143 
#    0.000    2.143    0.000    6.429    0.000    0.000 
#    0.000    0.000    0.000    0.000    0.000    0.000 
#
# Total GULP energy -156292.775629 kJ/mol
# GULP energy per Si atom -5581.884844 kJ/mol
# Density = 2.052651 g / cm^3
# Si number density = 20.573333 Si / 1000 Ang^3
#
#
#
# Elastic Constant Matrix: (Units=GPa)
#
#
# Indices 1 2 3 4 5 6 
#
# 1 57.4892 8.3683 -6.1319 0.0000 2.1289 0.0000
# 2 8.3683 96.2295 10.5818 0.0000 1.0299 0.0000
# 3 -6.1319 10.5818 34.8643 0.0000 -3.0268 0.0000
# 4 0.0000 0.0000 0.0000 15.0036 0.0000 -6.7035
# 5 2.1289 1.0299 -3.0268 0.0000 15.2384 0.0000
# 6 0.0000 0.0000 0.0000 -6.7035 0.0000 32.8901
#
#
#
# Elastic Compliance Matrix: (Units=1/GPa)
#
#
# Indices 1 2 3 4 5 6 
#
# 1 0.018130 -0.001959 0.003637 0.000000 -0.001678 0.000000
# 2 -0.001959 0.010992 -0.003787 0.000000 -0.001221 0.000000
# 3 0.003637 -0.003787 0.030984 0.000000 0.005902 0.000000
# 4 0.000000 0.000000 0.000000 0.073328 0.000000 0.014945
# 5 -0.001678 -0.001221 0.005902 0.000000 0.067113 0.000000
# 6 0.000000 0.000000 0.000000 0.014945 0.000000 0.033450
#
#
# Mechanical properties :
#
#
# Convention : Reuss Voigt Hill
#
# Bulk Modulus (GPa) = 17.89230 23.80214 20.84722
# Shear Modulus (GPa) = 19.46716 24.34407 21.90561
#
# Velocity S-wave (km/s) = 3.07943 3.44362 3.26660
# Velocity P-wave (km/s) = 4.62164 5.23506 4.93789
#
# Compressibility (1/GPa) = 0.05588996
#
# Stress axis : x y z
#
# Youngs Moduli (GPa) = 55.15783 90.97850 32.27459
#
# Poissons Ratio (x) = 0.17819 -0.11740
# Poissons Ratio (y) = 0.10803 0.12221
# Poissons Ratio (z) = -0.20063 0.34450
#
# Static dielectric constant tensor:
#      x y z
#    x 1.736060 0.000000 -0.000120 
#    y 0.000000 1.773990 0.000000 
#    z -0.000120 0.000000 1.755250 
# 
# From -- ./inp_files/277082.got.cif
#   From: 2010.05.17/outbox.cif.g08.bks.cpg/sg12_139_cif.got.tgz:277082.got - 2010.06.03 13:09:07.
