data_PCOD9183156
_publ_section_title
;
Structure prediction by ZEFSAII (Michael W. Deem and Ramdas Pophale) SiO2 
 PCOD9183156
Probable space group: C 2/M
;
_chemical_formula_sum "Si O2"
_cell_formula_units_Z 48
_cell_length_a 14.998837
_cell_length_b 7.777394
_cell_length_c 16.558832
_cell_angle_alpha 90.000000
_cell_angle_beta 75.695332
_cell_angle_gamma 90.000000
_cell_volume 1871.729966
_symmetry_space_group_name_H-M "C 2/M"
_symmetry_group_IT_number 12
_symmetry_cell_setting 'monoclinic'
loop_
_space_group_symop_operation_xyz
x,y,z
-x,y,-z
-x,-y,-z
x,-y,z
1/2+x,1/2+y,z
1/2-x,1/2+y,-z
1/2-x,1/2-y,-z
1/2+x,1/2-y,z
loop_
_atom_site_type_symbol
_atom_site_label
_atom_site_fract_x
_atom_site_fract_y
_atom_site_fract_z
Si Si1 0.537240 0.193362 0.376805
Si Si2 0.485936 0.699867 0.800262
Si Si3 0.287313 0.792390 0.877887
Si Si4 0.733025 0.789209 0.305661
Si Si5 0.661045 0.702491 0.571258
Si Si6 0.910920 0.789650 0.068236
O O1 0.523742 0.203254 0.282082
O O2 0.636728 0.279496 0.365098
O O3 0.440044 0.247446 0.434733
O O4 0.551402 0.000000 0.399619
O O5 0.502340 0.500000 0.776054
O O6 0.387852 0.713716 0.869468
O O7 0.564421 0.756436 0.844770
O O8 0.268437 0.746582 0.787773
O O9 0.190305 0.733677 0.938680
O O10 0.295154 0.000000 0.883506
O O11 0.815424 0.729397 0.344038
O O12 0.733173 0.000000 0.306631
O O13 0.658376 0.500000 0.576906
O O14 0.750000 0.750000 0.500000
O O15 0.909996 0.000000 0.065998
O O16 0.000000 0.728157 0.000000
#
# Coordination Sequence:
#
# PCOD9183156 Si02
#       6
#     8   8   8   8   8   8
#     4  10  20  37  58  79 102 135 177 217 259 309
#     4  10  19  33  54  79 104 133 173 220 264 305
#     4   9  17  33  55  76  99 134 178 217 255 305
#     4   8  17  34  55  74  99 138 176 207 252 316
#     4  11  22  37  55  79 109 141 175 212 257 308
#     4   9  18  32  51  75 106 145 180 207 251 321
#
# _framework density 25.644722999999999
#
# number of rings (size 3 to 8) (size 9 to 14) (size 15 to 20)
#    0.000    2.500    0.000    3.500    0.000    4.000 
#    0.000   16.667    0.000    3.500    0.000    0.000 
#    0.000    0.000    0.000    0.000    0.000    0.000 
#
# Total GULP energy -134097.964752 kJ/mol
# GULP energy per Si atom -5587.415198 kJ/mol
# Density = 2.558635 g / cm^3
# Si number density = 25.644723 Si / 1000 Ang^3
#
#
#
# Elastic Constant Matrix: (Units=GPa)
#
#
# Indices 1 2 3 4 5 6 
#
# 1 176.6554 -2.9510 6.8091 0.0000 -21.5567 0.0000
# 2 -2.9510 37.7789 -7.0673 0.0000 -0.7346 0.0000
# 3 6.8091 -7.0673 62.4726 0.0000 -20.0964 0.0000
# 4 0.0000 0.0000 0.0000 14.8643 0.0000 -4.5783
# 5 -21.5567 -0.7346 -20.0964 0.0000 50.8634 0.0000
# 6 0.0000 0.0000 0.0000 -4.5783 0.0000 17.8989
#
#
#
# Elastic Compliance Matrix: (Units=1/GPa)
#
#
# Indices 1 2 3 4 5 6 
#
# 1 0.005983 0.000568 0.000264 0.000000 0.002648 0.000000
# 2 0.000568 0.027246 0.003694 0.000000 0.002094 0.000000
# 3 0.000264 0.003694 0.018844 0.000000 0.007611 0.000000
# 4 0.000000 0.000000 0.000000 0.073029 0.000000 0.018680
# 5 0.002648 0.002094 0.007611 0.000000 0.023820 0.000000
# 6 0.000000 0.000000 0.000000 0.018680 0.000000 0.060648
#
#
# Mechanical properties :
#
#
# Convention : Reuss Voigt Hill
#
# Bulk Modulus (GPa) = 16.35970 30.05428 23.20699
# Shear Modulus (GPa) = 22.63540 35.39972 29.01756
#
# Velocity S-wave (km/s) = 2.97417 3.71939 3.36746
# Velocity P-wave (km/s) = 4.26468 5.49455 4.91821
#
# Compressibility (1/GPa) = 0.06112582
#
# Stress axis : x y z
#
# Youngs Moduli (GPa) = 167.13410 36.70273 53.06631
#
# Poissons Ratio (x) = -0.02086 -0.01401
# Poissons Ratio (y) = -0.09498 -0.19602
# Poissons Ratio (z) = -0.04414 -0.13557
#
# Static dielectric constant tensor:
#      x y z
#    x 1.985480 0.000000 -0.028890 
#    y 0.000000 1.932480 0.000000 
#    z -0.028890 0.000000 2.132820 
# 
# From -- ./inp_files/308266.got.cif
#   From: 2010.05.17/outbox.cif.g08.bks.cpg/sg12_155_cif.got.tgz:308266.got - 2010.06.03 13:09:07.
