data_PCOD9183157
_publ_section_title
;
Structure prediction by ZEFSAII (Michael W. Deem and Ramdas Pophale) SiO2 
 PCOD9183157
Probable space group: C 2/M
;
_chemical_formula_sum "Si O2"
_cell_formula_units_Z 56
_cell_length_a 25.569805
_cell_length_b 7.376085
_cell_length_c 17.125700
_cell_angle_alpha 90.000000
_cell_angle_beta 132.927994
_cell_angle_gamma 90.000000
_cell_volume 2365.034318
_symmetry_space_group_name_H-M "C 2/M"
_symmetry_group_IT_number 12
_symmetry_cell_setting 'monoclinic'
loop_
_space_group_symop_operation_xyz
x,y,z
-x,y,-z
-x,-y,-z
x,-y,z
1/2+x,1/2+y,z
1/2-x,1/2+y,-z
1/2-x,1/2-y,-z
1/2+x,1/2-y,z
loop_
_atom_site_type_symbol
_atom_site_label
_atom_site_fract_x
_atom_site_fract_y
_atom_site_fract_z
Si Si1 0.329091 0.214345 0.049787
Si Si2 0.898448 0.721427 0.277115
Si Si3 0.151236 0.221366 0.214789
Si Si4 0.447290 0.719305 0.748556
Si Si5 0.309675 0.221153 0.333163
Si Si6 0.554266 0.791595 0.434835
Si Si7 0.924289 0.205835 0.012978
O O1 0.380439 0.281515 0.171402
O O2 0.352058 0.297177 0.991153
O O3 0.337991 0.000000 0.050083
O O4 0.250000 0.250000 0.000000
O O5 0.899405 0.500000 0.276697
O O6 0.837105 0.774746 0.275212
O O7 0.977255 0.785367 0.380872
O O8 0.121224 0.269439 0.268998
O O9 0.231134 0.283510 0.277100
O O10 0.151032 0.000000 0.210495
O O11 0.096560 0.285173 0.091672
O O12 0.451033 0.500000 0.746563
O O13 0.444756 0.788243 0.658032
O O14 0.515457 0.784507 0.868665
O O15 0.372953 0.283515 0.455331
O O16 0.306625 0.000000 0.331735
O O17 0.552827 0.000000 0.460671
O O18 0.948259 0.000000 0.022640
#
# Coordination Sequence:
#
# PCOD9183157 Si02
#       7
#     8   8   8   8   8   8   8
#     4  11  21  33  52  79 111 142 172 212 263 316
#     4   9  17  31  51  76 104 133 171 217 260 308
#     4   9  18  33  53  78 105 137 181 225 263 311
#     4  10  20  34  54  78 106 141 178 217 266 319
#     4   9  17  30  52  78 102 133 176 223 264 306
#     4  10  19  33  54  79 104 134 175 220 265 315
#     4  10  19  34  55  77 104 138 179 221 262 310
#
# _framework density 23.678305000000002
#
# number of rings (size 3 to 8) (size 9 to 14) (size 15 to 20)
#    0.000    2.286    1.429    2.143    0.000    6.286 
#    0.000    0.714    0.000    7.714    0.000    0.000 
#    0.000    0.000    0.000    0.000    0.000    0.000 
#
# Total GULP energy -156524.794432 kJ/mol
# GULP energy per Si atom -5590.171230 kJ/mol
# Density = 2.362441 g / cm^3
# Si number density = 23.678305 Si / 1000 Ang^3
#
#
#
# Elastic Constant Matrix: (Units=GPa)
#
#
# Indices 1 2 3 4 5 6 
#
# 1 115.3045 -8.8387 -5.1864 0.0000 6.3874 0.0000
# 2 -8.8387 90.4728 -5.2130 0.0000 4.1038 0.0000
# 3 -5.1864 -5.2130 53.5403 0.0000 5.8668 0.0000
# 4 0.0000 0.0000 0.0000 1.9835 0.0000 -3.7586
# 5 6.3874 4.1038 5.8668 0.0000 30.0792 0.0000
# 6 0.0000 0.0000 0.0000 -3.7586 0.0000 8.1503
#
#
#
# Elastic Compliance Matrix: (Units=1/GPa)
#
#
# Indices 1 2 3 4 5 6 
#
# 1 0.008934 0.001046 0.001217 0.000000 -0.002277 0.000000
# 2 0.001046 0.011330 0.001429 -0.000001 -0.002047 0.000000
# 3 0.001217 0.001429 0.019399 0.000000 -0.004237 0.000000
# 4 0.000000 -0.000001 0.000000 3.997269 0.000000 1.843364
# 5 -0.002277 -0.002047 -0.004237 0.000000 0.034835 0.000000
# 6 0.000000 0.000000 0.000000 1.843364 0.000000 0.972772
#
#
# Mechanical properties :
#
#
# Convention : Reuss Voigt Hill
#
# Bulk Modulus (GPa) = 21.25558 24.53794 22.89676
# Shear Modulus (GPa) = 0.98954 26.61298 13.80126
#
# Velocity S-wave (km/s) = 0.64716 3.35616 2.41688
# Velocity P-wave (km/s) = 3.09107 5.04023 4.18083
#
# Compressibility (1/GPa) = 0.04704647
#
# Stress axis : x y z
#
# Youngs Moduli (GPa) = 111.93491 88.25801 51.54968
#
# Poissons Ratio (x) = -0.09233 -0.06273
# Poissons Ratio (y) = -0.11710 -0.07365
# Poissons Ratio (z) = -0.13620 -0.12610
#
# Static dielectric constant tensor:
#      x y z
#    x 1.865770 0.000000 0.026680 
#    y 0.000000 1.935110 0.000000 
#    z 0.026680 0.000000 1.883950 
# 
# From -- ./inp_files/238307.got.cif
#   From: 2010.05.17/outbox.cif.g08.bks.cpg/sg12_120_cif.got.tgz:238307.got - 2010.06.03 13:09:07.
