data_PCOD9183252
_publ_section_title
;
Structure prediction by ZEFSAII (Michael W. Deem and Ramdas Pophale) SiO2 
 PCOD9183252
Probable space group: C 2/M
;
_chemical_formula_sum "Si O2"
_cell_formula_units_Z 60
_cell_length_a 17.902370
_cell_length_b 12.699260
_cell_length_c 17.811251
_cell_angle_alpha 90.000000
_cell_angle_beta 62.772184
_cell_angle_gamma 90.000000
_cell_volume 3600.643011
_symmetry_space_group_name_H-M "C 2/M"
_symmetry_group_IT_number 12
_symmetry_cell_setting 'monoclinic'
loop_
_space_group_symop_operation_xyz
x,y,z
-x,y,-z
-x,-y,-z
x,-y,z
1/2+x,1/2+y,z
1/2-x,1/2+y,-z
1/2-x,1/2-y,-z
1/2+x,1/2-y,z
loop_
_atom_site_type_symbol
_atom_site_label
_atom_site_fract_x
_atom_site_fract_y
_atom_site_fract_z
Si Si1 0.997390 0.625488 0.853418
Si Si2 0.668887 0.625767 0.976744
Si Si3 0.114250 0.877547 0.298974
Si Si4 0.336017 0.245094 0.868881
Si Si5 0.392538 0.125964 0.341538
Si Si6 0.201273 0.875020 0.415578
Si Si7 0.000000 0.764095 0.000000
Si Si8 0.458410 0.265647 0.441176
O O1 0.998118 0.500000 0.866025
O O2 0.907137 0.663508 0.863876
O O3 0.064375 0.652152 0.757657
O O4 0.015121 0.689654 0.921011
O O5 0.675816 0.500000 0.970167
O O6 0.748044 0.684024 0.902063
O O7 0.671133 0.667929 0.061662
O O8 0.581747 0.665817 0.980661
O O9 0.135950 0.802443 0.219894
O O10 0.178570 0.860718 0.338289
O O11 0.023353 0.849004 0.375436
O O12 0.117042 0.000000 0.275453
O O13 0.295684 0.161196 0.387768
O O14 0.442798 0.177262 0.386575
O O15 0.394026 0.000000 0.347415
O O16 0.130019 0.817559 0.496115
O O17 0.195936 0.000000 0.432955
O O18 0.500000 0.227351 0.500000
#
# Coordination Sequence:
#
# PCOD9183252 Si02
#       8
#     8   8   8   8   8   8   4   8
#     4  10  20  36  55  80 111 143 181 224 265 315
#     4  10  21  37  56  79 110 145 177 220 269 321
#     4  10  19  33  54  81 108 136 181 230 269 316
#     4  10  20  35  56  80 106 143 184 218 266 320
#     4  10  20  34  53  78 110 146 179 220 270 319
#     4   9  19  33  53  78 105 140 177 222 273 316
#     4  10  22  36  58  84 108 142 182 218 270 324
#     4  10  19  34  55  79 106 142 179 224 271 322
#
# _framework density 16.663689999999999
#
# number of rings (size 3 to 8) (size 9 to 14) (size 15 to 20)
#    0.000    2.133    1.333    2.000    1.867    1.867 
#    0.000    1.333    0.000    0.000    0.000    0.000 
#    0.000    0.000    0.000    0.000    0.000    0.000 
#
# Total GULP energy -167341.552951 kJ/mol
# GULP energy per Si atom -5578.051765 kJ/mol
# Density = 1.662576 g / cm^3
# Si number density = 16.663690 Si / 1000 Ang^3
#
#
#
# Elastic Constant Matrix: (Units=GPa)
#
#
# Indices 1 2 3 4 5 6 
#
# 1 101.2747 53.1229 45.9350 0.0000 -6.8056 0.0000
# 2 53.1229 85.5372 54.6565 0.0000 4.5657 0.0000
# 3 45.9350 54.6565 106.0786 0.0000 2.9158 0.0000
# 4 0.0000 0.0000 0.0000 22.9261 0.0000 -0.8519
# 5 -6.8056 4.5657 2.9158 0.0000 22.5460 0.0000
# 6 0.0000 0.0000 0.0000 -0.8519 0.0000 19.7304
#
#
#
# Elastic Compliance Matrix: (Units=1/GPa)
#
#
# Indices 1 2 3 4 5 6 
#
# 1 0.016104 -0.008639 -0.002714 0.000000 0.006962 0.000000
# 2 -0.008639 0.022191 -0.007525 0.000000 -0.006129 0.000000
# 3 -0.002714 -0.007525 0.014511 0.000000 -0.001172 0.000000
# 4 0.000000 0.000000 0.000000 0.043688 0.000000 0.001886
# 5 0.006962 -0.006129 -0.001172 0.000000 0.047848 0.000000
# 6 0.000000 0.000000 0.000000 0.001886 0.000000 0.050765
#
#
# Mechanical properties :
#
#
# Convention : Reuss Voigt Hill
#
# Bulk Modulus (GPa) = 66.43566 66.70216 66.56891
# Shear Modulus (GPa) = 21.01897 22.31891 21.66894
#
# Velocity S-wave (km/s) = 3.55542 3.66372 3.60997
# Velocity P-wave (km/s) = 7.53722 7.61659 7.57701
#
# Compressibility (1/GPa) = 0.01505216
#
# Stress axis : x y z
#
# Youngs Moduli (GPa) = 62.09461 45.06254 68.91198
#
# Poissons Ratio (x) = 0.38931 0.18701
# Poissons Ratio (y) = 0.53645 0.51853
# Poissons Ratio (z) = 0.16851 0.33907
#
# Static dielectric constant tensor:
#      x y z
#    x 1.551850 0.000000 -0.011250 
#    y 0.000000 1.527950 0.000000 
#    z -0.011250 0.000000 1.547030 
# 
# From -- ./inp_files/276985.got.cif
#   From: 2010.05.17/outbox.cif.g08.bks.cpg/sg12_139_cif.got.tgz:276985.got - 2010.06.03 13:09:07.
