data_PCOD9183161
_publ_section_title
;
Structure prediction by ZEFSAII (Michael W. Deem and Ramdas Pophale) SiO2 
 PCOD9183161
Probable space group: C 2/M
;
_chemical_formula_sum "Si O2"
_cell_formula_units_Z 40
_cell_length_a 18.344419
_cell_length_b 13.030360
_cell_length_c 16.818560
_cell_angle_alpha 90.000000
_cell_angle_beta 31.382630
_cell_angle_gamma 90.000000
_cell_volume 2093.529890
_symmetry_space_group_name_H-M "C 2/M"
_symmetry_group_IT_number 12
_symmetry_cell_setting 'monoclinic'
loop_
_space_group_symop_operation_xyz
x,y,z
-x,y,-z
-x,-y,-z
x,-y,z
1/2+x,1/2+y,z
1/2-x,1/2+y,-z
1/2-x,1/2-y,-z
1/2+x,1/2-y,z
loop_
_atom_site_type_symbol
_atom_site_label
_atom_site_fract_x
_atom_site_fract_y
_atom_site_fract_z
Si Si1 0.091895 0.616248 0.100491
Si Si2 0.382491 0.212953 0.176529
Si Si3 0.474668 0.743761 0.334370
Si Si4 0.293034 0.378545 0.379880
Si Si5 0.832057 0.881212 0.741765
O O1 0.087454 0.500000 0.135085
O O2 0.952459 0.641217 0.178752
O O3 0.089637 0.698623 0.172981
O O4 0.220401 0.623515 0.919213
O O5 0.346017 0.319872 0.251982
O O6 0.250252 0.160299 0.258110
O O7 0.500000 0.226778 0.000000
O O8 0.397315 0.657604 0.353187
O O9 0.357772 0.828752 0.461972
O O10 0.541998 0.690924 0.348034
O O11 0.288608 0.500000 0.377091
O O12 0.872168 0.000000 0.694252
#
# Coordination Sequence:
#
# PCOD9183161 Si02
#       5
#     8   8   8   8   8
#     4   9  17  32  55  79 105 136 165 202 253 304
#     4   9  19  35  54  77 104 134 170 207 248 303
#     4  10  20  34  53  78 104 131 171 213 251 300
#     4  10  21  37  54  72 101 139 172 208 255 303
#     4  10  19  33  54  79 105 132 168 212 253 295
#
# _framework density 19.106486
#
# number of rings (size 3 to 8) (size 9 to 14) (size 15 to 20)
#    0.000    2.400    0.000    2.400    0.000    3.600 
#    0.000    7.000    0.000    1.200    0.000    0.000 
#    0.000    0.000    0.000    0.000    0.000    0.000 
#
# Total GULP energy -111668.302919 kJ/mol
# GULP energy per Si atom -5583.415146 kJ/mol
# Density = 1.906300 g / cm^3
# Si number density = 19.106486 Si / 1000 Ang^3
#
#
#
# Elastic Constant Matrix: (Units=GPa)
#
#
# Indices 1 2 3 4 5 6 
#
# 1 51.1939 20.5632 -1.8216 0.0000 -8.3682 0.0000
# 2 20.5632 125.8929 15.5027 0.0000 -10.8798 0.0000
# 3 -1.8216 15.5027 35.5026 0.0000 -1.3560 0.0000
# 4 0.0000 0.0000 0.0000 18.2538 0.0000 2.2028
# 5 -8.3682 -10.8798 -1.3560 0.0000 16.0629 0.0000
# 6 0.0000 0.0000 0.0000 2.2028 0.0000 16.4118
#
#
#
# Elastic Compliance Matrix: (Units=1/GPa)
#
#
# Indices 1 2 3 4 5 6 
#
# 1 0.022524 -0.003190 0.002924 0.000000 0.009820 0.000000
# 2 -0.003190 0.009340 -0.004077 0.000000 0.004320 0.000000
# 3 0.002924 -0.004077 0.030147 0.000000 0.001307 0.000000
# 4 0.000000 0.000000 0.000000 0.055685 0.000000 -0.007474
# 5 0.009820 0.004320 0.001307 0.000000 0.070407 0.000000
# 6 0.000000 0.000000 0.000000 -0.007474 0.000000 0.061935
#
#
# Mechanical properties :
#
#
# Convention : Reuss Voigt Hill
#
# Bulk Modulus (GPa) = 18.75323 31.23087 24.99205
# Shear Modulus (GPa) = 18.08316 22.03538 20.05927
#
# Velocity S-wave (km/s) = 3.07977 3.39970 3.24368
# Velocity P-wave (km/s) = 4.74163 5.63842 5.20936
#
# Compressibility (1/GPa) = 0.05332416
#
# Stress axis : x y z
#
# Youngs Moduli (GPa) = 44.39639 107.06912 33.17056
#
# Poissons Ratio (x) = 0.34160 -0.09699
# Poissons Ratio (y) = 0.14165 0.13524
# Poissons Ratio (z) = -0.12981 0.43653
#
# Static dielectric constant tensor:
#      x y z
#    x 1.643170 0.000000 0.006620 
#    y 0.000000 1.612950 0.000000 
#    z 0.006620 0.000000 1.719170 
# 
# From -- ./inp_files/71195.got.cif
#   From: 2010.05.17/outbox.cif.g08.bks.cpg/sg12_36_cif.got.tgz:71195.got - 2010.06.03 13:09:07.
