data_PCOD9183896
_publ_section_title
;
Structure prediction by ZEFSAII (Michael W. Deem and Ramdas Pophale) SiO2 
 PCOD9183896
Probable space group: C 2/M
;
_chemical_formula_sum "Si O2"
_cell_formula_units_Z 56
_cell_length_a 13.866695
_cell_length_b 17.916312
_cell_length_c 12.700768
_cell_angle_alpha 90.000000
_cell_angle_beta 121.413186
_cell_angle_gamma 90.000000
_cell_volume 2692.898045
_symmetry_space_group_name_H-M "C 2/M"
_symmetry_group_IT_number 12
_symmetry_cell_setting 'monoclinic'
loop_
_space_group_symop_operation_xyz
x,y,z
-x,y,-z
-x,-y,-z
x,-y,z
1/2+x,1/2+y,z
1/2-x,1/2+y,-z
1/2-x,1/2-y,-z
1/2+x,1/2-y,z
loop_
_atom_site_type_symbol
_atom_site_label
_atom_site_fract_x
_atom_site_fract_y
_atom_site_fract_z
Si Si1 0.731399 0.082828 0.755802
Si Si2 0.917789 0.221997 0.195186
Si Si3 0.516949 0.847616 0.126878
Si Si4 0.403813 0.415242 0.033525
Si Si5 0.094434 0.260926 0.462705
Si Si6 0.764475 0.753093 0.726039
Si Si7 0.035144 0.581549 0.355193
O O1 0.778875 0.157411 0.729798
O O2 0.595746 0.088171 0.683430
O O3 0.761893 0.000000 0.731182
O O4 0.785695 0.085690 0.903351
O O5 0.905399 0.146007 0.124686
O O6 0.033924 0.407509 0.228546
O O7 0.920387 0.291062 0.114660
O O8 0.677754 0.263062 0.772372
O O9 0.625626 0.793757 0.186738
O O10 0.500000 0.876924 0.000000
O O11 0.423958 0.500000 0.082742
O O12 0.500000 0.398788 0.000000
O O13 0.206417 0.230663 0.582228
O O14 0.000000 0.253657 0.500000
O O15 0.036491 0.224689 0.327572
O O16 0.100969 0.349063 0.441266
O O17 0.077361 0.500000 0.409623
#
# Coordination Sequence:
#
# PCOD9183896 Si02
#       7
#     8   8   8   8   8   8   8
#     4  10  19  33  56  83 113 145 181 231 292 335
#     4  10  20  36  55  82 111 146 189 230 281 332
#     4  11  23  36  56  86 112 151 187 229 286 336
#     4  10  21  36  55  82 114 148 192 243 286 330
#     4   9  18  36  56  85 108 146 188 230 288 328
#     4  11  21  36  60  83 117 147 187 235 277 344
#     4  10  21  37  55  82 118 148 185 234 285 344
#
# _framework density 20.795441
#
# number of rings (size 3 to 8) (size 9 to 14) (size 15 to 20)
#    0.000    1.857    4.286    2.143    2.000    4.571 
#    0.000    0.714    0.000    8.143    0.000    0.000 
#    0.000    0.000    0.000    0.000    0.000    0.000 
#
# Total GULP energy -156411.297384 kJ/mol
# GULP energy per Si atom -5586.117764 kJ/mol
# Density = 2.074811 g / cm^3
# Si number density = 20.795441 Si / 1000 Ang^3
#
#
#
# Elastic Constant Matrix: (Units=GPa)
#
#
# Indices 1 2 3 4 5 6 
#
# 1 57.2853 11.5987 0.5274 0.0000 -2.4765 0.0000
# 2 11.5987 88.8144 10.1359 0.0000 5.6496 0.0000
# 3 0.5274 10.1359 70.9017 0.0000 -11.1125 0.0000
# 4 0.0000 0.0000 0.0000 26.1021 0.0000 -0.1340
# 5 -2.4765 5.6496 -11.1125 0.0000 29.2753 0.0000
# 6 0.0000 0.0000 0.0000 -0.1340 0.0000 15.0940
#
#
#
# Elastic Compliance Matrix: (Units=1/GPa)
#
#
# Indices 1 2 3 4 5 6 
#
# 1 0.018068 -0.002569 0.000585 0.000000 0.002246 0.000000
# 2 -0.002569 0.012066 -0.002238 0.000000 -0.003395 0.000000
# 3 0.000585 -0.002238 0.015412 0.000000 0.006332 0.000000
# 4 0.000000 0.000000 0.000000 0.038313 0.000000 0.000340
# 5 0.002246 -0.003395 0.006332 0.000000 0.037407 0.000000
# 6 0.000000 0.000000 0.000000 0.000340 0.000000 0.066255
#
#
# Mechanical properties :
#
#
# Convention : Reuss Voigt Hill
#
# Bulk Modulus (GPa) = 26.95271 29.05840 28.00556
# Shear Modulus (GPa) = 23.99999 27.07691 25.53845
#
# Velocity S-wave (km/s) = 3.40089 3.61232 3.50820
# Velocity P-wave (km/s) = 5.33014 5.60377 5.46867
#
# Compressibility (1/GPa) = 0.03710202
#
# Stress axis : x y z
#
# Youngs Moduli (GPa) = 55.34518 82.87493 64.88466
#
# Poissons Ratio (x) = 0.21293 -0.03795
# Poissons Ratio (y) = 0.14220 0.14521
# Poissons Ratio (z) = -0.03237 0.18548
#
# Static dielectric constant tensor:
#      x y z
#    x 1.794430 0.000000 0.014400 
#    y 0.000000 1.723270 0.000000 
#    z 0.014400 0.000000 1.776040 
# 
# From -- ./inp_files/215998.got.cif
#   From: 2010.05.17/outbox.cif.g08.bks.cpg/sg12_108_cif.got.tgz:215998.got - 2010.06.03 13:09:07.
