data_PCOD9183446
_publ_section_title
;
Structure prediction by ZEFSAII (Michael W. Deem and Ramdas Pophale) SiO2 
 PCOD9183446
Probable space group: C 2/M
;
_chemical_formula_sum "Si O2"
_cell_formula_units_Z 48
_cell_length_a 19.729416
_cell_length_b 8.941093
_cell_length_c 15.948143
_cell_angle_alpha 90.000000
_cell_angle_beta 101.684912
_cell_angle_gamma 90.000000
_cell_volume 2754.990802
_symmetry_space_group_name_H-M "C 2/M"
_symmetry_group_IT_number 12
_symmetry_cell_setting 'monoclinic'
loop_
_space_group_symop_operation_xyz
x,y,z
-x,y,-z
-x,-y,-z
x,-y,z
1/2+x,1/2+y,z
1/2-x,1/2+y,-z
1/2-x,1/2-y,-z
1/2+x,1/2-y,z
loop_
_atom_site_type_symbol
_atom_site_label
_atom_site_fract_x
_atom_site_fract_y
_atom_site_fract_z
Si Si1 0.200873 0.679011 0.746079
Si Si2 0.069675 0.321430 0.964218
Si Si3 0.064881 0.821789 0.780749
Si Si4 0.407667 0.679876 0.725741
Si Si5 0.775898 0.821066 0.591917
Si Si6 0.670490 0.821053 0.137257
O O1 0.202099 0.500000 0.753046
O O2 0.125293 0.741788 0.744838
O O3 0.229219 0.720977 0.660872
O O4 0.255588 0.746972 0.825999
O O5 0.070586 0.500000 0.946797
O O6 0.134882 0.284796 0.039786
O O7 0.069573 0.232144 0.878068
O O8 0.000000 0.290846 0.000000
O O9 0.987475 0.783831 0.730312
O O10 0.073674 0.000000 0.778359
O O11 0.402075 0.500000 0.737757
O O12 0.354294 0.719846 0.638432
O O13 0.380183 0.760466 0.802409
O O14 0.750000 0.750000 0.500000
O O15 0.772975 0.000000 0.583125
O O16 0.675819 0.000000 0.145109
#
# Coordination Sequence:
#
# PCOD9183446 Si02
#       6
#     8   8   8   8   8   8
#     4  10  22  39  56  77 112 145 175 222 276 319
#     4  10  20  34  52  78 111 145 184 228 269 311
#     4  11  22  35  55  81 109 145 186 224 267 316
#     4   9  19  35  54  79 111 142 176 220 269 317
#     4   9  19  37  60  83 105 135 173 216 267 324
#     4  10  19  33  55  79 105 143 189 225 262 317
#
# _framework density 17.422926
#
# number of rings (size 3 to 8) (size 9 to 14) (size 15 to 20)
#    0.000    2.167    1.667    2.500    0.000    6.333 
#    0.000    0.833    0.000    5.000    0.000    0.000 
#    0.000    0.000    0.000    0.000    0.000    0.000 
#
# Total GULP energy -133951.274098 kJ/mol
# GULP energy per Si atom -5581.303087 kJ/mol
# Density = 1.738327 g / cm^3
# Si number density = 17.422926 Si / 1000 Ang^3
#
#
#
# Elastic Constant Matrix: (Units=GPa)
#
#
# Indices 1 2 3 4 5 6 
#
# 1 157.0006 53.3543 70.6537 0.0000 13.7482 0.0000
# 2 53.3543 39.3223 39.4296 0.0000 7.9462 0.0000
# 3 70.6537 39.4296 105.8031 0.0000 26.0130 0.0000
# 4 0.0000 0.0000 0.0000 31.2008 0.0000 -0.8786
# 5 13.7482 7.9462 26.0130 0.0000 20.0308 0.0000
# 6 0.0000 0.0000 0.0000 -0.8786 0.0000 30.0110
#
#
#
# Elastic Compliance Matrix: (Units=1/GPa)
#
#
# Indices 1 2 3 4 5 6 
#
# 1 0.012508 -0.013612 -0.003668 0.000000 0.001578 0.000000
# 2 -0.013612 0.055791 -0.012571 0.000000 0.003536 0.000000
# 3 -0.003668 -0.012571 0.021655 0.000000 -0.020618 0.000000
# 4 0.000000 0.000000 0.000000 0.032077 0.000000 0.000939
# 5 0.001578 0.003536 -0.020618 0.000000 0.074212 0.000000
# 6 0.000000 0.000000 0.000000 0.000939 0.000000 0.033349
#
#
# Mechanical properties :
#
#
# Convention : Reuss Voigt Hill
#
# Bulk Modulus (GPa) = 33.05575 69.88903 51.47239
# Shear Modulus (GPa) = 16.70136 25.49442 21.09789
#
# Velocity S-wave (km/s) = 3.09946 3.82942 3.48361
# Velocity P-wave (km/s) = 5.64116 7.73000 6.76667
#
# Compressibility (1/GPa) = 0.03025192
#
# Stress axis : x y z
#
# Youngs Moduli (GPa) = 79.95144 17.92393 46.17972
#
# Poissons Ratio (x) = 0.24399 0.16936
# Poissons Ratio (y) = 1.08832 0.58053
# Poissons Ratio (z) = 0.29322 0.22532
#
# Static dielectric constant tensor:
#      x y z
#    x 1.602600 0.000000 0.011760 
#    y 0.000000 1.582590 0.000000 
#    z 0.011760 0.000000 1.562350 
# 
# From -- ./inp_files/221621.got.cif
#   From: 2010.05.17/outbox.cif.g08.bks.cpg/sg12_111_cif.got.tgz:221621.got - 2010.06.03 13:09:07.
