data_PCOD9183228
_publ_section_title
;
Structure prediction by ZEFSAII (Michael W. Deem and Ramdas Pophale) SiO2 
 PCOD9183228
Probable space group: C 2/M
;
_chemical_formula_sum "Si O2"
_cell_formula_units_Z 64
_cell_length_a 21.056584
_cell_length_b 8.331220
_cell_length_c 22.855435
_cell_angle_alpha 90.000000
_cell_angle_beta 123.570075
_cell_angle_gamma 90.000000
_cell_volume 3340.723772
_symmetry_space_group_name_H-M "C 2/M"
_symmetry_group_IT_number 12
_symmetry_cell_setting 'monoclinic'
loop_
_space_group_symop_operation_xyz
x,y,z
-x,y,-z
-x,-y,-z
x,-y,z
1/2+x,1/2+y,z
1/2-x,1/2+y,-z
1/2-x,1/2-y,-z
1/2+x,1/2-y,z
loop_
_atom_site_type_symbol
_atom_site_label
_atom_site_fract_x
_atom_site_fract_y
_atom_site_fract_z
Si Si1 0.614626 0.695963 0.697778
Si Si2 0.251338 0.191940 0.681741
Si Si3 0.160227 0.194004 0.850542
Si Si4 0.560999 0.303784 0.910669
Si Si5 0.299359 0.809803 0.470622
Si Si6 0.668803 0.693959 0.071331
Si Si7 0.528432 0.694055 0.450070
Si Si8 0.386268 0.694025 0.828860
O O1 0.615038 0.500000 0.698112
O O2 0.683028 0.748612 0.689859
O O3 0.630255 0.749484 0.771845
O O4 0.534218 0.746891 0.629288
O O5 0.235386 0.249249 0.608252
O O6 0.330555 0.249790 0.749329
O O7 0.249715 0.000000 0.681233
O O8 0.106976 0.248651 0.876614
O O9 0.247037 0.248835 0.902232
O O10 0.159326 0.000000 0.849890
O O11 0.560429 0.500000 0.910496
O O12 0.473369 0.251292 0.866250
O O13 0.606845 0.253184 0.991922
O O14 0.250000 0.750000 0.500000
O O15 0.386596 0.751559 0.518762
O O16 0.298604 0.000000 0.469930
O O17 0.668585 0.500000 0.071643
O O18 0.646906 0.749426 0.125402
O O19 0.500000 0.746075 0.500000
O O20 0.529481 0.500000 0.451005
O O21 0.386458 0.500000 0.829493
#
# Coordination Sequence:
#
# PCOD9183228 Si02
#       8
#     8   8   8   8   8   8   8   8
#     4   9  18  33  57  84 113 151 193 236 291 353
#     4  11  21  39  62  86 118 154 192 238 294 352
#     4  10  19  34  55  80 108 147 194 238 286 347
#     4   9  19  34  53  78 113 152 193 238 292 352
#     4  12  26  43  63  92 125 158 196 241 293 350
#     4  10  19  33  54  80 111 150 192 241 292 344
#     4  10  19  37  63  89 118 158 198 239 294 353
#     4  10  20  35  56  83 112 150 197 242 289 346
#
# _framework density 19.157523999999999
#
# number of rings (size 3 to 8) (size 9 to 14) (size 15 to 20)
#    0.000    1.875    2.500    2.250    0.000    2.750 
#    0.000    4.375    0.000    1.500    0.000    0.000 
#    0.000    0.000    0.000    0.000    0.000    0.000 
#
# Total GULP energy -178761.657920 kJ/mol
# GULP energy per Si atom -5586.301810 kJ/mol
# Density = 1.911392 g / cm^3
# Si number density = 19.157524 Si / 1000 Ang^3
#
#
#
# Elastic Constant Matrix: (Units=GPa)
#
#
# Indices 1 2 3 4 5 6 
#
# 1 143.1413 14.2543 65.1526 0.0000 20.7592 0.0000
# 2 14.2543 16.3809 13.9790 0.0000 4.3495 0.0000
# 3 65.1526 13.9790 148.9667 0.0000 27.0474 0.0000
# 4 0.0000 0.0000 0.0000 17.3496 0.0000 10.6736
# 5 20.7592 4.3495 27.0474 0.0000 30.9172 0.0000
# 6 0.0000 0.0000 0.0000 10.6736 0.0000 23.8077
#
#
#
# Elastic Compliance Matrix: (Units=1/GPa)
#
#
# Indices 1 2 3 4 5 6 
#
# 1 0.009277 -0.004667 -0.003100 0.000000 -0.002860 0.000000
# 2 -0.004667 0.069269 -0.003874 0.000000 -0.003222 0.000000
# 3 -0.003100 -0.003874 0.009458 0.000000 -0.005647 0.000000
# 4 0.000000 0.000000 0.000000 0.079590 0.000000 -0.035682
# 5 -0.002860 -0.003222 -0.005647 0.000000 0.039659 0.000000
# 6 0.000000 0.000000 0.000000 -0.035682 0.000000 0.058001
#
#
# Mechanical properties :
#
#
# Convention : Reuss Voigt Hill
#
# Bulk Modulus (GPa) = 15.45088 55.02895 35.23991
# Shear Modulus (GPa) = 16.12332 28.75509 22.43921
#
# Velocity S-wave (km/s) = 2.90421 3.87845 3.42614
# Velocity P-wave (km/s) = 4.39643 6.98880 5.83832
#
# Compressibility (1/GPa) = 0.06472124
#
# Stress axis : x y z
#
# Youngs Moduli (GPa) = 107.79701 14.43638 105.73469
#
# Poissons Ratio (x) = 0.06738 0.32778
# Poissons Ratio (y) = 0.50314 0.40960
# Poissons Ratio (z) = 0.33417 0.05592
#
# Static dielectric constant tensor:
#      x y z
#    x 1.631440 0.000000 0.001790 
#    y 0.000000 1.672750 0.000000 
#    z 0.001790 0.000000 1.643410 
# 
# From -- ./inp_files/320025.got.cif
#   From: 2010.05.17/outbox.cif.g08.bks.cpg/sg12_161_cif.got.tgz:320025.got - 2010.06.03 13:09:07.
