data_PCOD9183185
_publ_section_title
;
Structure prediction by ZEFSAII (Michael W. Deem and Ramdas Pophale) SiO2 
 PCOD9183185
Probable space group: C 2/M
;
_chemical_formula_sum "Si O2"
_cell_formula_units_Z 56
_cell_length_a 27.890965
_cell_length_b 22.138935
_cell_length_c 6.379005
_cell_angle_alpha 90.000000
_cell_angle_beta 49.756856
_cell_angle_gamma 90.000000
_cell_volume 3006.588797
_symmetry_space_group_name_H-M "C 2/M"
_symmetry_group_IT_number 12
_symmetry_cell_setting 'monoclinic'
loop_
_space_group_symop_operation_xyz
x,y,z
-x,y,-z
-x,-y,-z
x,-y,z
1/2+x,1/2+y,z
1/2-x,1/2+y,-z
1/2-x,1/2-y,-z
1/2+x,1/2-y,z
loop_
_atom_site_type_symbol
_atom_site_label
_atom_site_fract_x
_atom_site_fract_y
_atom_site_fract_z
Si Si1 0.571117 0.797928 0.212056
Si Si2 0.383221 0.252462 0.330345
Si Si3 0.232272 0.431571 0.338127
Si Si4 0.852627 0.067115 0.697040
Si Si5 0.171432 0.345667 0.202787
Si Si6 0.935816 0.820428 0.554942
Si Si7 0.216785 0.145816 0.429740
O O1 0.500000 0.802974 0.500000
O O2 0.614348 0.847802 0.198497
O O3 0.596948 0.732968 0.221474
O O4 0.580631 0.789152 0.939119
O O5 0.344979 0.207929 0.590906
O O6 0.432549 0.291383 0.331085
O O7 0.331656 0.299910 0.386537
O O8 0.217587 0.500000 0.451774
O O9 0.182419 0.404541 0.314138
O O10 0.245237 0.383415 0.485704
O O11 0.296478 0.434469 0.023242
O O12 0.901062 0.116677 0.639591
O O13 0.823814 0.092261 0.562042
O O14 0.878609 0.000000 0.598740
O O15 0.233841 0.334035 0.889038
O O16 0.000000 0.828664 0.500000
#
# Coordination Sequence:
#
# PCOD9183185 Si02
#       7
#     8   8   8   8   8   8   8
#     4  10  21  36  54  77 105 139 174 213 265 322
#     4  10  20  35  54  78 110 140 173 220 268 313
#     4  10  20  34  53  76 106 141 173 213 264 313
#     4   9  18  32  49  73 105 141 182 221 258 305
#     4  10  21  34  53  82 107 136 175 216 263 315
#     4   9  19  32  49  74 103 139 181 220 261 304
#     4  10  19  33  54  79 109 141 175 216 266 317
#
# _framework density 18.625758999999999
#
# number of rings (size 3 to 8) (size 9 to 14) (size 15 to 20)
#    0.000    2.286    0.000    2.571    0.000   10.571 
#    0.000    0.000    0.000    0.429    0.000   18.000 
#    0.000    0.000    0.000    0.000    0.000    0.000 
#
# Total GULP energy -155941.225251 kJ/mol
# GULP energy per Si atom -5569.329473 kJ/mol
# Density = 1.858337 g / cm^3
# Si number density = 18.625759 Si / 1000 Ang^3
#
#
#
# Elastic Constant Matrix: (Units=GPa)
#
#
# Indices 1 2 3 4 5 6 
#
# 1 110.4057 48.5770 33.7190 0.0000 -0.4149 0.0000
# 2 48.5770 67.7513 25.3392 0.0000 -2.9800 0.0000
# 3 33.7190 25.3392 72.7864 0.0000 7.3056 0.0000
# 4 0.0000 0.0000 0.0000 11.8713 0.0000 -2.0649
# 5 -0.4149 -2.9800 7.3056 0.0000 15.9881 0.0000
# 6 0.0000 0.0000 0.0000 -2.0649 0.0000 1.1520
#
#
#
# Elastic Compliance Matrix: (Units=1/GPa)
#
#
# Indices 1 2 3 4 5 6 
#
# 1 0.013938 -0.008682 -0.003467 0.000000 0.000328 0.000000
# 2 -0.008682 0.022974 -0.004594 0.000000 0.006156 0.000000
# 3 -0.003467 -0.004594 0.017858 0.000000 -0.009106 0.000000
# 4 0.000000 0.000000 0.000000 0.122396 0.000000 0.219384
# 5 0.000328 0.006156 -0.009106 0.000000 0.067863 0.000000
# 6 0.000000 0.000000 0.000000 0.219384 0.000000 1.261280
#
#
# Mechanical properties :
#
#
# Convention : Reuss Voigt Hill
#
# Bulk Modulus (GPa) = 46.98408 51.80154 49.39281
# Shear Modulus (GPa) = 3.23229 15.35616 9.29423
#
# Velocity S-wave (km/s) = 1.31877 2.87445 2.23625
# Velocity P-wave (km/s) = 5.25347 6.23609 5.76575
#
# Compressibility (1/GPa) = 0.02128380
#
# Stress axis : x y z
#
# Youngs Moduli (GPa) = 71.74849 43.52833 55.99664
#
# Poissons Ratio (x) = 0.37791 0.19415
# Poissons Ratio (y) = 0.62292 0.25723
# Poissons Ratio (z) = 0.24876 0.19995
#
# Static dielectric constant tensor:
#      x y z
#    x 1.710230 0.000000 0.024210 
#    y 0.000000 1.653110 0.000000 
#    z 0.024210 0.000000 1.669380 
# 
# From -- ./inp_files/25368.got.cif
#   From: 2010.05.17/outbox.cif.g08.bks.cpg/sg12_13_cif.got.tgz:25368.got - 2010.06.03 13:09:07.
