data_PCOD9183520
_publ_section_title
;
Structure prediction by ZEFSAII (Michael W. Deem and Ramdas Pophale) SiO2 
 PCOD9183520
Probable space group: C 2/M
;
_chemical_formula_sum "Si O2"
_cell_formula_units_Z 44
_cell_length_a 19.223107
_cell_length_b 15.493738
_cell_length_c 10.426251
_cell_angle_alpha 90.000000
_cell_angle_beta 37.678995
_cell_angle_gamma 90.000000
_cell_volume 1898.093289
_symmetry_space_group_name_H-M "C 2/M"
_symmetry_group_IT_number 12
_symmetry_cell_setting 'monoclinic'
loop_
_space_group_symop_operation_xyz
x,y,z
-x,y,-z
-x,-y,-z
x,-y,z
1/2+x,1/2+y,z
1/2-x,1/2+y,-z
1/2-x,1/2-y,-z
1/2+x,1/2-y,z
loop_
_atom_site_type_symbol
_atom_site_label
_atom_site_fract_x
_atom_site_fract_y
_atom_site_fract_z
Si Si1 0.279378 0.000000 0.865098
Si Si2 0.500000 0.272582 0.000000
Si Si3 0.977090 0.000000 0.764950
Si Si4 0.239670 0.694189 0.646272
Si Si5 0.929734 0.642766 0.736002
Si Si6 0.915088 0.500000 0.407856
Si Si7 0.484186 0.685502 0.314217
Si Si8 0.277703 0.500000 0.515151
O O1 0.314656 0.912960 0.889237
O O2 0.368164 0.000000 0.619871
O O3 0.152162 0.000000 0.998708
O O4 0.387285 0.218486 0.129393
O O5 0.478815 0.322187 0.165372
O O6 0.989674 0.090571 0.672962
O O7 0.086279 0.000000 0.699504
O O8 0.250000 0.750000 0.500000
O O9 0.358655 0.717445 0.542694
O O10 0.248179 0.590759 0.624524
O O11 0.000000 0.644153 0.500000
O O12 0.007979 0.585291 0.718318
O O13 0.925341 0.741342 0.784512
O O14 0.802805 0.500000 0.489062
#
# Coordination Sequence:
#
# PCOD9183520 Si02
#       8
#     4   4   4   8   8   4   8   4
#     4   9  20  35  54  84 108 136 199 245 272 330
#     4  10  20  34  58  88 116 148 186 232 286 342
#     4  10  23  36  52  82 117 150 187 231 285 342
#     4   9  19  34  51  80 116 147 184 221 274 345
#     4   9  19  37  60  81 107 148 192 238 281 323
#     4   9  16  31  58  85 105 137 187 242 291 328
#     4  10  21  37  56  82 116 151 186 232 286 337
#     4  10  19  33  55  80 118 155 175 228 296 336
#
# _framework density 23.181158
#
# number of rings (size 3 to 8) (size 9 to 14) (size 15 to 20)
#    0.000    2.545    0.000    3.273    0.000    9.091 
#    0.000    2.273    0.000    2.182    0.000    0.000 
#    0.000    0.000    0.000    0.000    0.000    0.000 
#
# Total GULP energy -122509.017977 kJ/mol
# GULP energy per Si atom -5568.591726 kJ/mol
# Density = 2.312840 g / cm^3
# Si number density = 23.181158 Si / 1000 Ang^3
#
#
#
# Elastic Constant Matrix: (Units=GPa)
#
#
# Indices 1 2 3 4 5 6 
#
# 1 42.7652 5.0622 8.3560 0.0000 -3.3493 0.0000
# 2 5.0622 130.2651 16.8941 0.0000 -7.4154 0.0000
# 3 8.3560 16.8941 89.2475 0.0000 -20.6529 0.0000
# 4 0.0000 0.0000 0.0000 38.0299 0.0000 36.9089
# 5 -3.3493 -7.4154 -20.6529 0.0000 21.1328 0.0000
# 6 0.0000 0.0000 0.0000 36.9089 0.0000 76.9753
#
#
#
# Elastic Compliance Matrix: (Units=1/GPa)
#
#
# Indices 1 2 3 4 5 6 
#
# 1 0.023935 -0.000602 -0.001677 0.000000 0.001943 0.000000
# 2 -0.000602 0.007932 -0.001064 0.000000 0.001648 0.000000
# 3 -0.001677 -0.001064 0.014751 0.000000 0.013777 0.000000
# 4 0.000000 0.000000 0.000000 0.049182 0.000000 -0.023582
# 5 0.001943 0.001648 0.013777 0.000000 0.061671 0.000000
# 6 0.000000 0.000000 0.000000 -0.023582 0.000000 0.024299
#
#
# Mechanical properties :
#
#
# Convention : Reuss Voigt Hill
#
# Bulk Modulus (GPa) = 25.04263 35.87803 30.46033
# Shear Modulus (GPa) = 24.78114 42.69196 33.73655
#
# Velocity S-wave (km/s) = 3.27314 4.29612 3.81904
# Velocity P-wave (km/s) = 5.01109 6.33401 5.71099
#
# Compressibility (1/GPa) = 0.03993191
#
# Stress axis : x y z
#
# Youngs Moduli (GPa) = 41.78037 126.07442 67.79010
#
# Poissons Ratio (x) = 0.07589 0.11371
# Poissons Ratio (y) = 0.02515 0.07210
# Poissons Ratio (z) = 0.07008 0.13410
#
# Static dielectric constant tensor:
#      x y z
#    x 1.942900 0.000000 0.008310 
#    y 0.000000 1.875050 0.000000 
#    z 0.008310 0.000000 1.907110 
# 
# From -- ./inp_files/240383.got.cif
#   From: 2010.05.17/outbox.cif.g08.bks.cpg/sg12_121_cif.got.tgz:240383.got - 2010.06.03 13:09:07.
