data_PCOD9183158
_publ_section_title
;
Structure prediction by ZEFSAII (Michael W. Deem and Ramdas Pophale) SiO2 
 PCOD9183158
Probable space group: C 2/M
;
_chemical_formula_sum "Si O2"
_cell_formula_units_Z 48
_cell_length_a 5.426060
_cell_length_b 25.900175
_cell_length_c 18.402663
_cell_angle_alpha 90.000000
_cell_angle_beta 58.364624
_cell_angle_gamma 90.000000
_cell_volume 2201.928772
_symmetry_space_group_name_H-M "C 2/M"
_symmetry_group_IT_number 12
_symmetry_cell_setting 'monoclinic'
loop_
_space_group_symop_operation_xyz
x,y,z
-x,y,-z
-x,-y,-z
x,-y,z
1/2+x,1/2+y,z
1/2-x,1/2+y,-z
1/2-x,1/2-y,-z
1/2+x,1/2-y,z
loop_
_atom_site_type_symbol
_atom_site_label
_atom_site_fract_x
_atom_site_fract_y
_atom_site_fract_z
Si Si1 0.314795 0.191064 0.463559
Si Si2 0.435875 0.059092 0.113490
Si Si3 0.383504 0.733947 0.094761
Si Si4 0.066642 0.059564 0.321357
Si Si5 0.930391 0.380317 0.679944
Si Si6 0.065450 0.116968 0.885559
O O1 0.500000 0.167817 0.500000
O O2 0.250000 0.250000 0.500000
O O3 0.491849 0.176323 0.363931
O O4 0.000000 0.167765 0.500000
O O5 0.250052 0.058488 0.217406
O O6 0.726828 0.089106 0.089018
O O7 0.225707 0.086351 0.088312
O O8 0.497524 0.000000 0.084895
O O9 0.537681 0.762788 0.137708
O O10 0.484709 0.675369 0.083968
O O11 0.500000 0.756383 0.000000
O O12 0.275339 0.089155 0.345440
O O13 0.771093 0.088975 0.346202
O O14 0.015940 0.000000 0.350395
O O15 0.746641 0.378339 0.782294
#
# Coordination Sequence:
#
# PCOD9183158 Si02
#       6
#     8   8   8   8   8   8
#     4  10  21  38  54  71  98 139 175 203 261 327
#     4   9  17  30  52  81 114 142 172 217 270 320
#     4  10  21  38  56  77 108 148 184 221 273 321
#     4   9  17  30  52  80 107 135 169 215 265 307
#     4  10  19  33  54  79 104 134 176 220 254 310
#     4  10  19  33  54  83 108 137 184 224 263 307
#
# _framework density 21.799071999999999
#
# number of rings (size 3 to 8) (size 9 to 14) (size 15 to 20)
#    0.000    2.333    0.000    3.000    0.000    4.000 
#    6.000    0.000    0.000   13.000    0.000    0.000 
#    0.000    0.000    0.000    0.000    0.000    0.000 
#
# Total GULP energy -133881.694213 kJ/mol
# GULP energy per Si atom -5578.403926 kJ/mol
# Density = 2.174946 g / cm^3
# Si number density = 21.799072 Si / 1000 Ang^3
#
#
#
# Elastic Constant Matrix: (Units=GPa)
#
#
# Indices 1 2 3 4 5 6 
#
# 1 210.8077 64.9456 32.5100 0.0000 23.9836 0.0000
# 2 64.9456 135.0783 31.0277 0.0000 6.2877 0.0000
# 3 32.5100 31.0277 58.3564 0.0000 0.2682 0.0000
# 4 0.0000 0.0000 0.0000 111.6497 0.0000 -89.4975
# 5 23.9836 6.2877 0.2682 0.0000 17.9095 0.0000
# 6 0.0000 0.0000 0.0000 -89.4975 0.0000 354.2817
#
#
#
# Elastic Compliance Matrix: (Units=1/GPa)
#
#
# Indices 1 2 3 4 5 6 
#
# 1 0.006775 -0.002297 -0.002516 0.000000 -0.008229 0.000000
# 2 -0.002297 0.009364 -0.003699 0.000000 -0.000157 0.000000
# 3 -0.002516 -0.003699 0.020484 0.000000 0.004361 0.000000
# 4 0.000000 0.000000 0.000000 0.011231 0.000000 0.002837
# 5 -0.008229 -0.000157 0.004361 0.000000 0.066846 0.000000
# 6 0.000000 0.000000 0.000000 0.002837 0.000000 0.003539
#
#
# Mechanical properties :
#
#
# Convention : Reuss Voigt Hill
#
# Bulk Modulus (GPa) = 51.01595 73.46767 62.24181
# Shear Modulus (GPa) = 35.26190 115.15212 75.20701
#
# Velocity S-wave (km/s) = 4.02629 7.27592 5.88005
# Velocity P-wave (km/s) = 6.71329 10.21571 8.64375
#
# Compressibility (1/GPa) = 0.01960171
#
# Stress axis : x y z
#
# Youngs Moduli (GPa) = 147.59195 106.78899 48.81850
#
# Poissons Ratio (x) = 0.24527 0.12281
# Poissons Ratio (y) = 0.33898 0.18057
# Poissons Ratio (z) = 0.37128 0.39498
#
# Static dielectric constant tensor:
#      x y z
#    x 1.888460 0.000000 0.007460 
#    y 0.000000 1.721750 0.000000 
#    z 0.007460 0.000000 1.820050 
# 
# From -- ./inp_files/253155.got.cif
#   From: 2010.05.17/outbox.cif.g08.bks.cpg/sg12_127_cif.got.tgz:253155.got - 2010.06.03 13:09:07.
