data_PCOD9183712
_publ_section_title
;
Structure prediction by ZEFSAII (Michael W. Deem and Ramdas Pophale) SiO2 
 PCOD9183712
Probable space group: C 2/M
;
_chemical_formula_sum "Si O2"
_cell_formula_units_Z 56
_cell_length_a 31.868705
_cell_length_b 8.231855
_cell_length_c 11.368432
_cell_angle_alpha 90.000000
_cell_angle_beta 117.721044
_cell_angle_gamma 90.000000
_cell_volume 2640.069167
_symmetry_space_group_name_H-M "C 2/M"
_symmetry_group_IT_number 12
_symmetry_cell_setting 'monoclinic'
loop_
_space_group_symop_operation_xyz
x,y,z
-x,y,-z
-x,-y,-z
x,-y,z
1/2+x,1/2+y,z
1/2-x,1/2+y,-z
1/2-x,1/2-y,-z
1/2+x,1/2-y,z
loop_
_atom_site_type_symbol
_atom_site_label
_atom_site_fract_x
_atom_site_fract_y
_atom_site_fract_z
Si Si1 0.805901 0.803477 0.839071
Si Si2 0.101753 0.309034 0.627727
Si Si3 0.298721 0.197051 0.347828
Si Si4 0.150976 0.304935 0.351087
Si Si5 0.446390 0.687789 0.660060
Si Si6 0.112315 0.810191 0.894419
Si Si7 0.526954 0.811461 0.918908
O O1 0.751886 0.742626 0.762813
O O2 0.831723 0.753428 0.752390
O O3 0.805370 0.000000 0.843121
O O4 0.837617 0.747301 0.990244
O O5 0.098938 0.500000 0.596253
O O6 0.155356 0.252078 0.666817
O O7 0.066522 0.220830 0.492400
O O8 0.094451 0.279587 0.755097
O O9 0.310807 0.241865 0.498275
O O10 0.297046 0.000000 0.341374
O O11 0.146365 0.500000 0.345319
O O12 0.100894 0.232464 0.327852
O O13 0.458483 0.500000 0.693228
O O14 0.489449 0.793526 0.764624
O O15 0.073816 0.784936 0.946389
O O16 0.116323 0.000000 0.871261
O O17 0.539685 0.000000 0.954388
O O18 0.500000 0.751383 0.000000
#
# Coordination Sequence:
#
# PCOD9183712 Si02
#       7
#     8   8   8   8   8   8   8
#     4  10  20  35  55  81 116 155 194 238 288 336
#     4  10  21  40  62  84 114 151 194 238 282 335
#     4   8  17  34  56  82 113 151 192 237 285 335
#     4  10  19  33  55  85 119 152 192 236 282 340
#     4  11  22  38  62  88 116 149 187 234 288 341
#     4  11  24  39  57  84 117 152 192 237 284 337
#     4  11  24  42  64  89 117 149 187 230 280 339
#
# _framework density 21.211565
#
# number of rings (size 3 to 8) (size 9 to 14) (size 15 to 20)
#    0.000    1.857    0.000    5.143    0.000    5.714 
#    0.000    6.429    0.000    0.000    0.000    0.000 
#    0.000    0.000    0.000    0.000    0.000    0.000 
#
# Total GULP energy -156509.222931 kJ/mol
# GULP energy per Si atom -5589.615105 kJ/mol
# Density = 2.116329 g / cm^3
# Si number density = 21.211565 Si / 1000 Ang^3
#
#
#
# Elastic Constant Matrix: (Units=GPa)
#
#
# Indices 1 2 3 4 5 6 
#
# 1 28.7778 -6.8158 20.0873 0.0000 1.7121 0.0000
# 2 -6.8158 26.9409 -5.8532 0.0000 -2.5673 0.0000
# 3 20.0873 -5.8532 74.4332 0.0000 6.3131 0.0000
# 4 0.0000 0.0000 0.0000 17.9641 0.0000 -4.6451
# 5 1.7121 -2.5673 6.3131 0.0000 33.9428 0.0000
# 6 0.0000 0.0000 0.0000 -4.6451 0.0000 20.9907
#
#
#
# Elastic Compliance Matrix: (Units=1/GPa)
#
#
# Indices 1 2 3 4 5 6 
#
# 1 0.044810 0.008903 -0.011438 0.000000 0.000541 0.000000
# 2 0.008903 0.039716 0.000512 0.000000 0.002460 0.000000
# 3 -0.011438 0.000512 0.016774 0.000000 -0.002504 0.000000
# 4 0.000000 0.000000 0.000000 0.059045 0.000000 0.013066
# 5 0.000541 0.002460 -0.002504 0.000000 0.030086 0.000000
# 6 0.000000 0.000000 0.000000 0.013066 0.000000 0.050532
#
#
# Mechanical properties :
#
#
# Convention : Reuss Voigt Hill
#
# Bulk Modulus (GPa) = 10.28251 16.10983 13.19617
# Shear Modulus (GPa) = 18.02271 22.76177 20.39224
#
# Velocity S-wave (km/s) = 2.91806 3.27935 3.10397
# Velocity P-wave (km/s) = 4.02636 4.68510 4.36816
#
# Compressibility (1/GPa) = 0.09725254
#
# Stress axis : x y z
#
# Youngs Moduli (GPa) = 22.31668 25.17867 59.61455
#
# Poissons Ratio (x) = -0.22416 0.68190
# Poissons Ratio (y) = -0.19868 -0.03052
# Poissons Ratio (z) = 0.25527 -0.01289
#
# Static dielectric constant tensor:
#      x y z
#    x 1.754920 0.000000 0.011530 
#    y 0.000000 1.724920 0.000000 
#    z 0.011530 0.000000 1.766500 
# 
# From -- ./inp_files/187739.got.cif
#   From: 2010.05.17/outbox.cif.g08.bks.cpg/sg12_94_cif.got.tgz:187739.got - 2010.06.03 13:09:07.
