data_PCOD9183020
_publ_section_title
;
Structure prediction by ZEFSAII (Michael W. Deem and Ramdas Pophale) SiO2 
 PCOD9183020
Probable space group: C 2/M
;
_chemical_formula_sum "Si O2"
_cell_formula_units_Z 50
_cell_length_a 27.376984
_cell_length_b 7.506725
_cell_length_c 11.501974
_cell_angle_alpha 90.000000
_cell_angle_beta 64.139391
_cell_angle_gamma 90.000000
_cell_volume 2127.073067
_symmetry_space_group_name_H-M "C 2/M"
_symmetry_group_IT_number 12
_symmetry_cell_setting 'monoclinic'
loop_
_space_group_symop_operation_xyz
x,y,z
-x,y,-z
-x,-y,-z
x,-y,z
1/2+x,1/2+y,z
1/2-x,1/2+y,-z
1/2-x,1/2-y,-z
1/2+x,1/2-y,z
loop_
_atom_site_type_symbol
_atom_site_label
_atom_site_fract_x
_atom_site_fract_y
_atom_site_fract_z
Si Si1 0.735857 0.202805 0.321800
Si Si2 0.861650 0.283735 0.435735
Si Si3 0.571116 0.296604 0.856090
Si Si4 0.561838 0.785112 0.428663
Si Si5 0.662338 0.292198 0.183147
Si Si6 0.663431 0.718295 0.920769
Si Si7 0.000000 0.500000 0.000000
O O1 0.697771 0.281116 0.461921
O O2 0.696719 0.199532 0.248537
O O3 0.790985 0.285672 0.216095
O O4 0.748387 0.000000 0.342379
O O5 0.859719 0.500000 0.433598
O O6 0.884947 0.213667 0.292092
O O7 0.904226 0.231937 0.492288
O O8 0.554037 0.500000 0.885352
O O9 0.604160 0.232313 0.935963
O O10 0.523654 0.157219 0.888741
O O11 0.500000 0.721553 0.500000
O O12 0.598919 0.724574 0.282339
O O13 0.560889 0.000000 0.426026
O O14 0.677277 0.500000 0.171790
O O15 0.673360 0.223651 0.042265
O O16 0.665359 0.500000 0.918478
#
# Coordination Sequence:
#
# PCOD9183020 Si02
#       7
#     8   8   8   8   8   8   2
#     4   9  18  36  61  86 123 164 199 248 312 368
#     4   9  18  36  59  88 122 157 204 256 305 369
#     4  11  24  44  67  90 124 166 208 257 316 367
#     4   9  19  36  57  82 113 154 203 252 307 364
#     4  10  19  33  53  85 125 156 200 253 304 367
#     4   9  20  38  58  88 124 161 205 253 306 374
#     4  12  26  48  64  90 122 164 214 260 310 370
#
# _framework density 23.50648
#
# number of rings (size 3 to 8) (size 9 to 14) (size 15 to 20)
#    0.000    2.400    0.800    2.160    0.000    4.800 
#    7.200    1.600    0.000    0.000    0.000    0.000 
#    0.000    0.000    0.000    0.000    0.000    0.000 
#
# Total GULP energy -139453.443426 kJ/mol
# GULP energy per Si atom -5578.137737 kJ/mol
# Density = 2.345298 g / cm^3
# Si number density = 23.506480 Si / 1000 Ang^3
#
#
#
# Elastic Constant Matrix: (Units=GPa)
#
#
# Indices 1 2 3 4 5 6 
#
# 1 65.8788 11.0930 22.0946 0.0000 -21.1429 0.0000
# 2 11.0930 101.2352 14.7469 0.0000 -3.7479 0.0000
# 3 22.0946 14.7469 116.6182 0.0000 -17.9814 0.0000
# 4 0.0000 0.0000 0.0000 -97.8222 0.0000 53.6175
# 5 -21.1429 -3.7479 -17.9814 0.0000 33.5768 0.0000
# 6 0.0000 0.0000 0.0000 53.6175 0.0000 -24.8027
#
#
#
# Elastic Compliance Matrix: (Units=1/GPa)
#
#
# Indices 1 2 3 4 5 6 
#
# 1 0.019638 -0.001473 -0.001802 0.000000 0.011236 0.000000
# 2 -0.001473 0.010181 -0.001064 0.000000 -0.000361 0.000000
# 3 -0.001802 -0.001064 0.009655 0.000000 0.003917 0.000000
# 4 0.000000 0.000000 0.000000 0.055292 0.000000 0.119528
# 5 0.011236 -0.000361 0.003917 0.000000 0.038915 0.000000
# 6 0.000000 0.000000 0.000000 0.119528 0.000000 0.218072
#
#
# Mechanical properties :
#
#
# Convention : Reuss Voigt Hill
#
# Bulk Modulus (GPa) = 32.47216 42.17791 37.32504
# Shear Modulus (GPa) = 13.48811 -2.08979 5.69916
#
# Velocity S-wave (km/s) = 2.39802 -0.94390 1.55877
# Velocity P-wave (km/s) = 4.63804 4.09806 4.37639
#
# Compressibility (1/GPa) = 0.03079561
#
# Stress axis : x y z
#
# Youngs Moduli (GPa) = 50.92178 98.22157 103.57442
#
# Poissons Ratio (x) = 0.14472 0.18662
# Poissons Ratio (y) = 0.07503 0.11020
# Poissons Ratio (z) = 0.09175 0.10451
#
# Static dielectric constant tensor:
#      x y z
#    x 1.934790 0.000000 -0.040010 
#    y 0.000000 1.860190 0.000000 
#    z -0.040010 0.000000 1.893240 
# 
# From -- ./inp_files/186324.got.cif
#   From: 2010.05.17/outbox.cif.g08.bks.cpg/sg12_94_cif.got.tgz:186324.got - 2010.06.03 13:09:07.
