data_PCOD9183499
_publ_section_title
;
Structure prediction by ZEFSAII (Michael W. Deem and Ramdas Pophale) SiO2 
 PCOD9183499
Probable space group: C 2/M
;
_chemical_formula_sum "Si O2"
_cell_formula_units_Z 56
_cell_length_a 26.092005
_cell_length_b 9.653080
_cell_length_c 11.585129
_cell_angle_alpha 90.000000
_cell_angle_beta 75.289298
_cell_angle_gamma 90.000000
_cell_volume 2822.277103
_symmetry_space_group_name_H-M "C 2/M"
_symmetry_group_IT_number 12
_symmetry_cell_setting 'monoclinic'
loop_
_space_group_symop_operation_xyz
x,y,z
-x,y,-z
-x,-y,-z
x,-y,z
1/2+x,1/2+y,z
1/2-x,1/2+y,-z
1/2-x,1/2-y,-z
1/2+x,1/2-y,z
loop_
_atom_site_type_symbol
_atom_site_label
_atom_site_fract_x
_atom_site_fract_y
_atom_site_fract_z
Si Si1 0.313956 0.164167 0.715349
Si Si2 0.447988 0.660454 0.253462
Si Si3 0.627966 0.746618 0.912057
Si Si4 0.800074 0.156144 0.937113
Si Si5 0.214901 0.342730 0.690843
Si Si6 0.967831 0.649840 0.897827
Si Si7 0.128931 0.661615 0.551860
O O1 0.326951 0.258361 0.818144
O O2 0.259533 0.231883 0.697641
O O3 0.357463 0.177059 0.589897
O O4 0.307036 0.000000 0.745775
O O5 0.453919 0.500000 0.276707
O O6 0.410892 0.677226 0.159875
O O7 0.503986 0.732236 0.192577
O O8 0.416789 0.742693 0.370709
O O9 0.669325 0.836923 0.815005
O O10 0.663056 0.649163 0.971970
O O11 0.591281 0.826659 0.024090
O O12 0.785116 0.000000 0.910210
O O13 0.750000 0.250000 0.000000
O O14 0.235941 0.500000 0.669610
O O15 0.183023 0.307573 0.592277
O O16 0.973581 0.500000 0.837106
O O17 0.000000 0.646339 0.000000
O O18 0.116571 0.500000 0.583394
#
# Coordination Sequence:
#
# PCOD9183499 Si02
#       7
#     8   8   8   8   8   8   8
#     4  11  23  37  54  77 109 147 189 231 276 328
#     4  10  20  34  57  87 114 142 179 230 285 334
#     4  10  21  35  56  82 114 148 187 226 276 329
#     4  12  25  39  56  78 112 153 193 232 272 322
#     4  10  19  33  55  80 108 142 184 231 279 330
#     4   9  18  33  55  83 114 147 180 220 275 339
#     4   9  20  37  55  78 108 144 184 230 281 335
#
# _framework density 19.842134000000001
#
# number of rings (size 3 to 8) (size 9 to 14) (size 15 to 20)
#    0.000    1.857    1.429    2.571    0.000   11.714 
#    0.000    0.000    0.000    0.857    0.000    5.000 
#    0.000    0.000    0.000    0.000    0.000    0.000 
#
# Total GULP energy -156231.902328 kJ/mol
# GULP energy per Si atom -5579.710797 kJ/mol
# Density = 1.979697 g / cm^3
# Si number density = 19.842134 Si / 1000 Ang^3
#
#
#
# Elastic Constant Matrix: (Units=GPa)
#
#
# Indices 1 2 3 4 5 6 
#
# 1 24.7740 13.9862 16.5042 0.0000 -15.1653 0.0000
# 2 13.9862 137.3384 49.8777 0.0000 -17.6870 0.0000
# 3 16.5042 49.8777 97.9160 0.0000 -10.3269 0.0000
# 4 0.0000 0.0000 0.0000 20.7179 0.0000 -1.6213
# 5 -15.1653 -17.6870 -10.3269 0.0000 25.4982 0.0000
# 6 0.0000 0.0000 0.0000 -1.6213 0.0000 11.5353
#
#
#
# Elastic Compliance Matrix: (Units=1/GPa)
#
#
# Indices 1 2 3 4 5 6 
#
# 1 0.068522 0.000815 -0.007946 0.000000 0.038101 0.000000
# 2 0.000815 0.009479 -0.004410 0.000000 0.005274 0.000000
# 3 -0.007946 -0.004410 0.013556 0.000000 -0.002294 0.000000
# 4 0.000000 0.000000 0.000000 0.048804 0.000000 0.006859
# 5 0.038101 0.005274 -0.002294 0.000000 0.064608 0.000000
# 6 0.000000 0.000000 0.000000 0.006859 0.000000 0.087654
#
#
# Mechanical properties :
#
#
# Convention : Reuss Voigt Hill
#
# Bulk Modulus (GPa) = 14.60397 46.75165 30.67781
# Shear Modulus (GPa) = 14.76969 23.52764 19.14866
#
# Velocity S-wave (km/s) = 2.73126 3.44720 3.10990
# Velocity P-wave (km/s) = 4.16202 6.28149 5.32821
#
# Compressibility (1/GPa) = 0.06847454
#
# Stress axis : x y z
#
# Youngs Moduli (GPa) = 14.59390 105.49695 73.76560
#
# Poissons Ratio (x) = -0.08593 0.58616
# Poissons Ratio (y) = -0.01189 0.32528
# Poissons Ratio (z) = 0.11597 0.46520
#
# Static dielectric constant tensor:
#      x y z
#    x 1.721220 0.000000 0.014250 
#    y 0.000000 1.698150 0.000000 
#    z 0.014250 0.000000 1.707320 
# 
# From -- ./inp_files/186458.got.cif
#   From: 2010.05.17/outbox.cif.g08.bks.cpg/sg12_94_cif.got.tgz:186458.got - 2010.06.03 13:09:07.
