data_PCOD9183661
_publ_section_title
;
Structure prediction by ZEFSAII (Michael W. Deem and Ramdas Pophale) SiO2 
 PCOD9183661
Probable space group: C 2/M
;
_chemical_formula_sum "Si O2"
_cell_formula_units_Z 64
_cell_length_a 20.606110
_cell_length_b 8.906359
_cell_length_c 25.689961
_cell_angle_alpha 90.000000
_cell_angle_beta 128.625890
_cell_angle_gamma 90.000000
_cell_volume 3683.352503
_symmetry_space_group_name_H-M "C 2/M"
_symmetry_group_IT_number 12
_symmetry_cell_setting 'monoclinic'
loop_
_space_group_symop_operation_xyz
x,y,z
-x,y,-z
-x,-y,-z
x,-y,z
1/2+x,1/2+y,z
1/2-x,1/2+y,-z
1/2-x,1/2-y,-z
1/2+x,1/2-y,z
loop_
_atom_site_type_symbol
_atom_site_label
_atom_site_fract_x
_atom_site_fract_y
_atom_site_fract_z
Si Si1 0.757463 0.179423 0.146849
Si Si2 0.552038 0.320263 0.178776
Si Si3 0.498071 0.180153 0.332130
Si Si4 0.792467 0.681471 0.682818
Si Si5 0.583597 0.820235 0.820207
Si Si6 0.582152 0.680329 0.073101
Si Si7 0.311683 0.181143 0.572760
Si Si8 0.840441 0.820243 0.299300
O O1 0.824818 0.254257 0.142597
O O2 0.664985 0.240640 0.094078
O O3 0.787784 0.218897 0.220937
O O4 0.760080 0.000000 0.143084
O O5 0.549514 0.500000 0.182292
O O6 0.626857 0.254241 0.250652
O O7 0.466894 0.250693 0.157681
O O8 0.568730 0.281371 0.127024
O O9 0.467523 0.219311 0.258355
O O10 0.592623 0.229595 0.387789
O O11 0.430491 0.247967 0.337311
O O12 0.495578 0.000000 0.334440
O O13 0.801536 0.500000 0.690634
O O14 0.787153 0.722164 0.619613
O O15 0.712370 0.725473 0.676805
O O16 0.586128 0.000000 0.825612
O O17 0.593049 0.500000 0.074837
O O18 0.500000 0.721679 0.000000
O O19 0.250000 0.250000 0.500000
O O20 0.309346 0.000000 0.568095
O O21 0.849383 0.000000 0.304515
#
# Coordination Sequence:
#
# PCOD9183661 Si02
#       8
#     8   8   8   8   8   8   8   8
#     4  10  19  33  55  84 112 139 181 229 271 324
#     4  11  21  33  55  85 110 138 185 233 267 316
#     4   9  18  33  53  76 106 141 175 214 267 322
#     4  10  19  36  56  78 109 143 179 222 274 324
#     4  10  19  34  56  80 111 145 177 223 279 327
#     4  10  22  39  56  78 113 152 184 220 274 333
#     4  10  21  37  55  77 107 145 182 219 267 325
#     4   9  18  31  53  81 107 135 173 222 268 315
#
# _framework density 17.375474000000001
#
# number of rings (size 3 to 8) (size 9 to 14) (size 15 to 20)
#    0.000    2.125    2.500    1.125    0.000    3.250 
#    0.000    1.250    0.000    3.750    0.000    0.000 
#    0.000    0.000    0.000    0.000    0.000    0.000 
#
# Total GULP energy -178594.039160 kJ/mol
# GULP energy per Si atom -5581.063724 kJ/mol
# Density = 1.733593 g / cm^3
# Si number density = 17.375474 Si / 1000 Ang^3
#
#
#
# Elastic Constant Matrix: (Units=GPa)
#
#
# Indices 1 2 3 4 5 6 
#
# 1 116.9954 26.6433 9.1754 0.0000 16.8911 0.0000
# 2 26.6433 18.5170 12.0925 0.0000 3.5538 0.0000
# 3 9.1754 12.0925 40.2435 0.0000 10.2840 0.0000
# 4 0.0000 0.0000 0.0000 21.9161 0.0000 6.5515
# 5 16.8911 3.5538 10.2840 0.0000 25.8496 0.0000
# 6 0.0000 0.0000 0.0000 6.5515 0.0000 34.4582
#
#
#
# Elastic Compliance Matrix: (Units=1/GPa)
#
#
# Indices 1 2 3 4 5 6 
#
# 1 0.014629 -0.023206 0.005861 0.000000 -0.008700 0.000000
# 2 -0.023206 0.104045 -0.029157 0.000000 0.012460 0.000000
# 3 0.005861 -0.029157 0.035875 0.000000 -0.014094 0.000000
# 4 0.000000 0.000000 0.000000 0.048378 0.000000 -0.009198
# 5 -0.008700 0.012460 -0.014094 0.000000 0.048265 0.000000
# 6 0.000000 0.000000 0.000000 -0.009198 0.000000 0.030769
#
#
# Mechanical properties :
#
#
# Convention : Reuss Voigt Hill
#
# Bulk Modulus (GPa) = 16.24837 30.17538 23.21187
# Shear Modulus (GPa) = 12.64288 24.96776 18.80532
#
# Velocity S-wave (km/s) = 2.70038 3.79483 3.29339
# Velocity P-wave (km/s) = 4.36971 6.05023 5.27730
#
# Compressibility (1/GPa) = 0.06154463
#
# Stress axis : x y z
#
# Youngs Moduli (GPa) = 68.35963 9.61125 27.87440
#
# Poissons Ratio (x) = 0.22304 -0.16338
# Poissons Ratio (y) = 1.58637 0.81273
# Poissons Ratio (z) = -0.40067 0.28023
#
# Static dielectric constant tensor:
#      x y z
#    x 1.589680 0.000000 -0.003590 
#    y 0.000000 1.581810 0.000000 
#    z -0.003590 0.000000 1.565270 
# 
# From -- ./inp_files/346253.got.cif
#   From: 2010.05.17/outbox.cif.g08.bks.cpg/sg12_174_cif.got.tgz:346253.got - 2010.06.03 13:09:07.
