data_PCOD9183928
_publ_section_title
;
Structure prediction by ZEFSAII (Michael W. Deem and Ramdas Pophale) SiO2 
 PCOD9183928
Probable space group: C 2/M
;
_chemical_formula_sum "Si O2"
_cell_formula_units_Z 64
_cell_length_a 31.065487
_cell_length_b 7.563172
_cell_length_c 16.710106
_cell_angle_alpha 90.000000
_cell_angle_beta 45.437345
_cell_angle_gamma 90.000000
_cell_volume 2797.281621
_symmetry_space_group_name_H-M "C 2/M"
_symmetry_group_IT_number 12
_symmetry_cell_setting 'monoclinic'
loop_
_space_group_symop_operation_xyz
x,y,z
-x,y,-z
-x,-y,-z
x,-y,z
1/2+x,1/2+y,z
1/2-x,1/2+y,-z
1/2-x,1/2-y,-z
1/2+x,1/2-y,z
loop_
_atom_site_type_symbol
_atom_site_label
_atom_site_fract_x
_atom_site_fract_y
_atom_site_fract_z
Si Si1 0.044040 0.283001 0.096354
Si Si2 0.522628 0.714117 0.557376
Si Si3 0.594912 0.213855 0.703941
Si Si4 0.386526 0.797331 0.143977
Si Si5 0.764292 0.202530 0.222333
Si Si6 0.852092 0.205645 0.534870
Si Si7 0.208465 0.288351 0.130526
Si Si8 0.093676 0.706630 0.191988
O O1 0.045786 0.500000 0.093701
O O2 0.089063 0.220960 0.108064
O O3 0.975627 0.233270 0.206487
O O4 0.065905 0.219728 0.981275
O O5 0.500000 0.771470 0.500000
O O6 0.523287 0.500000 0.558713
O O7 0.589340 0.776493 0.493754
O O8 0.472799 0.777052 0.684970
O O9 0.617869 0.276561 0.760896
O O10 0.631602 0.280564 0.579771
O O11 0.598061 0.000000 0.694793
O O12 0.322285 0.795492 0.183820
O O13 0.406654 0.000000 0.130113
O O14 0.709156 0.205315 0.356839
O O15 0.738327 0.280326 0.173103
O O16 0.782986 0.000000 0.183606
O O17 0.845182 0.000000 0.564598
O O18 0.203485 0.500000 0.149609
O O19 0.142628 0.217733 0.189999
O O20 0.250000 0.250000 0.000000
O O21 0.109187 0.500000 0.163511
#
# Coordination Sequence:
#
# PCOD9183928 Si02
#       8
#     8   8   8   8   8   8   8   8
#     4   9  17  33  59  90 119 146 185 237 291 349
#     4  10  21  36  54  80 112 146 186 231 282 339
#     4  10  20  37  62  90 118 151 193 243 298 350
#     4  10  21  38  62  88 115 153 199 244 293 352
#     4  11  24  41  59  84 120 158 200 246 293 345
#     4  11  23  39  60  85 117 156 197 242 294 353
#     4  10  22  38  58  87 119 156 198 241 288 342
#     4  10  19  33  56  84 113 146 186 230 280 339
#
# _framework density 22.879353999999999
#
# number of rings (size 3 to 8) (size 9 to 14) (size 15 to 20)
#    0.000    1.875    1.250    2.625    0.000    5.750 
#    0.000    1.250    0.000    1.500    0.000    0.000 
#    0.000    0.000    0.000    0.000    0.000    0.000 
#
# Total GULP energy -178858.208330 kJ/mol
# GULP energy per Si atom -5589.319010 kJ/mol
# Density = 2.282728 g / cm^3
# Si number density = 22.879354 Si / 1000 Ang^3
#
#
#
# Elastic Constant Matrix: (Units=GPa)
#
#
# Indices 1 2 3 4 5 6 
#
# 1 101.7724 -1.5180 27.7294 0.0004 25.9992 0.0005
# 2 -1.5180 55.9500 -16.8806 0.0082 4.4761 0.0017
# 3 27.7294 -16.8806 102.7969 0.0018 19.9798 -0.0018
# 4 0.0004 0.0082 0.0018 16.3414 -0.0001 -2.1327
# 5 25.9992 4.4761 19.9798 -0.0001 45.1163 -0.0003
# 6 0.0005 0.0017 -0.0018 -2.1327 -0.0003 9.0729
#
#
#
# Elastic Compliance Matrix: (Units=1/GPa)
#
#
# Indices 1 2 3 4 5 6 
#
# 1 0.011908 0.000194 -0.002016 0.000000 -0.005988 -0.000001
# 2 0.000194 0.019339 0.003849 -0.000011 -0.003735 -0.000006
# 3 -0.002016 0.003849 0.011765 -0.000003 -0.004430 0.000001
# 4 0.000000 -0.000011 -0.000003 0.063131 0.000003 0.014840
# 5 -0.005988 -0.003735 -0.004430 0.000003 0.027948 0.000002
# 6 -0.000001 -0.000006 0.000001 0.014840 0.000002 0.113707
#
#
# Mechanical properties :
#
#
# Convention : Reuss Voigt Hill
#
# Bulk Modulus (GPa) = 21.24725 31.02009 26.13367
# Shear Modulus (GPa) = 19.27281 30.85201 25.06241
#
# Velocity S-wave (km/s) = 2.90550 3.67613 3.31330
# Velocity P-wave (km/s) = 4.53462 5.62193 5.10729
#
# Compressibility (1/GPa) = 0.04706491
#
# Stress axis : x y z
#
# Youngs Moduli (GPa) = 83.97733 51.71020 84.99802
#
# Poissons Ratio (x) = -0.01002 0.17139
# Poissons Ratio (y) = -0.01628 -0.32718
# Poissons Ratio (z) = 0.16933 -0.19905
#
# Static dielectric constant tensor:
#      x y z
#    x 1.869650 0.000000 0.030010 
#    y 0.000000 1.880820 0.000000 
#    z 0.030010 0.000000 1.826790 
# 
# From -- ./inp_files/249668.got.cif
#   From: 2010.05.17/outbox.cif.g08.bks.cpg/sg12_125_cif.got.tgz:249668.got - 2010.06.03 13:09:07.
