data_PCOD9183208
_publ_section_title
;
Structure prediction by ZEFSAII (Michael W. Deem and Ramdas Pophale) SiO2 
 PCOD9183208
Probable space group: C 2/M
;
_chemical_formula_sum "Si O2"
_cell_formula_units_Z 56
_cell_length_a 14.771734
_cell_length_b 9.602616
_cell_length_c 23.248406
_cell_angle_alpha 90.000000
_cell_angle_beta 131.398718
_cell_angle_gamma 90.000000
_cell_volume 2473.707600
_symmetry_space_group_name_H-M "C 2/M"
_symmetry_group_IT_number 12
_symmetry_cell_setting 'monoclinic'
loop_
_space_group_symop_operation_xyz
x,y,z
-x,y,-z
-x,-y,-z
x,-y,z
1/2+x,1/2+y,z
1/2-x,1/2+y,-z
1/2-x,1/2-y,-z
1/2+x,1/2-y,z
loop_
_atom_site_type_symbol
_atom_site_label
_atom_site_fract_x
_atom_site_fract_y
_atom_site_fract_z
Si Si1 0.970213 0.661183 0.253351
Si Si2 0.244879 0.334408 0.167925
Si Si3 0.373097 0.658772 0.981142
Si Si4 0.006265 0.337433 0.873699
Si Si5 0.935910 0.655115 0.409559
Si Si6 0.640118 0.347373 0.470325
Si Si7 0.256882 0.152452 0.639740
O O1 0.935955 0.500000 0.248881
O O2 0.870823 0.763076 0.237482
O O3 0.978915 0.682095 0.187840
O O4 0.110293 0.679062 0.329277
O O5 0.257285 0.500000 0.165204
O O6 0.208489 0.255336 0.093583
O O7 0.131991 0.310984 0.163767
O O8 0.327232 0.500000 0.968904
O O9 0.500000 0.650163 0.000000
O O10 0.406014 0.736469 0.053925
O O11 0.031045 0.500000 0.898412
O O12 0.941996 0.500000 0.387818
O O13 0.800770 0.715535 0.353397
O O14 0.000000 0.644750 0.500000
O O15 0.016485 0.767181 0.410680
O O16 0.644780 0.500000 0.445025
O O17 0.750000 0.250000 0.500000
O O18 0.663496 0.364552 0.548226
O O19 0.262178 0.000000 0.672551
#
# Coordination Sequence:
#
# PCOD9183208 Si02
#       7
#     8   8   8   8   8   8   8
#     4  10  21  38  57  77 109 149 184 220 269 330
#     4  10  20  35  55  80 110 142 181 228 274 319
#     4   9  17  31  54  81 107 138 180 228 275 321
#     4   9  19  36  56  78 107 142 181 224 273 327
#     4   9  17  31  53  77 102 132 169 212 258 308
#     4  10  19  33  54  80 108 137 174 220 267 316
#     4   9  19  36  55  75 105 141 177 215 266 323
#
# _framework density 22.638083000000002
#
# number of rings (size 3 to 8) (size 9 to 14) (size 15 to 20)
#    0.000    2.571    0.000    1.714    0.000    6.286 
#    2.571    0.000    0.000    0.000    0.000    0.000 
#    0.000    0.000    0.000    0.000    0.000    0.000 
#
# Total GULP energy -156359.834241 kJ/mol
# GULP energy per Si atom -5584.279794 kJ/mol
# Density = 2.258656 g / cm^3
# Si number density = 22.638083 Si / 1000 Ang^3
#
#
#
# Elastic Constant Matrix: (Units=GPa)
#
#
# Indices 1 2 3 4 5 6 
#
# 1 68.5764 52.1495 25.8957 0.0000 12.7648 0.0000
# 2 52.1495 159.3086 38.0579 0.0000 26.0966 0.0000
# 3 25.8957 38.0579 91.2598 0.0000 8.0677 0.0000
# 4 0.0000 0.0000 0.0000 20.5497 0.0000 15.2089
# 5 12.7648 26.0966 8.0677 0.0000 44.0981 0.0000
# 6 0.0000 0.0000 0.0000 15.2089 0.0000 25.8102
#
#
#
# Elastic Compliance Matrix: (Units=1/GPa)
#
#
# Indices 1 2 3 4 5 6 
#
# 1 0.020441 -0.005573 -0.003298 0.000000 -0.002015 0.000000
# 2 -0.005573 0.009123 -0.001919 0.000000 -0.003434 0.000000
# 3 -0.003298 -0.001919 0.012715 0.000000 -0.000236 0.000000
# 4 0.000000 0.000000 0.000000 0.086298 0.000000 -0.050852
# 5 -0.002015 -0.003434 -0.000236 0.000000 0.025336 0.000000
# 6 0.000000 0.000000 0.000000 -0.050852 0.000000 0.068709
#
#
# Mechanical properties :
#
#
# Convention : Reuss Voigt Hill
#
# Bulk Modulus (GPa) = 48.31545 61.26125 54.78835
# Shear Modulus (GPa) = 19.91222 31.62769 25.76996
#
# Velocity S-wave (km/s) = 2.96900 3.74184 3.37760
# Velocity P-wave (km/s) = 5.75693 6.76671 6.28214
#
# Compressibility (1/GPa) = 0.02069732
#
# Stress axis : x y z
#
# Youngs Moduli (GPa) = 48.92102 109.61736 78.64867
#
# Poissons Ratio (x) = 0.61094 0.25938
# Poissons Ratio (y) = 0.27266 0.15095
# Poissons Ratio (z) = 0.16134 0.21039
#
# Static dielectric constant tensor:
#      x y z
#    x 1.913070 0.000000 -0.038370 
#    y 0.000000 1.843270 0.000000 
#    z -0.038370 0.000000 1.890290 
# 
# From -- ./inp_files/377721.got.cif
#   From: 2010.05.17/outbox.cif.g08.bks.cpg/sg12_189_cif.got.tgz:377721.got - 2010.06.03 13:09:07.
