data_PCOD9183842
_publ_section_title
;
Structure prediction by ZEFSAII (Michael W. Deem and Ramdas Pophale) SiO2 
 PCOD9183842
Probable space group: C 2/M
;
_chemical_formula_sum "Si O2"
_cell_formula_units_Z 40
_cell_length_a 24.737838
_cell_length_b 7.667156
_cell_length_c 8.345718
_cell_angle_alpha 90.000000
_cell_angle_beta 84.591188
_cell_angle_gamma 90.000000
_cell_volume 1575.874847
_symmetry_space_group_name_H-M "C 2/M"
_symmetry_group_IT_number 12
_symmetry_cell_setting 'monoclinic'
loop_
_space_group_symop_operation_xyz
x,y,z
-x,y,-z
-x,-y,-z
x,-y,z
1/2+x,1/2+y,z
1/2-x,1/2+y,-z
1/2-x,1/2-y,-z
1/2+x,1/2-y,z
loop_
_atom_site_type_symbol
_atom_site_label
_atom_site_fract_x
_atom_site_fract_y
_atom_site_fract_z
Si Si1 0.490283 0.697379 0.688387
Si Si2 0.807701 0.790610 0.406058
Si Si3 0.673634 0.306290 0.952971
Si Si4 0.367260 0.714361 0.708304
Si Si5 0.559709 0.805221 0.916379
O O1 0.500000 0.684415 0.500000
O O2 0.492028 0.500000 0.754158
O O3 0.429318 0.769737 0.729115
O O4 0.542490 0.798624 0.737584
O O5 0.750000 0.750000 0.500000
O O6 0.809068 0.721019 0.221642
O O7 0.848919 0.730799 0.535432
O O8 0.815762 0.000000 0.387724
O O9 0.698411 0.500000 0.956647
O O10 0.608778 0.317429 0.942010
O O11 0.673307 0.230089 0.134485
O O12 0.367313 0.500000 0.709486
O O13 0.575217 0.000000 0.959132
O O14 0.500000 0.763371 0.000000
#
# Coordination Sequence:
#
# PCOD9183842 Si02
#       5
#     8   8   8   8   8
#     4  10  19  33  56  82 109 150 198 235 271 326
#     4  10  22  40  60  84 110 139 185 238 291 346
#     4  10  20  37  61  82 108 152 196 232 274 331
#     4   9  18  34  56  81 109 143 187 235 274 323
#     4  11  22  34  51  82 122 154 182 225 282 337
#
# _framework density 25.382726000000002
#
# number of rings (size 3 to 8) (size 9 to 14) (size 15 to 20)
#    0.000    2.000    2.000    1.800    0.000    6.000 
#    0.000    2.000    0.000    0.000    0.000    0.000 
#    0.000    0.000    0.000    0.000    0.000    0.000 
#
# Total GULP energy -111516.040416 kJ/mol
# GULP energy per Si atom -5575.802021 kJ/mol
# Density = 2.532495 g / cm^3
# Si number density = 25.382726 Si / 1000 Ang^3
#
#
#
# Elastic Constant Matrix: (Units=GPa)
#
#
# Indices 1 2 3 4 5 6 
#
# 1 65.1697 -1.4057 9.2133 0.0000 -0.5165 0.0000
# 2 -1.4057 69.9564 16.5046 0.0000 2.7292 0.0000
# 3 9.2133 16.5046 157.4470 0.0000 -23.3685 0.0000
# 4 0.0000 0.0000 0.0000 6.7882 0.0000 -3.9172
# 5 -0.5165 2.7292 -23.3685 0.0000 39.0628 0.0000
# 6 0.0000 0.0000 0.0000 -3.9172 0.0000 20.7642
#
#
#
# Elastic Compliance Matrix: (Units=1/GPa)
#
#
# Indices 1 2 3 4 5 6 
#
# 1 0.015500 0.000573 -0.001034 0.000000 -0.000454 0.000000
# 2 0.000573 0.014842 -0.001912 0.000000 -0.002173 0.000000
# 3 -0.001034 -0.001912 0.007276 0.000000 0.004473 0.000000
# 4 0.000000 0.000000 0.000000 0.165312 0.000000 0.031187
# 5 -0.000454 -0.002173 0.004473 0.000000 0.028421 0.000000
# 6 0.000000 0.000000 0.000000 0.031187 0.000000 0.054043
#
#
# Mechanical properties :
#
#
# Convention : Reuss Voigt Hill
#
# Bulk Modulus (GPa) = 30.42157 37.91081 34.16619
# Shear Modulus (GPa) = 16.60591 31.20709 23.90650
#
# Velocity S-wave (km/s) = 2.56055 3.51017 3.07227
# Velocity P-wave (km/s) = 4.55555 5.60326 5.10635
#
# Compressibility (1/GPa) = 0.03287141
#
# Stress axis : x y z
#
# Youngs Moduli (GPa) = 64.51790 67.37637 137.43549
#
# Poissons Ratio (x) = -0.03862 0.14217
# Poissons Ratio (y) = -0.03698 0.26277
# Poissons Ratio (z) = 0.06674 0.12882
#
# Static dielectric constant tensor:
#      x y z
#    x 1.992710 0.000000 0.114920 
#    y 0.000000 2.050760 0.000000 
#    z 0.114920 0.000000 2.465330 
# 
# From -- ./inp_files/92835.got.cif
#   From: 2010.05.17/outbox.cif.g08.bks.cpg/sg12_47_cif.got.tgz:92835.got - 2010.06.03 13:09:07.
