data_PCOD9183604
_publ_section_title
;
Structure prediction by ZEFSAII (Michael W. Deem and Ramdas Pophale) SiO2 
 PCOD9183604
Probable space group: C 2/M
;
_chemical_formula_sum "Si O2"
_cell_formula_units_Z 56
_cell_length_a 25.924520
_cell_length_b 7.492350
_cell_length_c 13.641963
_cell_angle_alpha 90.000000
_cell_angle_beta 68.538717
_cell_angle_gamma 90.000000
_cell_volume 2466.033867
_symmetry_space_group_name_H-M "C 2/M"
_symmetry_group_IT_number 12
_symmetry_cell_setting 'monoclinic'
loop_
_space_group_symop_operation_xyz
x,y,z
-x,y,-z
-x,-y,-z
x,-y,z
1/2+x,1/2+y,z
1/2-x,1/2+y,-z
1/2-x,1/2-y,-z
1/2+x,1/2-y,z
loop_
_atom_site_type_symbol
_atom_site_label
_atom_site_fract_x
_atom_site_fract_y
_atom_site_fract_z
Si Si1 0.392970 0.204724 0.246835
Si Si2 0.812698 0.212519 0.927142
Si Si3 0.513688 0.705619 0.209688
Si Si4 0.327904 0.281757 0.694417
Si Si5 0.229333 0.713821 0.623686
Si Si6 0.549673 0.281394 0.395885
Si Si7 0.592490 0.283162 0.989220
O O1 0.447553 0.289494 0.255679
O O2 0.332835 0.283352 0.314614
O O3 0.393421 0.000000 0.279516
O O4 0.401439 0.211909 0.124002
O O5 0.823568 0.279189 0.809958
O O6 0.855541 0.274429 0.979841
O O7 0.820715 0.000000 0.917366
O O8 0.750000 0.250000 0.000000
O O9 0.532116 0.500000 0.197495
O O10 0.538341 0.782090 0.292677
O O11 0.539156 0.775836 0.090168
O O12 0.326313 0.500000 0.695128
O O13 0.275894 0.218927 0.666930
O O14 0.388674 0.229615 0.613795
O O15 0.226323 0.500000 0.640211
O O16 0.250000 0.750000 0.500000
O O17 0.500000 0.222009 0.500000
O O18 0.548285 0.500000 0.395932
O O19 0.591503 0.500000 0.978642
#
# Coordination Sequence:
#
# PCOD9183604 Si02
#       7
#     8   8   8   8   8   8   8
#     4  11  24  39  55  82 118 154 190 230 283 346
#     4  10  19  33  55  82 114 147 182 228 279 332
#     4  10  20  36  59  88 115 145 190 241 282 328
#     4   9  17  34  56  80 110 141 177 228 279 323
#     4  10  23  40  59  82 111 148 190 232 277 333
#     4   9  17  30  55  89 112 134 182 236 280 326
#     4  10  20  36  57  84 115 147 191 240 280 328
#
# _framework density 22.708528999999999
#
# number of rings (size 3 to 8) (size 9 to 14) (size 15 to 20)
#    0.000    2.143    1.429    1.714    2.000    5.143 
#    0.000    0.714    0.000    1.286    0.000    0.000 
#    0.000    0.000    0.000    0.000    0.000    0.000 
#
# Total GULP energy -156472.208680 kJ/mol
# GULP energy per Si atom -5588.293167 kJ/mol
# Density = 2.265684 g / cm^3
# Si number density = 22.708529 Si / 1000 Ang^3
#
#
#
# Elastic Constant Matrix: (Units=GPa)
#
#
# Indices 1 2 3 4 5 6 
#
# 1 146.7093 -6.1829 29.6788 0.0000 -25.3152 0.0000
# 2 -6.1829 58.5084 -9.1812 0.0000 -1.4077 0.0000
# 3 29.6788 -9.1812 72.3237 0.0000 -24.6089 0.0000
# 4 0.0000 0.0000 0.0000 7.7831 0.0000 -5.0736
# 5 -25.3152 -1.4077 -24.6089 0.0000 46.3269 0.0000
# 6 0.0000 0.0000 0.0000 -5.0736 0.0000 14.0168
#
#
#
# Elastic Compliance Matrix: (Units=1/GPa)
#
#
# Indices 1 2 3 4 5 6 
#
# 1 0.007806 0.000582 -0.002041 0.000000 0.003199 0.000000
# 2 0.000582 0.017648 0.002798 0.000000 0.002340 0.000000
# 3 -0.002041 0.002798 0.017905 0.000000 0.008481 0.000000
# 4 0.000000 0.000000 0.000000 0.168163 0.000000 0.060869
# 5 0.003199 0.002340 0.008481 0.000000 0.027910 0.000000
# 6 0.000000 0.000000 0.000000 0.060869 0.000000 0.093375
#
#
# Mechanical properties :
#
#
# Convention : Reuss Voigt Hill
#
# Bulk Modulus (GPa) = 21.72172 34.01897 27.87034
# Shear Modulus (GPa) = 14.47281 31.17381 22.82331
#
# Velocity S-wave (km/s) = 2.52728 3.70912 3.17370
# Velocity P-wave (km/s) = 4.25469 5.77553 5.07243
#
# Compressibility (1/GPa) = 0.04603687
#
# Stress axis : x y z
#
# Youngs Moduli (GPa) = 128.11422 56.66237 55.84972
#
# Poissons Ratio (x) = -0.03295 0.11398
# Poissons Ratio (y) = -0.07451 -0.15627
# Poissons Ratio (z) = 0.26145 -0.15855
#
# Static dielectric constant tensor:
#      x y z
#    x 1.795000 0.000000 -0.000010 
#    y 0.000000 1.892210 0.000000 
#    z -0.000010 0.000000 1.797320 
# 
# From -- ./inp_files/180705.got.cif
#   From: 2010.05.17/outbox.cif.g08.bks.cpg/sg12_91_cif.got.tgz:180705.got - 2010.06.03 13:09:07.
