data_PCOD9183340
_publ_section_title
;
Structure prediction by ZEFSAII (Michael W. Deem and Ramdas Pophale) SiO2 
 PCOD9183340
Probable space group: C 2/M
;
_chemical_formula_sum "Si O2"
_cell_formula_units_Z 56
_cell_length_a 25.283170
_cell_length_b 8.917799
_cell_length_c 15.077112
_cell_angle_alpha 90.000000
_cell_angle_beta 120.753025
_cell_angle_gamma 90.000000
_cell_volume 2921.408661
_symmetry_space_group_name_H-M "C 2/M"
_symmetry_group_IT_number 12
_symmetry_cell_setting 'monoclinic'
loop_
_space_group_symop_operation_xyz
x,y,z
-x,y,-z
-x,-y,-z
x,-y,z
1/2+x,1/2+y,z
1/2-x,1/2+y,-z
1/2-x,1/2-y,-z
1/2+x,1/2-y,z
loop_
_atom_site_type_symbol
_atom_site_label
_atom_site_fract_x
_atom_site_fract_y
_atom_site_fract_z
Si Si1 0.517550 0.676646 0.911137
Si Si2 0.370899 0.831895 0.925119
Si Si3 0.578684 0.179993 0.307560
Si Si4 0.737365 0.667310 0.897749
Si Si5 0.189484 0.680815 0.685044
Si Si6 0.818973 0.821255 0.710561
Si Si7 0.441353 0.817451 0.507204
O O1 0.522029 0.500000 0.896721
O O2 0.469138 0.751601 0.803812
O O3 0.500000 0.695101 0.000000
O O4 0.582770 0.760150 0.964944
O O5 0.304222 0.844269 0.910548
O O6 0.360041 0.726056 0.831075
O O7 0.391650 0.000000 0.916099
O O8 0.646793 0.240499 0.341215
O O9 0.558247 0.224718 0.389024
O O10 0.578988 0.000000 0.301625
O O11 0.712533 0.500000 0.891325
O O12 0.697812 0.755641 0.791053
O O13 0.750000 0.750000 0.000000
O O14 0.190931 0.500000 0.690264
O O15 0.248996 0.724789 0.675802
O O16 0.124330 0.729804 0.589441
O O17 0.820845 0.000000 0.700580
O O18 0.500000 0.765613 0.500000
O O19 0.442083 0.000000 0.505265
#
# Coordination Sequence:
#
# PCOD9183340 Si02
#       7
#     8   8   8   8   8   8   8
#     4  11  22  35  54  82 118 155 186 227 289 347
#     4  10  20  34  54  80 112 149 189 234 279 335
#     4  11  22  35  57  86 115 152 197 241 283 341
#     4  10  21  36  56  85 116 149 191 236 285 340
#     4   9  19  37  61  84 112 150 189 237 292 342
#     4  10  19  33  54  83 116 147 182 229 290 348
#     4   9  20  40  62  84 112 148 193 241 288 339
#
# _framework density 19.168835000000001
#
# number of rings (size 3 to 8) (size 9 to 14) (size 15 to 20)
#    0.000    2.000    1.429    2.143    0.000    4.571 
#    0.000    4.286    0.000    3.000    0.000    0.000 
#    0.000    0.000    0.000    0.000    0.000    0.000 
#
# Total GULP energy -156198.462901 kJ/mol
# GULP energy per Si atom -5578.516532 kJ/mol
# Density = 1.912521 g / cm^3
# Si number density = 19.168835 Si / 1000 Ang^3
#
#
#
# Elastic Constant Matrix: (Units=GPa)
#
#
# Indices 1 2 3 4 5 6 
#
# 1 99.4610 30.0536 75.9898 0.0000 1.2910 0.0000
# 2 30.0536 63.6007 37.5664 0.0000 -0.0540 0.0000
# 3 75.9898 37.5664 124.5993 0.0000 7.4085 0.0000
# 4 0.0000 0.0000 0.0000 16.6795 0.0000 -1.3940
# 5 1.2910 -0.0540 7.4085 0.0000 34.5586 0.0000
# 6 0.0000 0.0000 0.0000 -1.3940 0.0000 26.5163
#
#
#
# Elastic Compliance Matrix: (Units=1/GPa)
#
#
# Indices 1 2 3 4 5 6 
#
# 1 0.019271 -0.002561 -0.011079 0.000000 0.001651 0.000000
# 2 -0.002561 0.019526 -0.004389 0.000000 0.001067 0.000000
# 3 -0.011079 -0.004389 0.016289 0.000000 -0.003085 0.000000
# 4 0.000000 0.000000 0.000000 0.060218 0.000000 0.003166
# 5 0.001651 0.001067 -0.003085 0.000000 0.029538 0.000000
# 6 0.000000 0.000000 0.000000 0.003166 0.000000 0.037879
#
#
# Mechanical properties :
#
#
# Convention : Reuss Voigt Hill
#
# Bulk Modulus (GPa) = 52.55069 63.87564 58.21317
# Shear Modulus (GPa) = 22.21016 25.15430 23.68223
#
# Velocity S-wave (km/s) = 3.40760 3.62643 3.51872
# Velocity P-wave (km/s) = 6.55412 7.13650 6.85150
#
# Compressibility (1/GPa) = 0.01902925
#
# Stress axis : x y z
#
# Youngs Moduli (GPa) = 51.89110 51.21269 61.39062
#
# Poissons Ratio (x) = 0.13115 0.68015
# Poissons Ratio (y) = 0.13289 0.26943
# Poissons Ratio (z) = 0.57490 0.22476
#
# Static dielectric constant tensor:
#      x y z
#    x 1.713230 0.000000 0.003430 
#    y 0.000000 1.674650 0.000000 
#    z 0.003430 0.000000 1.647330 
# 
# From -- ./inp_files/238866.got.cif
#   From: 2010.05.17/outbox.cif.g08.bks.cpg/sg12_120_cif.got.tgz:238866.got - 2010.06.03 13:09:07.
