data_PCOD9183255
_publ_section_title
;
Structure prediction by ZEFSAII (Michael W. Deem and Ramdas Pophale) SiO2 
 PCOD9183255
Probable space group: C 2/M
;
_chemical_formula_sum "Si O2"
_cell_formula_units_Z 64
_cell_length_a 19.389282
_cell_length_b 7.641608
_cell_length_c 20.304358
_cell_angle_alpha 90.000000
_cell_angle_beta 84.971816
_cell_angle_gamma 90.000000
_cell_volume 2996.823927
_symmetry_space_group_name_H-M "C 2/M"
_symmetry_group_IT_number 12
_symmetry_cell_setting 'monoclinic'
loop_
_space_group_symop_operation_xyz
x,y,z
-x,y,-z
-x,-y,-z
x,-y,z
1/2+x,1/2+y,z
1/2-x,1/2+y,-z
1/2-x,1/2-y,-z
1/2+x,1/2-y,z
loop_
_atom_site_type_symbol
_atom_site_label
_atom_site_fract_x
_atom_site_fract_y
_atom_site_fract_z
Si Si1 0.162868 0.286743 0.084426
Si Si2 0.571862 0.298635 0.968366
Si Si3 0.031317 0.785404 0.428050
Si Si4 0.666391 0.699636 0.351676
Si Si5 0.908938 0.295754 0.773865
Si Si6 0.454446 0.290502 0.301754
Si Si7 0.299778 0.793969 0.275848
Si Si8 0.191786 0.206427 0.876269
O O1 0.162068 0.500000 0.079015
O O2 0.119806 0.238119 0.153553
O O3 0.241592 0.225312 0.089687
O O4 0.125188 0.208948 0.024640
O O5 0.554647 0.500000 0.951468
O O6 0.617582 0.219272 0.905276
O O7 0.500000 0.217040 0.000000
O O8 0.109419 0.722857 0.405910
O O9 0.000000 0.729345 0.500000
O O10 0.983975 0.731649 0.370109
O O11 0.032902 0.000000 0.427539
O O12 0.677891 0.500000 0.373018
O O13 0.627328 0.699529 0.284169
O O14 0.740739 0.781226 0.329162
O O15 0.890947 0.500000 0.768061
O O16 0.990866 0.273723 0.757347
O O17 0.456073 0.500000 0.300146
O O18 0.376748 0.232889 0.295505
O O19 0.294850 0.723196 0.202253
O O20 0.285787 0.000000 0.271567
O O21 0.188756 0.000000 0.891305
#
# Coordination Sequence:
#
# PCOD9183255 Si02
#       8
#     8   8   8   8   8   8   8   8
#     4  10  21  36  56  79 105 139 179 223 273 329
#     4  10  23  39  55  78 106 139 181 229 277 327
#     4   8  15  32  58  83 107 142 187 224 260 316
#     4   9  18  33  54  82 111 143 181 220 265 317
#     4  10  19  33  54  81 109 139 179 224 270 322
#     4  10  21  35  54  80 112 147 182 223 273 321
#     4  11  22  35  54  82 114 145 182 227 275 322
#     4  10  21  39  57  77 107 144 185 224 274 331
#
# _framework density 21.355943
#
# number of rings (size 3 to 8) (size 9 to 14) (size 15 to 20)
#    0.000    2.250    1.250    2.250    1.750    2.750 
#    0.000    0.625    0.000    9.375    0.000    0.000 
#    0.000    0.000    0.000    0.000    0.000    0.000 
#
# Total GULP energy -178632.178403 kJ/mol
# GULP energy per Si atom -5582.255575 kJ/mol
# Density = 2.130734 g / cm^3
# Si number density = 21.355943 Si / 1000 Ang^3
#
#
#
# Elastic Constant Matrix: (Units=GPa)
#
#
# Indices 1 2 3 4 5 6 
#
# 1 159.7020 0.3017 31.8399 0.0000 -26.2954 0.0000
# 2 0.3017 43.3797 2.0650 0.0000 -6.6782 0.0000
# 3 31.8399 2.0650 61.5966 0.0000 -29.8163 0.0000
# 4 0.0000 0.0000 0.0000 9.0117 0.0000 -6.2134
# 5 -26.2954 -6.6782 -29.8163 0.0000 35.8159 0.0000
# 6 0.0000 0.0000 0.0000 -6.2134 0.0000 -0.6813
#
#
#
# Elastic Compliance Matrix: (Units=1/GPa)
#
#
# Indices 1 2 3 4 5 6 
#
# 1 0.007279 0.000637 -0.001909 0.000000 0.003874 0.000000
# 2 0.000637 0.023978 0.002106 0.000000 0.006692 0.000000
# 3 -0.001909 0.002106 0.027909 0.000000 0.022225 0.000000
# 4 0.000000 0.000000 0.000000 0.015225 0.000000 -0.138860
# 5 0.003874 0.006692 0.022225 0.000000 0.050515 0.000000
# 6 0.000000 0.000000 0.000000 -0.138860 0.000000 -0.201398
#
#
# Mechanical properties :
#
#
# Convention : Reuss Voigt Hill
#
# Bulk Modulus (GPa) = 16.43828 37.01019 26.72423
# Shear Modulus (GPa) = -86.38139 24.19406 -31.09367
#
# Velocity S-wave (km/s) = -6.36681 3.36950 -3.81986
# Velocity P-wave (km/s) = 6.80693 5.70139 2.62949
#
# Compressibility (1/GPa) = 0.06083363
#
# Stress axis : x y z
#
# Youngs Moduli (GPa) = 137.38485 41.70541 35.83071
#
# Poissons Ratio (x) = -0.02655 0.06839
# Poissons Ratio (y) = -0.08746 -0.07547
# Poissons Ratio (z) = 0.26224 -0.08784
#
# Static dielectric constant tensor:
#      x y z
#    x 1.810370 0.000000 -0.054230 
#    y 0.000000 1.811350 0.000000 
#    z -0.054230 0.000000 1.743780 
# 
# From -- ./inp_files/314192.got.cif
#   From: 2010.05.17/outbox.cif.g08.bks.cpg/sg12_158_cif.got.tgz:314192.got - 2010.06.03 13:09:07.
