data_PCOD9183325
_publ_section_title
;
Structure prediction by ZEFSAII (Michael W. Deem and Ramdas Pophale) SiO2 
 PCOD9183325
Probable space group: C 2/M
;
_chemical_formula_sum "Si O2"
_cell_formula_units_Z 56
_cell_length_a 24.403187
_cell_length_b 7.755075
_cell_length_c 13.608590
_cell_angle_alpha 90.000000
_cell_angle_beta 77.421571
_cell_angle_gamma 90.000000
_cell_volume 2513.593084
_symmetry_space_group_name_H-M "C 2/M"
_symmetry_group_IT_number 12
_symmetry_cell_setting 'monoclinic'
loop_
_space_group_symop_operation_xyz
x,y,z
-x,y,-z
-x,-y,-z
x,-y,z
1/2+x,1/2+y,z
1/2-x,1/2+y,-z
1/2-x,1/2-y,-z
1/2+x,1/2-y,z
loop_
_atom_site_type_symbol
_atom_site_label
_atom_site_fract_x
_atom_site_fract_y
_atom_site_fract_z
Si Si1 0.600855 0.706902 0.147247
Si Si2 0.016633 0.700749 0.886215
Si Si3 0.805914 0.207009 0.038649
Si Si4 0.342832 0.207195 0.666497
Si Si5 0.559324 0.799357 0.508306
Si Si6 0.397853 0.700103 0.305646
Si Si7 0.216503 0.211762 0.731404
O O1 0.596377 0.500000 0.144232
O O2 0.538702 0.780700 0.159442
O O3 0.640016 0.770676 0.042230
O O4 0.631701 0.753970 0.236270
O O5 0.030551 0.500000 0.893459
O O6 0.068637 0.785046 0.809796
O O7 0.000000 0.773113 0.000000
O O8 0.810639 0.000000 0.040979
O O9 0.750000 0.250000 0.000000
O O10 0.798440 0.269570 0.152278
O O11 0.386836 0.275466 0.569200
O O12 0.279074 0.271835 0.681679
O O13 0.338816 0.000000 0.658763
O O14 0.500000 0.719905 0.500000
O O15 0.568784 0.790906 0.620513
O O16 0.557369 0.000000 0.478398
O O17 0.395273 0.500000 0.333736
O O18 0.334640 0.767620 0.317541
O O19 0.216143 0.000000 0.731542
#
# Coordination Sequence:
#
# PCOD9183325 Si02
#       7
#     8   8   8   8   8   8   8
#     4  11  22  35  57  90 122 154 196 249 301 348
#     4  11  24  41  61  86 117 156 199 241 290 357
#     4  10  19  33  54  82 119 157 195 236 283 343
#     4  10  20  37  61  84 116 162 203 243 292 353
#     4  10  22  40  61  86 116 153 201 251 301 356
#     4  11  23  40  63  88 119 156 194 247 305 355
#     4   9  19  36  57  84 119 159 198 238 295 355
#
# _framework density 22.278865
#
# number of rings (size 3 to 8) (size 9 to 14) (size 15 to 20)
#    0.000    1.714    1.429    3.000    0.000    5.429 
#    0.000    2.857    0.000    0.000    0.000    0.000 
#    0.000    0.000    0.000    0.000    0.000    0.000 
#
# Total GULP energy -156540.192080 kJ/mol
# GULP energy per Si atom -5590.721146 kJ/mol
# Density = 2.222816 g / cm^3
# Si number density = 22.278865 Si / 1000 Ang^3
#
#
#
# Elastic Constant Matrix: (Units=GPa)
#
#
# Indices 1 2 3 4 5 6 
#
# 1 154.3390 -1.0389 45.0789 0.0000 -6.6988 0.0000
# 2 -1.0389 32.7237 -0.9175 0.0000 -8.9420 0.0000
# 3 45.0789 -0.9175 98.3560 0.0000 -17.8516 0.0000
# 4 0.0000 0.0000 0.0000 15.2355 0.0000 3.1426
# 5 -6.6988 -8.9420 -17.8516 0.0000 34.9653 0.0000
# 6 0.0000 0.0000 0.0000 3.1426 0.0000 2.2747
#
#
#
# Elastic Compliance Matrix: (Units=1/GPa)
#
#
# Indices 1 2 3 4 5 6 
#
# 1 0.007485 0.000048 -0.003491 0.000000 -0.000336 0.000000
# 2 0.000048 0.033223 0.002019 0.000000 0.009536 0.000000
# 3 -0.003491 0.002019 0.012959 0.000000 0.006464 0.000000
# 4 0.000000 0.000000 0.000000 0.091796 0.000000 -0.126823
# 5 -0.000336 0.009536 0.006464 0.000000 0.034274 0.000000
# 6 0.000000 0.000000 0.000000 -0.126823 0.000000 0.614842
#
#
# Mechanical properties :
#
#
# Convention : Reuss Voigt Hill
#
# Bulk Modulus (GPa) = 19.67803 41.29597 30.48700
# Shear Modulus (GPa) = 6.13974 26.64817 16.39396
#
# Velocity S-wave (km/s) = 1.66188 3.46225 2.71560
# Velocity P-wave (km/s) = 3.54037 5.87870 4.85249
#
# Compressibility (1/GPa) = 0.05081809
#
# Stress axis : x y z
#
# Youngs Moduli (GPa) = 133.60769 30.09974 77.16565
#
# Poissons Ratio (x) = -0.00144 0.26938
# Poissons Ratio (y) = -0.00640 -0.15578
# Poissons Ratio (z) = 0.46642 -0.06076
#
# Static dielectric constant tensor:
#      x y z
#    x 1.810780 0.000000 -0.023770 
#    y 0.000000 1.820300 0.000000 
#    z -0.023770 0.000000 1.804360 
# 
# From -- ./inp_files/237490.got.cif
#   From: 2010.05.17/outbox.cif.g08.bks.cpg/sg12_119_cif.got.tgz:237490.got - 2010.06.03 13:09:07.
