data_PCOD9183329
_publ_section_title
;
Structure prediction by ZEFSAII (Michael W. Deem and Ramdas Pophale) SiO2 
 PCOD9183329
Probable space group: C 2/M
;
_chemical_formula_sum "Si O2"
_cell_formula_units_Z 58
_cell_length_a 19.056294
_cell_length_b 9.110657
_cell_length_c 18.788247
_cell_angle_alpha 90.000000
_cell_angle_beta 89.881433
_cell_angle_gamma 90.000000
_cell_volume 3261.921251
_symmetry_space_group_name_H-M "C 2/M"
_symmetry_group_IT_number 12
_symmetry_cell_setting 'monoclinic'
loop_
_space_group_symop_operation_xyz
x,y,z
-x,y,-z
-x,-y,-z
x,-y,z
1/2+x,1/2+y,z
1/2-x,1/2+y,-z
1/2-x,1/2-y,-z
1/2+x,1/2-y,z
loop_
_atom_site_type_symbol
_atom_site_label
_atom_site_fract_x
_atom_site_fract_y
_atom_site_fract_z
Si Si1 0.000000 0.500000 0.500000
Si Si2 0.583385 0.170821 0.009569
Si Si3 0.945707 0.675107 0.236260
Si Si4 0.051039 0.660030 0.362163
Si Si5 0.203804 0.825277 0.938875
Si Si6 0.832851 0.831123 0.708800
Si Si7 0.795148 0.174949 0.223940
Si Si8 0.932309 0.829101 0.847198
O O1 0.974999 0.625585 0.558756
O O2 0.598709 0.243887 0.085587
O O3 0.604024 0.000000 0.008175
O O4 0.500000 0.180552 0.000000
O O5 0.626245 0.259757 0.950772
O O6 0.940844 0.500000 0.223922
O O7 0.985856 0.700469 0.311357
O O8 0.869540 0.747172 0.236510
O O9 0.996459 0.749796 0.178152
O O10 0.076398 0.500000 0.333056
O O11 0.115238 0.769795 0.351780
O O12 0.226488 0.792776 0.858091
O O13 0.203990 0.000000 0.948794
O O14 0.250000 0.750000 0.000000
O O15 0.763808 0.736674 0.723313
O O16 0.879650 0.822854 0.780621
O O17 0.814029 0.000000 0.696220
O O18 0.802505 0.000000 0.230636
O O19 0.944868 0.000000 0.864880
#
# Coordination Sequence:
#
# PCOD9183329 Si02
#       8
#     2   8   8   8   8   8   8   8
#     4   8  16  36  66  92 116 148 176 206 258 324
#     4  11  23  36  51  72 100 139 182 234 288 339
#     4  10  19  33  54  83 111 141 180 227 273 328
#     4   8  17  34  60  88 112 146 175 212 260 319
#     4  11  24  39  54  73 102 143 193 240 289 342
#     4  10  20  34  54  83 111 140 181 227 268 314
#     4  11  23  36  53  78 109 149 187 233 284 330
#     4  10  20  34  53  75 104 137 180 234 283 329
#
# _framework density 17.780932
#
# number of rings (size 3 to 8) (size 9 to 14) (size 15 to 20)
#    0.414    1.517    0.000    4.138    0.000    9.931 
#    0.000    0.345    0.000    0.828    0.000    0.000 
#    0.000    0.000    0.000    0.000    0.000    0.000 
#
# Total GULP energy -161589.096431 kJ/mol
# GULP energy per Si atom -5572.037808 kJ/mol
# Density = 1.774046 g / cm^3
# Si number density = 17.780932 Si / 1000 Ang^3
#
#
#
# Elastic Constant Matrix: (Units=GPa)
#
#
# Indices 1 2 3 4 5 6 
#
# 1 76.1525 37.6174 12.7430 0.0000 -18.3543 0.0000
# 2 37.6174 71.5436 27.4831 0.0000 -12.7670 0.0000
# 3 12.7430 27.4831 81.7269 0.0000 -18.8039 0.0000
# 4 0.0000 0.0000 0.0000 25.1734 0.0000 -6.8103
# 5 -18.3543 -12.7670 -18.8039 0.0000 12.1756 0.0000
# 6 0.0000 0.0000 0.0000 -6.8103 0.0000 30.7861
#
#
#
# Elastic Compliance Matrix: (Units=1/GPa)
#
#
# Indices 1 2 3 4 5 6 
#
# 1 0.027497 -0.009970 0.009613 0.000000 0.045843 0.000000
# 2 -0.009970 0.021155 -0.006071 0.000000 -0.002222 0.000000
# 3 0.009613 -0.006071 0.022722 0.000000 0.043217 0.000000
# 4 0.000000 0.000000 0.000000 0.042253 0.000000 0.009347
# 5 0.045843 -0.002222 0.043217 0.000000 0.215653 0.000000
# 6 0.000000 0.000000 0.000000 0.009347 0.000000 0.034550
#
#
# Mechanical properties :
#
#
# Convention : Reuss Voigt Hill
#
# Bulk Modulus (GPa) = 17.08859 42.79000 29.93930
# Shear Modulus (GPa) = 12.62015 23.73230 18.17623
#
# Velocity S-wave (km/s) = 2.66702 3.65733 3.20070
# Velocity P-wave (km/s) = 4.37212 6.47704 5.52574
#
# Compressibility (1/GPa) = 0.05851856
#
# Stress axis : x y z
#
# Youngs Moduli (GPa) = 36.36789 47.26994 44.01008
#
# Poissons Ratio (x) = 0.47127 -0.42306
# Poissons Ratio (y) = 0.36258 0.26717
# Poissons Ratio (z) = -0.34960 0.28696
#
# Static dielectric constant tensor:
#      x y z
#    x 1.629290 0.000000 0.006430 
#    y 0.000000 1.607780 0.000000 
#    z 0.006430 0.000000 1.592920 
# 
# From -- ./inp_files/313918.got.cif
#   From: 2010.05.17/outbox.cif.g08.bks.cpg/sg12_157_cif.got.tgz:313918.got - 2010.06.03 13:09:07.
