data_PCOD9183229
_publ_section_title
;
Structure prediction by ZEFSAII (Michael W. Deem and Ramdas Pophale) SiO2 
 PCOD9183229
Probable space group: C 2/M
;
_chemical_formula_sum "Si O2"
_cell_formula_units_Z 64
_cell_length_a 20.441691
_cell_length_b 14.742033
_cell_length_c 25.411054
_cell_angle_alpha 90.000000
_cell_angle_beta 19.588462
_cell_angle_gamma 90.000000
_cell_volume 2567.326012
_symmetry_space_group_name_H-M "C 2/M"
_symmetry_group_IT_number 12
_symmetry_cell_setting 'monoclinic'
loop_
_space_group_symop_operation_xyz
x,y,z
-x,y,-z
-x,-y,-z
x,-y,z
1/2+x,1/2+y,z
1/2-x,1/2+y,-z
1/2-x,1/2-y,-z
1/2+x,1/2-y,z
loop_
_atom_site_type_symbol
_atom_site_label
_atom_site_fract_x
_atom_site_fract_y
_atom_site_fract_z
Si Si1 0.647440 0.139705 0.529967
Si Si2 0.628309 0.359066 0.534936
Si Si3 0.666256 0.356942 0.714516
Si Si4 0.272037 0.106314 0.988535
Si Si5 0.827380 0.352513 0.275539
Si Si6 0.778968 0.603643 0.869796
Si Si7 0.706766 0.855741 0.816535
Si Si8 0.597966 0.346895 0.875503
O O1 0.654111 0.249256 0.519835
O O2 0.778339 0.108921 0.480578
O O3 0.430317 0.110878 0.708890
O O4 0.707114 0.103486 0.428151
O O5 0.729322 0.390948 0.403379
O O6 0.398542 0.379915 0.704151
O O7 0.725430 0.253380 0.680785
O O8 0.688074 0.396770 0.756951
O O9 0.447210 0.358041 0.854562
O O10 0.436422 0.142137 0.902471
O O11 0.373931 0.120970 0.854208
O O12 0.250482 0.000000 0.015191
O O13 0.768462 0.388557 0.262744
O O14 0.703941 0.500000 0.930707
O O15 0.611300 0.677936 0.992374
O O16 0.699928 0.745164 0.815743
O O17 0.500000 0.881729 0.000000
O O18 0.500000 0.396449 0.000000
#
# Coordination Sequence:
#
# PCOD9183229 Si02
#       8
#     8   8   8   8   8   8   8   8
#     4  10  19  33  54  80 112 136 176 230 273 319
#     4  10  20  33  52  82 110 142 173 223 282 320
#     4   9  20  32  55  84 106 143 177 230 276 319
#     4  10  20  35  54  78 109 144 184 225 271 326
#     4  10  19  35  55  79 111 143 183 222 273 330
#     4  10  20  35  55  78 109 148 186 219 264 332
#     4  10  20  32  54  81 111 141 178 226 275 325
#     4   9  18  35  53  77 110 144 179 220 267 329
#
# _framework density 24.928660000000001
#
# number of rings (size 3 to 8) (size 9 to 14) (size 15 to 20)
#    0.000    2.250    1.250    2.250    1.750    0.750 
#    0.000    1.875    0.000    3.375    0.000    0.000 
#    0.000    0.000    0.000    0.000    0.000    0.000 
#
# Total GULP energy -178348.633343 kJ/mol
# GULP energy per Si atom -5573.394792 kJ/mol
# Density = 2.487192 g / cm^3
# Si number density = 24.928660 Si / 1000 Ang^3
#
#
#
# Elastic Constant Matrix: (Units=GPa)
#
#
# Indices 1 2 3 4 5 6 
#
# 1 94.5304 9.9141 13.2661 -0.0074 22.0040 0.0115
# 2 9.9141 68.5180 -4.2641 0.0192 3.3376 -0.0118
# 3 13.2661 -4.2641 79.3691 -0.0524 20.2236 -0.0006
# 4 -0.0074 0.0192 -0.0524 -18.7704 -0.0175 0.3510
# 5 22.0040 3.3376 20.2236 -0.0175 49.0968 -0.0016
# 6 0.0115 -0.0118 -0.0006 0.3510 -0.0016 -4.5869
#
#
#
# Elastic Compliance Matrix: (Units=1/GPa)
#
#
# Indices 1 2 3 4 5 6 
#
# 1 0.012006 -0.001549 -0.000833 0.000001 -0.004932 0.000036
# 2 -0.001549 0.014940 0.001277 0.000012 -0.000848 -0.000041
# 3 -0.000833 0.001277 0.014227 -0.000033 -0.005574 -0.000008
# 4 0.000001 0.000012 -0.000033 -0.053351 -0.000007 -0.004082
# 5 -0.004932 -0.000848 -0.005574 -0.000007 0.024932 -0.000019
# 6 0.000036 -0.000041 -0.000008 -0.004082 -0.000019 -0.218326
#
#
# Mechanical properties :
#
#
# Convention : Reuss Voigt Hill
#
# Bulk Modulus (GPa) = 25.66453 31.13884 28.40168
# Shear Modulus (GPa) = -26.26389 20.04799 -3.10795
#
# Velocity S-wave (km/s) = -3.24938 2.83894 -1.11779
# Velocity P-wave (km/s) = 1.93919 4.82332 3.12282
#
# Compressibility (1/GPa) = 0.03896429
#
# Stress axis : x y z
#
# Youngs Moduli (GPa) = 83.29117 66.93624 70.28643
#
# Poissons Ratio (x) = 0.10367 0.05856
# Poissons Ratio (y) = 0.12900 -0.08979
# Poissons Ratio (z) = 0.06939 -0.08551
#
# Static dielectric constant tensor:
#      x y z
#    x 2.110460 0.000000 0.041280 
#    y 0.000000 1.936240 0.000070 
#    z 0.041280 0.000070 2.018550 
# 
# From -- ./inp_files/366786.got.cif
#   From: 2010.05.17/outbox.cif.g08.bks.cpg/sg12_184_cif.got.tgz:366786.got - 2010.06.03 13:09:07.
