data_PCOD9183202
_publ_section_title
;
Structure prediction by ZEFSAII (Michael W. Deem and Ramdas Pophale) SiO2 
 PCOD9183202
Probable space group: C 2/M
;
_chemical_formula_sum "Si O2"
_cell_formula_units_Z 56
_cell_length_a 22.059487
_cell_length_b 12.824483
_cell_length_c 11.728823
_cell_angle_alpha 90.000000
_cell_angle_beta 110.045486
_cell_angle_gamma 90.000000
_cell_volume 3117.093860
_symmetry_space_group_name_H-M "C 2/M"
_symmetry_group_IT_number 12
_symmetry_cell_setting 'monoclinic'
loop_
_space_group_symop_operation_xyz
x,y,z
-x,y,-z
-x,-y,-z
x,-y,z
1/2+x,1/2+y,z
1/2-x,1/2+y,-z
1/2-x,1/2-y,-z
1/2+x,1/2-y,z
loop_
_atom_site_type_symbol
_atom_site_label
_atom_site_fract_x
_atom_site_fract_y
_atom_site_fract_z
Si Si1 0.815350 0.117440 0.210779
Si Si2 0.489599 0.383711 0.127553
Si Si3 0.916307 0.266677 0.685530
Si Si4 0.370172 0.772874 0.076255
Si Si5 0.427204 0.309867 0.445580
Si Si6 0.455850 0.117341 0.303100
Si Si7 0.171834 0.623208 0.188740
O O1 0.818429 0.208030 0.117203
O O2 0.876866 0.129937 0.333674
O O3 0.749353 0.129208 0.238758
O O4 0.815166 0.000000 0.160713
O O5 0.480717 0.500000 0.168964
O O6 0.550121 0.325939 0.221955
O O7 0.427597 0.311869 0.105307
O O8 0.500000 0.390217 0.000000
O O9 0.899794 0.216770 0.552491
O O10 0.861422 0.321239 0.724818
O O11 0.974323 0.349167 0.700302
O O12 0.401826 0.865006 0.171289
O O13 0.350180 0.817698 0.941366
O O14 0.500000 0.356909 0.500000
O O15 0.438697 0.200012 0.389107
O O16 0.456380 0.000000 0.344336
O O17 0.153951 0.500000 0.172740
#
# Coordination Sequence:
#
# PCOD9183202 Si02
#       7
#     8   8   8   8   8   8   8
#     4  10  22  38  56  77 103 141 183 220 263 317
#     4  10  19  33  54  80 107 135 172 215 263 314
#     4  10  20  34  53  81 111 141 171 217 265 312
#     4  10  19  35  54  78 107 139 175 224 264 307
#     4   9  20  36  56  80 105 134 177 222 269 312
#     4   9  18  32  54  81 107 137 176 217 260 310
#     4  11  22  35  53  78 109 145 180 214 262 321
#
# _framework density 17.965451000000002
#
# number of rings (size 3 to 8) (size 9 to 14) (size 15 to 20)
#    0.000    2.143    1.429    2.571    0.000    4.571 
#    0.000    2.143    0.000    4.286    0.000    0.000 
#    0.000    0.000    0.000    0.000    0.000    0.000 
#
# Total GULP energy -156133.141589 kJ/mol
# GULP energy per Si atom -5576.183628 kJ/mol
# Density = 1.792456 g / cm^3
# Si number density = 17.965451 Si / 1000 Ang^3
#
#
#
# Elastic Constant Matrix: (Units=GPa)
#
#
# Indices 1 2 3 4 5 6 
#
# 1 74.7846 31.1641 26.2927 0.0000 -13.1964 0.0000
# 2 31.1641 84.6448 8.4696 0.0000 1.3092 0.0000
# 3 26.2927 8.4696 78.2984 0.0000 -11.0616 0.0000
# 4 0.0000 0.0000 0.0000 2.5863 0.0000 -8.7977
# 5 -13.1964 1.3092 -11.0616 0.0000 27.2503 0.0000
# 6 0.0000 0.0000 0.0000 -8.7977 0.0000 3.5708
#
#
#
# Elastic Compliance Matrix: (Units=1/GPa)
#
#
# Indices 1 2 3 4 5 6 
#
# 1 0.019153 -0.006709 -0.004615 0.000000 0.007724 0.000000
# 2 -0.006709 0.014329 0.000156 0.000000 -0.003874 0.000000
# 3 -0.004615 0.000156 0.014839 0.000000 0.003781 0.000000
# 4 0.000000 0.000000 0.000000 -0.052385 0.000000 -0.129065
# 5 0.007724 -0.003874 0.003781 0.000000 0.042158 0.000000
# 6 0.000000 0.000000 0.000000 -0.129065 0.000000 -0.037941
#
#
# Mechanical properties :
#
#
# Convention : Reuss Voigt Hill
#
# Bulk Modulus (GPa) = 38.48559 41.06451 39.77505
# Shear Modulus (GPa) = 160.51023 18.13490 89.32256
#
# Velocity S-wave (km/s) = 9.46244 3.18060 7.05883
# Velocity P-wave (km/s) = 11.86812 6.03286 9.41402
#
# Compressibility (1/GPa) = 0.02598375
#
# Stress axis : x y z
#
# Youngs Moduli (GPa) = 52.21082 69.79019 67.39192
#
# Poissons Ratio (x) = 0.46825 0.31099
# Poissons Ratio (y) = 0.35030 -0.01050
# Poissons Ratio (z) = 0.24093 -0.01087
#
# Static dielectric constant tensor:
#      x y z
#    x 1.620230 0.000000 -0.002670 
#    y 0.000000 1.605850 0.000000 
#    z -0.002670 0.000000 1.629610 
# 
# From -- ./inp_files/164836.got.cif
#   From: 2010.05.17/outbox.cif.g08.bks.cpg/sg12_83_cif.got.tgz:164836.got - 2010.06.03 13:09:07.
