data_PCOD9183563
_publ_section_title
;
Structure prediction by ZEFSAII (Michael W. Deem and Ramdas Pophale) SiO2 
 PCOD9183563
Probable space group: C 2/M
;
_chemical_formula_sum "Si O2"
_cell_formula_units_Z 64
_cell_length_a 13.873053
_cell_length_b 12.920023
_cell_length_c 18.600766
_cell_angle_alpha 90.000000
_cell_angle_beta 88.661979
_cell_angle_gamma 90.000000
_cell_volume 3333.095276
_symmetry_space_group_name_H-M "C 2/M"
_symmetry_group_IT_number 12
_symmetry_cell_setting 'monoclinic'
loop_
_space_group_symop_operation_xyz
x,y,z
-x,y,-z
-x,-y,-z
x,-y,z
1/2+x,1/2+y,z
1/2-x,1/2+y,-z
1/2-x,1/2-y,-z
1/2+x,1/2-y,z
loop_
_atom_site_type_symbol
_atom_site_label
_atom_site_fract_x
_atom_site_fract_y
_atom_site_fract_z
Si Si1 0.810915 0.619996 0.608216
Si Si2 0.757485 0.882725 0.777908
Si Si3 0.916540 0.224937 0.701752
Si Si4 0.545031 0.884723 0.921105
Si Si5 0.357589 0.115024 0.825680
Si Si6 0.136018 0.237118 0.676597
Si Si7 0.230609 0.259098 0.914469
Si Si8 0.399041 0.119296 0.460376
O O1 0.839423 0.500000 0.624072
O O2 0.883172 0.711584 0.632223
O O3 0.710937 0.649266 0.649296
O O4 0.814835 0.626618 0.521700
O O5 0.851036 0.871780 0.725177
O O6 0.682187 0.804049 0.741000
O O7 0.779122 0.845219 0.859672
O O8 0.721752 0.000000 0.778217
O O9 0.882387 0.308229 0.761624
O O10 0.029153 0.201854 0.699856
O O11 0.455183 0.884701 0.869968
O O12 0.620169 0.793355 0.907784
O O13 0.591420 0.000000 0.917254
O O14 0.500000 0.873081 0.000000
O O15 0.270454 0.155645 0.876682
O O16 0.337149 0.000000 0.800113
O O17 0.121943 0.310515 0.607497
O O18 0.250000 0.250000 0.000000
O O19 0.500000 0.142038 0.500000
O O20 0.406416 0.000000 0.436112
#
# Coordination Sequence:
#
# PCOD9183563 Si02
#       8
#     8   8   8   8   8   8   8   8
#     4  10  21  36  55  85 119 152 192 236 287 339
#     4  10  23  39  57  85 114 145 189 237 285 340
#     4  10  21  36  56  82 112 149 188 232 281 337
#     4  10  19  33  55  82 106 137 181 227 276 330
#     4  10  21  36  56  81 109 143 184 229 277 334
#     4  11  21  37  61  85 114 155 195 237 284 336
#     4  11  21  35  57  83 111 142 179 232 286 336
#     4  10  19  33  58  87 116 152 194 242 288 333
#
# _framework density 19.201371000000002
#
# number of rings (size 3 to 8) (size 9 to 14) (size 15 to 20)
#    0.000    1.750    2.500    2.250    0.000    3.500 
#    0.000    0.000    0.000    9.000    0.000    0.000 
#    0.000    0.000    0.000    0.000    0.000    0.000 
#
# Total GULP energy -178255.202883 kJ/mol
# GULP energy per Si atom -5570.475090 kJ/mol
# Density = 1.915767 g / cm^3
# Si number density = 19.201371 Si / 1000 Ang^3
#
#
#
# Elastic Constant Matrix: (Units=GPa)
#
#
# Indices 1 2 3 4 5 6 
#
# 1 99.4995 10.8838 0.9001 0.0000 -18.0171 0.0000
# 2 10.8838 38.9718 8.0720 0.0000 -5.0825 0.0000
# 3 0.9001 8.0720 80.5233 0.0000 -6.4551 0.0000
# 4 0.0000 0.0000 0.0000 14.4399 0.0000 1.2371
# 5 -18.0171 -5.0825 -6.4551 0.0000 28.9800 0.0000
# 6 0.0000 0.0000 0.0000 1.2371 0.0000 21.1449
#
#
#
# Elastic Compliance Matrix: (Units=1/GPa)
#
#
# Indices 1 2 3 4 5 6 
#
# 1 0.011565 -0.002468 0.000672 0.000000 0.006907 0.000000
# 2 -0.002468 0.027214 -0.002485 0.000000 0.002685 0.000000
# 3 0.000672 -0.002485 0.012889 0.000000 0.002853 0.000000
# 4 0.000000 0.000000 0.000000 0.069601 0.000000 -0.004072
# 5 0.006907 0.002685 0.002853 0.000000 0.039907 0.000000
# 6 0.000000 0.000000 0.000000 -0.004072 0.000000 0.047531
#
#
# Mechanical properties :
#
#
# Convention : Reuss Voigt Hill
#
# Bulk Modulus (GPa) = 23.19942 28.74518 25.97230
# Shear Modulus (GPa) = 21.58540 26.18888 23.88714
#
# Velocity S-wave (km/s) = 3.35649 3.69712 3.53091
# Velocity P-wave (km/s) = 5.20862 5.76435 5.49352
#
# Compressibility (1/GPa) = 0.04310452
#
# Stress axis : x y z
#
# Youngs Moduli (GPa) = 86.46875 36.74615 77.58513
#
# Poissons Ratio (x) = 0.09070 -0.05212
# Poissons Ratio (y) = 0.21342 0.19282
# Poissons Ratio (z) = -0.05809 0.09132
#
# Static dielectric constant tensor:
#      x y z
#    x 1.664640 0.000000 -0.036540 
#    y 0.000000 1.657840 0.000000 
#    z -0.036540 0.000000 1.688970 
# 
# From -- ./inp_files/269314.got.cif
#   From: 2010.05.17/outbox.cif.g08.bks.cpg/sg12_135_cif.got.tgz:269314.got - 2010.06.03 13:09:07.
