data_PCOD9183669
_publ_section_title
;
Structure prediction by ZEFSAII (Michael W. Deem and Ramdas Pophale) SiO2 
 PCOD9183669
Probable space group: C 2/M
;
_chemical_formula_sum "Si O2"
_cell_formula_units_Z 56
_cell_length_a 12.957577
_cell_length_b 14.637768
_cell_length_c 14.472468
_cell_angle_alpha 90.000000
_cell_angle_beta 125.581795
_cell_angle_gamma 90.000000
_cell_volume 2232.463579
_symmetry_space_group_name_H-M "C 2/M"
_symmetry_group_IT_number 12
_symmetry_cell_setting 'monoclinic'
loop_
_space_group_symop_operation_xyz
x,y,z
-x,y,-z
-x,-y,-z
x,-y,z
1/2+x,1/2+y,z
1/2-x,1/2+y,-z
1/2-x,1/2-y,-z
1/2+x,1/2-y,z
loop_
_atom_site_type_symbol
_atom_site_label
_atom_site_fract_x
_atom_site_fract_y
_atom_site_fract_z
Si Si1 0.569263 0.655026 0.437032
Si Si2 0.419597 0.892870 0.865051
Si Si3 0.756697 0.389865 0.287104
Si Si4 0.843800 0.358373 0.536306
Si Si5 0.336076 0.392436 0.187894
Si Si6 0.520664 0.388298 0.906214
Si Si7 0.070645 0.600962 0.775783
O O1 0.500000 0.658304 0.500000
O O2 0.709577 0.610152 0.510468
O O3 0.612616 0.754351 0.424038
O O4 0.464878 0.614516 0.313971
O O5 0.281765 0.853104 0.815835
O O6 0.503878 0.851361 0.827272
O O7 0.402005 0.000000 0.827812
O O8 0.500000 0.890705 0.000000
O O9 0.763496 0.500000 0.283890
O O10 0.827647 0.364886 0.417785
O O11 0.610089 0.365213 0.213743
O O12 0.819174 0.352479 0.225750
O O13 0.959947 0.409778 0.642411
O O14 0.305266 0.500000 0.160201
O O15 0.364345 0.356870 0.099217
O O16 0.529602 0.500000 0.915547
O O17 0.500000 0.355385 0.000000
O O18 0.117686 0.500000 0.831070
#
# Coordination Sequence:
#
# PCOD9183669 Si02
#       7
#     8   8   8   8   8   8   8
#     4  11  23  37  56  80 109 151 186 227 282 338
#     4   9  19  34  55  84 114 149 190 231 279 332
#     4  10  19  33  55  84 115 146 187 234 279 332
#     4  11  22  37  55  81 111 147 189 233 282 338
#     4  10  20  36  57  83 116 148 186 234 278 334
#     4   9  18  31  52  82 113 146 182 228 283 330
#     4  10  20  33  54  81 110 145 185 233 281 330
#
# _framework density 25.084396000000002
#
# number of rings (size 3 to 8) (size 9 to 14) (size 15 to 20)
#    0.000    2.000    1.429    2.571    2.000    2.000 
#    0.000    0.000    0.000    1.714    0.000    0.000 
#    0.000    0.000    0.000    0.000    0.000    0.286 
#
# Total GULP energy -156472.684627 kJ/mol
# GULP energy per Si atom -5588.310165 kJ/mol
# Density = 2.502730 g / cm^3
# Si number density = 25.084396 Si / 1000 Ang^3
#
#
#
# Elastic Constant Matrix: (Units=GPa)
#
#
# Indices 1 2 3 4 5 6 
#
# 1 203.5146 6.1963 18.0943 0.0000 -26.1704 0.0000
# 2 6.1963 58.5620 -9.0291 0.0000 0.5353 0.0000
# 3 18.0943 -9.0291 48.4270 0.0000 -23.1755 0.0000
# 4 0.0000 0.0000 0.0000 3.7768 0.0000 68.4446
# 5 -26.1704 0.5353 -23.1755 0.0000 44.5547 0.0000
# 6 0.0000 0.0000 0.0000 68.4446 0.0000 4.0460
#
#
#
# Elastic Compliance Matrix: (Units=1/GPa)
#
#
# Indices 1 2 3 4 5 6 
#
# 1 0.005360 -0.000721 -0.000834 0.000000 0.002723 0.000000
# 2 -0.000721 0.017812 0.004374 0.000000 0.001638 0.000000
# 3 -0.000834 0.004374 0.028649 0.000000 0.014360 0.000000
# 4 0.000000 0.000000 0.000000 -0.000866 0.000000 0.014658
# 5 0.002723 0.001638 0.014360 0.000000 0.031493 0.000000
# 6 0.000000 0.000000 0.000000 0.014658 0.000000 -0.000809
#
#
# Mechanical properties :
#
#
# Convention : Reuss Voigt Hill
#
# Bulk Modulus (GPa) = 17.40356 37.89185 27.64771
# Shear Modulus (GPa) = 52.54748 30.15831 41.35289
#
# Velocity S-wave (km/s) = 4.58189 3.47114 4.06464
# Velocity P-wave (km/s) = 5.91141 5.58602 5.75102
#
# Compressibility (1/GPa) = 0.05745951
#
# Stress axis : x y z
#
# Youngs Moduli (GPa) = 186.57028 56.14329 34.90562
#
# Poissons Ratio (x) = 0.04045 0.02910
# Poissons Ratio (y) = 0.13444 -0.15268
# Poissons Ratio (z) = 0.15556 -0.24557
#
# Static dielectric constant tensor:
#      x y z
#    x 2.043310 0.000000 0.003730 
#    y 0.000000 2.045010 0.000000 
#    z 0.003730 0.000000 1.934780 
# 
# From -- ./inp_files/206774.got.cif
#   From: 2010.05.17/outbox.cif.g08.bks.cpg/sg12_104_cif.got.tgz:206774.got - 2010.06.03 13:09:07.
