data_PCOD9183206
_publ_section_title
;
Structure prediction by ZEFSAII (Michael W. Deem and Ramdas Pophale) SiO2 
 PCOD9183206
Probable space group: C 2/M
;
_chemical_formula_sum "Si O2"
_cell_formula_units_Z 56
_cell_length_a 9.241686
_cell_length_b 19.404758
_cell_length_c 27.066701
_cell_angle_alpha 90.000000
_cell_angle_beta 41.089531
_cell_angle_gamma 90.000000
_cell_volume 3190.194263
_symmetry_space_group_name_H-M "C 2/M"
_symmetry_group_IT_number 12
_symmetry_cell_setting 'monoclinic'
loop_
_space_group_symop_operation_xyz
x,y,z
-x,y,-z
-x,-y,-z
x,-y,z
1/2+x,1/2+y,z
1/2-x,1/2+y,-z
1/2-x,1/2-y,-z
1/2+x,1/2-y,z
loop_
_atom_site_type_symbol
_atom_site_label
_atom_site_fract_x
_atom_site_fract_y
_atom_site_fract_z
Si Si1 0.108068 0.419095 0.421679
Si Si2 0.392013 0.917943 0.136933
Si Si3 0.732757 0.579787 0.074838
Si Si4 0.135679 0.324021 0.577657
Si Si5 0.583356 0.311795 0.400060
Si Si6 0.817050 0.173818 0.002806
Si Si7 0.384295 0.580600 0.693342
O O1 0.076105 0.500000 0.432642
O O2 0.365516 0.404891 0.354751
O O3 0.000000 0.388035 0.500000
O O4 0.993148 0.392531 0.402195
O O5 0.219271 0.902910 0.136617
O O6 0.277301 0.909228 0.219135
O O7 0.452192 0.000000 0.115821
O O8 0.603289 0.868378 0.077727
O O9 0.668224 0.500000 0.083394
O O10 0.623336 0.629234 0.062160
O O11 0.000000 0.584227 0.000000
O O12 0.350245 0.327679 0.486888
O O13 0.230399 0.311264 0.606765
O O14 0.967803 0.263079 0.608086
O O15 0.649944 0.367743 0.342727
O O16 0.750000 0.250000 0.000000
O O17 0.000000 0.177160 0.000000
O O18 0.372583 0.500000 0.681208
#
# Coordination Sequence:
#
# PCOD9183206 Si02
#       7
#     8   8   8   8   8   8   8
#     4  10  19  33  54  80 107 140 185 229 270 323
#     4   9  19  37  59  83 113 148 182 220 276 335
#     4   8  15  31  55  80 107 141 180 217 259 318
#     4  10  20  33  52  75 104 139 189 237 278 325
#     4  10  20  33  52  77 104 143 185 232 281 331
#     4  11  21  35  57  85 114 146 183 226 267 321
#     4  10  20  36  57  81 113 148 181 227 283 330
#
# _framework density 17.553788999999998
#
# number of rings (size 3 to 8) (size 9 to 14) (size 15 to 20)
#    0.000    2.286    1.429    3.429    2.000    1.714 
#    0.000    8.571    0.000    3.429    0.000    0.000 
#    0.000    0.000    0.000    0.000    0.000    0.000 
#
# Total GULP energy -155904.207448 kJ/mol
# GULP energy per Si atom -5568.007409 kJ/mol
# Density = 1.751384 g / cm^3
# Si number density = 17.553789 Si / 1000 Ang^3
#
#
#
# Elastic Constant Matrix: (Units=GPa)
#
#
# Indices 1 2 3 4 5 6 
#
# 1 128.7038 12.2105 31.4918 0.0011 0.9785 0.0006
# 2 12.2105 -88.8718 35.6912 0.0012 -32.2187 -0.0022
# 3 31.4918 35.6912 66.8807 -0.0012 9.7816 -0.0077
# 4 0.0011 0.0012 -0.0012 17.8233 -0.0032 4.4285
# 5 0.9785 -32.2187 9.7816 -0.0032 11.4140 -0.0012
# 6 0.0006 -0.0022 -0.0077 4.4285 -0.0012 34.4738
#
#
#
# Elastic Compliance Matrix: (Units=1/GPa)
#
#
# Indices 1 2 3 4 5 6 
#
# 1 0.008780 -0.000643 -0.003905 0.000000 0.000777 -0.000001
# 2 -0.000643 -0.003980 0.004644 -0.000002 -0.015159 0.000001
# 3 -0.003905 0.004644 0.014115 0.000000 0.001347 0.000004
# 4 0.000000 -0.000002 0.000000 0.057956 0.000009 -0.007445
# 5 0.000777 -0.015159 0.001347 0.000009 0.043601 0.000000
# 6 -0.000001 0.000001 0.000004 -0.007445 0.000000 0.029964
#
#
# Mechanical properties :
#
#
# Convention : Reuss Voigt Hill
#
# Bulk Modulus (GPa) = 52.33568 29.49996 40.91782
# Shear Modulus (GPa) = 31.92565 14.56352 23.24458
#
# Velocity S-wave (km/s) = 4.26929 2.88349 3.64289
# Velocity P-wave (km/s) = 7.36082 5.28469 6.40740
#
# Compressibility (1/GPa) = 0.01910742
#
# Stress axis : x y z
#
# Youngs Moduli (GPa) = 113.89111 -251.25881 70.84518
#
# Poissons Ratio (x) = -0.16168 0.27662
# Poissons Ratio (y) = 0.07329 -0.32900
# Poissons Ratio (z) = 0.44470 1.16684
#
# Static dielectric constant tensor:
#      x y z
#    x 1.571000 -0.000010 0.030510 
#    y -0.000010 1.610000 0.000000 
#    z 0.030510 0.000000 1.617190 
# 
# From -- ./inp_files/356641.got.cif
#   From: 2010.05.17/outbox.cif.g08.bks.cpg/sg12_179_cif.got.tgz:356641.got - 2010.06.03 13:09:07.
