data_PCOD9183925
_publ_section_title
;
Structure prediction by ZEFSAII (Michael W. Deem and Ramdas Pophale) SiO2 
 PCOD9183925
Probable space group: C 2/M
;
_chemical_formula_sum "Si O2"
_cell_formula_units_Z 64
_cell_length_a 9.610676
_cell_length_b 18.165388
_cell_length_c 28.984055
_cell_angle_alpha 90.000000
_cell_angle_beta 142.430421
_cell_angle_gamma 90.000000
_cell_volume 3085.256992
_symmetry_space_group_name_H-M "C 2/M"
_symmetry_group_IT_number 12
_symmetry_cell_setting 'monoclinic'
loop_
_space_group_symop_operation_xyz
x,y,z
-x,y,-z
-x,-y,-z
x,-y,z
1/2+x,1/2+y,z
1/2-x,1/2+y,-z
1/2-x,1/2-y,-z
1/2+x,1/2-y,z
loop_
_atom_site_type_symbol
_atom_site_label
_atom_site_fract_x
_atom_site_fract_y
_atom_site_fract_z
Si Si1 0.846264 0.415157 0.914319
Si Si2 0.019487 0.414319 0.222592
Si Si3 0.643398 0.586506 0.600373
Si Si4 0.635119 0.353173 0.182849
Si Si5 0.482056 0.180510 0.639895
Si Si6 0.155883 0.685438 0.171721
Si Si7 0.145786 0.179531 0.336332
Si Si8 0.753804 0.912686 0.559762
O O1 0.864124 0.500000 0.903363
O O2 0.586283 0.397169 0.859880
O O3 0.915749 0.359446 0.892054
O O4 0.000000 0.405771 0.000000
O O5 0.028621 0.500000 0.211047
O O6 0.772520 0.392833 0.177947
O O7 0.193331 0.404857 0.311473
O O8 0.083365 0.359206 0.198334
O O9 0.625172 0.500000 0.585610
O O10 0.403317 0.616263 0.556568
O O11 0.771167 0.625661 0.592065
O O12 0.817578 0.346068 0.272452
O O13 0.573311 0.269421 0.152646
O O14 0.615037 0.186098 0.626990
O O15 0.391539 0.257855 0.635199
O O16 0.433300 0.688667 0.246051
O O17 0.128457 0.104171 0.360273
O O18 0.500000 0.882447 0.500000
O O19 0.739478 0.000000 0.549083
#
# Coordination Sequence:
#
# PCOD9183925 Si02
#       8
#     8   8   8   8   8   8   8   8
#     4  11  24  41  58  84 123 158 193 245 302 353
#     4  10  19  33  56  84 113 144 193 244 290 342
#     4   9  18  34  54  81 115 150 188 239 293 342
#     4  10  21  37  59  86 116 155 192 242 298 349
#     4  10  21  35  59  88 116 150 190 249 292 345
#     4  11  21  36  61  87 113 151 199 247 288 351
#     4  11  21  36  59  86 116 151 194 244 288 348
#     4  10  21  38  59  85 121 160 195 238 293 352
#
# _framework density 20.743814
#
# number of rings (size 3 to 8) (size 9 to 14) (size 15 to 20)
#    0.000    1.750    2.500    2.250    7.000    2.000 
#    0.000    3.750    0.000    4.500    0.000    0.000 
#    0.000    0.000    0.000    0.000    0.000    0.000 
#
# Total GULP energy -178746.317487 kJ/mol
# GULP energy per Si atom -5585.822421 kJ/mol
# Density = 2.069660 g / cm^3
# Si number density = 20.743814 Si / 1000 Ang^3
#
#
#
# Elastic Constant Matrix: (Units=GPa)
#
#
# Indices 1 2 3 4 5 6 
#
# 1 126.8779 15.5269 9.7498 -0.0001 8.5887 0.0000
# 2 15.5269 45.0901 11.8507 0.0001 -5.5787 0.0000
# 3 9.7498 11.8507 30.5689 -0.0002 -4.5262 -0.0002
# 4 -0.0001 0.0001 -0.0002 30.3575 -0.0001 15.7937
# 5 8.5887 -5.5787 -4.5262 -0.0001 24.9658 0.0000
# 6 0.0000 0.0000 -0.0002 15.7937 0.0000 30.8822
#
#
#
# Elastic Compliance Matrix: (Units=1/GPa)
#
#
# Indices 1 2 3 4 5 6 
#
# 1 0.008683 -0.002900 -0.002243 0.000000 -0.004042 0.000000
# 2 -0.002900 0.026035 -0.008384 0.000000 0.005295 0.000000
# 3 -0.002243 -0.008384 0.037523 0.000000 0.005701 0.000000
# 4 0.000000 0.000000 0.000000 0.044883 0.000000 -0.022954
# 5 -0.004042 0.005295 0.005701 0.000000 0.043662 0.000000
# 6 0.000000 0.000000 0.000000 -0.022954 0.000000 0.044120
#
#
# Mechanical properties :
#
#
# Convention : Reuss Voigt Hill
#
# Bulk Modulus (GPa) = 22.13109 30.75464 26.44287
# Shear Modulus (GPa) = 20.24108 28.26840 24.25474
#
# Velocity S-wave (km/s) = 3.12711 3.69553 3.42314
# Velocity P-wave (km/s) = 4.87138 5.75043 5.32906
#
# Compressibility (1/GPa) = 0.04518530
#
# Stress axis : x y z
#
# Youngs Moduli (GPa) = 115.17416 38.40950 26.65041
#
# Poissons Ratio (x) = 0.11140 0.05978
# Poissons Ratio (y) = 0.33404 0.22344
# Poissons Ratio (z) = 0.25837 0.32203
#
# Static dielectric constant tensor:
#      x y z
#    x 1.741570 0.000000 0.010180 
#    y 0.000000 1.741430 0.000000 
#    z 0.010180 0.000000 1.752970 
# 
# From -- ./inp_files/372909.got.cif
#   From: 2010.05.17/outbox.cif.g08.bks.cpg/sg12_187_cif.got.tgz:372909.got - 2010.06.03 13:09:07.
