data_PCOD9183065
_publ_section_title
;
Structure prediction by ZEFSAII (Michael W. Deem and Ramdas Pophale) SiO2 
 PCOD9183065
Probable space group: C 2/M
;
_chemical_formula_sum "Si O2"
_cell_formula_units_Z 48
_cell_length_a 14.956667
_cell_length_b 7.534983
_cell_length_c 16.428929
_cell_angle_alpha 90.000000
_cell_angle_beta 101.773428
_cell_angle_gamma 90.000000
_cell_volume 1812.559378
_symmetry_space_group_name_H-M "C 2/M"
_symmetry_group_IT_number 12
_symmetry_cell_setting 'monoclinic'
loop_
_space_group_symop_operation_xyz
x,y,z
-x,y,-z
-x,-y,-z
x,-y,z
1/2+x,1/2+y,z
1/2-x,1/2+y,-z
1/2-x,1/2-y,-z
1/2+x,1/2-y,z
loop_
_atom_site_type_symbol
_atom_site_label
_atom_site_fract_x
_atom_site_fract_y
_atom_site_fract_z
Si Si1 0.951294 0.289086 0.571460
Si Si2 0.775358 0.802564 0.623717
Si Si3 0.611013 0.204598 0.199592
Si Si4 0.271953 0.214304 0.120419
Si Si5 0.555906 0.217147 0.932332
Si Si6 0.116173 0.282718 0.697980
O O1 0.961594 0.500000 0.570341
O O2 0.845287 0.259317 0.568419
O O3 0.000000 0.216990 0.500000
O O4 0.013962 0.226394 0.658540
O O5 0.835117 0.801552 0.718769
O O6 0.681816 0.716120 0.636880
O O7 0.749618 0.000000 0.595560
O O8 0.674292 0.210998 0.129674
O O9 0.511121 0.266776 0.154685
O O10 0.603771 0.000000 0.225303
O O11 0.338752 0.273733 0.059271
O O12 0.335686 0.266814 0.209605
O O13 0.263293 0.000000 0.116027
O O14 0.557120 0.000000 0.933637
O O15 0.500000 0.279869 0.000000
O O16 0.118190 0.500000 0.699356
#
# Coordination Sequence:
#
# PCOD9183065 Si02
#       6
#     8   8   8   8   8   8
#     4  10  20  34  53  77 104 134 169 208 249 296
#     4  10  20  35  54  74 100 134 170 207 251 303
#     4  10  19  33  54  77 100 128 169 215 251 292
#     4   9  17  32  53  73  98 133 170 206 247 299
#     4   9  18  32  51  75 104 139 170 198 248 314
#     4   8  16  32  51  71  98 133 166 200 250 301
#
# _framework density 26.481891999999998
#
# number of rings (size 3 to 8) (size 9 to 14) (size 15 to 20)
#    0.000    2.667    0.000    3.000    0.000    4.333 
#    0.000    9.167    0.000    3.500    0.000    0.000 
#    0.000    0.000    0.000    0.000    0.000    0.000 
#
# Total GULP energy -134118.450273 kJ/mol
# GULP energy per Si atom -5588.268761 kJ/mol
# Density = 2.642162 g / cm^3
# Si number density = 26.481892 Si / 1000 Ang^3
#
#
#
# Elastic Constant Matrix: (Units=GPa)
#
#
# Indices 1 2 3 4 5 6 
#
# 1 175.4927 -8.1023 10.2530 0.0000 -16.8641 0.0000
# 2 -8.1023 63.9074 -2.8865 0.0000 2.9096 0.0000
# 3 10.2530 -2.8865 64.6843 0.0000 -21.1980 0.0000
# 4 0.0000 0.0000 0.0000 12.3512 0.0000 -7.2431
# 5 -16.8641 2.9096 -21.1980 0.0000 49.2767 0.0000
# 6 0.0000 0.0000 0.0000 -7.2431 0.0000 5.1880
#
#
#
# Elastic Compliance Matrix: (Units=1/GPa)
#
#
# Indices 1 2 3 4 5 6 
#
# 1 0.005925 0.000653 -0.000300 0.000000 0.001860 0.000000
# 2 0.000653 0.015774 0.000429 0.000000 -0.000523 0.000000
# 3 -0.000300 0.000429 0.018026 0.000000 0.007626 0.000000
# 4 0.000000 0.000000 0.000000 0.446681 0.000000 0.623628
# 5 0.001860 -0.000523 0.007626 0.000000 0.024242 0.000000
# 6 0.000000 0.000000 0.000000 0.623628 0.000000 1.063423
#
#
# Mechanical properties :
#
#
# Convention : Reuss Voigt Hill
#
# Bulk Modulus (GPa) = 24.22101 33.62364 28.92233
# Shear Modulus (GPa) = 3.15205 33.68453 18.41829
#
# Velocity S-wave (km/s) = 1.09218 3.57036 2.64010
# Velocity P-wave (km/s) = 3.27972 5.45170 4.49875
#
# Compressibility (1/GPa) = 0.04128647
#
# Stress axis : x y z
#
# Youngs Moduli (GPa) = 168.78608 63.39702 55.47640
#
# Poissons Ratio (x) = -0.04139 0.01667
# Poissons Ratio (y) = -0.11020 -0.02379
# Poissons Ratio (z) = 0.05072 -0.02719
#
# Static dielectric constant tensor:
#      x y z
#    x 2.046850 0.000000 -0.056080 
#    y 0.000000 2.002810 0.000000 
#    z -0.056080 0.000000 2.183010 
# 
# From -- ./inp_files/267719.got.cif
#   From: 2010.05.17/outbox.cif.g08.bks.cpg/sg12_134_cif.got.tgz:267719.got - 2010.06.03 13:09:07.
