data_PCOD9183768
_publ_section_title
;
Structure prediction by ZEFSAII (Michael W. Deem and Ramdas Pophale) SiO2 
 PCOD9183768
Probable space group: C 2/M
;
_chemical_formula_sum "Si O2"
_cell_formula_units_Z 56
_cell_length_a 19.478342
_cell_length_b 7.645773
_cell_length_c 23.369597
_cell_angle_alpha 90.000000
_cell_angle_beta 50.824439
_cell_angle_gamma 90.000000
_cell_volume 2698.026555
_symmetry_space_group_name_H-M "C 2/M"
_symmetry_group_IT_number 12
_symmetry_cell_setting 'monoclinic'
loop_
_space_group_symop_operation_xyz
x,y,z
-x,y,-z
-x,-y,-z
x,-y,z
1/2+x,1/2+y,z
1/2-x,1/2+y,-z
1/2-x,1/2-y,-z
1/2+x,1/2-y,z
loop_
_atom_site_type_symbol
_atom_site_label
_atom_site_fract_x
_atom_site_fract_y
_atom_site_fract_z
Si Si1 0.400938 0.214319 0.569355
Si Si2 0.757917 0.789866 0.428844
Si Si3 0.259815 0.297215 0.876627
Si Si4 0.115492 0.293225 0.292011
Si Si5 0.931075 0.798032 0.992445
Si Si6 0.580951 0.285611 0.129570
Si Si7 0.046460 0.211313 0.702573
O O1 0.500000 0.269313 0.500000
O O2 0.325512 0.273412 0.564584
O O3 0.381088 0.271173 0.644764
O O4 0.401080 0.000000 0.569056
O O5 0.750000 0.750000 0.500000
O O6 0.853673 0.724065 0.357221
O O7 0.758628 0.000000 0.422273
O O8 0.242301 0.500000 0.898048
O O9 0.312383 0.284816 0.789258
O O10 0.166153 0.204953 0.929197
O O11 0.327910 0.227538 0.888582
O O12 0.131597 0.500000 0.284357
O O13 0.018887 0.262891 0.314805
O O14 0.959034 0.000000 0.969327
O O15 0.927924 0.722402 0.930302
O O16 0.000000 0.714986 0.000000
O O17 0.583521 0.500000 0.128747
O O18 0.501683 0.232092 0.213583
O O19 0.048378 0.000000 0.702031
#
# Coordination Sequence:
#
# PCOD9183768 Si02
#       7
#     8   8   8   8   8   8   8
#     4   9  18  32  51  76 104 134 169 211 256 299
#     4  10  20  34  53  76 104 138 173 209 252 302
#     4  10  20  35  54  74 103 139 170 205 252 307
#     4  10  19  33  56  80 101 129 169 214 254 299
#     4  10  20  33  52  78 104 131 170 217 256 297
#     4   8  16  32  52  73  98 131 169 209 255 305
#     4   9  18  33  52  74 102 134 166 206 259 310
#
# _framework density 20.755911000000001
#
# number of rings (size 3 to 8) (size 9 to 14) (size 15 to 20)
#    0.000    2.571    0.000    3.000    0.000    3.143 
#    0.000    8.571    0.000    7.286    0.000    0.000 
#    0.000    0.000    0.000    0.000    0.000    0.000 
#
# Total GULP energy -156321.148714 kJ/mol
# GULP energy per Si atom -5582.898168 kJ/mol
# Density = 2.070867 g / cm^3
# Si number density = 20.755911 Si / 1000 Ang^3
#
#
#
# Elastic Constant Matrix: (Units=GPa)
#
#
# Indices 1 2 3 4 5 6 
#
# 1 188.6537 -1.6251 121.0234 0.0002 6.7405 0.0011
# 2 -1.6251 41.4729 -5.5414 0.0002 1.7461 0.0016
# 3 121.0234 -5.5414 119.5985 0.0001 11.6945 -0.0001
# 4 0.0002 0.0002 0.0001 15.3987 0.0000 -4.4951
# 5 6.7405 1.7461 11.6945 0.0000 38.2707 0.0001
# 6 0.0011 0.0016 -0.0001 -4.4951 0.0001 -3.5406
#
#
#
# Elastic Compliance Matrix: (Units=1/GPa)
#
#
# Indices 1 2 3 4 5 6 
#
# 1 0.015375 -0.001608 -0.015849 0.000001 0.002208 0.000003
# 2 -0.001608 0.024514 0.002932 0.000002 -0.001731 0.000008
# 3 -0.015849 0.002932 0.025023 -0.000001 -0.004989 -0.000003
# 4 0.000001 0.000002 -0.000001 0.047381 0.000000 -0.060154
# 5 0.002208 -0.001731 -0.004989 0.000000 0.027344 0.000001
# 6 0.000003 0.000008 -0.000003 -0.060154 0.000001 -0.206067
#
#
# Mechanical properties :
#
#
# Convention : Reuss Voigt Hill
#
# Bulk Modulus (GPa) = 27.88427 64.15987 46.02207
# Shear Modulus (GPa) = -196.63622 25.75030 -85.44296
#
# Velocity S-wave (km/s) = -9.74388 3.52607 -6.42300
# Velocity P-wave (km/s) = 10.63613 6.89611 5.72586
#
# Compressibility (1/GPa) = 0.03586252
#
# Stress axis : x y z
#
# Youngs Moduli (GPa) = 65.04025 40.79330 39.96400
#
# Poissons Ratio (x) = 0.06560 0.63338
# Poissons Ratio (y) = 0.10460 -0.11719
# Poissons Ratio (z) = 1.03080 -0.11962
#
# Static dielectric constant tensor:
#      x y z
#    x 1.724010 0.000000 0.008040 
#    y 0.000000 1.793570 0.000000 
#    z 0.008040 0.000000 1.718810 
# 
# From -- ./inp_files/319676.got.cif
#   From: 2010.05.17/outbox.cif.g08.bks.cpg/sg12_160_cif.got.tgz:319676.got - 2010.06.03 13:09:07.
