data_PCOD9183302
_publ_section_title
;
Structure prediction by ZEFSAII (Michael W. Deem and Ramdas Pophale) SiO2 
 PCOD9183302
Probable space group: C 2/M
;
_chemical_formula_sum "Si O2"
_cell_formula_units_Z 64
_cell_length_a 21.012055
_cell_length_b 7.617187
_cell_length_c 23.924853
_cell_angle_alpha 90.000000
_cell_angle_beta 135.540656
_cell_angle_gamma 90.000000
_cell_volume 2682.010100
_symmetry_space_group_name_H-M "C 2/M"
_symmetry_group_IT_number 12
_symmetry_cell_setting 'monoclinic'
loop_
_space_group_symop_operation_xyz
x,y,z
-x,y,-z
-x,-y,-z
x,-y,z
1/2+x,1/2+y,z
1/2-x,1/2+y,-z
1/2-x,1/2-y,-z
1/2+x,1/2-y,z
loop_
_atom_site_type_symbol
_atom_site_label
_atom_site_fract_x
_atom_site_fract_y
_atom_site_fract_z
Si Si1 0.442494 0.715364 0.189295
Si Si2 0.809036 0.210234 0.483107
Si Si3 0.684710 0.708569 0.735882
Si Si4 0.510978 0.285172 0.346779
Si Si5 0.872739 0.200258 0.912325
Si Si6 0.966671 0.796523 0.863023
Si Si7 0.218361 0.709571 0.314093
Si Si8 0.257521 0.793569 0.939516
O O1 0.443140 0.500000 0.187374
O O2 0.512745 0.766705 0.282254
O O3 0.466270 0.781538 0.142004
O O4 0.341092 0.772807 0.143679
O O5 0.750000 0.250000 0.500000
O O6 0.908667 0.276567 0.562813
O O7 0.755538 0.279263 0.395798
O O8 0.816552 0.000000 0.479169
O O9 0.687255 0.500000 0.749748
O O10 0.586749 0.773275 0.692268
O O11 0.773298 0.781805 0.822042
O O12 0.702370 0.733332 0.681620
O O13 0.513404 0.500000 0.348890
O O14 0.941959 0.282639 0.909133
O O15 0.847059 0.243210 0.960433
O O16 0.899190 0.000000 0.929399
O O17 0.871399 0.792860 0.768872
O O18 0.992795 0.000000 0.887030
O O19 0.199224 0.500000 0.305880
O O20 0.254586 0.000000 0.931304
O O21 0.250000 0.750000 0.000000
#
# Coordination Sequence:
#
# PCOD9183302 Si02
#       8
#     8   8   8   8   8   8   8   8
#     4   9  17  32  55  80 101 131 179 221 253 301
#     4  10  20  32  46  67  98 135 175 220 267 316
#     4   9  16  30  51  73  99 135 175 217 262 308
#     4   9  16  28  50  74  96 130 176 218 258 305
#     4  10  19  33  54  82 111 138 172 211 259 313
#     4   9  18  33  56  80 104 140 181 217 253 305
#     4   9  18  30  46  73 106 135 171 219 271 312
#     4  11  22  38  60  83 109 139 172 213 260 311
#
# _framework density 23.862698000000002
#
# number of rings (size 3 to 8) (size 9 to 14) (size 15 to 20)
#    0.000    2.500    1.250    1.500    0.000    2.500 
#    0.000    5.000    0.000    3.750    0.000    4.375 
#    0.000    0.000    0.000    0.000    0.000    0.000 
#
# Total GULP energy -178571.092962 kJ/mol
# GULP energy per Si atom -5580.346655 kJ/mol
# Density = 2.380839 g / cm^3
# Si number density = 23.862698 Si / 1000 Ang^3
#
#
#
# Elastic Constant Matrix: (Units=GPa)
#
#
# Indices 1 2 3 4 5 6 
#
# 1 143.8827 12.9074 20.6161 0.0000 -14.4482 0.0000
# 2 12.9074 41.2686 4.2380 0.0000 -6.8399 0.0001
# 3 20.6161 4.2380 111.7756 0.0000 -16.7144 0.0000
# 4 0.0000 0.0000 0.0000 12.2648 0.0000 -4.3514
# 5 -14.4482 -6.8399 -16.7144 0.0000 42.6500 0.0000
# 6 0.0000 0.0001 0.0000 -4.3514 0.0000 13.6845
#
#
#
# Elastic Compliance Matrix: (Units=1/GPa)
#
#
# Indices 1 2 3 4 5 6 
#
# 1 0.007452 -0.001925 -0.001031 0.000000 0.001812 0.000000
# 2 -0.001925 0.025405 -0.000103 0.000000 0.003382 0.000000
# 3 -0.001031 -0.000103 0.009651 0.000000 0.003417 0.000000
# 4 0.000000 0.000000 0.000000 0.091902 0.000000 0.029223
# 5 0.001812 0.003382 0.003417 0.000000 0.025942 0.000000
# 6 0.000000 0.000000 0.000000 0.029223 0.000000 0.082368
#
#
# Mechanical properties :
#
#
# Convention : Reuss Voigt Hill
#
# Bulk Modulus (GPa) = 27.47800 41.38333 34.43066
# Shear Modulus (GPa) = 19.15950 30.99753 25.07852
#
# Velocity S-wave (km/s) = 2.83663 3.60807 3.24535
# Velocity P-wave (km/s) = 4.71897 5.89385 5.33883
#
# Compressibility (1/GPa) = 0.03639275
#
# Stress axis : x y z
#
# Youngs Moduli (GPa) = 134.18510 39.36304 103.61189
#
# Poissons Ratio (x) = 0.07576 0.10678
# Poissons Ratio (y) = 0.25826 0.01062
# Poissons Ratio (z) = 0.13829 0.00403
#
# Static dielectric constant tensor:
#      x y z
#    x 1.940550 0.000000 -0.016140 
#    y 0.000000 1.900950 0.000000 
#    z -0.016140 0.000000 1.961180 
# 
# From -- ./inp_files/320103.got.cif
#   From: 2010.05.17/outbox.cif.g08.bks.cpg/sg12_161_cif.got.tgz:320103.got - 2010.06.03 13:09:07.
