data_PCOD9183512
_publ_section_title
;
Structure prediction by ZEFSAII (Michael W. Deem and Ramdas Pophale) SiO2 
 PCOD9183512
Probable space group: C 2/M
;
_chemical_formula_sum "Si O2"
_cell_formula_units_Z 64
_cell_length_a 26.840348
_cell_length_b 13.422005
_cell_length_c 11.022252
_cell_angle_alpha 90.000000
_cell_angle_beta 126.331783
_cell_angle_gamma 90.000000
_cell_volume 3198.859767
_symmetry_space_group_name_H-M "C 2/M"
_symmetry_group_IT_number 12
_symmetry_cell_setting 'monoclinic'
loop_
_space_group_symop_operation_xyz
x,y,z
-x,y,-z
-x,-y,-z
x,-y,z
1/2+x,1/2+y,z
1/2-x,1/2+y,-z
1/2-x,1/2-y,-z
1/2+x,1/2-y,z
loop_
_atom_site_type_symbol
_atom_site_label
_atom_site_fract_x
_atom_site_fract_y
_atom_site_fract_z
Si Si1 0.285239 0.110421 0.572064
Si Si2 0.129871 0.616487 0.943413
Si Si3 0.027916 0.111772 0.702167
Si Si4 0.567862 0.186744 0.621375
Si Si5 0.656198 0.316551 0.322833
Si Si6 0.259155 0.387762 0.211253
Si Si7 0.109607 0.167782 0.517629
Si Si8 0.055638 0.779488 0.987168
O O1 0.333744 0.199075 0.636306
O O2 0.224730 0.138467 0.405819
O O3 0.261524 0.111796 0.677296
O O4 0.307752 0.000000 0.576150
O O5 0.129424 0.500000 0.980663
O O6 0.108083 0.625101 0.773087
O O7 0.199862 0.658897 0.058965
O O8 0.084263 0.682364 0.961280
O O9 0.058734 0.205092 0.675918
O O10 0.955645 0.112292 0.560584
O O11 0.053011 0.000000 0.720490
O O12 0.032831 0.145709 0.849490
O O13 0.500000 0.143635 0.500000
O O14 0.594680 0.217351 0.529554
O O15 0.628126 0.356964 0.406917
O O16 0.610767 0.327719 0.145376
O O17 0.262676 0.500000 0.169719
O O18 0.329336 0.351055 0.313976
O O19 0.000000 0.755975 0.000000
#
# Coordination Sequence:
#
# PCOD9183512 Si02
#       8
#     8   8   8   8   8   8   8   8
#     4   9  18  33  53  79 109 142 175 212 266 320
#     4  10  21  38  58  78 103 140 184 227 269 314
#     4  10  21  36  55  80 111 146 177 216 265 319
#     4   9  21  38  57  77 106 142 182 222 266 319
#     4  10  19  33  55  80 111 142 173 219 262 319
#     4   9  17  30  53  80 102 132 178 220 261 315
#     4  10  19  34  54  80 107 141 178 219 267 312
#     4  11  21  36  54  80 114 142 177 218 265 322
#
# _framework density 20.007128999999999
#
# number of rings (size 3 to 8) (size 9 to 14) (size 15 to 20)
#    0.000    2.250    2.500    0.375    0.000    5.000 
#    0.000    0.625    0.000    0.000    0.000    0.000 
#    0.000    0.000    0.000    0.000    0.000    0.000 
#
# Total GULP energy -178204.201445 kJ/mol
# GULP energy per Si atom -5568.881295 kJ/mol
# Density = 1.996159 g / cm^3
# Si number density = 20.007129 Si / 1000 Ang^3
#
#
#
# Elastic Constant Matrix: (Units=GPa)
#
#
# Indices 1 2 3 4 5 6 
#
# 1 32.2550 -2.4721 11.7006 0.0000 6.3571 0.0000
# 2 -2.4721 54.2722 6.1470 0.0000 9.4825 0.0000
# 3 11.7006 6.1470 142.2269 0.0000 13.0433 0.0000
# 4 0.0000 0.0000 0.0000 16.3161 0.0000 -3.2376
# 5 6.3571 9.4825 13.0433 0.0000 29.5249 0.0000
# 6 0.0000 0.0000 0.0000 -3.2376 0.0000 4.7314
#
#
#
# Elastic Compliance Matrix: (Units=1/GPa)
#
#
# Indices 1 2 3 4 5 6 
#
# 1 0.033460 0.003033 -0.002224 0.000000 -0.007196 0.000000
# 2 0.003033 0.019807 -0.000482 0.000000 -0.006802 0.000000
# 3 -0.002224 -0.000482 0.007480 0.000000 -0.002671 0.000000
# 4 0.000000 0.000000 0.000000 0.070919 0.000000 0.048529
# 5 -0.007196 -0.006802 -0.002671 0.000000 0.038784 0.000000
# 6 0.000000 0.000000 0.000000 0.048529 0.000000 0.244563
#
#
# Mechanical properties :
#
#
# Convention : Reuss Voigt Hill
#
# Bulk Modulus (GPa) = 16.28604 28.83391 22.55998
# Shear Modulus (GPa) = 11.49889 24.33971 17.91930
#
# Velocity S-wave (km/s) = 2.39997 3.49169 2.99598
# Velocity P-wave (km/s) = 3.97965 5.54067 4.82372
#
# Compressibility (1/GPa) = 0.06140227
#
# Stress axis : x y z
#
# Youngs Moduli (GPa) = 29.88603 50.48778 133.69477
#
# Poissons Ratio (x) = -0.15315 0.29732
# Poissons Ratio (y) = -0.09065 0.06442
# Poissons Ratio (z) = 0.06646 0.02433
#
# Static dielectric constant tensor:
#      x y z
#    x 1.770610 0.000000 -0.002230 
#    y 0.000000 1.729250 0.000000 
#    z -0.002230 0.000000 1.740650 
# 
# From -- ./inp_files/189481.got.cif
#   From: 2010.05.17/outbox.cif.g08.bks.cpg/sg12_95_cif.got.tgz:189481.got - 2010.06.03 13:09:07.
