data_PCOD9183608
_publ_section_title
;
Structure prediction by ZEFSAII (Michael W. Deem and Ramdas Pophale) SiO2 
 PCOD9183608
Probable space group: C 2/M
;
_chemical_formula_sum "Si O2"
_cell_formula_units_Z 64
_cell_length_a 30.377347
_cell_length_b 9.268291
_cell_length_c 15.353121
_cell_angle_alpha 90.000000
_cell_angle_beta 127.859328
_cell_angle_gamma 90.000000
_cell_volume 3412.787758
_symmetry_space_group_name_H-M "C 2/M"
_symmetry_group_IT_number 12
_symmetry_cell_setting 'monoclinic'
loop_
_space_group_symop_operation_xyz
x,y,z
-x,y,-z
-x,-y,-z
x,-y,z
1/2+x,1/2+y,z
1/2-x,1/2+y,-z
1/2-x,1/2-y,-z
1/2+x,1/2-y,z
loop_
_atom_site_type_symbol
_atom_site_label
_atom_site_fract_x
_atom_site_fract_y
_atom_site_fract_z
Si Si1 0.411991 0.161906 0.729569
Si Si2 0.565232 0.670700 0.071705
Si Si3 0.287919 0.836343 0.611239
Si Si4 0.736719 0.673208 0.242362
Si Si5 0.138063 0.174774 0.998493
Si Si6 0.967079 0.326265 0.616042
Si Si7 0.865859 0.327104 0.359032
Si Si8 0.913597 0.825488 0.249858
O O1 0.413049 0.261089 0.814264
O O2 0.346599 0.154751 0.632041
O O3 0.446678 0.211048 0.688706
O O4 0.431236 0.000000 0.775977
O O5 0.574838 0.500000 0.084564
O O6 0.594172 0.725765 0.018999
O O7 0.500000 0.698200 0.000000
O O8 0.250000 0.750000 0.500000
O O9 0.287879 0.755408 0.703915
O O10 0.268777 0.000000 0.603252
O O11 0.730794 0.500000 0.247849
O O12 0.699091 0.712631 0.111715
O O13 0.802629 0.704440 0.313172
O O14 0.136578 0.000000 0.993839
O O15 0.116876 0.220666 0.877599
O O16 0.976767 0.500000 0.623226
O O17 0.915352 0.294876 0.488389
O O18 0.024233 0.241930 0.667852
O O19 0.868389 0.500000 0.345187
O O20 0.879252 0.237543 0.288921
O O21 0.916717 0.000000 0.256040
#
# Coordination Sequence:
#
# PCOD9183608 Si02
#       8
#     8   8   8   8   8   8   8   8
#     4  10  21  36  55  83 115 148 188 232 280 336
#     4  10  19  33  55  82 114 153 192 228 278 345
#     4  11  22  36  56  85 119 154 194 238 286 341
#     4  10  20  39  63  84 114 157 198 239 293 352
#     4   9  19  36  57  83 118 155 191 236 292 347
#     4  10  21  39  59  82 116 153 191 238 293 355
#     4  10  22  40  62  85 112 152 197 242 300 360
#     4  11  23  39  60  87 116 149 194 247 296 349
#
# _framework density 18.752997000000001
#
# number of rings (size 3 to 8) (size 9 to 14) (size 15 to 20)
#    0.000    1.875    1.250    2.625    0.000    7.250 
#    0.000    3.750    0.000    0.000    0.000    0.000 
#    0.000    0.000    0.000    0.000    0.000    0.000 
#
# Total GULP energy -178418.437107 kJ/mol
# GULP energy per Si atom -5575.576160 kJ/mol
# Density = 1.871031 g / cm^3
# Si number density = 18.752997 Si / 1000 Ang^3
#
#
#
# Elastic Constant Matrix: (Units=GPa)
#
#
# Indices 1 2 3 4 5 6 
#
# 1 91.4222 24.3683 20.4703 0.0000 4.7682 0.0000
# 2 24.3683 29.8312 11.6647 0.0000 -2.4356 0.0000
# 3 20.4703 11.6647 82.1602 0.0000 8.4701 0.0000
# 4 0.0000 0.0000 0.0000 33.0096 0.0000 -9.3511
# 5 4.7682 -2.4356 8.4701 0.0000 40.0586 0.0000
# 6 0.0000 0.0000 0.0000 -9.3511 0.0000 24.8820
#
#
#
# Elastic Compliance Matrix: (Units=1/GPa)
#
#
# Indices 1 2 3 4 5 6 
#
# 1 0.014448 -0.011267 -0.001791 0.000000 -0.002026 0.000000
# 2 -0.011267 0.044710 -0.004047 0.000000 0.004915 0.000000
# 3 -0.001791 -0.004047 0.013490 0.000000 -0.002885 0.000000
# 4 0.000000 0.000000 0.000000 0.033904 0.000000 0.012742
# 5 -0.002026 0.004915 -0.002885 0.000000 0.026114 0.000000
# 6 0.000000 0.000000 0.000000 0.012742 0.000000 0.044978
#
#
# Mechanical properties :
#
#
# Convention : Reuss Voigt Hill
#
# Bulk Modulus (GPa) = 26.01716 35.15780 30.58748
# Shear Modulus (GPa) = 22.25518 29.38404 25.81961
#
# Velocity S-wave (km/s) = 3.44867 3.96270 3.71459
# Velocity P-wave (km/s) = 5.45541 6.30285 5.89438
#
# Compressibility (1/GPa) = 0.03843617
#
# Stress axis : x y z
#
# Youngs Moduli (GPa) = 69.21228 22.36648 74.13076
#
# Poissons Ratio (x) = 0.25201 0.13279
# Poissons Ratio (y) = 0.77984 0.30002
# Poissons Ratio (z) = 0.12398 0.09052
#
# Static dielectric constant tensor:
#      x y z
#    x 1.553450 0.000000 -0.103900 
#    y 0.000000 1.708550 0.000000 
#    z -0.103900 0.000000 1.495980 
# 
# From -- ./inp_files/250025.got.cif
#   From: 2010.05.17/outbox.cif.g08.bks.cpg/sg12_126_cif.got.tgz:250025.got - 2010.06.03 13:09:07.
