data_PCOD9183064
_publ_section_title
;
Structure prediction by ZEFSAII (Michael W. Deem and Ramdas Pophale) SiO2 
 PCOD9183064
Probable space group: C 2/M
;
_chemical_formula_sum "Si O2"
_cell_formula_units_Z 56
_cell_length_a 25.179666
_cell_length_b 8.932226
_cell_length_c 17.115862
_cell_angle_alpha 90.000000
_cell_angle_beta 56.097605
_cell_angle_gamma 90.000000
_cell_volume 3195.072853
_symmetry_space_group_name_H-M "C 2/M"
_symmetry_group_IT_number 12
_symmetry_cell_setting 'monoclinic'
loop_
_space_group_symop_operation_xyz
x,y,z
-x,y,-z
-x,-y,-z
x,-y,z
1/2+x,1/2+y,z
1/2-x,1/2+y,-z
1/2-x,1/2-y,-z
1/2+x,1/2-y,z
loop_
_atom_site_type_symbol
_atom_site_label
_atom_site_fract_x
_atom_site_fract_y
_atom_site_fract_z
Si Si1 0.604911 0.319141 0.410864
Si Si2 0.498123 0.318119 0.375968
Si Si3 0.265188 0.179323 0.744451
Si Si4 0.416724 0.825820 0.989854
Si Si5 0.516181 0.319441 0.789651
Si Si6 0.732149 0.174757 0.933221
Si Si7 0.877842 0.820221 0.180724
O O1 0.610642 0.500000 0.405531
O O2 0.561944 0.274083 0.370826
O O3 0.562746 0.275703 0.520925
O O4 0.674105 0.246261 0.349551
O O5 0.498471 0.500000 0.374438
O O6 0.493685 0.265068 0.290741
O O7 0.264250 0.242938 0.833372
O O8 0.196625 0.224122 0.763318
O O9 0.268447 0.000000 0.743433
O O10 0.344110 0.814717 0.017571
O O11 0.414423 0.752001 0.077242
O O12 0.433898 0.000000 0.982187
O O13 0.463492 0.744481 0.891667
O O14 0.511126 0.500000 0.793265
O O15 0.584981 0.280537 0.770697
O O16 0.750360 0.000000 0.918085
O O17 0.750000 0.250000 0.000000
O O18 0.880414 0.000000 0.169401
#
# Coordination Sequence:
#
# PCOD9183064 Si02
#       7
#     8   8   8   8   8   8   8
#     4   9  17  34  56  77 101 131 169 211 260 313
#     4   8  17  33  54  78 101 128 168 215 258 307
#     4  10  20  34  52  74 102 137 171 209 257 304
#     4  10  21  34  49  74 106 136 167 209 259 301
#     4  10  19  33  54  76  99 135 178 214 251 299
#     4  10  21  35  50  73 105 137 171 209 250 304
#     4   9  19  35  52  72 101 138 178 210 244 303
#
# _framework density 17.526986000000001
#
# number of rings (size 3 to 8) (size 9 to 14) (size 15 to 20)
#    0.000    2.571    0.000    2.571    2.000    4.571 
#    0.000    2.857    0.000    0.000    0.000    0.000 
#    0.000    0.000    0.000    0.000    0.000    0.000 
#
# Total GULP energy -156193.867717 kJ/mol
# GULP energy per Si atom -5578.352418 kJ/mol
# Density = 1.748709 g / cm^3
# Si number density = 17.526986 Si / 1000 Ang^3
#
#
#
# Elastic Constant Matrix: (Units=GPa)
#
#
# Indices 1 2 3 4 5 6 
#
# 1 70.9437 27.4870 66.8044 0.0000 4.0235 0.0000
# 2 27.4870 28.6797 23.5776 0.0000 -3.1008 -0.0001
# 3 66.8044 23.5776 99.8830 0.0000 -4.6158 0.0000
# 4 0.0000 0.0000 0.0000 24.0256 0.0000 -9.2448
# 5 4.0235 -3.1008 -4.6158 0.0000 30.2784 0.0000
# 6 0.0000 -0.0001 0.0000 -9.2448 0.0000 21.6119
#
#
#
# Elastic Compliance Matrix: (Units=1/GPa)
#
#
# Indices 1 2 3 4 5 6 
#
# 1 0.055214 -0.029297 -0.030707 0.000000 -0.015019 0.000000
# 2 -0.029297 0.059062 0.006156 0.000000 0.010880 0.000000
# 3 -0.030707 0.006156 0.029522 0.000000 0.009211 0.000000
# 4 0.000000 0.000000 0.000000 0.049823 0.000000 0.021312
# 5 -0.015019 0.010880 0.009211 0.000000 0.037541 0.000000
# 6 0.000000 0.000000 0.000000 0.021312 0.000000 0.055387
#
#
# Mechanical properties :
#
#
# Convention : Reuss Voigt Hill
#
# Bulk Modulus (GPa) = 27.69972 48.36048 38.03010
# Shear Modulus (GPa) = 12.30676 20.62567 16.46622
#
# Velocity S-wave (km/s) = 2.65271 3.43417 3.06842
# Velocity P-wave (km/s) = 5.02203 6.58609 5.85651
#
# Compressibility (1/GPa) = 0.03610145
#
# Stress axis : x y z
#
# Youngs Moduli (GPa) = 18.11136 16.93122 33.87318
#
# Poissons Ratio (x) = 0.49604 1.04014
# Poissons Ratio (y) = 0.53062 -0.20852
# Poissons Ratio (z) = 0.55614 -0.10423
#
# Static dielectric constant tensor:
#      x y z
#    x 1.614310 0.000000 0.001390 
#    y 0.000000 1.587130 0.000000 
#    z 0.001390 0.000000 1.564390 
# 
# From -- ./inp_files/238377.got.cif
#   From: 2010.05.17/outbox.cif.g08.bks.cpg/sg12_120_cif.got.tgz:238377.got - 2010.06.03 13:09:07.
