data_PCOD9183479
_publ_section_title
;
Structure prediction by ZEFSAII (Michael W. Deem and Ramdas Pophale) SiO2 
 PCOD9183479
Probable space group: C 2/M
;
_chemical_formula_sum "Si O2"
_cell_formula_units_Z 64
_cell_length_a 26.815513
_cell_length_b 7.702334
_cell_length_c 14.916179
_cell_angle_alpha 90.000000
_cell_angle_beta 78.865231
_cell_angle_gamma 90.000000
_cell_volume 3022.823620
_symmetry_space_group_name_H-M "C 2/M"
_symmetry_group_IT_number 12
_symmetry_cell_setting 'monoclinic'
loop_
_space_group_symop_operation_xyz
x,y,z
-x,y,-z
-x,-y,-z
x,-y,z
1/2+x,1/2+y,z
1/2-x,1/2+y,-z
1/2-x,1/2-y,-z
1/2+x,1/2-y,z
loop_
_atom_site_type_symbol
_atom_site_label
_atom_site_fract_x
_atom_site_fract_y
_atom_site_fract_z
Si Si1 0.960308 0.793069 0.799658
Si Si2 0.224559 0.291986 0.602431
Si Si3 0.942884 0.801191 0.132785
Si Si4 0.845594 0.702427 0.061593
Si Si5 0.750140 0.212653 0.787454
Si Si6 0.486666 0.208887 0.405891
Si Si7 0.610113 0.789572 0.665264
Si Si8 0.152485 0.799817 0.138905
O O1 0.980735 0.769130 0.691260
O O2 0.903483 0.720268 0.827244
O O3 0.002243 0.724355 0.856861
O O4 0.958425 0.000000 0.817735
O O5 0.222668 0.500000 0.609457
O O6 0.250000 0.250000 0.500000
O O7 0.251711 0.229787 0.683682
O O8 0.166579 0.229979 0.625946
O O9 0.903331 0.720268 0.076771
O O10 0.912332 0.792491 0.237200
O O11 0.950290 0.000000 0.101647
O O12 0.835701 0.500000 0.049125
O O13 0.803537 0.763730 0.148333
O O14 0.837958 0.795878 0.970289
O O15 0.799044 0.275008 0.825844
O O16 0.750216 0.000000 0.789043
O O17 0.500000 0.275611 0.500000
O O18 0.428651 0.250529 0.400910
O O19 0.491875 0.000000 0.405505
O O20 0.609896 0.000000 0.679286
O O21 0.148587 0.000000 0.170788
#
# Coordination Sequence:
#
# PCOD9183479 Si02
#       8
#     8   8   8   8   8   8   8   8
#     4   9  20  36  53  77 110 143 178 222 273 321
#     4  10  20  35  53  78 108 140 177 220 271 320
#     4  10  19  33  55  80 105 137 179 223 263 316
#     4  11  21  36  58  83 108 141 183 224 271 325
#     4   9  19  37  58  77 107 145 181 222 270 323
#     4   9  18  32  53  79 105 140 183 222 267 323
#     4   9  17  33  53  72 104 142 174 220 272 315
#     4  10  21  38  57  79 109 146 181 221 273 324
#
# _framework density 21.172256999999998
#
# number of rings (size 3 to 8) (size 9 to 14) (size 15 to 20)
#    0.000    2.375    1.250    1.125    0.000    3.250 
#    0.000    3.750    0.000    0.000    0.000    0.000 
#    0.000    0.000    0.000    0.000    0.000    0.000 
#
# Total GULP energy -178559.875637 kJ/mol
# GULP energy per Si atom -5579.996114 kJ/mol
# Density = 2.112407 g / cm^3
# Si number density = 21.172257 Si / 1000 Ang^3
#
#
#
# Elastic Constant Matrix: (Units=GPa)
#
#
# Indices 1 2 3 4 5 6 
#
# 1 143.5127 13.0370 66.4314 0.0000 16.7697 0.0000
# 2 13.0370 31.4710 -3.1572 0.0000 4.3429 0.0000
# 3 66.4314 -3.1572 104.9395 0.0000 20.2478 0.0000
# 4 0.0000 0.0000 0.0000 -211.5371 0.0000 -202.9455
# 5 16.7697 4.3429 20.2478 0.0000 33.0107 0.0000
# 6 0.0000 0.0000 0.0000 -202.9455 0.0000 -164.0030
#
#
#
# Elastic Compliance Matrix: (Units=1/GPa)
#
#
# Indices 1 2 3 4 5 6 
#
# 1 0.010620 -0.004996 -0.006759 0.000000 -0.000592 0.000000
# 2 -0.004996 0.035101 0.005240 0.000000 -0.005294 0.000000
# 3 -0.006759 0.005240 0.015240 0.000000 -0.006603 0.000000
# 4 0.000000 0.000000 0.000000 0.025254 0.000000 -0.031250
# 5 -0.000592 -0.005294 -0.006603 0.000000 0.035341 0.000000
# 6 0.000000 0.000000 0.000000 -0.031250 0.000000 0.032573
#
#
# Mechanical properties :
#
#
# Convention : Reuss Voigt Hill
#
# Bulk Modulus (GPa) = 20.86311 48.06063 34.46187
# Shear Modulus (GPa) = 27.30239 -54.93174 -13.81467
#
# Velocity S-wave (km/s) = 3.59491 -5.09916 -2.55716
# Velocity P-wave (km/s) = 5.20639 3.45247 2.75563
#
# Compressibility (1/GPa) = 0.04793149
#
# Stress axis : x y z
#
# Youngs Moduli (GPa) = 94.16538 28.48922 65.61825
#
# Poissons Ratio (x) = 0.14232 0.44350
# Poissons Ratio (y) = 0.47041 -0.34384
# Poissons Ratio (z) = 0.63644 -0.14928
#
# Static dielectric constant tensor:
#      x y z
#    x 1.786180 0.000000 0.012860 
#    y 0.000000 1.804360 0.000000 
#    z 0.012860 0.000000 1.729890 
# 
# From -- ./inp_files/238814.got.cif
#   From: 2010.05.17/outbox.cif.g08.bks.cpg/sg12_120_cif.got.tgz:238814.got - 2010.06.03 13:09:07.
