data_PCOD9183000
_publ_section_title
;
Structure prediction by ZEFSAII (Michael W. Deem and Ramdas Pophale) SiO2 
 PCOD9183000
Probable space group: C 2/M
;
_chemical_formula_sum "Si O2"
_cell_formula_units_Z 42
_cell_length_a 15.207164
_cell_length_b 7.424372
_cell_length_c 18.125593
_cell_angle_alpha 90.000000
_cell_angle_beta 58.299000
_cell_angle_gamma 90.000000
_cell_volume 1741.119775
_symmetry_space_group_name_H-M "C 2/M"
_symmetry_group_IT_number 12
_symmetry_cell_setting 'monoclinic'
loop_
_space_group_symop_operation_xyz
x,y,z
-x,y,-z
-x,-y,-z
x,-y,z
1/2+x,1/2+y,z
1/2-x,1/2+y,-z
1/2-x,1/2-y,-z
1/2+x,1/2-y,z
loop_
_atom_site_type_symbol
_atom_site_label
_atom_site_fract_x
_atom_site_fract_y
_atom_site_fract_z
Si Si1 0.422389 0.787741 0.472968
Si Si2 0.840312 0.715236 0.020666
Si Si3 0.242873 0.783058 0.340307
Si Si4 0.500000 0.500000 0.000000
Si Si5 0.682444 0.714270 0.211015
Si Si6 0.456370 0.785117 0.293346
O O1 0.500000 0.709423 0.500000
O O2 0.310710 0.768943 0.559507
O O3 0.438340 0.712611 0.384459
O O4 0.444482 0.000000 0.457311
O O5 0.862913 0.500000 0.010497
O O6 0.781970 0.774041 0.122228
O O7 0.750000 0.750000 0.000000
O O8 0.940448 0.840703 0.976222
O O9 0.183062 0.714469 0.294498
O O10 0.361290 0.720255 0.286215
O O11 0.239317 0.000000 0.339876
O O12 0.690475 0.500000 0.211064
O O13 0.573935 0.752278 0.219838
O O14 0.444661 0.000000 0.301021
#
# Coordination Sequence:
#
# PCOD9183000 Si02
#       6
#     8   8   8   2   8   8
#     4  10  19  33  53  82 118 165 217 272 320 388
#     4  11  25  49  77 113 152 191 245 303 369 456
#     4  10  21  37  56  85 122 165 218 271 330 395
#     4  12  26  48  84 116 144 198 238 294 386 436
#     4  10  23  41  62  94 133 164 217 284 337 410
#     4  10  21  36  58  85 121 171 218 266 337 398
#
# _framework density 24.122406000000002
#
# number of rings (size 3 to 8) (size 9 to 14) (size 15 to 20)
#    0.000    1.714    2.857    0.857    1.333    3.429 
#    0.000    1.905    0.000    0.000    0.000    0.000 
#    0.000    0.000    0.000    0.000    0.000    0.000 
#
# Total GULP energy -117067.448980 kJ/mol
# GULP energy per Si atom -5574.640428 kJ/mol
# Density = 2.406750 g / cm^3
# Si number density = 24.122406 Si / 1000 Ang^3
#
#
#
# Elastic Constant Matrix: (Units=GPa)
#
#
# Indices 1 2 3 4 5 6 
#
# 1 90.7974 10.0413 -6.1553 0.0000 3.0921 0.0000
# 2 10.0413 121.0699 0.4421 0.0000 10.3712 0.0001
# 3 -6.1553 0.4421 28.1661 0.0000 -3.3222 0.0000
# 4 0.0000 0.0000 0.0000 3.4654 0.0000 -5.7307
# 5 3.0921 10.3712 -3.3222 0.0000 23.7647 0.0000
# 6 0.0000 0.0001 0.0000 -5.7307 0.0000 25.3973
#
#
#
# Elastic Compliance Matrix: (Units=1/GPa)
#
#
# Indices 1 2 3 4 5 6 
#
# 1 0.011299 -0.000882 0.002395 0.000000 -0.000751 0.000000
# 2 -0.000882 0.008659 -0.000774 0.000000 -0.003772 0.000000
# 3 0.002395 -0.000774 0.036646 0.000000 0.005149 0.000000
# 4 0.000000 0.000000 0.000000 0.460339 0.000000 0.103871
# 5 -0.000751 -0.003772 0.005149 0.000000 0.044543 0.000000
# 6 0.000000 0.000000 0.000000 0.103871 0.000000 0.062812
#
#
# Mechanical properties :
#
#
# Convention : Reuss Voigt Hill
#
# Bulk Modulus (GPa) = 17.21674 27.63219 22.42446
# Shear Modulus (GPa) = 7.78598 26.23916 17.01257
#
# Velocity S-wave (km/s) = 1.79853 3.30168 2.65855
# Velocity P-wave (km/s) = 3.38610 5.10046 4.32899
#
# Compressibility (1/GPa) = 0.05808301
#
# Stress axis : x y z
#
# Youngs Moduli (GPa) = 88.50409 115.48986 27.28781
#
# Poissons Ratio (x) = 0.10181 -0.06534
# Poissons Ratio (y) = 0.07802 0.02111
# Poissons Ratio (z) = -0.21193 0.08933
#
# Static dielectric constant tensor:
#      x y z
#    x 2.011730 0.000000 -0.040330 
#    y 0.000000 1.903990 0.000000 
#    z -0.040330 0.000000 1.998150 
# 
# From -- ./inp_files/267521.got.cif
#   From: 2010.05.17/outbox.cif.g08.bks.cpg/sg12_134_cif.got.tgz:267521.got - 2010.06.03 13:09:07.
