data_PCOD9183372
_publ_section_title
;
Structure prediction by ZEFSAII (Michael W. Deem and Ramdas Pophale) SiO2 
 PCOD9183372
Probable space group: C 2/M
;
_chemical_formula_sum "Si O2"
_cell_formula_units_Z 52
_cell_length_a 23.103057
_cell_length_b 7.873553
_cell_length_c 22.700747
_cell_angle_alpha 90.000000
_cell_angle_beta 30.544237
_cell_angle_gamma 90.000000
_cell_volume 2098.543473
_symmetry_space_group_name_H-M "C 2/M"
_symmetry_group_IT_number 12
_symmetry_cell_setting 'monoclinic'
loop_
_space_group_symop_operation_xyz
x,y,z
-x,y,-z
-x,-y,-z
x,-y,z
1/2+x,1/2+y,z
1/2-x,1/2+y,-z
1/2-x,1/2-y,-z
1/2+x,1/2-y,z
loop_
_atom_site_type_symbol
_atom_site_label
_atom_site_fract_x
_atom_site_fract_y
_atom_site_fract_z
Si Si1 0.734072 0.000000 0.078790
Si Si2 0.970068 0.822055 0.865734
Si Si3 0.168355 0.796096 0.330457
Si Si4 0.408457 0.699793 0.736377
Si Si5 0.577783 0.804518 0.881765
Si Si6 0.840145 0.692412 0.372318
Si Si7 0.638258 0.198515 0.481298
O O1 0.645590 0.846341 0.175781
O O2 0.836631 0.853962 0.975706
O O3 0.007601 0.692455 0.882644
O O4 0.044017 0.791530 0.742752
O O5 0.014522 0.000000 0.853010
O O6 0.138528 0.761469 0.288827
O O7 0.296861 0.728925 0.227557
O O8 0.103277 0.722978 0.444219
O O9 0.158466 0.000000 0.345937
O O10 0.383356 0.500000 0.773050
O O11 0.543536 0.723224 0.607377
O O12 0.599018 0.000000 0.881023
O O13 0.500000 0.722839 0.000000
O O14 0.872228 0.500000 0.354385
O O15 0.750000 0.750000 0.500000
O O16 0.759055 0.710374 0.386006
O O17 0.651545 0.000000 0.482377
#
# Coordination Sequence:
#
# PCOD9183372 Si02
#       7
#     4   8   8   8   8   8   8
#     4  10  24  42  62  96 136 175 235 270 322 401
#     4  10  22  39  59  91 131 166 210 269 328 386
#     4  10  21  35  56  90 135 177 234 274 325 396
#     4  11  23  42  64  93 134 190 232 276 328 390
#     4  10  19  33  54  84 127 177 221 264 321 390
#     4  12  25  45  73 104 131 163 213 275 348 406
#     4  12  24  40  65  97 134 174 224 285 339 396
#
# _framework density 24.779091000000001
#
# number of rings (size 3 to 8) (size 9 to 14) (size 15 to 20)
#    0.462    0.769    2.308    4.615    1.077    4.615 
#    0.000    0.000    0.000    0.923    0.000    0.000 
#    0.000    0.000    0.000    0.000    0.000    0.000 
#
# Total GULP energy -144739.259124 kJ/mol
# GULP energy per Si atom -5566.894582 kJ/mol
# Density = 2.472269 g / cm^3
# Si number density = 24.779091 Si / 1000 Ang^3
#
#
#
# Elastic Constant Matrix: (Units=GPa)
#
#
# Indices 1 2 3 4 5 6 
#
# 1 72.3124 3.6880 28.4521 0.0009 -4.6882 -0.0046
# 2 3.6880 109.4046 34.5599 -0.0098 -10.4928 0.0046
# 3 28.4521 34.5599 167.7680 -0.0007 -22.4157 0.0001
# 4 0.0009 -0.0098 -0.0007 40.6621 0.0046 2.1021
# 5 -4.6882 -10.4928 -22.4157 0.0046 29.3246 0.0013
# 6 -0.0046 0.0046 0.0001 2.1021 0.0013 -0.1420
#
#
#
# Elastic Compliance Matrix: (Units=1/GPa)
#
#
# Indices 1 2 3 4 5 6 
#
# 1 0.014836 0.000348 -0.002511 0.000013 0.000577 -0.000267
# 2 0.000348 0.009912 -0.001804 -0.000008 0.002223 0.000204
# 3 -0.002511 -0.001804 0.007371 -0.000003 0.004587 0.000034
# 4 0.000013 -0.000008 -0.000003 0.013930 -0.000014 0.206268
# 5 0.000577 0.002223 0.004587 -0.000014 0.038496 0.000197
# 6 -0.000267 0.000204 0.000034 0.206268 0.000197 -3.989975
#
#
# Mechanical properties :
#
#
# Convention : Reuss Voigt Hill
#
# Bulk Modulus (GPa) = 41.34501 53.65387 47.49944
# Shear Modulus (GPa) = -1.28553 32.82129 15.76788
#
# Velocity S-wave (km/s) = -0.72106 3.64339 2.52531
# Velocity P-wave (km/s) = 4.00355 6.27686 5.26438
#
# Compressibility (1/GPa) = 0.02418671
#
# Stress axis : x y z
#
# Youngs Moduli (GPa) = 67.40169 100.89104 135.66799
#
# Poissons Ratio (x) = -0.03515 0.34063
# Poissons Ratio (y) = -0.02348 0.24472
# Poissons Ratio (z) = 0.16923 0.18199
#
# Static dielectric constant tensor:
#      x y z
#    x 2.078210 0.000000 0.023110 
#    y 0.000000 1.920770 -0.000010 
#    z 0.023110 -0.000010 2.003150 
# 
# From -- ./inp_files/351228.got.cif
#   From: 2010.05.17/outbox.cif.g08.bks.cpg/sg12_176_cif.got.tgz:351228.got - 2010.06.03 13:09:07.
