data_PCOD9183142
_publ_section_title
;
Structure prediction by ZEFSAII (Michael W. Deem and Ramdas Pophale) SiO2 
 PCOD9183142
Probable space group: C 2/M
;
_chemical_formula_sum "Si O2"
_cell_formula_units_Z 56
_cell_length_a 30.898682
_cell_length_b 8.598516
_cell_length_c 17.280826
_cell_angle_alpha 90.000000
_cell_angle_beta 45.937081
_cell_angle_gamma 90.000000
_cell_volume 3299.141823
_symmetry_space_group_name_H-M "C 2/M"
_symmetry_group_IT_number 12
_symmetry_cell_setting 'monoclinic'
loop_
_space_group_symop_operation_xyz
x,y,z
-x,y,-z
-x,-y,-z
x,-y,z
1/2+x,1/2+y,z
1/2-x,1/2+y,-z
1/2-x,1/2-y,-z
1/2+x,1/2-y,z
loop_
_atom_site_type_symbol
_atom_site_label
_atom_site_fract_x
_atom_site_fract_y
_atom_site_fract_z
Si Si1 0.993745 0.187920 0.291923
Si Si2 0.307264 0.686418 0.102827
Si Si3 0.370687 0.186531 0.870754
Si Si4 0.828983 0.687378 0.751813
Si Si5 0.410904 0.184121 0.075812
Si Si6 0.057277 0.812570 0.480605
Si Si7 0.031375 0.185537 0.848883
O O1 0.955889 0.233229 0.414554
O O2 0.963822 0.228485 0.247068
O O3 0.059651 0.263266 0.214174
O O4 0.001488 0.000000 0.283653
O O5 0.309972 0.500000 0.105918
O O6 0.237722 0.737390 0.190177
O O7 0.348031 0.760627 0.118959
O O8 0.336270 0.736487 0.985097
O O9 0.342906 0.236028 0.822874
O O10 0.366410 0.000000 0.883082
O O11 0.830252 0.500000 0.749463
O O12 0.881741 0.747949 0.631303
O O13 0.422730 0.232625 0.149622
O O14 0.417663 0.000000 0.058777
O O15 0.464621 0.265997 0.960637
O O16 0.000000 0.761990 0.500000
O O17 0.059637 0.000000 0.474267
O O18 0.037378 0.000000 0.849450
#
# Coordination Sequence:
#
# PCOD9183142 Si02
#       7
#     8   8   8   8   8   8   8
#     4  10  20  34  54  80 110 143 178 216 263 318
#     4  11  22  37  54  75 109 147 182 217 268 328
#     4  11  21  33  52  80 110 141 179 220 267 314
#     4  10  23  38  53  77 108 146 184 222 266 318
#     4  11  21  33  52  80 110 136 176 223 269 318
#     4  10  20  35  56  80 106 142 183 223 263 309
#     4  10  19  33  54  78 108 144 177 212 268 324
#
# _framework density 16.97411
#
# number of rings (size 3 to 8) (size 9 to 14) (size 15 to 20)
#    0.000    1.571    2.857    3.857    0.000    3.143 
#    0.000    0.000    0.000    0.857    0.000    0.000 
#    0.000    0.000    0.000    0.000    0.000    0.000 
#
# Total GULP energy -156385.827528 kJ/mol
# GULP energy per Si atom -5585.208126 kJ/mol
# Density = 1.693548 g / cm^3
# Si number density = 16.974110 Si / 1000 Ang^3
#
#
#
# Elastic Constant Matrix: (Units=GPa)
#
#
# Indices 1 2 3 4 5 6 
#
# 1 139.5797 14.3008 76.1136 0.0000 5.9384 0.0000
# 2 14.3008 14.7416 13.9453 0.0008 1.7396 -0.0004
# 3 76.1136 13.9453 92.1661 0.0005 -6.4544 -0.0002
# 4 0.0000 0.0008 0.0005 22.2294 0.0000 -1.4230
# 5 5.9384 1.7396 -6.4544 0.0000 28.4728 0.0000
# 6 0.0000 -0.0004 -0.0002 -1.4230 0.0000 22.2780
#
#
#
# Elastic Compliance Matrix: (Units=1/GPa)
#
#
# Indices 1 2 3 4 5 6 
#
# 1 0.013897 -0.001901 -0.011567 0.000000 -0.005404 0.000000
# 2 -0.001901 0.081112 -0.011200 -0.000002 -0.007098 0.000001
# 3 -0.011567 -0.011200 0.022674 0.000000 0.008237 0.000000
# 4 0.000000 -0.000002 0.000000 0.045170 0.000000 0.002885
# 5 -0.005404 -0.007098 0.008237 0.000000 0.038549 0.000000
# 6 0.000000 0.000001 0.000000 0.002885 0.000000 0.045072
#
#
# Mechanical properties :
#
#
# Convention : Reuss Voigt Hill
#
# Bulk Modulus (GPa) = 14.63137 50.57855 32.60496
# Shear Modulus (GPa) = 15.69408 24.07124 19.88266
#
# Velocity S-wave (km/s) = 3.04400 3.76987 3.42622
# Velocity P-wave (km/s) = 4.58183 6.98652 5.90781
#
# Compressibility (1/GPa) = 0.06834630
#
# Stress axis : x y z
#
# Youngs Moduli (GPa) = 71.95954 12.32865 44.10361
#
# Poissons Ratio (x) = 0.02344 0.51015
# Poissons Ratio (y) = 0.13680 0.49395
# Poissons Ratio (z) = 0.83237 0.13808
#
# Static dielectric constant tensor:
#      x y z
#    x 1.582070 0.000000 0.014960 
#    y 0.000000 1.575650 0.000000 
#    z 0.014960 0.000000 1.540440 
# 
# From -- ./inp_files/295088.got.cif
#   From: 2010.05.17/outbox.cif.g08.bks.cpg/sg12_148_cif.got.tgz:295088.got - 2010.06.03 13:09:07.
