data_PCOD9183232
_publ_section_title
;
Structure prediction by ZEFSAII (Michael W. Deem and Ramdas Pophale) SiO2 
 PCOD9183232
Probable space group: C 2/M
;
_chemical_formula_sum "Si O2"
_cell_formula_units_Z 64
_cell_length_a 34.252041
_cell_length_b 8.673643
_cell_length_c 26.644284
_cell_angle_alpha 90.000000
_cell_angle_beta 155.055663
_cell_angle_gamma 90.000000
_cell_volume 3338.369132
_symmetry_space_group_name_H-M "C 2/M"
_symmetry_group_IT_number 12
_symmetry_cell_setting 'monoclinic'
loop_
_space_group_symop_operation_xyz
x,y,z
-x,y,-z
-x,-y,-z
x,-y,z
1/2+x,1/2+y,z
1/2-x,1/2+y,-z
1/2-x,1/2-y,-z
1/2+x,1/2-y,z
loop_
_atom_site_type_symbol
_atom_site_label
_atom_site_fract_x
_atom_site_fract_y
_atom_site_fract_z
Si Si1 0.473184 0.312997 0.025926
Si Si2 0.261834 0.679546 0.791637
Si Si3 0.768330 0.179213 0.454336
Si Si4 0.583039 0.683477 0.634236
Si Si5 0.932500 0.314256 0.765959
Si Si6 0.475868 0.314850 0.716071
Si Si7 0.978041 0.679777 0.333132
Si Si8 0.302594 0.826013 0.397509
O O1 0.479161 0.500000 0.034475
O O2 0.536105 0.243281 0.143019
O O3 0.500000 0.267610 0.000000
O O4 0.367923 0.267737 0.917294
O O5 0.257817 0.500000 0.802851
O O6 0.182709 0.770473 0.728638
O O7 0.235099 0.685728 0.701995
O O8 0.673638 0.245052 0.366141
O O9 0.870252 0.245332 0.583156
O O10 0.758895 0.202507 0.383620
O O11 0.771981 0.000000 0.472031
O O12 0.500000 0.741323 0.500000
O O13 0.574097 0.500000 0.625850
O O14 0.572692 0.748066 0.678323
O O15 0.932242 0.500000 0.764119
O O16 0.995921 0.249058 0.794878
O O17 0.476995 0.500000 0.717729
O O18 0.533037 0.257260 0.734485
O O19 0.955674 0.500000 0.302867
O O20 0.087019 0.694463 0.474041
O O21 0.282308 0.000000 0.392945
#
# Coordination Sequence:
#
# PCOD9183232 Si02
#       8
#     8   8   8   8   8   8   8   8
#     4  10  22  40  61  83 111 149 194 238 281 329
#     4  10  20  35  55  80 110 148 192 234 279 331
#     4   9  19  32  49  76 109 144 182 228 278 331
#     4  11  22  34  53  83 118 153 186 227 280 337
#     4  11  22  36  54  78 109 145 189 234 281 334
#     4  10  20  35  55  79 110 145 185 231 282 337
#     4  10  19  33  54  80 112 146 181 223 276 335
#     4   9  17  29  49  76 106 142 181 223 271 328
#
# _framework density 19.171037999999999
#
# number of rings (size 3 to 8) (size 9 to 14) (size 15 to 20)
#    0.000    2.000    1.250    2.625    0.000    4.750 
#    0.000    0.000    0.000    0.750    0.000    0.000 
#    0.000    0.000    0.000    0.000    0.000    0.000 
#
# Total GULP energy -178440.152560 kJ/mol
# GULP energy per Si atom -5576.254768 kJ/mol
# Density = 1.912740 g / cm^3
# Si number density = 19.171038 Si / 1000 Ang^3
#
#
#
# Elastic Constant Matrix: (Units=GPa)
#
#
# Indices 1 2 3 4 5 6 
#
# 1 131.4791 33.8227 25.6236 0.0000 -4.1883 0.0000
# 2 33.8227 33.5322 12.2774 0.0000 1.7563 0.0000
# 3 25.6236 12.2774 38.3036 0.0000 0.5528 0.0000
# 4 0.0000 0.0000 0.0000 18.7363 0.0000 -4.8391
# 5 -4.1883 1.7563 0.5528 0.0000 24.4901 0.0000
# 6 0.0000 0.0000 0.0000 -4.8391 0.0000 32.5065
#
#
#
# Elastic Compliance Matrix: (Units=1/GPa)
#
#
# Indices 1 2 3 4 5 6 
#
# 1 0.011021 -0.009679 -0.004309 0.000000 0.002676 0.000000
# 2 -0.009679 0.042404 -0.007052 0.000000 -0.004537 0.000000
# 3 -0.004309 -0.007052 0.031263 0.000000 -0.000937 0.000000
# 4 0.000000 0.000000 0.000000 0.055506 0.000000 0.008263
# 5 0.002676 -0.004537 -0.000937 0.000000 0.041637 0.000000
# 6 0.000000 0.000000 0.000000 0.008263 0.000000 0.031993
#
#
# Mechanical properties :
#
#
# Convention : Reuss Voigt Hill
#
# Bulk Modulus (GPa) = 23.46861 38.52916 30.99889
# Shear Modulus (GPa) = 18.51131 23.91934 21.21532
#
# Velocity S-wave (km/s) = 3.11076 3.53609 3.33022
# Velocity P-wave (km/s) = 5.01704 6.06738 5.56704
#
# Compressibility (1/GPa) = 0.04261010
#
# Stress axis : x y z
#
# Youngs Moduli (GPa) = 90.73979 23.58271 31.98643
#
# Poissons Ratio (x) = 0.22825 0.13782
# Poissons Ratio (y) = 0.87823 0.22555
# Poissons Ratio (z) = 0.39097 0.16629
#
# Static dielectric constant tensor:
#      x y z
#    x 1.688190 0.000000 -0.000090 
#    y 0.000000 1.667790 0.000000 
#    z -0.000090 0.000000 1.688870 
# 
# From -- ./inp_files/353514.got.cif
#   From: 2010.05.17/outbox.cif.g08.bks.cpg/sg12_177_cif.got.tgz:353514.got - 2010.06.03 13:09:07.
