data_PCOD9183690
_publ_section_title
;
Structure prediction by ZEFSAII (Michael W. Deem and Ramdas Pophale) SiO2 
 PCOD9183690
Probable space group: C 2/M
;
_chemical_formula_sum "Si O2"
_cell_formula_units_Z 56
_cell_length_a 18.791801
_cell_length_b 20.934330
_cell_length_c 25.151749
_cell_angle_alpha 90.000000
_cell_angle_beta 17.586025
_cell_angle_gamma 90.000000
_cell_volume 2989.510845
_symmetry_space_group_name_H-M "C 2/M"
_symmetry_group_IT_number 12
_symmetry_cell_setting 'monoclinic'
loop_
_space_group_symop_operation_xyz
x,y,z
-x,y,-z
-x,-y,-z
x,-y,z
1/2+x,1/2+y,z
1/2-x,1/2+y,-z
1/2-x,1/2-y,-z
1/2+x,1/2-y,z
loop_
_atom_site_type_symbol
_atom_site_label
_atom_site_fract_x
_atom_site_fract_y
_atom_site_fract_z
Si Si1 0.393510 0.353637 0.414792
Si Si2 0.188976 0.574855 0.061615
Si Si3 0.924878 0.277911 0.724056
Si Si4 0.650040 0.422769 0.445931
Si Si5 0.950804 0.666836 0.591136
Si Si6 0.447119 0.620122 0.979679
Si Si7 0.374260 0.423988 0.319696
O O1 0.569234 0.297351 0.271364
O O2 0.443867 0.386803 0.434883
O O3 0.382322 0.405466 0.375965
O O4 0.143593 0.315502 0.595070
O O5 0.174468 0.500000 0.060357
O O6 0.922944 0.598925 0.244733
O O7 0.283233 0.583636 0.054646
O O8 0.390791 0.599977 0.878146
O O9 0.962886 0.288533 0.633962
O O10 0.691225 0.314438 0.908329
O O11 0.500000 0.409736 0.500000
O O12 0.647378 0.500000 0.456642
O O13 0.695022 0.634728 0.775915
O O14 0.000000 0.699731 0.500000
O O15 0.148309 0.612515 0.457518
O O16 0.500000 0.589466 0.000000
O O17 0.352150 0.500000 0.328383
#
# Coordination Sequence:
#
# PCOD9183690 Si02
#       7
#     8   8   8   8   8   8   8
#     4  10  19  38  59  79 108 150 195 242 286 336
#     4  10  20  36  56  83 120 153 189 238 287 344
#     4   9  20  35  55  80 113 152 193 234 283 336
#     4  10  21  38  61  86 112 146 194 249 297 341
#     4  10  19  33  55  84 123 153 186 227 275 343
#     4  10  19  35  54  83 123 154 188 232 280 344
#     4  10  21  36  57  86 119 156 191 231 289 347
#
# _framework density 18.732161000000001
#
# number of rings (size 3 to 8) (size 9 to 14) (size 15 to 20)
#    0.000    2.143    2.857    0.429    0.000    1.714 
#    0.000    7.143    0.000    3.429    0.000    0.000 
#    0.000    0.000    0.000    0.000    0.000    0.000 
#
# Total GULP energy -156080.195948 kJ/mol
# GULP energy per Si atom -5574.292712 kJ/mol
# Density = 1.868953 g / cm^3
# Si number density = 18.732161 Si / 1000 Ang^3
#
#
#
# Elastic Constant Matrix: (Units=GPa)
#
#
# Indices 1 2 3 4 5 6 
#
# 1 106.7542 4.5877 28.5895 -0.0123 -1.7443 0.1260
# 2 4.5877 27.6553 11.3475 -0.4331 -0.0295 -0.0419
# 3 28.5895 11.3475 84.1659 -0.7080 4.1949 0.3490
# 4 -0.0123 -0.4331 -0.7080 19.0931 0.0166 -3.6137
# 5 -1.7443 -0.0295 4.1949 0.0166 26.8597 -0.1027
# 6 0.1260 -0.0419 0.3490 -3.6137 -0.1027 9.6404
#
#
#
# Elastic Compliance Matrix: (Units=1/GPa)
#
#
# Indices 1 2 3 4 5 6 
#
# 1 0.010347 -0.000264 -0.003541 -0.000141 0.001225 -0.000048
# 2 -0.000264 0.038316 -0.005113 0.000805 0.000825 0.000665
# 3 -0.003541 -0.005113 0.013898 0.000327 -0.002408 -0.000382
# 4 -0.000141 0.000805 0.000327 0.056406 -0.000013 0.021137
# 5 0.001225 0.000825 -0.002408 -0.000013 0.037689 0.000471
# 6 -0.000048 0.000665 -0.000382 0.021137 0.000471 0.111676
#
#
# Mechanical properties :
#
#
# Convention : Reuss Voigt Hill
#
# Bulk Modulus (GPa) = 22.35968 34.18053 28.27010
# Shear Modulus (GPa) = 16.60707 22.72200 19.66454
#
# Velocity S-wave (km/s) = 2.98074 3.48659 3.24354
# Velocity P-wave (km/s) = 4.87943 5.87324 5.39925
#
# Compressibility (1/GPa) = 0.04472337
#
# Stress axis : x y z
#
# Youngs Moduli (GPa) = 96.64600 26.09884 71.95364
#
# Poissons Ratio (x) = 0.00690 0.25479
# Poissons Ratio (y) = 0.02556 0.36791
# Poissons Ratio (z) = 0.34223 0.13345
#
# Static dielectric constant tensor:
#      x y z
#    x 1.661110 0.000030 -0.012440 
#    y 0.000030 1.627700 0.000200 
#    z -0.012440 0.000200 1.666620 
# 
# From -- ./inp_files/77389.got.cif
#   From: 2010.05.17/outbox.cif.g08.bks.cpg/sg12_39_cif.got.tgz:77389.got - 2010.06.03 13:09:07.
