data_PCOD9183188
_publ_section_title
;
Structure prediction by ZEFSAII (Michael W. Deem and Ramdas Pophale) SiO2 
 PCOD9183188
Probable space group: C 2/M
;
_chemical_formula_sum "Si O2"
_cell_formula_units_Z 56
_cell_length_a 21.034211
_cell_length_b 8.606202
_cell_length_c 17.913446
_cell_angle_alpha 90.000000
_cell_angle_beta 62.529863
_cell_angle_gamma 90.000000
_cell_volume 2877.157150
_symmetry_space_group_name_H-M "C 2/M"
_symmetry_group_IT_number 12
_symmetry_cell_setting 'monoclinic'
loop_
_space_group_symop_operation_xyz
x,y,z
-x,y,-z
-x,-y,-z
x,-y,z
1/2+x,1/2+y,z
1/2-x,1/2+y,-z
1/2-x,1/2-y,-z
1/2+x,1/2-y,z
loop_
_atom_site_type_symbol
_atom_site_label
_atom_site_fract_x
_atom_site_fract_y
_atom_site_fract_z
Si Si1 0.667911 0.177759 0.630550
Si Si2 0.339356 0.326660 0.516937
Si Si3 0.080399 0.689455 0.974371
Si Si4 0.172076 0.686612 0.066095
Si Si5 0.188454 0.689550 0.784811
Si Si6 0.567210 0.819530 0.416601
Si Si7 0.655572 0.685541 0.240009
O O1 0.638500 0.279201 0.578570
O O2 0.753523 0.170083 0.570061
O O3 0.661274 0.240382 0.718120
O O4 0.640265 0.000000 0.641164
O O5 0.364909 0.500000 0.522850
O O6 0.368312 0.203759 0.560039
O O7 0.079229 0.500000 0.974948
O O8 0.135118 0.736937 0.879468
O O9 0.113872 0.737056 0.035539
O O10 0.000000 0.742654 0.000000
O O11 0.175235 0.500000 0.063738
O O12 0.153049 0.744380 0.158871
O O13 0.250000 0.750000 0.000000
O O14 0.189596 0.500000 0.780544
O O15 0.269356 0.737257 0.761700
O O16 0.500000 0.756277 0.500000
O O17 0.590662 0.735872 0.328372
O O18 0.554092 0.000000 0.407389
O O19 0.658030 0.500000 0.233065
#
# Coordination Sequence:
#
# PCOD9183188 Si02
#       7
#     8   8   8   8   8   8   8
#     4   9  17  31  52  79 109 143 185 235 284 335
#     4  10  19  33  54  79 109 145 185 229 288 348
#     4   9  18  34  57  85 118 155 196 244 294 350
#     4  11  21  36  61  93 124 158 206 253 303 361
#     4   9  16  31  55  82 110 147 193 238 288 348
#     4  11  24  41  59  82 114 152 199 251 302 358
#     4  11  21  38  62  88 117 152 199 250 304 363
#
# _framework density 19.463657999999999
#
# number of rings (size 3 to 8) (size 9 to 14) (size 15 to 20)
#    0.000    2.000    2.857    1.714    0.000    1.714 
#    2.571    0.000    0.000    1.714    0.000    0.000 
#    0.000    0.000    0.000    0.000    0.000    0.000 
#
# Total GULP energy -156214.954747 kJ/mol
# GULP energy per Si atom -5579.105527 kJ/mol
# Density = 1.941936 g / cm^3
# Si number density = 19.463658 Si / 1000 Ang^3
#
#
#
# Elastic Constant Matrix: (Units=GPa)
#
#
# Indices 1 2 3 4 5 6 
#
# 1 62.6955 12.8770 50.1726 0.0000 4.3246 -0.0001
# 2 12.8770 28.0583 26.9009 0.0000 -1.1856 -0.0002
# 3 50.1726 26.9009 166.4123 0.0000 18.6760 0.0000
# 4 0.0000 0.0000 0.0000 25.1630 0.0000 3.1831
# 5 4.3246 -1.1856 18.6760 0.0000 35.1500 0.0000
# 6 -0.0001 -0.0002 0.0000 3.1831 0.0000 18.8255
#
#
#
# Elastic Compliance Matrix: (Units=1/GPa)
#
#
# Indices 1 2 3 4 5 6 
#
# 1 0.021457 -0.004259 -0.005815 0.000000 0.000306 0.000000
# 2 -0.004259 0.043996 -0.006437 0.000000 0.005428 0.000000
# 3 -0.005815 -0.006437 0.009302 0.000000 -0.004444 0.000000
# 4 0.000000 0.000000 0.000000 0.040610 0.000000 -0.006866
# 5 0.000306 0.005428 -0.004444 0.000000 0.030956 0.000000
# 6 0.000000 0.000000 0.000000 -0.006866 0.000000 0.054281
#
#
# Mechanical properties :
#
#
# Convention : Reuss Voigt Hill
#
# Bulk Modulus (GPa) = 23.96255 48.56300 36.26277
# Shear Modulus (GPa) = 20.19918 26.97539 23.58728
#
# Velocity S-wave (km/s) = 3.22497 3.72686 3.48496
# Velocity P-wave (km/s) = 5.11912 6.59727 5.90463
#
# Compressibility (1/GPa) = 0.04173179
#
# Stress axis : x y z
#
# Youngs Moduli (GPa) = 46.60384 22.72944 107.50741
#
# Poissons Ratio (x) = 0.09682 0.62517
# Poissons Ratio (y) = 0.19851 0.69202
# Poissons Ratio (z) = 0.27101 0.14631
#
# Static dielectric constant tensor:
#      x y z
#    x 1.694510 0.000000 -0.000430 
#    y 0.000000 1.672840 0.000000 
#    z -0.000430 0.000000 1.676860 
# 
# From -- ./inp_files/281016.got.cif
#   From: 2010.05.17/outbox.cif.g08.bks.cpg/sg12_141_cif.got.tgz:281016.got - 2010.06.03 13:09:07.
