data_PCOD9183417
_publ_section_title
;
Structure prediction by ZEFSAII (Michael W. Deem and Ramdas Pophale) SiO2 
 PCOD9183417
Probable space group: C 2/M
;
_chemical_formula_sum "Si O2"
_cell_formula_units_Z 48
_cell_length_a 20.939034
_cell_length_b 8.734933
_cell_length_c 15.214529
_cell_angle_alpha 90.000000
_cell_angle_beta 99.335716
_cell_angle_gamma 90.000000
_cell_volume 2745.895305
_symmetry_space_group_name_H-M "C 2/M"
_symmetry_group_IT_number 12
_symmetry_cell_setting 'monoclinic'
loop_
_space_group_symop_operation_xyz
x,y,z
-x,y,-z
-x,-y,-z
x,-y,z
1/2+x,1/2+y,z
1/2-x,1/2+y,-z
1/2-x,1/2-y,-z
1/2+x,1/2-y,z
loop_
_atom_site_type_symbol
_atom_site_label
_atom_site_fract_x
_atom_site_fract_y
_atom_site_fract_z
Si Si1 0.795187 0.817829 0.434098
Si Si2 0.557552 0.684607 0.949987
Si Si3 0.196365 0.184958 0.053469
Si Si4 0.083890 0.682568 0.771446
Si Si5 0.731543 0.183580 0.759366
Si Si6 0.563921 0.185296 0.568079
O O1 0.750000 0.750000 0.500000
O O2 0.766679 0.766842 0.333272
O O3 0.868735 0.753311 0.452692
O O4 0.796989 0.000000 0.440960
O O5 0.557222 0.500000 0.949680
O O6 0.552771 0.739986 0.848914
O O7 0.500000 0.738215 0.000000
O O8 0.626059 0.736013 0.005741
O O9 0.215065 0.228725 0.157177
O O10 0.198937 0.000000 0.050493
O O11 0.250000 0.250000 0.000000
O O12 0.076362 0.500000 0.777443
O O13 0.160911 0.715985 0.785692
O O14 0.058133 0.729831 0.669641
O O15 0.734531 0.000000 0.744976
O O16 0.500000 0.229917 0.500000
O O17 0.569710 0.000000 0.566531
#
# Coordination Sequence:
#
# PCOD9183417 Si02
#       6
#     8   8   8   8   8   8
#     4  11  22  37  58  83 113 145 182 228 279 331
#     4  10  21  35  50  74 110 145 173 213 270 319
#     4  10  19  33  55  78 105 139 180 223 264 317
#     4   9  17  32  55  79 103 137 177 218 263 315
#     4   9  18  34  55  79 106 139 182 226 271 321
#     4   9  19  38  61  82 111 145 180 224 276 332
#
# _framework density 17.480639
#
# number of rings (size 3 to 8) (size 9 to 14) (size 15 to 20)
#    0.000    2.333    1.667    2.500    0.000    4.000 
#    3.000    0.000    0.000    0.000    0.000    0.000 
#    0.000    0.000    0.000    0.000    0.000    0.000 
#
# Total GULP energy -133879.756164 kJ/mol
# GULP energy per Si atom -5578.323174 kJ/mol
# Density = 1.744085 g / cm^3
# Si number density = 17.480639 Si / 1000 Ang^3
#
#
#
# Elastic Constant Matrix: (Units=GPa)
#
#
# Indices 1 2 3 4 5 6 
#
# 1 130.4266 36.4716 101.9917 0.0000 -2.9850 0.0000
# 2 36.4716 30.0799 43.8354 0.0000 -5.3264 0.0000
# 3 101.9917 43.8354 156.0026 0.0000 -5.6474 0.0000
# 4 0.0000 0.0000 0.0000 31.7695 0.0000 -4.9499
# 5 -2.9850 -5.3264 -5.6474 0.0000 35.4711 0.0000
# 6 0.0000 0.0000 0.0000 -4.9499 0.0000 21.9259
#
#
#
# Elastic Compliance Matrix: (Units=1/GPa)
#
#
# Indices 1 2 3 4 5 6 
#
# 1 0.016625 -0.007551 -0.008788 0.000000 -0.001134 0.000000
# 2 -0.007551 0.061014 -0.011968 0.000000 0.006621 0.000000
# 3 -0.008788 -0.011968 0.015516 0.000000 -0.000066 0.000000
# 4 0.000000 0.000000 0.000000 0.032624 0.000000 0.007365
# 5 -0.001134 0.006621 -0.000066 0.000000 0.029080 0.000000
# 6 0.000000 0.000000 0.000000 0.007365 0.000000 0.047271
#
#
# Mechanical properties :
#
#
# Convention : Reuss Voigt Hill
#
# Bulk Modulus (GPa) = 27.36706 75.67851 51.52278
# Shear Modulus (GPa) = 18.45522 26.78068 22.61795
#
# Velocity S-wave (km/s) = 3.25276 3.91835 3.60096
# Velocity P-wave (km/s) = 5.45865 7.99112 6.84306
#
# Compressibility (1/GPa) = 0.03654029
#
# Stress axis : x y z
#
# Youngs Moduli (GPa) = 60.14945 16.38971 64.44818
#
# Poissons Ratio (x) = 0.12376 0.56640
# Poissons Ratio (y) = 0.45421 0.77130
# Poissons Ratio (z) = 0.52862 0.19615
#
# Static dielectric constant tensor:
#      x y z
#    x 1.578570 0.000000 0.020900 
#    y 0.000000 1.592300 0.000000 
#    z 0.020900 0.000000 1.590500 
# 
# From -- ./inp_files/221541.got.cif
#   From: 2010.05.17/outbox.cif.g08.bks.cpg/sg12_111_cif.got.tgz:221541.got - 2010.06.03 13:09:07.
