data_PCOD9183810
_publ_section_title
;
Structure prediction by ZEFSAII (Michael W. Deem and Ramdas Pophale) SiO2 
 PCOD9183810
Probable space group: C 2/M
;
_chemical_formula_sum "Si O2"
_cell_formula_units_Z 64
_cell_length_a 8.882425
_cell_length_b 24.598056
_cell_length_c 20.435758
_cell_angle_alpha 90.000000
_cell_angle_beta 131.212881
_cell_angle_gamma 90.000000
_cell_volume 3358.883841
_symmetry_space_group_name_H-M "C 2/M"
_symmetry_group_IT_number 12
_symmetry_cell_setting 'monoclinic'
loop_
_space_group_symop_operation_xyz
x,y,z
-x,y,-z
-x,-y,-z
x,-y,z
1/2+x,1/2+y,z
1/2-x,1/2+y,-z
1/2-x,1/2-y,-z
1/2+x,1/2-y,z
loop_
_atom_site_type_symbol
_atom_site_label
_atom_site_fract_x
_atom_site_fract_y
_atom_site_fract_z
Si Si1 0.881414 0.938123 0.033307
Si Si2 0.991346 0.355865 0.770677
Si Si3 0.646753 0.722123 0.362092
Si Si4 0.762573 0.698441 0.252925
Si Si5 0.429809 0.060045 0.853161
Si Si6 0.875459 0.748397 0.103725
Si Si7 0.075360 0.820740 0.586595
Si Si8 0.225957 0.640423 0.092466
O O1 0.878030 0.889954 0.085960
O O2 0.944393 0.000000 0.071474
O O3 0.644124 0.942352 0.950528
O O4 0.000000 0.924757 0.000000
O O5 0.140567 0.353481 0.752480
O O6 0.077877 0.309704 0.847424
O O7 0.984770 0.414543 0.799995
O O8 0.766614 0.342200 0.682436
O O9 0.678328 0.692074 0.301968
O O10 0.445772 0.758712 0.303892
O O11 0.828529 0.764645 0.414321
O O12 0.608652 0.687380 0.416002
O O13 0.591652 0.724043 0.159220
O O14 0.287154 0.103442 0.847297
O O15 0.343500 0.000000 0.827959
O O16 0.771788 0.796538 0.116040
O O17 0.750000 0.750000 0.000000
O O18 0.000000 0.851347 0.500000
O O19 0.000000 0.639747 0.000000
#
# Coordination Sequence:
#
# PCOD9183810 Si02
#       8
#     8   8   8   8   8   8   8   8
#     4   9  18  35  53  73 102 140 195 246 277 316
#     4  11  24  38  55  80 118 146 189 237 289 343
#     4   9  17  34  52  74 113 150 188 224 274 338
#     4  10  20  34  50  74 114 159 181 228 277 333
#     4  10  22  40  60  76 103 151 200 245 287 333
#     4  12  24  33  52  80 121 156 190 227 286 343
#     4  10  19  33  56  81 110 148 187 230 286 348
#     4  10  22  35  53  78 108 148 198 237 284 335
#
# _framework density 19.053947000000001
#
# number of rings (size 3 to 8) (size 9 to 14) (size 15 to 20)
#    0.000    1.875    3.750    2.250    7.000    1.500 
#    0.000    0.000    0.000    0.375    0.000    0.000 
#    0.000    1.000    0.000    0.000    0.000    0.000 
#
# Total GULP energy -178196.896438 kJ/mol
# GULP energy per Si atom -5568.653014 kJ/mol
# Density = 1.901058 g / cm^3
# Si number density = 19.053947 Si / 1000 Ang^3
#
#
#
# Elastic Constant Matrix: (Units=GPa)
#
#
# Indices 1 2 3 4 5 6 
#
# 1 108.5692 24.5345 7.9055 0.0000 -19.4569 0.0000
# 2 24.5345 60.6183 16.2591 0.0000 -10.0852 0.0000
# 3 7.9055 16.2591 73.5353 0.0000 -5.9898 0.0000
# 4 0.0000 0.0000 0.0000 -2.6364 0.0000 3.4705
# 5 -19.4569 -10.0852 -5.9898 0.0000 24.6564 0.0000
# 6 0.0000 0.0000 0.0000 3.4705 0.0000 22.2967
#
#
#
# Elastic Compliance Matrix: (Units=1/GPa)
#
#
# Indices 1 2 3 4 5 6 
#
# 1 0.011320 -0.003357 0.000144 0.000000 0.007595 0.000000
# 2 -0.003357 0.019566 -0.003600 0.000000 0.004480 0.000000
# 3 0.000144 -0.003600 0.014557 0.000000 0.002177 0.000000
# 4 0.000000 0.000000 0.000000 -0.314801 0.000000 0.048999
# 5 0.007595 0.004480 0.002177 0.000000 0.048912 0.000000
# 6 0.000000 0.000000 0.000000 0.048999 0.000000 0.037223
#
#
# Mechanical properties :
#
#
# Convention : Reuss Voigt Hill
#
# Bulk Modulus (GPa) = 31.43023 37.79122 34.61072
# Shear Modulus (GPa) = -31.44834 21.79824 -4.82505
#
# Velocity S-wave (km/s) = -4.06703 3.38602 -1.59305
# Velocity P-wave (km/s) = 2.35013 5.92990 3.84971
#
# Compressibility (1/GPa) = 0.03181651
#
# Stress axis : x y z
#
# Youngs Moduli (GPa) = 88.34047 51.10849 68.69613
#
# Poissons Ratio (x) = 0.17155 -0.00988
# Poissons Ratio (y) = 0.29652 0.24734
# Poissons Ratio (z) = -0.01271 0.18401
#
# Static dielectric constant tensor:
#      x y z
#    x 1.761580 0.000000 -0.021740 
#    y 0.000000 1.698630 0.000000 
#    z -0.021740 0.000000 1.751580 
# 
# From -- ./inp_files/302680.got.cif
#   From: 2010.05.17/outbox.cif.g08.bks.cpg/sg12_152_cif.got.tgz:302680.got - 2010.06.03 13:09:07.
