data_PCOD9183342
_publ_section_title
;
Structure prediction by ZEFSAII (Michael W. Deem and Ramdas Pophale) SiO2 
 PCOD9183342
Probable space group: C 2/M
;
_chemical_formula_sum "Si O2"
_cell_formula_units_Z 64
_cell_length_a 29.254657
_cell_length_b 9.279513
_cell_length_c 14.362426
_cell_angle_alpha 90.000000
_cell_angle_beta 53.424645
_cell_angle_gamma 90.000000
_cell_volume 3131.147225
_symmetry_space_group_name_H-M "C 2/M"
_symmetry_group_IT_number 12
_symmetry_cell_setting 'monoclinic'
loop_
_space_group_symop_operation_xyz
x,y,z
-x,y,-z
-x,-y,-z
x,-y,z
1/2+x,1/2+y,z
1/2-x,1/2+y,-z
1/2-x,1/2-y,-z
1/2+x,1/2-y,z
loop_
_atom_site_type_symbol
_atom_site_label
_atom_site_fract_x
_atom_site_fract_y
_atom_site_fract_z
Si Si1 0.585294 0.336783 0.446628
Si Si2 0.425378 0.168554 0.721433
Si Si3 0.792967 0.163055 0.641032
Si Si4 0.692697 0.829309 0.039308
Si Si5 0.337572 0.829568 0.131399
Si Si6 0.098910 0.826529 0.785442
Si Si7 0.019464 0.171179 0.717197
Si Si8 0.692054 0.831536 0.548306
O O1 0.565432 0.500000 0.453423
O O2 0.562560 0.234177 0.394259
O O3 0.654118 0.339869 0.353127
O O4 0.565077 0.301461 0.577036
O O5 0.359137 0.189309 0.826726
O O6 0.463876 0.245521 0.752072
O O7 0.437841 0.000000 0.707656
O O8 0.727763 0.182993 0.750928
O O9 0.811455 0.297334 0.555714
O O10 0.795628 0.000000 0.593342
O O11 0.705301 0.000000 0.015376
O O12 0.750000 0.750000 0.000000
O O13 0.668785 0.781954 0.967558
O O14 0.383595 0.742043 0.136544
O O15 0.351928 0.000000 0.118116
O O16 0.042268 0.792176 0.793387
O O17 0.145662 0.754954 0.661788
O O18 0.103679 0.000000 0.784205
O O19 0.009739 0.000000 0.728731
O O20 0.750000 0.750000 0.500000
O O21 0.691036 0.000000 0.571151
#
# Coordination Sequence:
#
# PCOD9183342 Si02
#       8
#     8   8   8   8   8   8   8   8
#     4  10  20  37  60  86 120 162 202 242 296 360
#     4  11  24  40  60  89 121 152 198 254 300 350
#     4  10  19  33  54  83 116 153 197 242 291 351
#     4  10  23  44  67  92 121 155 196 245 300 356
#     4  10  21  37  60  87 118 158 200 245 301 356
#     4  11  22  38  58  85 119 156 201 249 294 353
#     4  10  22  40  61  85 118 161 202 240 294 362
#     4  12  22  32  50  78 118 162 198 238 289 349
#
# _framework density 20.439793000000002
#
# number of rings (size 3 to 8) (size 9 to 14) (size 15 to 20)
#    0.000    1.500    2.500    3.000    0.000    6.000 
#    0.000    0.625    0.000    3.750    0.000    0.000 
#    0.000    0.000    0.000    0.000    0.000    0.000 
#
# Total GULP energy -178408.156919 kJ/mol
# GULP energy per Si atom -5575.254904 kJ/mol
# Density = 2.039327 g / cm^3
# Si number density = 20.439793 Si / 1000 Ang^3
#
#
#
# Elastic Constant Matrix: (Units=GPa)
#
#
# Indices 1 2 3 4 5 6 
#
# 1 147.9534 67.9235 23.7538 0.0000 12.8662 0.0000
# 2 67.9235 50.4084 22.0641 0.0000 8.6199 0.0000
# 3 23.7538 22.0641 27.7745 0.0000 18.8944 0.0000
# 4 0.0000 0.0000 0.0000 19.5703 0.0000 3.0608
# 5 12.8662 8.6199 18.8944 0.0000 32.5807 0.0000
# 6 0.0000 0.0000 0.0000 3.0608 0.0000 37.5855
#
#
#
# Elastic Compliance Matrix: (Units=1/GPa)
#
#
# Indices 1 2 3 4 5 6 
#
# 1 0.019102 -0.029750 0.011683 0.000000 -0.006448 0.000000
# 2 -0.029750 0.078791 -0.051131 0.000000 0.020555 0.000000
# 3 0.011683 -0.051131 0.100030 0.000000 -0.049096 0.000000
# 4 0.000000 0.000000 0.000000 0.051757 0.000000 -0.004215
# 5 -0.006448 0.020555 -0.049096 0.000000 0.056273 0.000000
# 6 0.000000 0.000000 0.000000 -0.004215 0.000000 0.026949
#
#
# Mechanical properties :
#
#
# Convention : Reuss Voigt Hill
#
# Bulk Modulus (GPa) = 16.79931 50.40211 33.60071
# Shear Modulus (GPa) = 10.18040 25.44030 17.81035
#
# Velocity S-wave (km/s) = 2.23416 3.53178 2.95508
# Velocity P-wave (km/s) = 3.85903 6.42990 5.30263
#
# Compressibility (1/GPa) = 0.05952627
#
# Stress axis : x y z
#
# Youngs Moduli (GPa) = 52.35098 12.69180 9.99704
#
# Poissons Ratio (x) = 0.37759 -0.11680
# Poissons Ratio (y) = 1.55746 0.51116
# Poissons Ratio (z) = -0.61163 0.64895
#
# Static dielectric constant tensor:
#      x y z
#    x 1.710440 0.000000 0.055790 
#    y 0.000000 1.708140 0.000000 
#    z 0.055790 0.000000 1.774910 
# 
# From -- ./inp_files/249777.got.cif
#   From: 2010.05.17/outbox.cif.g08.bks.cpg/sg12_125_cif.got.tgz:249777.got - 2010.06.03 13:09:07.
