data_PCOD9183641
_publ_section_title
;
Structure prediction by ZEFSAII (Michael W. Deem and Ramdas Pophale) SiO2 
 PCOD9183641
Probable space group: C 2/M
;
_chemical_formula_sum "Si O2"
_cell_formula_units_Z 64
_cell_length_a 33.379149
_cell_length_b 8.754419
_cell_length_c 20.995322
_cell_angle_alpha 90.000000
_cell_angle_beta 143.444497
_cell_angle_gamma 90.000000
_cell_volume 3654.102297
_symmetry_space_group_name_H-M "C 2/M"
_symmetry_group_IT_number 12
_symmetry_cell_setting 'monoclinic'
loop_
_space_group_symop_operation_xyz
x,y,z
-x,y,-z
-x,-y,-z
x,-y,z
1/2+x,1/2+y,z
1/2-x,1/2+y,-z
1/2-x,1/2-y,-z
1/2+x,1/2-y,z
loop_
_atom_site_type_symbol
_atom_site_label
_atom_site_fract_x
_atom_site_fract_y
_atom_site_fract_z
Si Si1 0.791390 0.816284 0.612476
Si Si2 0.934744 0.816592 0.742787
Si Si3 0.721962 0.683828 0.649153
Si Si4 0.714636 0.316749 0.142149
Si Si5 0.566030 0.816621 0.755491
Si Si6 0.422822 0.182472 0.081161
Si Si7 0.075960 0.816810 0.419617
Si Si8 0.707996 0.815503 0.887352
O O1 0.750000 0.750000 0.500000
O O2 0.869827 0.777151 0.701603
O O3 0.761991 0.748170 0.639587
O O4 0.785554 0.000000 0.604995
O O5 0.919077 0.774230 0.649039
O O6 0.004293 0.736508 0.849779
O O7 0.943997 0.000000 0.756515
O O8 0.724195 0.500000 0.650551
O O9 0.753992 0.745633 0.754587
O O10 0.643873 0.732448 0.541463
O O11 0.715694 0.500000 0.147805
O O12 0.758103 0.269361 0.135660
O O13 0.638870 0.260124 0.033498
O O14 0.579747 0.772993 0.846963
O O15 0.494035 0.749702 0.644653
O O16 0.630315 0.767567 0.796495
O O17 0.561569 0.000000 0.747879
O O18 0.416904 0.000000 0.069653
O O19 0.072443 0.000000 0.417851
O O20 0.710045 0.000000 0.893789
O O21 0.750000 0.750000 0.000000
#
# Coordination Sequence:
#
# PCOD9183641 Si02
#       8
#     8   8   8   8   8   8   8   8
#     4  11  21  36  59  87 116 147 188 234 279 330
#     4   9  18  34  55  82 114 144 180 229 277 328
#     4  11  23  40  58  81 115 152 189 234 280 334
#     4  11  23  38  57  82 113 153 189 227 282 342
#     4   9  18  32  53  83 112 140 181 231 278 325
#     4  10  19  33  55  83 113 146 184 229 278 331
#     4   9  18  34  54  79 110 146 184 223 276 330
#     4  10  20  35  56  83 113 143 186 233 278 329
#
# _framework density 17.514561
#
# number of rings (size 3 to 8) (size 9 to 14) (size 15 to 20)
#    0.000    2.000    2.500    1.500    0.000    3.500 
#    0.000    1.250    0.000    7.500    0.000    0.000 
#    0.000    0.000    0.000    0.000    0.000    0.000 
#
# Total GULP energy -178617.894921 kJ/mol
# GULP energy per Si atom -5581.809216 kJ/mol
# Density = 1.747470 g / cm^3
# Si number density = 17.514561 Si / 1000 Ang^3
#
#
#
# Elastic Constant Matrix: (Units=GPa)
#
#
# Indices 1 2 3 4 5 6 
#
# 1 131.5340 43.3668 95.2166 0.0000 16.6195 0.0000
# 2 43.3668 38.3905 49.1820 0.0000 6.0031 0.0000
# 3 95.2166 49.1820 158.0975 0.0000 18.9655 0.0000
# 4 0.0000 0.0000 0.0000 32.0999 0.0000 3.6187
# 5 16.6195 6.0031 18.9655 0.0000 33.7867 0.0000
# 6 0.0000 0.0000 0.0000 3.6187 0.0000 23.5067
#
#
#
# Elastic Compliance Matrix: (Units=1/GPa)
#
#
# Indices 1 2 3 4 5 6 
#
# 1 0.015345 -0.009124 -0.006103 0.000000 -0.002501 0.000000
# 2 -0.009124 0.048733 -0.009827 0.000000 0.001345 0.000000
# 3 -0.006103 -0.009827 0.013390 0.000000 -0.002768 0.000000
# 4 0.000000 0.000000 0.000000 0.031703 0.000000 -0.004881
# 5 -0.002501 0.001345 -0.002768 0.000000 0.032142 0.000000
# 6 0.000000 0.000000 0.000000 -0.004881 0.000000 0.043292
#
#
# Mechanical properties :
#
#
# Convention : Reuss Voigt Hill
#
# Bulk Modulus (GPa) = 36.54915 78.17254 57.36084
# Shear Modulus (GPa) = 20.50575 27.22909 23.86742
#
# Velocity S-wave (km/s) = 3.42538 3.94719 3.69551
# Velocity P-wave (km/s) = 6.04628 8.09342 7.14356
#
# Compressibility (1/GPa) = 0.02736042
#
# Stress axis : x y z
#
# Youngs Moduli (GPa) = 65.16795 20.51988 74.68223
#
# Poissons Ratio (x) = 0.18722 0.45582
# Poissons Ratio (y) = 0.59459 0.73387
# Poissons Ratio (z) = 0.39775 0.20164
#
# Static dielectric constant tensor:
#      x y z
#    x 1.592390 0.000000 0.016570 
#    y 0.000000 1.587500 0.000000 
#    z 0.016570 0.000000 1.571810 
# 
# From -- ./inp_files/295710.got.cif
#   From: 2010.05.17/outbox.cif.g08.bks.cpg/sg12_148_cif.got.tgz:295710.got - 2010.06.03 13:09:07.
