data_PCOD9183177
_publ_section_title
;
Structure prediction by ZEFSAII (Michael W. Deem and Ramdas Pophale) SiO2 
 PCOD9183177
Probable space group: C 2/M
;
_chemical_formula_sum "Si O2"
_cell_formula_units_Z 40
_cell_length_a 20.042630
_cell_length_b 10.786870
_cell_length_c 19.895082
_cell_angle_alpha 90.000000
_cell_angle_beta 151.040211
_cell_angle_gamma 90.000000
_cell_volume 2082.652433
_symmetry_space_group_name_H-M "C 2/M"
_symmetry_group_IT_number 12
_symmetry_cell_setting 'monoclinic'
loop_
_space_group_symop_operation_xyz
x,y,z
-x,y,-z
-x,-y,-z
x,-y,z
1/2+x,1/2+y,z
1/2-x,1/2+y,-z
1/2-x,1/2-y,-z
1/2+x,1/2-y,z
loop_
_atom_site_type_symbol
_atom_site_label
_atom_site_fract_x
_atom_site_fract_y
_atom_site_fract_z
Si Si1 0.836030 0.864576 0.868183
Si Si2 0.694872 0.356589 0.501303
Si Si3 0.671655 0.140492 0.235054
Si Si4 0.085676 0.134674 0.808877
Si Si5 0.877502 0.285053 0.028325
O O1 0.787399 0.748558 0.780587
O O2 0.825624 0.829287 0.936966
O O3 0.776059 0.000000 0.799611
O O4 0.000000 0.871959 0.000000
O O5 0.732500 0.500000 0.514876
O O6 0.750000 0.250000 0.500000
O O7 0.751640 0.339632 0.626353
O O8 0.529409 0.347588 0.349259
O O9 0.698700 0.000000 0.235058
O O10 0.507517 0.153744 0.105919
O O11 0.240491 0.136520 0.918279
O O12 0.057068 0.000000 0.815049
O O13 0.073800 0.237075 0.856244
#
# Coordination Sequence:
#
# PCOD9183177 Si02
#       5
#     8   8   8   8   8
#     4   9  19  34  54  79 106 139 178 219 264 315
#     4  10  20  36  54  78 108 141 179 217 266 319
#     4  10  20  34  55  80 106 138 180 222 260 313
#     4  10  20  33  53  79 110 142 173 218 272 320
#     4  10  19  33  54  79 108 138 179 219 265 317
#
# _framework density 19.206275999999999
#
# number of rings (size 3 to 8) (size 9 to 14) (size 15 to 20)
#    0.000    2.200    2.000    1.200    0.000    6.000 
#    0.000    2.000    0.000    4.800    0.000    0.000 
#    0.000    0.000    0.000    0.000    0.000    0.000 
#
# Total GULP energy -111416.291051 kJ/mol
# GULP energy per Si atom -5570.814553 kJ/mol
# Density = 1.916256 g / cm^3
# Si number density = 19.206276 Si / 1000 Ang^3
#
#
#
# Elastic Constant Matrix: (Units=GPa)
#
#
# Indices 1 2 3 4 5 6 
#
# 1 20.5390 13.0918 13.4180 0.0001 -10.0717 0.0000
# 2 13.0918 124.7926 50.6868 0.0001 -20.8882 0.0001
# 3 13.4180 50.6868 100.2574 0.0001 -6.4942 0.0000
# 4 0.0001 0.0001 0.0001 23.0678 0.0001 -7.3889
# 5 -10.0717 -20.8882 -6.4942 0.0001 20.5455 0.0000
# 6 0.0000 0.0001 0.0000 -7.3889 0.0000 7.3842
#
#
#
# Elastic Compliance Matrix: (Units=1/GPa)
#
#
# Indices 1 2 3 4 5 6 
#
# 1 0.068971 0.001434 -0.007832 -0.000001 0.032793 -0.000001
# 2 0.001434 0.011968 -0.005522 0.000000 0.011125 0.000000
# 3 -0.007832 -0.005522 0.013478 0.000000 -0.005193 0.000000
# 4 -0.000001 0.000000 0.000000 0.063799 -0.000001 0.063840
# 5 0.032793 0.011125 -0.005193 -0.000001 0.074417 -0.000001
# 6 -0.000001 0.000000 0.000000 0.063840 -0.000001 0.199305
#
#
# Mechanical properties :
#
#
# Convention : Reuss Voigt Hill
#
# Bulk Modulus (GPa) = 14.16868 44.44246 29.30557
# Shear Modulus (GPa) = 10.43182 21.42565 15.92873
#
# Velocity S-wave (km/s) = 2.33308 3.34362 2.88297
# Velocity P-wave (km/s) = 3.82764 6.17221 5.13551
#
# Compressibility (1/GPa) = 0.07057819
#
# Stress axis : x y z
#
# Youngs Moduli (GPa) = 14.49886 83.55765 74.19625
#
# Poissons Ratio (x) = -0.11986 0.58108
# Poissons Ratio (y) = -0.02080 0.40970
# Poissons Ratio (z) = 0.11355 0.46139
#
# Static dielectric constant tensor:
#      x y z
#    x 1.652180 0.000000 0.002330 
#    y 0.000000 1.725190 0.000000 
#    z 0.002330 0.000000 1.658830 
# 
# From -- ./inp_files/83370.got.cif
#   From: 2010.05.17/outbox.cif.g08.bks.cpg/sg12_42_cif.got.tgz:83370.got - 2010.06.03 13:09:07.
