data_PCOD9183480
_publ_section_title
;
Structure prediction by ZEFSAII (Michael W. Deem and Ramdas Pophale) SiO2 
 PCOD9183480
Probable space group: C 2/M
;
_chemical_formula_sum "Si O2"
_cell_formula_units_Z 64
_cell_length_a 20.329345
_cell_length_b 7.483712
_cell_length_c 31.852909
_cell_angle_alpha 90.000000
_cell_angle_beta 141.563181
_cell_angle_gamma 90.000000
_cell_volume 3012.564635
_symmetry_space_group_name_H-M "C 2/M"
_symmetry_group_IT_number 12
_symmetry_cell_setting 'monoclinic'
loop_
_space_group_symop_operation_xyz
x,y,z
-x,y,-z
-x,-y,-z
x,-y,z
1/2+x,1/2+y,z
1/2-x,1/2+y,-z
1/2-x,1/2-y,-z
1/2+x,1/2-y,z
loop_
_atom_site_type_symbol
_atom_site_label
_atom_site_fract_x
_atom_site_fract_y
_atom_site_fract_z
Si Si1 0.480653 0.284300 0.537709
Si Si2 0.246700 0.286813 0.949377
Si Si3 0.753363 0.213001 0.452786
Si Si4 0.371200 0.712903 0.812665
Si Si5 0.019266 0.715480 0.806943
Si Si6 0.524854 0.718798 0.964880
Si Si7 0.025014 0.280855 0.310112
Si Si8 0.628986 0.787068 0.691508
O O1 0.500000 0.222094 0.500000
O O2 0.477917 0.500000 0.535424
O O3 0.364688 0.215962 0.492203
O O4 0.566624 0.240650 0.616518
O O5 0.245891 0.500000 0.941595
O O6 0.135400 0.216016 0.877275
O O7 0.250000 0.250000 0.000000
O O8 0.356431 0.218999 0.985609
O O9 0.750000 0.250000 0.500000
O O10 0.643646 0.280927 0.379449
O O11 0.754194 0.000000 0.445719
O O12 0.363780 0.500000 0.814691
O O13 0.433690 0.740334 0.800121
O O14 0.442764 0.779476 0.887644
O O15 0.250090 0.782331 0.751270
O O16 0.022187 0.500000 0.807602
O O17 0.998054 0.774952 0.748920
O O18 0.523814 0.500000 0.962904
O O19 0.500000 0.771265 0.000000
O O20 0.023625 0.500000 0.310619
O O21 0.942634 0.220791 0.305069
O O22 0.636244 0.000000 0.700794
#
# Coordination Sequence:
#
# PCOD9183480 Si02
#       8
#     8   8   8   8   8   8   8   8
#     4  10  22  37  56  81 108 140 178 217 263 320
#     4  10  19  33  55  80 105 138 179 220 264 311
#     4  10  19  35  57  78 103 138 177 219 266 311
#     4  10  21  36  54  79 110 141 175 219 269 315
#     4  10  21  35  56  81 106 141 181 217 260 318
#     4   9  18  32  53  79 107 139 177 221 263 306
#     4   9  19  35  55  79 106 137 176 221 263 307
#     4  10  21  37  56  78 107 141 177 220 267 313
#
# _framework density 21.244356
#
# number of rings (size 3 to 8) (size 9 to 14) (size 15 to 20)
#    0.000    2.250    2.500    0.000    3.500    0.750 
#    0.000    1.250    0.000    1.500    0.000    0.000 
#    0.000    0.000    0.000    0.000    0.000    0.000 
#
# Total GULP energy -178624.625482 kJ/mol
# GULP energy per Si atom -5582.019546 kJ/mol
# Density = 2.119600 g / cm^3
# Si number density = 21.244356 Si / 1000 Ang^3
#
#
#
# Elastic Constant Matrix: (Units=GPa)
#
#
# Indices 1 2 3 4 5 6 
#
# 1 227.7638 -0.9225 141.8945 -0.0002 10.1276 0.0002
# 2 -0.9225 60.6004 3.0906 -0.0003 6.2819 0.0005
# 3 141.8945 3.0906 242.5227 0.0000 9.1730 0.0001
# 4 -0.0002 -0.0003 0.0000 8.0961 0.0001 -2.7005
# 5 10.1276 6.2819 9.1730 0.0001 45.2348 -0.0002
# 6 0.0002 0.0005 0.0001 -2.7005 -0.0002 16.5121
#
#
#
# Elastic Compliance Matrix: (Units=1/GPa)
#
#
# Indices 1 2 3 4 5 6 
#
# 1 0.006942 0.000393 -0.004037 0.000000 -0.000790 0.000000
# 2 0.000393 0.016769 -0.000355 0.000000 -0.002345 0.000000
# 3 -0.004037 -0.000355 0.006504 0.000000 -0.000366 0.000000
# 4 0.000000 0.000000 0.000000 0.130643 0.000000 0.021366
# 5 -0.000790 -0.002345 -0.000366 0.000000 0.022684 0.000000
# 6 0.000000 0.000000 0.000000 0.021366 0.000000 0.064056
#
#
# Mechanical properties :
#
#
# Convention : Reuss Voigt Hill
#
# Bulk Modulus (GPa) = 45.01005 91.00135 68.00570
# Shear Modulus (GPa) = 19.01145 39.75689 29.38417
#
# Velocity S-wave (km/s) = 2.99472 4.33067 3.72311
# Velocity P-wave (km/s) = 5.76113 8.24226 7.11075
#
# Compressibility (1/GPa) = 0.02221726
#
# Stress axis : x y z
#
# Youngs Moduli (GPa) = 144.04774 59.63493 153.76262
#
# Poissons Ratio (x) = -0.02347 0.62071
# Poissons Ratio (y) = -0.05668 0.05462
# Poissons Ratio (z) = 0.58149 0.02118
#
# Static dielectric constant tensor:
#      x y z
#    x 1.725810 0.000000 -0.007110 
#    y 0.000000 1.834310 0.000000 
#    z -0.007110 0.000000 1.702210 
# 
# From -- ./inp_files/378507.got.cif
#   From: 2010.05.17/outbox.cif.g08.bks.cpg/sg12_190_cif.got.tgz:378507.got - 2010.06.03 13:09:07.
