data_PCOD9183751
_publ_section_title
;
Structure prediction by ZEFSAII (Michael W. Deem and Ramdas Pophale) SiO2 
 PCOD9183751
Probable space group: C 2/M
;
_chemical_formula_sum "Si O2"
_cell_formula_units_Z 56
_cell_length_a 11.558649
_cell_length_b 31.549629
_cell_length_c 8.302882
_cell_angle_alpha 90.000000
_cell_angle_beta 120.682013
_cell_angle_gamma 90.000000
_cell_volume 2603.963932
_symmetry_space_group_name_H-M "C 2/M"
_symmetry_group_IT_number 12
_symmetry_cell_setting 'monoclinic'
loop_
_space_group_symop_operation_xyz
x,y,z
-x,y,-z
-x,-y,-z
x,-y,z
1/2+x,1/2+y,z
1/2-x,1/2+y,-z
1/2-x,1/2-y,-z
1/2+x,1/2-y,z
loop_
_atom_site_type_symbol
_atom_site_label
_atom_site_fract_x
_atom_site_fract_y
_atom_site_fract_z
Si Si1 0.895397 0.873558 0.188480
Si Si2 0.940447 0.795352 0.773480
Si Si3 0.516038 0.798785 0.204426
Si Si4 0.717534 0.154807 0.770128
Si Si5 0.130374 0.383446 0.209735
Si Si6 0.559848 0.454010 0.222497
Si Si7 0.636284 0.070604 0.536225
O O1 0.769695 0.882552 0.213561
O O2 0.972457 0.829024 0.266306
O O3 0.998492 0.912647 0.264741
O O4 0.828180 0.867175 0.964573
O O5 0.795212 0.815501 0.700331
O O6 0.944093 0.747820 0.708578
O O7 0.000000 0.793610 0.000000
O O8 0.380812 0.816055 0.192777
O O9 0.616937 0.838025 0.288307
O O10 0.500000 0.794645 0.000000
O O11 0.643543 0.115668 0.635463
O O12 0.126582 0.419483 0.340528
O O13 0.000000 0.387215 0.000000
O O14 0.522243 0.500000 0.267553
O O15 0.720819 0.450761 0.330014
O O16 0.500000 0.453004 0.000000
O O17 0.500000 0.049147 0.500000
#
# Coordination Sequence:
#
# PCOD9183751 Si02
#       7
#     8   8   8   8   8   8   8
#     4  11  19  40  65  91 129 172 213 265 331 385
#     4   9  20  30  58  91 125 174 219 267 316 382
#     4  10  19  33  55  95 127 173 223 267 314 374
#     4  11  19  37  62  91 132 173 216 270 321 380
#     4  11  23  39  63  94 128 177 219 265 317 382
#     4  11  24  44  74 105 130 164 213 267 326 397
#     4  12  23  42  70  97 132 169 219 266 329 387
#
# _framework density 21.505673999999999
#
# number of rings (size 3 to 8) (size 9 to 14) (size 15 to 20)
#    0.000    1.286    7.143    0.429    2.000    2.571 
#    0.000    2.143    3.143    0.857    0.000    0.000 
#    0.000    0.000    0.000    0.000    0.000    0.000 
#
# Total GULP energy -156382.214587 kJ/mol
# GULP energy per Si atom -5585.079092 kJ/mol
# Density = 2.145673 g / cm^3
# Si number density = 21.505674 Si / 1000 Ang^3
#
#
#
# Elastic Constant Matrix: (Units=GPa)
#
#
# Indices 1 2 3 4 5 6 
#
# 1 145.1736 39.2629 31.0553 0.0000 20.3827 0.0000
# 2 39.2629 115.5505 24.2080 0.0000 14.7053 0.0000
# 3 31.0553 24.2080 77.7645 0.0000 10.2259 0.0000
# 4 0.0000 0.0000 0.0000********** 0.0000-7094.2623
# 5 20.3827 14.7053 10.2259 0.0000 22.0531 0.0000
# 6 0.0000 0.0000 0.0000-7094.2623 0.0000-4080.0315
#
#
#
# Elastic Compliance Matrix: (Units=1/GPa)
#
#
# Indices 1 2 3 4 5 6 
#
# 1 0.008636 -0.001745 -0.002139 0.000000 -0.005826 0.000000
# 2 -0.001745 0.010195 -0.001912 0.000000 -0.004299 0.000000
# 3 -0.002139 -0.001912 0.014783 0.000000 -0.003603 0.000000
# 4 0.000000 0.000000 0.000000 0.023445 0.000000 -0.040766
# 5 -0.005826 -0.004299 -0.003603 0.000000 0.055267 0.000000
# 6 0.000000 0.000000 0.000000 -0.040766 0.000000 0.070638
#
#
# Mechanical properties :
#
#
# Convention : Reuss Voigt Hill
#
# Bulk Modulus (GPa) = 45.40983 58.61566 52.01274
# Shear Modulus (GPa) = 24.76537 -3253.86810 -1614.55136
#
# Velocity S-wave (km/s) = 3.39717 -38.93986 -27.42965
# Velocity P-wave (km/s) = 6.04556 44.65909 31.28806
#
# Compressibility (1/GPa) = 0.02202166
#
# Stress axis : x y z
#
# Youngs Moduli (GPa) = 115.79622 98.09092 67.64751
#
# Poissons Ratio (x) = 0.17114 0.14473
# Poissons Ratio (y) = 0.20203 0.12931
# Poissons Ratio (z) = 0.24774 0.18750
#
# Static dielectric constant tensor:
#      x y z
#    x 1.789210 0.000000 -0.009570 
#    y 0.000000 1.786550 0.000000 
#    z -0.009570 0.000000 1.822100 
# 
# From -- ./inp_files/54804.got.cif
#   From: 2010.05.17/outbox.cif.g08.bks.cpg/sg12_28_cif.got.tgz:54804.got - 2010.06.03 13:09:07.
