data_PCOD9183679
_publ_section_title
;
Structure prediction by ZEFSAII (Michael W. Deem and Ramdas Pophale) SiO2 
 PCOD9183679
Probable space group: C 2/M
;
_chemical_formula_sum "Si O2"
_cell_formula_units_Z 58
_cell_length_a 20.544226
_cell_length_b 15.660438
_cell_length_c 25.676755
_cell_angle_alpha 90.000000
_cell_angle_beta 21.238547
_cell_angle_gamma 90.000000
_cell_volume 2992.569831
_symmetry_space_group_name_H-M "C 2/M"
_symmetry_group_IT_number 12
_symmetry_cell_setting 'monoclinic'
loop_
_space_group_symop_operation_xyz
x,y,z
-x,y,-z
-x,-y,-z
x,-y,z
1/2+x,1/2+y,z
1/2-x,1/2+y,-z
1/2-x,1/2-y,-z
1/2+x,1/2-y,z
loop_
_atom_site_type_symbol
_atom_site_label
_atom_site_fract_x
_atom_site_fract_y
_atom_site_fract_z
Si Si1 0.044649 0.896340 0.026299
Si Si2 0.792015 0.854962 0.309731
Si Si3 0.500000 0.000000 0.500000
Si Si4 0.430560 0.103819 0.775680
Si Si5 0.556696 0.897272 0.113131
Si Si6 0.056883 0.103838 0.208262
Si Si7 0.830484 0.835288 0.591650
Si Si8 0.824411 0.103426 0.477688
O O1 0.248704 0.868162 0.884318
O O2 0.032799 0.000000 0.042575
O O3 0.000000 0.878140 0.000000
O O4 0.909348 0.856852 0.169084
O O5 0.640534 0.926603 0.417045
O O6 0.693674 0.765917 0.391582
O O7 0.932856 0.870335 0.251850
O O8 0.424874 0.129570 0.840269
O O9 0.623458 0.131121 0.610246
O O10 0.428934 0.000000 0.775265
O O11 0.359221 0.868646 0.243709
O O12 0.558517 0.000000 0.110526
O O13 0.737207 0.866208 0.950544
O O14 0.966968 0.133504 0.328959
O O15 0.059304 0.000000 0.206123
O O16 0.851496 0.868271 0.516855
O O17 0.000000 0.860647 0.500000
O O18 0.826869 0.000000 0.475877
#
# Coordination Sequence:
#
# PCOD9183679 Si02
#       8
#     8   8   2   8   8   8   8   8
#     4  10  19  33  55  84 116 157 208 254 296 357
#     4  12  23  40  62  86 125 174 209 246 301 369
#     4  12  24  40  62  92 126 176 206 238 304 368
#     4   8  14  30  53  81 115 148 194 241 293 351
#     4   9  18  36  65  89 116 156 200 251 311 371
#     4  10  19  37  65  92 123 162 208 254 302 368
#     4  11  24  41  60  88 124 160 207 260 309 372
#     4   9  20  38  62  94 121 155 202 258 312 370
#
# _framework density 19.381336000000001
#
# number of rings (size 3 to 8) (size 9 to 14) (size 15 to 20)
#    0.000    2.069    3.448    1.241    0.000    3.310 
#    2.483    2.069    0.000    2.483    0.000    0.000 
#    0.000    0.000    0.000    0.000    0.000    0.000 
#
# Total GULP energy -161566.600404 kJ/mol
# GULP energy per Si atom -5571.262083 kJ/mol
# Density = 1.933722 g / cm^3
# Si number density = 19.381336 Si / 1000 Ang^3
#
#
#
# Elastic Constant Matrix: (Units=GPa)
#
#
# Indices 1 2 3 4 5 6 
#
# 1 86.8021 17.5167 67.7105 0.0004 -14.9949 0.0104
# 2 17.5167 28.9986 32.4261 -0.0127 0.8559 -0.0048
# 3 67.7105 32.4261 154.0737 0.0176 -10.0081 0.0252
# 4 0.0004 -0.0127 0.0176 29.5839 -0.0059 -0.3835
# 5 -14.9949 0.8559 -10.0081 -0.0059 41.3838 -0.0129
# 6 0.0104 -0.0048 0.0252 -0.3835 -0.0129 8.1558
#
#
#
# Elastic Compliance Matrix: (Units=1/GPa)
#
#
# Indices 1 2 3 4 5 6 
#
# 1 0.018675 -0.003433 -0.007153 0.000004 0.005108 0.000005
# 2 -0.003433 0.046171 -0.008484 0.000025 -0.004251 0.000052
# 3 -0.007153 -0.008484 0.011442 -0.000011 0.000351 -0.000031
# 4 0.000004 0.000025 -0.000011 0.033823 0.000003 0.001591
# 5 0.005108 -0.004251 0.000351 0.000003 0.026188 0.000032
# 6 0.000005 0.000052 -0.000031 0.001591 0.000032 0.122688
#
#
# Mechanical properties :
#
#
# Convention : Reuss Voigt Hill
#
# Bulk Modulus (GPa) = 26.21403 56.13121 41.17262
# Shear Modulus (GPa) = 16.13717 25.97276 21.05496
#
# Velocity S-wave (km/s) = 2.88864 3.66470 3.29956
# Velocity P-wave (km/s) = 4.96793 6.85062 5.98379
#
# Compressibility (1/GPa) = 0.03814752
#
# Stress axis : x y z
#
# Youngs Moduli (GPa) = 53.54663 21.65856 87.39540
#
# Poissons Ratio (x) = 0.07436 0.62512
# Poissons Ratio (y) = 0.18385 0.74150
# Poissons Ratio (z) = 0.38301 0.18376
#
# Static dielectric constant tensor:
#      x y z
#    x 1.639350 0.000000 -0.000560 
#    y 0.000000 1.693830 0.000010 
#    z -0.000560 0.000010 1.698330 
# 
# From -- ./inp_files/366539.got.cif
#   From: 2010.05.17/outbox.cif.g08.bks.cpg/sg12_184_cif.got.tgz:366539.got - 2010.06.03 13:09:07.
