data_PCOD9183571
_publ_section_title
;
Structure prediction by ZEFSAII (Michael W. Deem and Ramdas Pophale) SiO2 
 PCOD9183571
Probable space group: C 2/M
;
_chemical_formula_sum "Si O2"
_cell_formula_units_Z 64
_cell_length_a 15.166251
_cell_length_b 7.755240
_cell_length_c 29.435144
_cell_angle_alpha 90.000000
_cell_angle_beta 124.813989
_cell_angle_gamma 90.000000
_cell_volume 2842.418428
_symmetry_space_group_name_H-M "C 2/M"
_symmetry_group_IT_number 12
_symmetry_cell_setting 'monoclinic'
loop_
_space_group_symop_operation_xyz
x,y,z
-x,y,-z
-x,-y,-z
x,-y,z
1/2+x,1/2+y,z
1/2-x,1/2+y,-z
1/2-x,1/2-y,-z
1/2+x,1/2-y,z
loop_
_atom_site_type_symbol
_atom_site_label
_atom_site_fract_x
_atom_site_fract_y
_atom_site_fract_z
Si Si1 0.164547 0.800312 0.366219
Si Si2 0.467097 0.791976 0.102714
Si Si3 0.886694 0.794623 0.984589
Si Si4 0.498744 0.287981 0.394928
Si Si5 0.298609 0.794125 0.812873
Si Si6 0.260377 0.704021 0.303256
Si Si7 0.664188 0.294401 0.514300
Si Si8 0.685678 0.792222 0.866813
O O1 0.075735 0.730357 0.375680
O O2 0.177140 0.724810 0.319902
O O3 0.280589 0.781106 0.424926
O O4 0.139541 0.000000 0.353454
O O5 0.588731 0.726391 0.133618
O O6 0.420066 0.736727 0.137415
O O7 0.467235 0.000000 0.101153
O O8 0.389984 0.735365 0.039295
O O9 0.786228 0.726573 0.926690
O O10 0.886991 0.000000 0.977352
O O11 0.000000 0.722171 0.000000
O O12 0.501631 0.500000 0.396256
O O13 0.377783 0.227911 0.351865
O O14 0.552641 0.235592 0.458792
O O15 0.276873 0.724580 0.756200
O O16 0.204288 0.761562 0.820791
O O17 0.311749 0.000000 0.813015
O O18 0.275863 0.500000 0.301312
O O19 0.658565 0.500000 0.519540
O O20 0.750000 0.250000 0.500000
O O21 0.686701 0.000000 0.867754
#
# Coordination Sequence:
#
# PCOD9183571 Si02
#       8
#     8   8   8   8   8   8   8   8
#     4  10  20  35  54  80 109 138 174 218 266 317
#     4  10  21  36  55  81 110 140 172 214 268 316
#     4  10  19  33  55  82 109 139 175 213 256 312
#     4   8  17  34  55  76 104 140 175 210 258 317
#     4  10  22  38  55  77 105 137 179 223 263 309
#     4  10  21  38  56  75 102 140 182 221 259 309
#     4   9  16  30  53  80 108 140 174 213 263 318
#     4  10  21  37  56  78 108 141 173 214 264 315
#
# _framework density 22.516038000000002
#
# number of rings (size 3 to 8) (size 9 to 14) (size 15 to 20)
#    0.000    2.375    1.250    1.875    0.000    3.250 
#    0.000    6.250    0.000    0.000    0.000    0.000 
#    0.000    0.000    0.000    0.000    0.000    0.000 
#
# Total GULP energy -178621.326690 kJ/mol
# GULP energy per Si atom -5581.916459 kJ/mol
# Density = 2.246479 g / cm^3
# Si number density = 22.516038 Si / 1000 Ang^3
#
#
#
# Elastic Constant Matrix: (Units=GPa)
#
#
# Indices 1 2 3 4 5 6 
#
# 1 71.6976 -7.3538 9.6570 0.0000 -20.5463 0.0000
# 2 -7.3538 22.8258 -4.2937 0.0000 7.5173 0.0000
# 3 9.6570 -4.2937 45.6782 0.0000 -27.9907 0.0000
# 4 0.0000 0.0000 0.0000 15.4081 0.0000 -11.5769
# 5 -20.5463 7.5173 -27.9907 0.0000 36.1701 0.0000
# 6 0.0000 0.0000 0.0000 -11.5769 0.0000 17.7801
#
#
#
# Elastic Compliance Matrix: (Units=1/GPa)
#
#
# Indices 1 2 3 4 5 6 
#
# 1 0.017223 0.002187 0.004338 0.000000 0.012686 0.000000
# 2 0.002187 0.047522 -0.002446 0.000000 -0.010527 0.000000
# 3 0.004338 -0.002446 0.042920 0.000000 0.036187 0.000000
# 4 0.000000 0.000000 0.000000 0.127061 0.000000 0.082732
# 5 0.012686 -0.010527 0.036187 0.000000 0.065045 0.000000
# 6 0.000000 0.000000 0.000000 0.082732 0.000000 0.110111
#
#
# Mechanical properties :
#
#
# Convention : Reuss Voigt Hill
#
# Bulk Modulus (GPa) = 8.63398 15.13560 11.88479
# Shear Modulus (GPa) = 11.35510 23.35113 17.35312
#
# Velocity S-wave (km/s) = 2.24812 3.22388 2.77916
# Velocity P-wave (km/s) = 3.25295 4.53813 3.94818
#
# Compressibility (1/GPa) = 0.11582146
#
# Stress axis : x y z
#
# Youngs Moduli (GPa) = 58.06232 21.04308 23.29934
#
# Poissons Ratio (x) = -0.04602 -0.10108
# Poissons Ratio (y) = -0.12697 0.05700
# Poissons Ratio (z) = -0.25188 0.05148
#
# Static dielectric constant tensor:
#      x y z
#    x 1.850910 0.000000 0.006400 
#    y 0.000000 1.832630 0.000000 
#    z 0.006400 0.000000 1.842810 
# 
# From -- ./inp_files/375577.got.cif
#   From: 2010.05.17/outbox.cif.g08.bks.cpg/sg12_188_cif.got.tgz:375577.got - 2010.06.03 13:09:07.
