data_PCOD9183620
_publ_section_title
;
Structure prediction by ZEFSAII (Michael W. Deem and Ramdas Pophale) SiO2 
 PCOD9183620
Probable space group: C 2/M
;
_chemical_formula_sum "Si O2"
_cell_formula_units_Z 44
_cell_length_a 16.581336
_cell_length_b 19.725540
_cell_length_c 11.404877
_cell_angle_alpha 90.000000
_cell_angle_beta 146.712469
_cell_angle_gamma 90.000000
_cell_volume 2047.318941
_symmetry_space_group_name_H-M "C 2/M"
_symmetry_group_IT_number 12
_symmetry_cell_setting 'monoclinic'
loop_
_space_group_symop_operation_xyz
x,y,z
-x,y,-z
-x,-y,-z
x,-y,z
1/2+x,1/2+y,z
1/2-x,1/2+y,-z
1/2-x,1/2-y,-z
1/2+x,1/2-y,z
loop_
_atom_site_type_symbol
_atom_site_label
_atom_site_fract_x
_atom_site_fract_y
_atom_site_fract_z
Si Si1 0.373570 0.423629 0.922983
Si Si2 0.500000 0.834054 0.500000
Si Si3 0.264657 0.819244 0.592596
Si Si4 0.421073 0.330275 0.186619
Si Si5 0.738949 0.772593 0.163251
Si Si6 0.908234 0.421900 0.588280
O O1 0.423100 0.500000 0.008057
O O2 0.232218 0.425592 0.669668
O O3 0.500000 0.387507 0.000000
O O4 0.357092 0.387204 0.024845
O O5 0.641656 0.785703 0.657234
O O6 0.518005 0.880167 0.637645
O O7 0.250000 0.750000 0.500000
O O8 0.323264 0.802171 0.792995
O O9 0.356476 0.876004 0.634373
O O10 0.094643 0.841125 0.406275
O O11 0.335414 0.324466 0.204069
O O12 0.382357 0.260563 0.069333
O O13 0.950731 0.500000 0.666862
#
# Coordination Sequence:
#
# PCOD9183620 Si02
#       6
#     8   4   8   8   8   8
#     4  10  19  33  55  83 108 143 192 233 283 344
#     4  12  19  40  54  86 117 146 200 242 285 344
#     4  12  21  37  60  87 117 150 195 241 288 348
#     4  11  21  37  57  83 121 148 185 244 293 334
#     4  11  23  36  58  90 115 151 194 238 291 352
#     4  11  23  36  58  85 117 155 194 244 294 343
#
# _framework density 21.491522
#
# number of rings (size 3 to 8) (size 9 to 14) (size 15 to 20)
#    0.000    0.909    7.273    0.273    0.000    0.000 
#    0.000    0.909    0.000    2.182    0.000    7.636 
#    0.000    0.000    0.000    0.000    0.000    0.000 
#
# Total GULP energy -122982.558701 kJ/mol
# GULP energy per Si atom -5590.116305 kJ/mol
# Density = 2.144261 g / cm^3
# Si number density = 21.491522 Si / 1000 Ang^3
#
#
#
# Elastic Constant Matrix: (Units=GPa)
#
#
# Indices 1 2 3 4 5 6 
#
# 1 170.3213 76.0171 15.0195 0.0000 -24.0059 0.0000
# 2 76.0171 110.8469 -6.1379 0.0000 -11.5234 0.0000
# 3 15.0195 -6.1379 41.0214 0.0000 7.2196 0.0000
# 4 0.0000 0.0000 0.0000 9.2627 0.0000 -1.2266
# 5 -24.0059 -11.5234 7.2196 0.0000 35.3454 0.0000
# 6 0.0000 0.0000 0.0000 -1.2266 0.0000 25.4179
#
#
#
# Elastic Compliance Matrix: (Units=1/GPa)
#
#
# Indices 1 2 3 4 5 6 
#
# 1 0.010210 -0.006706 -0.005785 0.000000 0.005930 0.000000
# 2 -0.006706 0.013774 0.004696 0.000000 -0.001023 0.000000
# 3 -0.005785 0.004696 0.028650 0.000000 -0.008250 0.000000
# 4 0.000000 0.000000 0.000000 0.108654 0.000000 0.005243
# 5 0.005930 -0.001023 -0.008250 0.000000 0.033671 0.000000
# 6 0.000000 0.000000 0.000000 0.005243 0.000000 0.039595
#
#
# Mechanical properties :
#
#
# Convention : Reuss Voigt Hill
#
# Bulk Modulus (GPa) = 26.99444 54.66524 40.82984
# Shear Modulus (GPa) = 19.04808 29.82458 24.43633
#
# Velocity S-wave (km/s) = 2.98032 3.72928 3.37563
# Velocity P-wave (km/s) = 4.94276 6.63583 5.85086
#
# Compressibility (1/GPa) = 0.03704466
#
# Stress axis : x y z
#
# Youngs Moduli (GPa) = 97.94165 72.60100 34.90344
#
# Poissons Ratio (x) = 0.48685 0.20193
# Poissons Ratio (y) = 0.65678 -0.16392
# Poissons Ratio (z) = 0.56663 -0.34095
#
# Static dielectric constant tensor:
#      x y z
#    x 1.808620 0.000000 0.035320 
#    y 0.000000 1.812100 0.000000 
#    z 0.035320 0.000000 1.825710 
# 
# From -- ./inp_files/147767.got.cif
#   From: 2010.05.17/outbox.cif.g08.bks.cpg/sg12_74_cif.got.tgz:147767.got - 2010.06.03 13:09:07.
