data_PCOD9183043
_publ_section_title
;
Structure prediction by ZEFSAII (Michael W. Deem and Ramdas Pophale) SiO2 
 PCOD9183043
Probable space group: C 2/M
;
_chemical_formula_sum "Si O2"
_cell_formula_units_Z 56
_cell_length_a 21.589380
_cell_length_b 9.413079
_cell_length_c 18.201757
_cell_angle_alpha 90.000000
_cell_angle_beta 119.401447
_cell_angle_gamma 90.000000
_cell_volume 3222.580370
_symmetry_space_group_name_H-M "C 2/M"
_symmetry_group_IT_number 12
_symmetry_cell_setting 'monoclinic'
loop_
_space_group_symop_operation_xyz
x,y,z
-x,y,-z
-x,-y,-z
x,-y,z
1/2+x,1/2+y,z
1/2-x,1/2+y,-z
1/2-x,1/2-y,-z
1/2+x,1/2-y,z
loop_
_atom_site_type_symbol
_atom_site_label
_atom_site_fract_x
_atom_site_fract_y
_atom_site_fract_z
Si Si1 0.092923 0.834479 0.758328
Si Si2 0.952310 0.160167 0.773666
Si Si3 0.435974 0.834688 0.408276
Si Si4 0.323942 0.171145 0.063344
Si Si5 0.809669 0.339044 0.449486
Si Si6 0.031724 0.661181 0.936550
Si Si7 0.331144 0.834317 0.627626
O O1 0.080460 0.758809 0.672841
O O2 0.143182 0.744351 0.843600
O O3 0.015776 0.837280 0.751599
O O4 0.116987 0.000000 0.765696
O O5 0.888279 0.253951 0.708427
O O6 0.986704 0.225942 0.865647
O O7 0.928382 0.000000 0.771265
O O8 0.500000 0.787700 0.500000
O O9 0.366170 0.832712 0.418090
O O10 0.451266 0.000000 0.395901
O O11 0.384878 0.188970 0.034800
O O12 0.313774 0.000000 0.067086
O O13 0.250000 0.250000 0.000000
O O14 0.779920 0.500000 0.436267
O O15 0.746434 0.229201 0.403558
O O16 0.846035 0.312318 0.549524
O O17 0.019320 0.500000 0.901007
O O18 0.000000 0.664485 0.000000
O O19 0.332882 0.000000 0.644069
#
# Coordination Sequence:
#
# PCOD9183043 Si02
#       7
#     8   8   8   8   8   8   8
#     4  10  21  36  55  81 111 143 184 227 268 325
#     4  10  20  34  54  79 107 139 175 218 266 318
#     4  10  20  35  55  79 109 144 181 224 274 324
#     4  10  20  37  61  85 112 148 186 229 283 340
#     4   9  19  34  51  74 106 139 176 221 267 316
#     4   9  19  37  59  83 109 138 179 228 274 325
#     4  10  19  33  54  76 101 139 180 219 265 317
#
# _framework density 17.377378
#
# number of rings (size 3 to 8) (size 9 to 14) (size 15 to 20)
#    0.000    2.286    0.000    2.571    0.000    5.143 
#    2.571    0.000    0.000    0.000    0.000    0.000 
#    0.000    0.000    0.000    0.000    0.000    0.000 
#
# Total GULP energy -156054.742240 kJ/mol
# GULP energy per Si atom -5573.383651 kJ/mol
# Density = 1.733783 g / cm^3
# Si number density = 17.377378 Si / 1000 Ang^3
#
#
#
# Elastic Constant Matrix: (Units=GPa)
#
#
# Indices 1 2 3 4 5 6 
#
# 1 45.7809 48.8304 46.3748 0.0000 -8.3095 0.0000
# 2 48.8304 117.3016 67.1211 0.0000 7.0499 0.0000
# 3 46.3748 67.1211 85.3206 0.0000 4.5435 0.0000
# 4 0.0000 0.0000 0.0000 32.1393 0.0000 12.1278
# 5 -8.3095 7.0499 4.5435 0.0000 21.4375 0.0000
# 6 0.0000 0.0000 0.0000 12.1278 0.0000 -11.1671
#
#
#
# Elastic Compliance Matrix: (Units=1/GPa)
#
#
# Indices 1 2 3 4 5 6 
#
# 1 0.083499 -0.018437 -0.033303 0.000000 0.045487 0.000000
# 2 -0.018437 0.019713 -0.004816 0.000000 -0.012608 0.000000
# 3 -0.033303 -0.004816 0.034604 0.000000 -0.018659 0.000000
# 4 0.000000 0.000000 0.000000 0.022070 0.000000 0.023969
# 5 0.045487 -0.012608 -0.018659 0.000000 0.072380 0.000000
# 6 0.000000 0.000000 0.000000 0.023969 0.000000 -0.063518
#
#
# Mechanical properties :
#
#
# Convention : Reuss Voigt Hill
#
# Bulk Modulus (GPa) = 40.47693 63.67286 52.07489
# Shear Modulus (GPa) = 17.23573 14.22042 15.72807
#
# Velocity S-wave (km/s) = 3.15278 2.86375 3.01173
# Velocity P-wave (km/s) = 6.04953 6.90330 6.49047
#
# Compressibility (1/GPa) = 0.02470543
#
# Stress axis : x y z
#
# Youngs Moduli (GPa) = 11.97614 50.72709 28.89808
#
# Poissons Ratio (x) = 0.93523 0.96240
# Poissons Ratio (y) = 0.22080 0.13917
# Poissons Ratio (z) = 0.39885 0.24430
#
# Static dielectric constant tensor:
#      x y z
#    x 1.584700 0.000000 -0.015550 
#    y 0.000000 1.599770 0.000000 
#    z -0.015550 0.000000 1.580890 
# 
# From -- ./inp_files/281660.got.cif
#   From: 2010.05.17/outbox.cif.g08.bks.cpg/sg12_141_cif.got.tgz:281660.got - 2010.06.03 13:09:07.
