data_PCOD9183874
_publ_section_title
;
Structure prediction by ZEFSAII (Michael W. Deem and Ramdas Pophale) SiO2 
 PCOD9183874
Probable space group: C 2/M
;
_chemical_formula_sum "Si O2"
_cell_formula_units_Z 64
_cell_length_a 25.918113
_cell_length_b 12.784078
_cell_length_c 21.225569
_cell_angle_alpha 90.000000
_cell_angle_beta 29.278593
_cell_angle_gamma 90.000000
_cell_volume 3439.467815
_symmetry_space_group_name_H-M "C 2/M"
_symmetry_group_IT_number 12
_symmetry_cell_setting 'monoclinic'
loop_
_space_group_symop_operation_xyz
x,y,z
-x,y,-z
-x,-y,-z
x,-y,z
1/2+x,1/2+y,z
1/2-x,1/2+y,-z
1/2-x,1/2-y,-z
1/2+x,1/2-y,z
loop_
_atom_site_type_symbol
_atom_site_label
_atom_site_fract_x
_atom_site_fract_y
_atom_site_fract_z
Si Si1 0.828042 0.758933 0.079394
Si Si2 0.776908 0.251793 0.272993
Si Si3 0.258693 0.123557 0.567368
Si Si4 0.942617 0.123215 0.493510
Si Si5 0.390791 0.621032 0.892669
Si Si6 0.043070 0.376311 0.851319
Si Si7 0.152555 0.122138 0.199881
Si Si8 0.406061 0.237729 0.328281
O O1 0.798859 0.793459 0.180629
O O2 0.734360 0.686505 0.153516
O O3 0.841375 0.848310 0.012353
O O4 0.935109 0.690147 0.970410
O O5 0.776241 0.163350 0.327156
O O6 0.664542 0.311026 0.394860
O O7 0.870521 0.332407 0.191755
O O8 0.367218 0.179351 0.431693
O O9 0.176082 0.172556 0.605617
O O10 0.264013 0.000000 0.557709
O O11 0.000000 0.136643 0.500000
O O12 0.031883 0.150461 0.346499
O O13 0.916600 0.000000 0.513952
O O14 0.426504 0.500000 0.855645
O O15 0.323988 0.632973 0.899572
O O16 0.484375 0.703292 0.783953
O O17 0.026063 0.500000 0.876511
O O18 0.088868 0.347116 0.733431
O O19 0.162660 0.000000 0.205703
#
# Coordination Sequence:
#
# PCOD9183874 Si02
#       8
#     8   8   8   8   8   8   8   8
#     4  11  22  36  53  78 114 150 184 226 271 325
#     4  11  22  35  54  82 114 150 186 222 272 332
#     4  10  20  35  57  82 112 147 183 226 277 332
#     4  10  19  33  56  83 110 142 180 229 281 325
#     4  10  21  37  57  80 106 142 187 232 274 323
#     4  10  21  35  55  83 114 146 181 225 278 330
#     4  10  20  35  57  82 106 140 187 233 282 325
#     4   9  19  36  57  83 109 141 183 231 278 324
#
# _framework density 18.607529
#
# number of rings (size 3 to 8) (size 9 to 14) (size 15 to 20)
#    0.000    1.875    1.250    3.000    0.000    2.500 
#    0.000    3.750    0.000    9.375    0.000    0.000 
#    0.000    0.000    0.000    0.000    0.000    0.000 
#
# Total GULP energy -178557.088037 kJ/mol
# GULP energy per Si atom -5579.909001 kJ/mol
# Density = 1.856518 g / cm^3
# Si number density = 18.607529 Si / 1000 Ang^3
#
#
#
# Elastic Constant Matrix: (Units=GPa)
#
#
# Indices 1 2 3 4 5 6 
#
# 1 59.6825 23.3835 18.1605 0.0000 18.4409 0.0000
# 2 23.3835 78.6547 21.2639 0.0000 10.2841 0.0000
# 3 18.1605 21.2639 65.5579 0.0000 16.8730 0.0000
# 4 0.0000 0.0000 0.0000 19.1178 0.0000 -0.2938
# 5 18.4409 10.2841 16.8730 0.0000 41.4789 0.0000
# 6 0.0000 0.0000 0.0000 -0.2938 0.0000 14.7449
#
#
#
# Elastic Compliance Matrix: (Units=1/GPa)
#
#
# Indices 1 2 3 4 5 6 
#
# 1 0.021702 -0.004793 -0.002546 0.000000 -0.007424 0.000000
# 2 -0.004793 0.015116 -0.003529 0.000000 -0.000182 0.000000
# 3 -0.002546 -0.003529 0.018527 0.000000 -0.005529 0.000000
# 4 0.000000 0.000000 0.000000 0.052323 0.000000 0.001043
# 5 -0.007424 -0.000182 -0.005529 0.000000 0.029704 0.000000
# 6 0.000000 0.000000 0.000000 0.001043 0.000000 0.067841
#
#
# Mechanical properties :
#
#
# Convention : Reuss Voigt Hill
#
# Bulk Modulus (GPa) = 29.75345 36.61231 33.18288
# Shear Modulus (GPa) = 20.99504 24.47413 22.73458
#
# Velocity S-wave (km/s) = 3.36267 3.63062 3.49921
# Velocity P-wave (km/s) = 5.57687 6.10688 5.84788
#
# Compressibility (1/GPa) = 0.03360955
#
# Stress axis : x y z
#
# Youngs Moduli (GPa) = 46.07896 66.15362 53.97603
#
# Poissons Ratio (x) = 0.31705 0.13745
# Poissons Ratio (y) = 0.22084 0.19046
# Poissons Ratio (z) = 0.11734 0.23343
#
# Static dielectric constant tensor:
#      x y z
#    x 1.654870 0.000000 0.022600 
#    y 0.000000 1.595410 0.000000 
#    z 0.022600 0.000000 1.687820 
# 
# From -- ./inp_files/327790.got.cif
#   From: 2010.05.17/outbox.cif.g08.bks.cpg/sg12_164_cif.got.tgz:327790.got - 2010.06.03 13:09:07.
