data_PCOD9183343
_publ_section_title
;
Structure prediction by ZEFSAII (Michael W. Deem and Ramdas Pophale) SiO2 
 PCOD9183343
Probable space group: C 2/M
;
_chemical_formula_sum "Si O2"
_cell_formula_units_Z 56
_cell_length_a 29.975095
_cell_length_b 8.334459
_cell_length_c 13.173051
_cell_angle_alpha 90.000000
_cell_angle_beta 56.232232
_cell_angle_gamma 90.000000
_cell_volume 2735.777149
_symmetry_space_group_name_H-M "C 2/M"
_symmetry_group_IT_number 12
_symmetry_cell_setting 'monoclinic'
loop_
_space_group_symop_operation_xyz
x,y,z
-x,y,-z
-x,-y,-z
x,-y,z
1/2+x,1/2+y,z
1/2-x,1/2+y,-z
1/2-x,1/2-y,-z
1/2+x,1/2-y,z
loop_
_atom_site_type_symbol
_atom_site_label
_atom_site_fract_x
_atom_site_fract_y
_atom_site_fract_z
Si Si1 0.226510 0.805539 0.283403
Si Si2 0.148751 0.809762 0.566872
Si Si3 0.836952 0.309669 0.226378
Si Si4 0.132333 0.188547 0.267222
Si Si5 0.548650 0.189024 0.224764
Si Si6 0.438802 0.811834 0.461180
Si Si7 0.551482 0.311207 0.997788
O O1 0.194901 0.765272 0.427461
O O2 0.287480 0.751087 0.219230
O O3 0.189521 0.748796 0.236859
O O4 0.226240 0.000000 0.276222
O O5 0.164790 0.768741 0.660459
O O6 0.095427 0.717514 0.597984
O O7 0.138892 0.000000 0.570212
O O8 0.830384 0.500000 0.248226
O O9 0.894120 0.274046 0.104913
O O10 0.104908 0.276643 0.208151
O O11 0.091949 0.213687 0.413533
O O12 0.136210 0.000000 0.239419
O O13 0.499938 0.234517 0.361853
O O14 0.542997 0.000000 0.211306
O O15 0.543018 0.282858 0.127391
O O16 0.437161 0.000000 0.491575
O O17 0.942348 0.000000 0.031734
O O18 0.500000 0.251955 0.000000
#
# Coordination Sequence:
#
# PCOD9183343 Si02
#       7
#     8   8   8   8   8   8   8
#     4   8  18  35  55  82 114 147 182 225 272 323
#     4  10  19  33  54  83 117 149 185 225 272 329
#     4  11  21  36  58  82 111 146 185 228 277 328
#     4  10  20  36  58  84 115 148 184 225 272 326
#     4  11  23  38  57  82 112 147 187 229 275 326
#     4  10  20  34  54  83 117 149 184 227 276 328
#     4  11  25  43  61  82 109 142 183 229 275 326
#
# _framework density 20.469503
#
# number of rings (size 3 to 8) (size 9 to 14) (size 15 to 20)
#    0.000    1.857    0.000    5.143    0.000    7.429 
#    0.000    8.571    0.000    0.000    0.000    0.000 
#    0.000    0.000    0.000    0.000    0.000    0.000 
#
# Total GULP energy -156437.416994 kJ/mol
# GULP energy per Si atom -5587.050607 kJ/mol
# Density = 2.042291 g / cm^3
# Si number density = 20.469503 Si / 1000 Ang^3
#
#
#
# Elastic Constant Matrix: (Units=GPa)
#
#
# Indices 1 2 3 4 5 6 
#
# 1 149.6986 -1.6488 21.3279 0.0000 0.2297 0.0000
# 2 -1.6488 20.4536 -4.9093 0.0000 -4.6692 0.0000
# 3 21.3279 -4.9093 19.3396 0.0000 2.8821 0.0000
# 4 0.0000 0.0000 0.0000 37.6827 0.0000 8.8477
# 5 0.2297 -4.6692 2.8821 0.0000 28.0847 0.0000
# 6 0.0000 0.0000 0.0000 8.8477 0.0000 22.8886
#
#
#
# Elastic Compliance Matrix: (Units=1/GPa)
#
#
# Indices 1 2 3 4 5 6 
#
# 1 0.007983 -0.001432 -0.009264 0.000000 0.000647 0.000000
# 2 -0.001432 0.053886 0.014137 0.000000 0.007520 0.000000
# 3 -0.009264 0.014137 0.066163 0.000000 -0.004363 0.000000
# 4 0.000000 0.000000 0.000000 0.029186 0.000000 -0.011282
# 5 0.000647 0.007520 -0.004363 0.000000 0.037299 0.000000
# 6 0.000000 0.000000 0.000000 -0.011282 0.000000 0.048051
#
#
# Mechanical properties :
#
#
# Convention : Reuss Voigt Hill
#
# Bulk Modulus (GPa) = 7.41213 24.33683 15.87448
# Shear Modulus (GPa) = 17.81535 29.37935 23.59735
#
# Velocity S-wave (km/s) = 2.95335 3.79261 3.39898
# Velocity P-wave (km/s) = 3.90623 5.57617 4.81416
#
# Compressibility (1/GPa) = 0.13491393
#
# Stress axis : x y z
#
# Youngs Moduli (GPa) = 125.26338 18.55782 15.11428
#
# Poissons Ratio (x) = 0.02658 0.14002
# Poissons Ratio (y) = 0.17940 -0.21368
# Poissons Ratio (z) = 1.16043 -0.26236
#
# Static dielectric constant tensor:
#      x y z
#    x 1.757670 0.000000 0.001550 
#    y 0.000000 1.695230 0.000000 
#    z 0.001550 0.000000 1.694710 
# 
# From -- ./inp_files/180838.got.cif
#   From: 2010.05.17/outbox.cif.g08.bks.cpg/sg12_91_cif.got.tgz:180838.got - 2010.06.03 13:09:07.
