data_PCOD9183687
_publ_section_title
;
Structure prediction by ZEFSAII (Michael W. Deem and Ramdas Pophale) SiO2 
 PCOD9183687
Probable space group: C 2/M
;
_chemical_formula_sum "Si O2"
_cell_formula_units_Z 56
_cell_length_a 18.599058
_cell_length_b 13.711094
_cell_length_c 11.676188
_cell_angle_alpha 90.000000
_cell_angle_beta 71.813333
_cell_angle_gamma 90.000000
_cell_volume 2828.838663
_symmetry_space_group_name_H-M "C 2/M"
_symmetry_group_IT_number 12
_symmetry_cell_setting 'monoclinic'
loop_
_space_group_symop_operation_xyz
x,y,z
-x,y,-z
-x,-y,-z
x,-y,z
1/2+x,1/2+y,z
1/2-x,1/2+y,-z
1/2-x,1/2-y,-z
1/2+x,1/2-y,z
loop_
_atom_site_type_symbol
_atom_site_label
_atom_site_fract_x
_atom_site_fract_y
_atom_site_fract_z
Si Si1 0.334385 0.390746 0.835369
Si Si2 0.909653 0.321012 0.039868
Si Si3 0.203176 0.616019 0.085512
Si Si4 0.912655 0.104240 0.018569
Si Si5 0.205729 0.736980 0.312733
Si Si6 0.917710 0.615567 0.489709
Si Si7 0.336070 0.111275 0.301304
O O1 0.318507 0.500000 0.804735
O O2 0.342297 0.320923 0.726155
O O3 0.266230 0.362403 0.956452
O O4 0.404201 0.389495 0.886164
O O5 0.888609 0.208418 0.078368
O O6 0.870108 0.384903 0.156761
O O7 0.874439 0.346321 0.933663
O O8 0.000000 0.331778 0.000000
O O9 0.198556 0.500000 0.101885
O O10 0.223683 0.666598 0.195038
O O11 0.875480 0.000000 0.071523
O O12 0.000000 0.097650 0.000000
O O13 0.151872 0.675249 0.421370
O O14 0.274300 0.800439 0.334046
O O15 0.909844 0.500000 0.520411
O O16 0.903019 0.627022 0.360795
O O17 0.000000 0.644990 0.500000
O O18 0.306579 0.000000 0.337346
#
# Coordination Sequence:
#
# PCOD9183687 Si02
#       7
#     8   8   8   8   8   8   8
#     4  10  19  33  55  84 120 157 193 242 302 360
#     4  11  22  36  59  92 129 167 206 247 312 373
#     4  11  22  35  55  92 129 160 199 248 305 368
#     4   9  18  32  50  78 117 159 200 238 288 357
#     4  12  21  38  63  89 121 163 207 255 303 372
#     4  10  25  46  66  90 120 161 208 261 320 371
#     4  11  24  42  64  90 125 166 211 258 309 374
#
# _framework density 19.796109000000001
#
# number of rings (size 3 to 8) (size 9 to 14) (size 15 to 20)
#    0.000    1.429    2.857    3.000    2.000    1.143 
#    0.000    0.714    0.000    3.429    0.000    0.000 
#    0.000    0.000    0.000    0.000    0.000    0.000 
#
# Total GULP energy -156042.464716 kJ/mol
# GULP energy per Si atom -5572.945168 kJ/mol
# Density = 1.975105 g / cm^3
# Si number density = 19.796109 Si / 1000 Ang^3
#
#
#
# Elastic Constant Matrix: (Units=GPa)
#
#
# Indices 1 2 3 4 5 6 
#
# 1 143.2405 27.7348 14.9353 0.0000 22.5027 0.0000
# 2 27.7348 118.2691 15.8844 0.0000 0.8296 0.0000
# 3 14.9353 15.8844 40.9195 0.0000 8.7376 0.0000
# 4 0.0000 0.0000 0.0000 32.1973 0.0000 -0.2857
# 5 22.5027 0.8296 8.7376 0.0000 27.8364 0.0000
# 6 0.0000 0.0000 0.0000 -0.2857 0.0000 29.9581
#
#
#
# Elastic Compliance Matrix: (Units=1/GPa)
#
#
# Indices 1 2 3 4 5 6 
#
# 1 0.008450 -0.001801 -0.001005 0.000000 -0.006462 0.000000
# 2 -0.001801 0.009324 -0.003445 0.000000 0.002259 0.000000
# 3 -0.001005 -0.003445 0.027811 0.000000 -0.007814 0.000000
# 4 0.000000 0.000000 0.000000 0.031061 0.000000 0.000296
# 5 -0.006462 0.002259 -0.007814 0.000000 0.043533 0.000000
# 6 0.000000 0.000000 0.000000 0.000296 0.000000 0.033383
#
#
# Mechanical properties :
#
#
# Convention : Reuss Voigt Hill
#
# Bulk Modulus (GPa) = 30.22683 46.61533 38.42108
# Shear Modulus (GPa) = 28.23383 34.25666 31.24525
#
# Velocity S-wave (km/s) = 3.78065 4.16441 3.97716
# Velocity P-wave (km/s) = 5.86173 6.83534 6.36718
#
# Compressibility (1/GPa) = 0.03308319
#
# Stress axis : x y z
#
# Youngs Moduli (GPa) = 118.34397 107.24443 35.95709
#
# Poissons Ratio (x) = 0.19317 0.03614
# Poissons Ratio (y) = 0.21317 0.12386
# Poissons Ratio (z) = 0.11896 0.36942
#
# Static dielectric constant tensor:
#      x y z
#    x 1.779910 0.000000 0.023400 
#    y 0.000000 1.771860 0.000000 
#    z 0.023400 0.000000 1.665290 
# 
# From -- ./inp_files/155997.got.cif
#   From: 2010.05.17/outbox.cif.g08.bks.cpg/sg12_78_cif.got.tgz:155997.got - 2010.06.03 13:09:07.
