data_PCOD9183662
_publ_section_title
;
Structure prediction by ZEFSAII (Michael W. Deem and Ramdas Pophale) SiO2 
 PCOD9183662
Probable space group: C 2/M
;
_chemical_formula_sum "Si O2"
_cell_formula_units_Z 56
_cell_length_a 24.463760
_cell_length_b 9.097794
_cell_length_c 14.401445
_cell_angle_alpha 90.000000
_cell_angle_beta 94.954792
_cell_angle_gamma 90.000000
_cell_volume 3193.297979
_symmetry_space_group_name_H-M "C 2/M"
_symmetry_group_IT_number 12
_symmetry_cell_setting 'monoclinic'
loop_
_space_group_symop_operation_xyz
x,y,z
-x,y,-z
-x,-y,-z
x,-y,z
1/2+x,1/2+y,z
1/2-x,1/2+y,-z
1/2-x,1/2-y,-z
1/2+x,1/2-y,z
loop_
_atom_site_type_symbol
_atom_site_label
_atom_site_fract_x
_atom_site_fract_y
_atom_site_fract_z
Si Si1 0.124131 0.825768 0.337275
Si Si2 0.536108 0.173460 0.202433
Si Si3 0.209345 0.826106 0.181407
Si Si4 0.181434 0.175405 0.735330
Si Si5 0.079521 0.175200 0.851177
Si Si6 0.120747 0.674134 0.044987
Si Si7 0.193227 0.823001 0.522471
O O1 0.072414 0.736909 0.291777
O O2 0.173558 0.803488 0.270372
O O3 0.146557 0.781506 0.441272
O O4 0.111514 0.000000 0.335431
O O5 0.479104 0.256886 0.182446
O O6 0.573321 0.195435 0.115656
O O7 0.526889 0.000000 0.211753
O O8 0.268989 0.759319 0.207399
O O9 0.175628 0.745483 0.095482
O O10 0.212000 0.000000 0.163941
O O11 0.124178 0.204328 0.777684
O O12 0.180135 0.216549 0.626567
O O13 0.192215 0.000000 0.742424
O O14 0.074662 0.000000 0.862796
O O15 0.101943 0.248086 0.948494
O O16 0.127977 0.500000 0.032217
O O17 0.250000 0.750000 0.500000
O O18 0.199021 0.000000 0.517763
#
# Coordination Sequence:
#
# PCOD9183662 Si02
#       7
#     8   8   8   8   8   8   8
#     4   9  18  33  55  84 111 138 177 224 270 318
#     4  10  21  37  58  82 107 140 182 227 274 321
#     4  10  19  33  55  84 112 141 181 226 271 321
#     4  10  22  37  54  79 114 149 181 219 271 328
#     4  11  23  38  55  78 109 148 186 223 269 323
#     4  10  21  37  58  82 108 141 182 228 276 324
#     4  10  19  34  57  84 112 142 179 222 269 322
#
# _framework density 17.536729999999999
#
# number of rings (size 3 to 8) (size 9 to 14) (size 15 to 20)
#    0.000    2.000    1.429    2.143    0.000    6.286 
#    0.000    0.714    0.000    4.286    0.000    0.000 
#    0.000    0.000    0.000    0.000    0.000    0.000 
#
# Total GULP energy -156371.260249 kJ/mol
# GULP energy per Si atom -5584.687866 kJ/mol
# Density = 1.749682 g / cm^3
# Si number density = 17.536730 Si / 1000 Ang^3
#
#
#
# Elastic Constant Matrix: (Units=GPa)
#
#
# Indices 1 2 3 4 5 6 
#
# 1 -48.4461 22.4679 85.0073 0.0000 -8.1614 0.0000
# 2 22.4679 58.2001 70.3173 0.0000 -3.4446 0.0000
# 3 85.0073 70.3173 125.5442 0.0000 26.2182 0.0000
# 4 0.0000 0.0000 0.0000 23.8483 0.0000 6.6701
# 5 -8.1614 -3.4446 26.2182 0.0000 14.8556 0.0000
# 6 0.0000 0.0000 0.0000 6.6701 0.0000 35.1617
#
#
#
# Elastic Compliance Matrix: (Units=1/GPa)
#
#
# Indices 1 2 3 4 5 6 
#
# 1 0.005840 -0.027079 0.018773 0.000000 -0.036203 0.000000
# 2 -0.027079 0.063925 -0.027648 0.000000 0.048742 0.000000
# 3 0.018773 -0.027648 0.015718 0.000000 -0.023837 0.000000
# 4 0.000000 0.000000 0.000000 0.044281 0.000000 -0.008400
# 5 -0.036203 0.048742 -0.023837 0.000000 0.100798 0.000000
# 6 0.000000 0.000000 0.000000 -0.008400 0.000000 0.030034
#
#
# Mechanical properties :
#
#
# Convention : Reuss Voigt Hill
#
# Bulk Modulus (GPa) = 73.66563 54.54257 64.10410
# Shear Modulus (GPa) = 14.83554 11.94017 13.38786
#
# Velocity S-wave (km/s) = 2.91171 2.61217 2.76600
# Velocity P-wave (km/s) = 7.30765 6.34566 6.84358
#
# Compressibility (1/GPa) = 0.01357485
#
# Stress axis : x y z
#
# Youngs Moduli (GPa) = 171.24164 15.64322 63.62161
#
# Poissons Ratio (x) = 0.42360 -1.19437
# Poissons Ratio (y) = 4.63700 1.75904
# Poissons Ratio (z) = -3.21473 0.43251
#
# Static dielectric constant tensor:
#      x y z
#    x 1.562450 0.000000 -0.004810 
#    y 0.000000 1.584270 0.000000 
#    z -0.004810 0.000000 1.588540 
# 
# From -- ./inp_files/230957.got.cif
#   From: 2010.05.17/outbox.cif.g08.bks.cpg/sg12_116_cif.got.tgz:230957.got - 2010.06.03 13:09:07.
