data_PCOD9183032
_publ_section_title
;
Structure prediction by ZEFSAII (Michael W. Deem and Ramdas Pophale) SiO2 
 PCOD9183032
Probable space group: C 2/M
;
_chemical_formula_sum "Si O2"
_cell_formula_units_Z 56
_cell_length_a 19.764491
_cell_length_b 8.350285
_cell_length_c 32.734107
_cell_angle_alpha 90.000000
_cell_angle_beta 144.974677
_cell_angle_gamma 90.000000
_cell_volume 3100.649877
_symmetry_space_group_name_H-M "C 2/M"
_symmetry_group_IT_number 12
_symmetry_cell_setting 'monoclinic'
loop_
_space_group_symop_operation_xyz
x,y,z
-x,y,-z
-x,-y,-z
x,-y,z
1/2+x,1/2+y,z
1/2-x,1/2+y,-z
1/2-x,1/2-y,-z
1/2+x,1/2-y,z
loop_
_atom_site_type_symbol
_atom_site_label
_atom_site_fract_x
_atom_site_fract_y
_atom_site_fract_z
Si Si1 0.160484 0.305488 0.990860
Si Si2 0.889431 0.692234 0.855256
Si Si3 0.932981 0.693343 0.599629
Si Si4 0.377369 0.687031 0.419987
Si Si5 0.643278 0.185004 0.072773
Si Si6 0.235227 0.688427 0.559108
Si Si7 0.313025 0.189303 0.300169
O O1 0.162176 0.500000 0.992493
O O2 0.024616 0.253750 0.915568
O O3 0.250000 0.250000 0.000000
O O4 0.187083 0.248319 0.050807
O O5 0.895655 0.500000 0.862940
O O6 0.836034 0.757377 0.871994
O O7 0.802889 0.732722 0.775762
O O8 0.926885 0.500000 0.600631
O O9 0.865703 0.733405 0.523940
O O10 0.858101 0.774036 0.598080
O O11 0.067965 0.745061 0.663876
O O12 0.500000 0.750217 0.500000
O O13 0.393924 0.500000 0.418662
O O14 0.283539 0.712360 0.409388
O O15 0.336857 0.774156 0.359243
O O16 0.684001 0.000000 0.093817
O O17 0.500000 0.182807 0.000000
O O18 0.223930 0.500000 0.562190
O O19 0.303438 0.000000 0.289855
#
# Coordination Sequence:
#
# PCOD9183032 Si02
#       7
#     8   8   8   8   8   8   8
#     4   9  17  31  54  82 109 139 175 215 261 311
#     4   9  18  34  54  76 103 138 181 223 261 310
#     4   9  19  34  51  73 101 133 170 216 266 318
#     4  11  22  35  54  78 104 138 181 226 273 326
#     4   7  12  27  51  74  97 130 171 208 242 292
#     4  10  19  33  54  76 100 130 171 221 268 317
#     4  11  22  36  54  77 108 142 177 222 275 325
#
# _framework density 18.06073
#
# number of rings (size 3 to 8) (size 9 to 14) (size 15 to 20)
#    0.000    2.571    1.429    3.000    0.000    2.857 
#    0.000    2.143    0.000    9.429    0.000    0.000 
#    0.000    0.000    0.000    0.000    0.000    0.000 
#
# Total GULP energy -156013.188728 kJ/mol
# GULP energy per Si atom -5571.899597 kJ/mol
# Density = 1.801962 g / cm^3
# Si number density = 18.060730 Si / 1000 Ang^3
#
#
#
# Elastic Constant Matrix: (Units=GPa)
#
#
# Indices 1 2 3 4 5 6 
#
# 1 121.5188 9.1261 49.2994 0.0000 -3.9009 0.0001
# 2 9.1261 7.9782 8.2752 0.0000 3.5528 0.0003
# 3 49.2994 8.2752 89.7731 0.0000 -4.1175 0.0000
# 4 0.0000 0.0000 0.0000 11.9031 0.0000 0.0534
# 5 -3.9009 3.5528 -4.1175 0.0000 20.2811 0.0000
# 6 0.0001 0.0003 0.0000 0.0534 0.0000 25.9759
#
#
#
# Elastic Compliance Matrix: (Units=1/GPa)
#
#
# Indices 1 2 3 4 5 6 
#
# 1 0.011040 -0.008397 -0.005172 0.000000 0.002544 0.000000
# 2 -0.008397 0.161528 -0.011760 0.000000 -0.032299 -0.000002
# 3 -0.005172 -0.011760 0.015254 0.000000 0.004162 0.000000
# 4 0.000000 0.000000 0.000000 0.084013 0.000000 -0.000173
# 5 0.002544 -0.032299 0.004162 0.000000 0.056300 0.000000
# 6 0.000000 -0.000002 0.000000 -0.000173 0.000000 0.038498
#
#
# Mechanical properties :
#
#
# Convention : Reuss Voigt Hill
#
# Bulk Modulus (GPa) = 7.29049 39.18572 23.23811
# Shear Modulus (GPa) = 10.79891 21.80330 16.30110
#
# Velocity S-wave (km/s) = 2.44790 3.47828 3.00754
# Velocity P-wave (km/s) = 3.46915 6.15426 4.99550
#
# Compressibility (1/GPa) = 0.13716494
#
# Stress axis : x y z
#
# Youngs Moduli (GPa) = 90.58302 6.19089 65.55562
#
# Poissons Ratio (x) = 0.05198 0.33904
# Poissons Ratio (y) = 0.76060 0.77093
# Poissons Ratio (z) = 0.46847 0.07280
#
# Static dielectric constant tensor:
#      x y z
#    x 1.636060 0.000000 -0.010410 
#    y 0.000000 1.622880 0.000000 
#    z -0.010410 0.000000 1.617780 
# 
# From -- ./inp_files/377773.got.cif
#   From: 2010.05.17/outbox.cif.g08.bks.cpg/sg12_189_cif.got.tgz:377773.got - 2010.06.03 13:09:07.
