data_PCOD9183029
_publ_section_title
;
Structure prediction by ZEFSAII (Michael W. Deem and Ramdas Pophale) SiO2 
 PCOD9183029
Probable space group: C 2/M
;
_chemical_formula_sum "Si O2"
_cell_formula_units_Z 56
_cell_length_a 15.253622
_cell_length_b 7.383591
_cell_length_c 23.364890
_cell_angle_alpha 90.000000
_cell_angle_beta 55.470242
_cell_angle_gamma 90.000000
_cell_volume 2167.918528
_symmetry_space_group_name_H-M "C 2/M"
_symmetry_group_IT_number 12
_symmetry_cell_setting 'monoclinic'
loop_
_space_group_symop_operation_xyz
x,y,z
-x,y,-z
-x,-y,-z
x,-y,z
1/2+x,1/2+y,z
1/2-x,1/2+y,-z
1/2-x,1/2-y,-z
1/2+x,1/2-y,z
loop_
_atom_site_type_symbol
_atom_site_label
_atom_site_fract_x
_atom_site_fract_y
_atom_site_fract_z
Si Si1 0.244676 0.280579 0.796131
Si Si2 0.421000 0.292647 0.238355
Si Si3 0.882976 0.291132 0.547802
Si Si4 0.931269 0.781695 0.654264
Si Si5 0.677843 0.216443 0.943884
Si Si6 0.154690 0.778467 0.610281
Si Si7 0.598867 0.716446 0.088412
O O1 0.241157 0.500000 0.797719
O O2 0.177421 0.210726 0.768143
O O3 0.366924 0.230760 0.735939
O O4 0.188572 0.216115 0.875142
O O5 0.453242 0.500000 0.239616
O O6 0.384673 0.216801 0.312307
O O7 0.513225 0.210027 0.164705
O O8 0.891537 0.500000 0.526301
O O9 0.869368 0.287764 0.621629
O O10 0.776381 0.213975 0.558030
O O11 0.000000 0.203988 0.500000
O O12 0.055061 0.724408 0.607734
O O13 0.930407 0.000000 0.652176
O O14 0.786627 0.285258 0.933175
O O15 0.682308 0.000000 0.938359
O O16 0.586884 0.251261 0.024820
O O17 0.160349 0.000000 0.607634
O O18 0.598354 0.500000 0.094415
#
# Coordination Sequence:
#
# PCOD9183029 Si02
#       7
#     8   8   8   8   8   8   8
#     4  10  20  33  51  76 104 134 176 226 270 315
#     4  10  19  33  54  75 101 139 181 222 266 321
#     4  10  21  38  59  85 117 147 178 220 270 326
#     4  10  20  36  59  83 109 145 188 227 265 320
#     4   9  18  33  50  69  99 136 172 218 274 321
#     4   9  18  35  58  81 109 148 185 218 270 328
#     4   9  18  32  50  72  96 130 180 225 261 315
#
# _framework density 25.831230999999999
#
# number of rings (size 3 to 8) (size 9 to 14) (size 15 to 20)
#    0.000    2.429    1.429    0.857    0.000    6.000 
#    0.000    4.286    0.000    3.429    0.000    0.000 
#    0.000    0.000    0.000    0.000    0.000    0.000 
#
# Total GULP energy -156349.565293 kJ/mol
# GULP energy per Si atom -5583.913046 kJ/mol
# Density = 2.577244 g / cm^3
# Si number density = 25.831231 Si / 1000 Ang^3
#
#
#
# Elastic Constant Matrix: (Units=GPa)
#
#
# Indices 1 2 3 4 5 6 
#
# 1 90.2341 -5.7746 6.6245 0.0001 -9.6502 0.0007
# 2 -5.7746 100.0039 4.6284 0.0002 -2.4736 0.0012
# 3 6.6245 4.6284 105.7933 -0.0001 -13.8594 -0.0001
# 4 0.0001 0.0002 -0.0001 10.0983 0.0000 4.3374
# 5 -9.6502 -2.4736 -13.8594 0.0000 49.6278 0.0001
# 6 0.0007 0.0012 -0.0001 4.3374 0.0001 8.6623
#
#
#
# Elastic Compliance Matrix: (Units=1/GPa)
#
#
# Indices 1 2 3 4 5 6 
#
# 1 0.011390 0.000732 -0.000467 0.000000 0.002121 -0.000001
# 2 0.000732 0.010074 -0.000417 0.000001 0.000528 -0.000002
# 3 -0.000467 -0.000417 0.009845 0.000000 0.002638 0.000000
# 4 0.000000 0.000001 0.000000 0.126159 0.000000 -0.063170
# 5 0.002121 0.000528 0.002638 0.000000 0.021325 -0.000001
# 6 -0.000001 -0.000002 0.000000 -0.063170 -0.000001 0.147073
#
#
# Mechanical properties :
#
#
# Convention : Reuss Voigt Hill
#
# Bulk Modulus (GPa) = 32.25396 34.10976 33.18186
# Shear Modulus (GPa) = 14.85849 33.04788 23.95318
#
# Velocity S-wave (km/s) = 2.40096 3.58072 3.04846
# Velocity P-wave (km/s) = 4.49441 5.50717 5.02636
#
# Compressibility (1/GPa) = 0.03100394
#
# Stress axis : x y z
#
# Youngs Moduli (GPa) = 87.79447 99.26299 101.56935
#
# Poissons Ratio (x) = -0.07264 0.04747
# Poissons Ratio (y) = -0.06425 0.04240
# Poissons Ratio (z) = 0.04104 0.04143
#
# Static dielectric constant tensor:
#      x y z
#    x 2.019030 0.000000 -0.036030 
#    y 0.000000 1.265010 0.000000 
#    z -0.036030 0.000000 2.125030 
# 
# From -- ./inp_files/309006.got.cif
#   From: 2010.05.17/outbox.cif.g08.bks.cpg/sg12_155_cif.got.tgz:309006.got - 2010.06.03 13:09:07.
