data_PCOD9183610
_publ_section_title
;
Structure prediction by ZEFSAII (Michael W. Deem and Ramdas Pophale) SiO2 
 PCOD9183610
Probable space group: C 2/M
;
_chemical_formula_sum "Si O2"
_cell_formula_units_Z 56
_cell_length_a 25.275321
_cell_length_b 9.206110
_cell_length_c 12.227820
_cell_angle_alpha 90.000000
_cell_angle_beta 106.587852
_cell_angle_gamma 90.000000
_cell_volume 2726.848658
_symmetry_space_group_name_H-M "C 2/M"
_symmetry_group_IT_number 12
_symmetry_cell_setting 'monoclinic'
loop_
_space_group_symop_operation_xyz
x,y,z
-x,y,-z
-x,-y,-z
x,-y,z
1/2+x,1/2+y,z
1/2-x,1/2+y,-z
1/2-x,1/2-y,-z
1/2+x,1/2-y,z
loop_
_atom_site_type_symbol
_atom_site_label
_atom_site_fract_x
_atom_site_fract_y
_atom_site_fract_z
Si Si1 0.952595 0.166400 0.649481
Si Si2 0.155907 0.169897 0.878477
Si Si3 0.166276 0.673599 0.104985
Si Si4 0.436448 0.832874 0.301746
Si Si5 0.639593 0.833945 0.525319
Si Si6 0.555101 0.332587 0.095431
Si Si7 0.770151 0.830406 0.297343
O O1 0.895422 0.238793 0.579279
O O2 0.955677 0.168267 0.782063
O O3 0.005336 0.257311 0.640551
O O4 0.955386 0.000000 0.611900
O O5 0.098268 0.244567 0.809220
O O6 0.195463 0.180641 0.796250
O O7 0.147774 0.000000 0.896863
O O8 0.180211 0.251180 0.997752
O O9 0.169305 0.500000 0.094832
O O10 0.105694 0.729157 0.097908
O O11 0.208895 0.715593 0.226217
O O12 0.398699 0.832835 0.388016
O O13 0.444675 0.000000 0.272766
O O14 0.697602 0.764458 0.595064
O O15 0.645823 0.000000 0.492242
O O16 0.568234 0.500000 0.071280
O O17 0.500000 0.288484 0.000000
O O18 0.770353 0.000000 0.330009
#
# Coordination Sequence:
#
# PCOD9183610 Si02
#       7
#     8   8   8   8   8   8   8
#     4  11  22  36  57  82 110 147 187 228 276 330
#     4  10  19  33  55  82 115 151 182 219 272 331
#     4  11  22  36  57  84 112 144 184 230 277 325
#     4  10  20  34  54  83 116 146 182 228 275 325
#     4  10  21  36  56  83 114 147 183 226 274 326
#     4  10  23  42  60  80 108 143 185 228 270 324
#     4   9  20  37  56  82 114 146 183 226 272 326
#
# _framework density 20.536527
#
# number of rings (size 3 to 8) (size 9 to 14) (size 15 to 20)
#    0.000    1.857    0.000    3.857    0.000    7.714 
#    0.000    0.714    0.000    0.000    0.000    0.000 
#    0.000    0.000    0.000    0.000    0.000    0.000 
#
# Total GULP energy -156535.980399 kJ/mol
# GULP energy per Si atom -5590.570729 kJ/mol
# Density = 2.048978 g / cm^3
# Si number density = 20.536527 Si / 1000 Ang^3
#
#
#
# Elastic Constant Matrix: (Units=GPa)
#
#
# Indices 1 2 3 4 5 6 
#
# 1 61.0830 44.9082 36.1255 0.0000 36.0225 0.0000
# 2 44.9082 122.0936 44.6870 0.0000 38.4564 0.0000
# 3 36.1255 44.6870 78.5546 0.0000 47.9443 0.0000
# 4 0.0000 0.0000 0.0000 32.3373 0.0000 8.4515
# 5 36.0225 38.4564 47.9443 0.0000 43.4809 0.0000
# 6 0.0000 0.0000 0.0000 8.4515 0.0000 25.7991
#
#
#
# Elastic Compliance Matrix: (Units=1/GPa)
#
#
# Indices 1 2 3 4 5 6 
#
# 1 0.034839 -0.005300 0.005346 0.000000 -0.030071 0.000000
# 2 -0.005300 0.012186 -0.001825 0.000000 -0.004375 0.000000
# 3 0.005346 -0.001825 0.039838 0.000000 -0.046743 0.000000
# 4 0.000000 0.000000 0.000000 0.033820 0.000000 -0.011079
# 5 -0.030071 -0.004375 -0.046743 0.000000 0.103322 0.000000
# 6 0.000000 0.000000 0.000000 -0.011079 0.000000 0.042390
#
#
# Mechanical properties :
#
#
# Convention : Reuss Voigt Hill
#
# Bulk Modulus (GPa) = 12.00376 57.01918 34.51147
# Shear Modulus (GPa) = 16.79429 29.39082 23.09255
#
# Velocity S-wave (km/s) = 2.86278 3.78716 3.35694
# Velocity P-wave (km/s) = 4.09697 6.85189 5.64507
#
# Compressibility (1/GPa) = 0.08330720
#
# Stress axis : x y z
#
# Youngs Moduli (GPa) = 28.70306 82.06429 25.10166
#
# Poissons Ratio (x) = 0.43492 -0.13420
# Poissons Ratio (y) = 0.15212 0.04580
# Poissons Ratio (z) = -0.15346 0.14973
#
# Static dielectric constant tensor:
#      x y z
#    x 1.736440 0.000000 -0.018300 
#    y 0.000000 1.702470 0.000000 
#    z -0.018300 0.000000 1.728390 
# 
# From -- ./inp_files/181044.got.cif
#   From: 2010.05.17/outbox.cif.g08.bks.cpg/sg12_91_cif.got.tgz:181044.got - 2010.06.03 13:09:07.
