data_PCOD9183944
_publ_section_title
;
Structure prediction by ZEFSAII (Michael W. Deem and Ramdas Pophale) SiO2 
 PCOD9183944
Probable space group: C 2/M
;
_chemical_formula_sum "Si O2"
_cell_formula_units_Z 30
_cell_length_a 21.786763
_cell_length_b 5.410681
_cell_length_c 12.995364
_cell_angle_alpha 90.000000
_cell_angle_beta 59.491664
_cell_angle_gamma 90.000000
_cell_volume 1319.824696
_symmetry_space_group_name_H-M "C 2/M"
_symmetry_group_IT_number 12
_symmetry_cell_setting 'monoclinic'
loop_
_space_group_symop_operation_xyz
x,y,z
-x,y,-z
-x,-y,-z
x,-y,z
1/2+x,1/2+y,z
1/2-x,1/2+y,-z
1/2-x,1/2-y,-z
1/2+x,1/2-y,z
loop_
_atom_site_type_symbol
_atom_site_label
_atom_site_fract_x
_atom_site_fract_y
_atom_site_fract_z
Si Si1 0.149803 0.000000 0.611134
Si Si2 0.831217 0.500000 0.672284
Si Si3 0.746438 0.000000 0.068246
Si Si4 0.625393 0.500000 0.878061
Si Si5 0.562284 0.000000 0.658258
Si Si6 0.500000 0.000000 0.500000
Si Si7 0.588582 0.000000 0.859615
Si Si8 0.243213 0.000000 0.348921
O O1 0.149251 0.000000 0.735863
O O2 0.107821 0.245810 0.611897
O O3 0.224496 0.000000 0.486504
O O4 0.823218 0.500000 0.801778
O O5 0.793483 0.247258 0.665059
O O6 0.000612 0.500000 0.626939
O O7 0.810129 0.000000 0.097438
O O8 0.750000 0.750000 0.000000
O O9 0.582017 0.249639 0.927815
O O10 0.587079 0.000000 0.430162
O O11 0.541988 0.000000 0.796481
O O12 0.673423 0.000000 0.750971
#
# Coordination Sequence:
#
# PCOD9183944 Si02
#       8
#     4   4   4   4   4   2   4   4
#     4  10  20  34  53  87 119 162 198 244 312 365
#     4  12  26  39  64  94 128 175 199 251 310 383
#     4  12  24  43  63  90 123 164 214 262 316 359
#     4  10  20  35  57  88 119 157 193 264 311 367
#     4  10  22  34  53  85 122 176 191 240 294 382
#     4  12  24  44  58  90 140 168 212 230 314 392
#     4  10  19  33  56  84 122 153 201 255 311 354
#     4  12  19  37  59  91 131 154 205 252 318 378
#
# _framework density 22.730291999999999
#
# number of rings (size 3 to 8) (size 9 to 14) (size 15 to 20)
#    0.000    1.067    5.333    1.600    0.000    7.467 
#    0.000    0.000    0.000    0.000    0.000   22.400 
#    0.000    0.000    0.000    0.000    0.000    0.000 
#
# Total GULP energy -83572.260804 kJ/mol
# GULP energy per Si atom -5571.484054 kJ/mol
# Density = 2.267856 g / cm^3
# Si number density = 22.730292 Si / 1000 Ang^3
#
#
#
# Elastic Constant Matrix: (Units=GPa)
#
#
# Indices 1 2 3 4 5 6 
#
# 1 137.7312 57.8507 34.1329 -0.0001 25.4341 -0.0004
# 2 57.8507 232.8517 35.9468 -0.0005 20.5513 -0.0016
# 3 34.1329 35.9468 92.6157 0.0000 8.0449 -0.0001
# 4 -0.0001 -0.0005 0.0000 19.9621 0.0000 15.6255
# 5 25.4341 20.5513 8.0449 0.0000 50.5454 0.0000
# 6 -0.0004 -0.0016 -0.0001 15.6255 0.0000 -14.6981
#
#
#
# Elastic Compliance Matrix: (Units=1/GPa)
#
#
# Indices 1 2 3 4 5 6 
#
# 1 0.009201 -0.001589 -0.002462 0.000000 -0.003592 0.000000
# 2 -0.001589 0.004973 -0.001256 0.000000 -0.001023 0.000000
# 3 -0.002462 -0.001256 0.012209 0.000000 -0.000193 0.000000
# 4 0.000000 0.000000 0.000000 0.027342 0.000000 0.029067
# 5 -0.003592 -0.001023 -0.000193 0.000000 0.022038 0.000000
# 6 0.000000 0.000000 0.000000 0.029067 0.000000 -0.037135
#
#
# Mechanical properties :
#
#
# Convention : Reuss Voigt Hill
#
# Bulk Modulus (GPa) = 63.41331 79.89551 71.65441
# Shear Modulus (GPa) = 91.74116 33.51308 62.62712
#
# Velocity S-wave (km/s) = 6.35990 3.84393 5.25472
# Velocity P-wave (km/s) = 9.04930 7.41126 8.27093
#
# Compressibility (1/GPa) = 0.01576956
#
# Stress axis : x y z
#
# Youngs Moduli (GPa) = 108.67818 201.06641 81.90618
#
# Poissons Ratio (x) = 0.31947 0.20169
# Poissons Ratio (y) = 0.17268 0.10287
# Poissons Ratio (z) = 0.26761 0.25253
#
# Static dielectric constant tensor:
#      x y z
#    x 1.803290 0.000000 -0.027060 
#    y 0.000000 1.870900 0.000000 
#    z -0.027060 0.000000 1.922550 
# 
# From -- ./inp_files/161450.got.cif
#   From: 2010.05.17/outbox.cif.g08.bks.cpg/sg12_81_cif.got.tgz:161450.got - 2010.06.03 13:09:07.
