data_PCOD9183318
_publ_section_title
;
Structure prediction by ZEFSAII (Michael W. Deem and Ramdas Pophale) SiO2 
 PCOD9183318
Probable space group: C 2/M
;
_chemical_formula_sum "Si O2"
_cell_formula_units_Z 64
_cell_length_a 12.650914
_cell_length_b 20.514965
_cell_length_c 22.862961
_cell_angle_alpha 90.000000
_cell_angle_beta 145.409944
_cell_angle_gamma 90.000000
_cell_volume 3368.563389
_symmetry_space_group_name_H-M "C 2/M"
_symmetry_group_IT_number 12
_symmetry_cell_setting 'monoclinic'
loop_
_space_group_symop_operation_xyz
x,y,z
-x,y,-z
-x,-y,-z
x,-y,z
1/2+x,1/2+y,z
1/2-x,1/2+y,-z
1/2-x,1/2-y,-z
1/2+x,1/2-y,z
loop_
_atom_site_type_symbol
_atom_site_label
_atom_site_fract_x
_atom_site_fract_y
_atom_site_fract_z
Si Si1 0.124787 0.075473 0.113819
Si Si2 0.425532 0.337504 0.106298
Si Si3 0.719124 0.576986 0.607668
Si Si4 0.985445 0.705071 0.062260
Si Si5 0.969181 0.654659 0.312147
Si Si6 0.144188 0.787077 0.399345
Si Si7 0.203422 0.839131 0.709459
Si Si8 0.732753 0.196569 0.666228
O O1 0.304608 0.121682 0.200086
O O2 0.995448 0.096392 0.108919
O O3 0.181485 0.000000 0.142105
O O4 0.000000 0.086262 0.000000
O O5 0.474293 0.277117 0.085322
O O6 0.555510 0.324253 0.221379
O O7 0.207046 0.332772 0.014797
O O8 0.500000 0.590924 0.500000
O O9 0.750187 0.500000 0.617500
O O10 0.762671 0.604563 0.692067
O O11 0.845411 0.614602 0.618053
O O12 0.153641 0.669724 0.172255
O O13 0.000000 0.711498 0.000000
O O14 0.897582 0.657584 0.346960
O O15 0.010029 0.729374 0.313358
O O16 0.250000 0.750000 0.500000
O O17 0.280132 0.808780 0.409378
O O18 0.006763 0.841962 0.361594
O O19 0.207487 0.772053 0.673280
#
# Coordination Sequence:
#
# PCOD9183318 Si02
#       8
#     8   8   8   8   8   8   8   8
#     4  10  21  35  55  84 116 155 202 249 293 350
#     4   9  19  32  53  81 115 152 187 241 293 363
#     4  11  23  40  61  84 118 159 207 256 298 355
#     4  10  19  33  54  82 115 153 189 237 304 366
#     4  10  21  37  59  85 122 155 192 250 304 362
#     4  11  21  35  60  87 123 155 191 252 311 370
#     4  10  21  33  55  86 115 152 195 244 298 361
#     4   9  19  35  55  87 118 151 188 241 304 356
#
# _framework density 18.999196999999999
#
# number of rings (size 3 to 8) (size 9 to 14) (size 15 to 20)
#    0.000    2.000    1.250    3.000    1.750    2.500 
#    0.000    0.000    0.000    8.250    0.000    9.625 
#    0.000    0.000    0.000    0.000    0.000    0.000 
#
# Total GULP energy -178575.497902 kJ/mol
# GULP energy per Si atom -5580.484309 kJ/mol
# Density = 1.895595 g / cm^3
# Si number density = 18.999197 Si / 1000 Ang^3
#
#
#
# Elastic Constant Matrix: (Units=GPa)
#
#
# Indices 1 2 3 4 5 6 
#
# 1 113.8590 16.8163 47.2688 -0.0004 -0.4216 0.0000
# 2 16.8163 41.8102 17.4672 -0.0004 5.5092 -0.0001
# 3 47.2688 17.4672 82.5841 0.0005 -3.8981 0.0001
# 4 -0.0004 -0.0004 0.0005 17.9619 0.0004 1.6679
# 5 -0.4216 5.5092 -3.8981 0.0004 34.8466 0.0002
# 6 0.0000 -0.0001 0.0001 1.6679 0.0002 22.1344
#
#
#
# Elastic Compliance Matrix: (Units=1/GPa)
#
#
# Indices 1 2 3 4 5 6 
#
# 1 0.011686 -0.002051 -0.006266 0.000000 -0.000235 0.000000
# 2 -0.002051 0.027418 -0.004856 0.000001 -0.004903 0.000000
# 3 -0.006266 -0.004856 0.016844 -0.000001 0.002576 0.000000
# 4 0.000000 0.000001 -0.000001 0.056066 -0.000001 -0.004225
# 5 -0.000235 -0.004903 0.002576 -0.000001 0.029758 0.000000
# 6 0.000000 0.000000 0.000000 -0.004225 0.000000 0.045497
#
#
# Mechanical properties :
#
#
# Convention : Reuss Voigt Hill
#
# Bulk Modulus (GPa) = 33.78341 44.59533 39.18937
# Shear Modulus (GPa) = 22.37308 25.43531 23.90420
#
# Velocity S-wave (km/s) = 3.43531 3.66287 3.55092
# Velocity P-wave (km/s) = 5.79269 6.43522 6.12239
#
# Compressibility (1/GPa) = 0.02960033
#
# Stress axis : x y z
#
# Youngs Moduli (GPa) = 85.57031 36.47300 59.36786
#
# Poissons Ratio (x) = 0.07482 0.37200
# Poissons Ratio (y) = 0.17555 0.28830
# Poissons Ratio (z) = 0.53619 0.17712
#
# Static dielectric constant tensor:
#      x y z
#    x 1.712890 0.000000 0.010810 
#    y 0.000000 1.627020 0.000000 
#    z 0.010810 0.000000 1.712270 
# 
# From -- ./inp_files/306812.got.cif
#   From: 2010.05.17/outbox.cif.g08.bks.cpg/sg12_154_cif.got.tgz:306812.got - 2010.06.03 13:09:07.
