data_PCOD9183922
_publ_section_title
;
Structure prediction by ZEFSAII (Michael W. Deem and Ramdas Pophale) SiO2 
 PCOD9183922
Probable space group: C 2/M
;
_chemical_formula_sum "Si O2"
_cell_formula_units_Z 56
_cell_length_a 22.633734
_cell_length_b 8.079593
_cell_length_c 20.925721
_cell_angle_alpha 90.000000
_cell_angle_beta 43.885418
_cell_angle_gamma 90.000000
_cell_volume 2652.749359
_symmetry_space_group_name_H-M "C 2/M"
_symmetry_group_IT_number 12
_symmetry_cell_setting 'monoclinic'
loop_
_space_group_symop_operation_xyz
x,y,z
-x,y,-z
-x,-y,-z
x,-y,z
1/2+x,1/2+y,z
1/2-x,1/2+y,-z
1/2-x,1/2-y,-z
1/2+x,1/2-y,z
loop_
_atom_site_type_symbol
_atom_site_label
_atom_site_fract_x
_atom_site_fract_y
_atom_site_fract_z
Si Si1 0.442071 0.303719 0.396304
Si Si2 0.840694 0.699934 0.957041
Si Si3 0.690773 0.799595 0.876818
Si Si4 0.378172 0.700302 0.691215
Si Si5 0.370230 0.691092 0.211452
Si Si6 0.814686 0.799861 0.601749
Si Si7 0.514463 0.808468 0.770070
O O1 0.443974 0.500000 0.407349
O O2 0.534385 0.236098 0.346642
O O3 0.365274 0.240226 0.500066
O O4 0.434733 0.276302 0.326779
O O5 0.846114 0.500000 0.953083
O O6 0.919705 0.763284 0.853635
O O7 0.750000 0.750000 0.000000
O O8 0.845501 0.755748 0.026971
O O9 0.789427 0.742375 0.792129
O O10 0.639553 0.741206 0.854765
O O11 0.691527 0.000000 0.874852
O O12 0.378450 0.500000 0.697379
O O13 0.370308 0.735870 0.621904
O O14 0.393319 0.500000 0.198395
O O15 0.277375 0.722008 0.314981
O O16 0.437681 0.792543 0.200038
O O17 0.802488 0.000000 0.609052
O O18 0.507913 0.000000 0.757432
#
# Coordination Sequence:
#
# PCOD9183922 Si02
#       7
#     8   8   8   8   8   8   8
#     4  10  19  33  56  84 112 147 190 231 273 325
#     4  10  22  39  62  89 116 148 183 222 272 330
#     4   9  18  36  60  83 111 148 184 223 274 328
#     4   8  14  28  54  84 110 138 176 221 268 323
#     4  11  23  39  58  81 108 143 189 235 279 328
#     4   9  18  34  57  83 112 147 185 228 278 331
#     4  11  24  40  56  79 113 149 185 228 278 330
#
# _framework density 21.110173
#
# number of rings (size 3 to 8) (size 9 to 14) (size 15 to 20)
#    0.000    2.286    0.000    3.857    0.000    6.286 
#    0.000    7.143    0.000    4.286    0.000    0.000 
#    0.000    0.000    0.000    0.000    0.000    0.000 
#
# Total GULP energy -156369.821096 kJ/mol
# GULP energy per Si atom -5584.636468 kJ/mol
# Density = 2.106213 g / cm^3
# Si number density = 21.110173 Si / 1000 Ang^3
#
#
#
# Elastic Constant Matrix: (Units=GPa)
#
#
# Indices 1 2 3 4 5 6 
#
# 1 48.5742 -12.9897 -4.6868 -0.0003 1.3555 0.0008
# 2 -12.9897 16.6226 4.7785 -0.0005 0.4595 0.0018
# 3 -4.6868 4.7785 71.4427 0.0005 26.1534 0.0003
# 4 -0.0003 -0.0005 0.0005 16.3227 -0.0003 1.6410
# 5 1.3555 0.4595 26.1534 -0.0003 20.8379 -0.0002
# 6 0.0008 0.0018 0.0003 1.6410 -0.0002 21.1363
#
#
#
# Elastic Compliance Matrix: (Units=1/GPa)
#
#
# Indices 1 2 3 4 5 6 
#
# 1 0.026297 0.020061 0.002167 0.000001 -0.004873 -0.000003
# 2 0.020061 0.077203 -0.005081 0.000004 0.003370 -0.000007
# 3 0.002167 -0.005081 0.026806 -0.000001 -0.033673 0.000000
# 4 0.000001 0.000004 -0.000001 0.061746 0.000002 -0.004794
# 5 -0.004873 0.003370 -0.033673 0.000002 0.090495 0.000001
# 6 -0.000003 -0.000007 0.000000 -0.004794 0.000001 0.047684
#
#
# Mechanical properties :
#
#
# Convention : Reuss Voigt Hill
#
# Bulk Modulus (GPa) = 6.07530 12.31594 9.19562
# Shear Modulus (GPa) = 14.25295 21.62855 17.94075
#
# Velocity S-wave (km/s) = 2.60122 3.20434 2.91840
# Velocity P-wave (km/s) = 3.45050 4.42009 3.96504
#
# Compressibility (1/GPa) = 0.16460104
#
# Stress axis : x y z
#
# Youngs Moduli (GPa) = 38.02717 12.95280 37.30483
#
# Poissons Ratio (x) = -0.25985 -0.08085
# Poissons Ratio (y) = -0.76288 0.18956
# Poissons Ratio (z) = -0.08241 0.06582
#
# Static dielectric constant tensor:
#      x y z
#    x 1.736310 0.000000 -0.005580 
#    y 0.000000 1.755930 0.000000 
#    z -0.005580 0.000000 1.770080 
# 
# From -- ./inp_files/319654.got.cif
#   From: 2010.05.17/outbox.cif.g08.bks.cpg/sg12_160_cif.got.tgz:319654.got - 2010.06.03 13:09:07.
