data_PCOD9183436
_publ_section_title
;
Structure prediction by ZEFSAII (Michael W. Deem and Ramdas Pophale) SiO2 
 PCOD9183436
Probable space group: C 2/M
;
_chemical_formula_sum "Si O2"
_cell_formula_units_Z 48
_cell_length_a 16.282464
_cell_length_b 7.834440
_cell_length_c 14.890962
_cell_angle_alpha 90.000000
_cell_angle_beta 78.811518
_cell_angle_gamma 90.000000
_cell_volume 1863.447976
_symmetry_space_group_name_H-M "C 2/M"
_symmetry_group_IT_number 12
_symmetry_cell_setting 'monoclinic'
loop_
_space_group_symop_operation_xyz
x,y,z
-x,y,-z
-x,-y,-z
x,-y,z
1/2+x,1/2+y,z
1/2-x,1/2+y,-z
1/2-x,1/2-y,-z
1/2+x,1/2-y,z
loop_
_atom_site_type_symbol
_atom_site_label
_atom_site_fract_x
_atom_site_fract_y
_atom_site_fract_z
Si Si1 0.591257 0.706163 0.444450
Si Si2 0.350718 0.300188 0.896482
Si Si3 0.654570 0.290235 0.614566
Si Si4 0.789753 0.300224 0.727609
Si Si5 0.521393 0.303389 0.776819
Si Si6 0.589836 0.801769 0.936721
O O1 0.500000 0.754908 0.500000
O O2 0.592429 0.500000 0.438428
O O3 0.653389 0.764537 0.511662
O O4 0.622126 0.773583 0.342657
O O5 0.361545 0.500000 0.912013
O O6 0.287784 0.279118 0.826927
O O7 0.436920 0.224065 0.834713
O O8 0.343819 0.221202 0.996951
O O9 0.656479 0.500000 0.614294
O O10 0.725347 0.228001 0.667685
O O11 0.567704 0.235126 0.680002
O O12 0.774990 0.500000 0.742133
O O13 0.500088 0.500000 0.761414
O O14 0.589657 0.298259 0.843394
O O15 0.586682 0.000000 0.913717
O O16 0.500000 0.750856 0.000000
#
# Coordination Sequence:
#
# PCOD9183436 Si02
#       6
#     8   8   8   8   8   8
#     4  10  20  37  60  81 102 134 177 218 255 305
#     4  10  19  33  55  79 103 138 182 220 255 305
#     4   9  19  35  54  77 106 139 173 212 260 311
#     4  11  22  35  52  77 110 141 169 211 266 315
#     4   9  17  33  56  78 101 135 180 221 256 304
#     4   9  17  30  50  79 111 137 167 216 271 312
#
# _framework density 25.758699
#
# number of rings (size 3 to 8) (size 9 to 14) (size 15 to 20)
#    0.000    2.333    0.000    3.000    0.000    5.667 
#    0.000    4.167    0.000    0.000    0.000    0.000 
#    0.000    0.000    0.000    0.000    0.000    0.000 
#
# Total GULP energy -134169.334360 kJ/mol
# GULP energy per Si atom -5590.388932 kJ/mol
# Density = 2.570007 g / cm^3
# Si number density = 25.758699 Si / 1000 Ang^3
#
#
#
# Elastic Constant Matrix: (Units=GPa)
#
#
# Indices 1 2 3 4 5 6 
#
# 1 72.2146 -6.4608 19.5597 0.0000 14.9285 0.0000
# 2 -6.4608 47.0276 5.5187 0.0000 -0.2259 0.0000
# 3 19.5597 5.5187 175.3246 0.0000 11.4056 0.0000
# 4 0.0000 0.0000 0.0000 25.6919 0.0000 7.5971
# 5 14.9285 -0.2259 11.4056 0.0000 47.9223 0.0000
# 6 0.0000 0.0000 0.0000 7.5971 0.0000 13.2454
#
#
#
# Elastic Compliance Matrix: (Units=1/GPa)
#
#
# Indices 1 2 3 4 5 6 
#
# 1 0.015370 0.002266 -0.001498 0.000000 -0.004421 0.000000
# 2 0.002266 0.021680 -0.000910 0.000000 -0.000387 0.000000
# 3 -0.001498 -0.000910 0.005962 0.000000 -0.000956 0.000000
# 4 0.000000 0.000000 0.000000 0.046872 0.000000 -0.026884
# 5 -0.004421 -0.000387 -0.000956 0.000000 0.022470 0.000000
# 6 0.000000 0.000000 0.000000 -0.026884 0.000000 0.090917
#
#
# Mechanical properties :
#
#
# Convention : Reuss Voigt Hill
#
# Bulk Modulus (GPa) = 23.40412 36.86690 30.13551
# Shear Modulus (GPa) = 22.95692 35.76854 29.36273
#
# Velocity S-wave (km/s) = 2.98859 3.73044 3.37993
# Velocity P-wave (km/s) = 4.58416 5.73571 5.19196
#
# Compressibility (1/GPa) = 0.04272751
#
# Stress axis : x y z
#
# Youngs Moduli (GPa) = 65.06143 46.12465 167.73618
#
# Poissons Ratio (x) = -0.10453 0.25135
# Poissons Ratio (y) = -0.14744 0.15265
# Poissons Ratio (z) = 0.09749 0.04198
#
# Static dielectric constant tensor:
#      x y z
#    x 2.203130 0.000000 0.038870 
#    y 0.000000 1.941860 0.000000 
#    z 0.038870 0.000000 1.977560 
# 
# From -- ./inp_files/221534.got.cif
#   From: 2010.05.17/outbox.cif.g08.bks.cpg/sg12_111_cif.got.tgz:221534.got - 2010.06.03 13:09:07.
