data_PCOD9183140
_publ_section_title
;
Structure prediction by ZEFSAII (Michael W. Deem and Ramdas Pophale) SiO2 
 PCOD9183140
Probable space group: C 2/M
;
_chemical_formula_sum "Si O2"
_cell_formula_units_Z 48
_cell_length_a 13.712762
_cell_length_b 15.943673
_cell_length_c 17.040942
_cell_angle_alpha 90.000000
_cell_angle_beta 146.144743
_cell_angle_gamma 90.000000
_cell_volume 2075.570824
_symmetry_space_group_name_H-M "C 2/M"
_symmetry_group_IT_number 12
_symmetry_cell_setting 'monoclinic'
loop_
_space_group_symop_operation_xyz
x,y,z
-x,y,-z
-x,-y,-z
x,-y,z
1/2+x,1/2+y,z
1/2-x,1/2+y,-z
1/2-x,1/2-y,-z
1/2+x,1/2-y,z
loop_
_atom_site_type_symbol
_atom_site_label
_atom_site_fract_x
_atom_site_fract_y
_atom_site_fract_z
Si Si1 0.291353 0.780564 0.351881
Si Si2 0.226194 0.349272 0.499475
Si Si3 0.092858 0.121049 0.740139
Si Si4 0.658000 0.818387 0.784827
Si Si5 0.739967 0.909247 0.987763
Si Si6 0.662005 0.094091 0.242439
O O1 0.500000 0.767857 0.500000
O O2 0.250520 0.848224 0.391023
O O3 0.250911 0.818913 0.239381
O O4 0.216221 0.686038 0.313131
O O5 0.250000 0.250000 0.500000
O O6 0.395090 0.396747 0.579341
O O7 0.027118 0.369723 0.342539
O O8 0.109201 0.221114 0.758219
O O9 0.237234 0.093806 0.773568
O O10 0.131027 0.091464 0.852981
O O11 0.760564 0.843672 0.931295
O O12 0.547870 0.899400 0.898672
O O13 0.746053 0.000000 0.952588
O O14 0.699219 0.000000 0.301626
#
# Coordination Sequence:
#
# PCOD9183140 Si02
#       6
#     8   8   8   8   8   8
#     4   9  18  34  56  81 107 138 179 224 268 317
#     4   9  17  33  57  80 104 132 177 229 266 309
#     4  10  19  33  54  78 107 142 180 221 266 319
#     4   9  19  35  56  79 103 139 181 222 265 315
#     4  11  22  36  53  77 112 147 180 220 266 319
#     4  10  20  32  49  78 115 147 174 213 270 329
#
# _framework density 23.126169000000001
#
# number of rings (size 3 to 8) (size 9 to 14) (size 15 to 20)
#    0.000    2.333    0.000    4.500    0.000    1.667 
#    0.000    5.833    0.000    7.500    0.000    0.000 
#    0.000    0.000    0.000    0.000    0.000    0.000 
#
# Total GULP energy -133776.344682 kJ/mol
# GULP energy per Si atom -5574.014362 kJ/mol
# Density = 2.307353 g / cm^3
# Si number density = 23.126169 Si / 1000 Ang^3
#
#
#
# Elastic Constant Matrix: (Units=GPa)
#
#
# Indices 1 2 3 4 5 6 
#
# 1 53.1043 10.6876 21.3129 -0.0003 -15.0875 0.0013
# 2 10.6876 36.7104 9.5011 -0.0041 2.5951 -0.0005
# 3 21.3129 9.5011 58.4170 -0.0105 -7.0034 -0.0030
# 4 -0.0003 -0.0041 -0.0105 2.0769 -0.0046 11.7178
# 5 -15.0875 2.5951 -7.0034 -0.0046 35.3859 -0.0003
# 6 0.0013 -0.0005 -0.0030 11.7178 -0.0003 5.1927
#
#
#
# Elastic Compliance Matrix: (Units=1/GPa)
#
#
# Indices 1 2 3 4 5 6 
#
# 1 0.025862 -0.006380 -0.007190 -0.000003 0.010072 -0.000003
# 2 -0.006380 0.030342 -0.003278 -0.000001 -0.005594 0.000005
# 3 -0.007190 -0.003278 0.020421 -0.000002 0.001216 0.000018
# 4 -0.000003 -0.000001 -0.000002 -0.041042 -0.000006 0.092614
# 5 0.010072 -0.005594 0.001216 -0.000006 0.033205 0.000014
# 6 -0.000003 0.000005 0.000018 0.092614 0.000014 -0.016415
#
#
# Mechanical properties :
#
#
# Convention : Reuss Voigt Hill
#
# Bulk Modulus (GPa) = 23.29514 25.69277 24.49396
# Shear Modulus (GPa) = 49.81140 15.64644 32.72892
#
# Velocity S-wave (km/s) = 4.64605 2.60392 3.76604
# Velocity P-wave (km/s) = 6.23506 4.49160 5.43371
#
# Compressibility (1/GPa) = 0.04292741
#
# Stress axis : x y z
#
# Youngs Moduli (GPa) = 38.66641 32.95806 48.97028
#
# Poissons Ratio (x) = 0.21028 0.35212
# Poissons Ratio (y) = 0.24671 0.16051
# Poissons Ratio (z) = 0.27803 0.10803
#
# Static dielectric constant tensor:
#      x y z
#    x 1.977190 0.000000 -0.024780 
#    y 0.000000 1.886040 0.000000 
#    z -0.024780 0.000000 1.888900 
# 
# From -- ./inp_files/271779.got.cif
#   From: 2010.05.17/outbox.cif.g08.bks.cpg/sg12_136_cif.got.tgz:271779.got - 2010.06.03 13:09:07.
