data_PCOD9183601
_publ_section_title
;
Structure prediction by ZEFSAII (Michael W. Deem and Ramdas Pophale) SiO2 
 PCOD9183601
Probable space group: C 2/M
;
_chemical_formula_sum "Si O2"
_cell_formula_units_Z 58
_cell_length_a 20.339559
_cell_length_b 7.381775
_cell_length_c 19.043366
_cell_angle_alpha 90.000000
_cell_angle_beta 118.397443
_cell_angle_gamma 90.000000
_cell_volume 2515.160661
_symmetry_space_group_name_H-M "C 2/M"
_symmetry_group_IT_number 12
_symmetry_cell_setting 'monoclinic'
loop_
_space_group_symop_operation_xyz
x,y,z
-x,y,-z
-x,-y,-z
x,-y,z
1/2+x,1/2+y,z
1/2-x,1/2+y,-z
1/2-x,1/2-y,-z
1/2+x,1/2-y,z
loop_
_atom_site_type_symbol
_atom_site_label
_atom_site_fract_x
_atom_site_fract_y
_atom_site_fract_z
Si Si1 0.926426 0.791714 0.644864
Si Si2 0.612539 0.717631 0.529818
Si Si3 0.190507 0.217145 0.908280
Si Si4 0.522211 0.278261 0.818419
Si Si5 0.437179 0.280899 0.912924
Si Si6 0.280365 0.217514 0.660163
Si Si7 0.500000 0.000000 0.500000
Si Si8 0.771277 0.707367 0.813870
O O1 0.911282 0.714820 0.560300
O O2 0.849808 0.788644 0.650684
O O3 0.990560 0.714479 0.727639
O O4 0.946774 0.000000 0.642067
O O5 0.602082 0.500000 0.532725
O O6 0.700252 0.754207 0.584752
O O7 0.560947 0.839088 0.552548
O O8 0.106098 0.280164 0.878762
O O9 0.219834 0.288648 0.848289
O O10 0.186404 0.000000 0.900080
O O11 0.250000 0.250000 0.000000
O O12 0.521134 0.500000 0.817324
O O13 0.465032 0.223690 0.850303
O O14 0.432551 0.500000 0.912560
O O15 0.355255 0.209044 0.886443
O O16 0.500000 0.225434 0.000000
O O17 0.277059 0.286858 0.738688
O O18 0.290735 0.000000 0.667296
O O19 0.745855 0.500000 0.790326
#
# Coordination Sequence:
#
# PCOD9183601 Si02
#       8
#     8   8   8   8   8   8   2   8
#     4  10  20  37  65  93 124 163 209 260 318 374
#     4  10  24  43  66  98 133 173 214 265 316 379
#     4  10  21  38  58  80 114 155 203 250 312 381
#     4   9  18  34  57  85 114 155 201 253 306 369
#     4  10  19  33  55  82 112 151 200 253 304 357
#     4  10  21  38  62  92 129 162 205 262 319 375
#     4  12  26  44  68  94 132 176 222 254 316 394
#     4  10  21  36  57  86 118 158 197 252 314 374
#
# _framework density 23.060155999999999
#
# number of rings (size 3 to 8) (size 9 to 14) (size 15 to 20)
#    0.000    2.069    1.379    1.448    1.931    3.034 
#    0.000    5.517    3.034    0.000    0.000    0.000 
#    0.000    0.000    0.000    0.000    0.000    0.000 
#
# Total GULP energy -161786.477896 kJ/mol
# GULP energy per Si atom -5578.844065 kJ/mol
# Density = 2.300767 g / cm^3
# Si number density = 23.060156 Si / 1000 Ang^3
#
#
#
# Elastic Constant Matrix: (Units=GPa)
#
#
# Indices 1 2 3 4 5 6 
#
# 1 71.4428 -1.7631 -9.2822 0.0000 10.6693 0.0000
# 2 -1.7631 90.4641 2.2196 0.0000 4.3883 0.0000
# 3 -9.2822 2.2196 87.0560 0.0000 8.2206 0.0000
# 4 0.0000 0.0000 0.0000 2.0988 0.0000 3.3202
# 5 10.6693 4.3883 8.2206 0.0000 40.8447 0.0000
# 6 0.0000 0.0000 0.0000 3.3202 0.0000 7.6369
#
#
#
# Elastic Compliance Matrix: (Units=1/GPa)
#
#
# Indices 1 2 3 4 5 6 
#
# 1 0.014916 0.000453 0.001989 0.000000 -0.004345 0.000000
# 2 0.000453 0.011128 -0.000114 0.000000 -0.001291 0.000000
# 3 0.001989 -0.000114 0.011977 0.000000 -0.002918 0.000000
# 4 0.000000 0.000000 0.000000 1.526188 0.000000 -0.663535
# 5 -0.004345 -0.001291 -0.002918 0.000000 0.026344 0.000000
# 6 0.000000 0.000000 0.000000 -0.663535 0.000000 0.419427
#
#
# Mechanical properties :
#
#
# Convention : Reuss Voigt Hill
#
# Bulk Modulus (GPa) = 23.43127 25.70127 24.56627
# Shear Modulus (GPa) = 2.47580 27.30196 14.88888
#
# Velocity S-wave (km/s) = 1.03728 3.44458 2.54373
# Velocity P-wave (km/s) = 3.40846 5.19516 4.39359
#
# Compressibility (1/GPa) = 0.04267801
#
# Stress axis : x y z
#
# Youngs Moduli (GPa) = 67.04323 89.86064 83.49063
#
# Poissons Ratio (x) = -0.04068 -0.16607
# Poissons Ratio (y) = -0.03035 0.00948
# Poissons Ratio (z) = -0.13336 0.01020
#
# Static dielectric constant tensor:
#      x y z
#    x 1.850440 0.000000 -0.031530 
#    y 0.000000 1.920670 0.000000 
#    z -0.031530 0.000000 1.871180 
# 
# From -- ./inp_files/282263.got.cif
#   From: 2010.05.17/outbox.cif.g08.bks.cpg/sg12_142_cif.got.tgz:282263.got - 2010.06.03 13:09:07.
