data_PCOD9183710
_publ_section_title
;
Structure prediction by ZEFSAII (Michael W. Deem and Ramdas Pophale) SiO2 
 PCOD9183710
Probable space group: C 2/M
;
_chemical_formula_sum "Si O2"
_cell_formula_units_Z 56
_cell_length_a 27.708298
_cell_length_b 8.573943
_cell_length_c 14.597550
_cell_angle_alpha 90.000000
_cell_angle_beta 121.864352
_cell_angle_gamma 90.000000
_cell_volume 2945.314619
_symmetry_space_group_name_H-M "C 2/M"
_symmetry_group_IT_number 12
_symmetry_cell_setting 'monoclinic'
loop_
_space_group_symop_operation_xyz
x,y,z
-x,y,-z
-x,-y,-z
x,-y,z
1/2+x,1/2+y,z
1/2-x,1/2+y,-z
1/2-x,1/2-y,-z
1/2+x,1/2-y,z
loop_
_atom_site_type_symbol
_atom_site_label
_atom_site_fract_x
_atom_site_fract_y
_atom_site_fract_z
Si Si1 0.888351 0.812541 0.093699
Si Si2 0.645512 0.812959 0.740751
Si Si3 0.732442 0.312298 0.081253
Si Si4 0.387168 0.311583 0.686548
Si Si5 0.735282 0.687263 0.384937
Si Si6 0.500223 0.186774 0.894156
Si Si7 0.147934 0.185971 0.554533
O O1 0.880320 0.751577 0.190064
O O2 0.945361 0.752352 0.104630
O O3 0.888742 0.000000 0.097671
O O4 0.833218 0.762035 0.977134
O O5 0.712295 0.762881 0.806874
O O6 0.620289 0.753784 0.619271
O O7 0.642670 0.000000 0.740855
O O8 0.731813 0.500000 0.084342
O O9 0.750000 0.250000 0.000000
O O10 0.390631 0.500000 0.689617
O O11 0.331103 0.270453 0.690828
O O12 0.443234 0.241617 0.786359
O O13 0.377263 0.262713 0.569961
O O14 0.739560 0.500000 0.383169
O O15 0.750000 0.750000 0.500000
O O16 0.786149 0.761525 0.379497
O O17 0.502826 0.000000 0.895806
O O18 0.500000 0.239849 0.000000
O O19 0.144768 0.000000 0.553774
#
# Coordination Sequence:
#
# PCOD9183710 Si02
#       7
#     8   8   8   8   8   8   8
#     4  10  20  37  59  81 110 148 187 228 275 325
#     4  10  19  33  55  85 119 150 183 224 272 327
#     4   8  16  30  50  77 107 141 178 216 261 314
#     4   9  20  38  58  80 109 146 187 231 274 323
#     4   9  17  31  52  79 110 143 180 221 269 320
#     4  11  25  42  59  81 107 138 181 232 282 330
#     4  10  20  34  54  84 118 150 186 224 270 329
#
# _framework density 19.013249999999999
#
# number of rings (size 3 to 8) (size 9 to 14) (size 15 to 20)
#    0.000    2.429    0.000    3.000    0.000    6.857 
#    0.000    5.000    0.000    4.286    0.000    0.000 
#    0.000    0.000    0.000    0.000    0.000    0.000 
#
# Total GULP energy -155931.503823 kJ/mol
# GULP energy per Si atom -5568.982279 kJ/mol
# Density = 1.896997 g / cm^3
# Si number density = 19.013250 Si / 1000 Ang^3
#
#
#
# Elastic Constant Matrix: (Units=GPa)
#
#
# Indices 1 2 3 4 5 6 
#
# 1 126.2763 31.9407 80.0869 0.0000 4.6339 0.0000
# 2 31.9407 33.6118 32.9849 0.0000 0.5712 0.0000
# 3 80.0869 32.9849 119.3241 0.0000 -7.9120 0.0000
# 4 0.0000 0.0000 0.0000 20.5844 0.0000 0.4918
# 5 4.6339 0.5712 -7.9120 0.0000 37.1138 0.0000
# 6 0.0000 0.0000 0.0000 0.4918 0.0000 29.7842
#
#
#
# Elastic Compliance Matrix: (Units=1/GPa)
#
#
# Indices 1 2 3 4 5 6 
#
# 1 0.015050 -0.005610 -0.008793 0.000000 -0.003667 0.000000
# 2 -0.005610 0.043267 -0.008311 0.000000 -0.001737 0.000000
# 3 -0.008793 -0.008311 0.016900 0.000000 0.004829 0.000000
# 4 0.000000 0.000000 0.000000 0.048600 0.000000 -0.000802
# 5 -0.003667 -0.001737 0.004829 0.000000 0.028458 0.000000
# 6 0.000000 0.000000 0.000000 -0.000802 0.000000 0.033588
#
#
# Mechanical properties :
#
#
# Convention : Reuss Voigt Hill
#
# Bulk Modulus (GPa) = 33.56882 63.24858 48.40870
# Shear Modulus (GPa) = 20.72803 26.44313 23.58558
#
# Velocity S-wave (km/s) = 3.30538 3.73335 3.52587
# Velocity P-wave (km/s) = 5.67990 7.20567 6.48779
#
# Compressibility (1/GPa) = 0.02978955
#
# Stress axis : x y z
#
# Youngs Moduli (GPa) = 66.44729 23.11217 59.17226
#
# Poissons Ratio (x) = 0.12965 0.52032
# Poissons Ratio (y) = 0.37275 0.49175
# Poissons Ratio (z) = 0.58429 0.19208
#
# Static dielectric constant tensor:
#      x y z
#    x 1.661320 0.000000 0.005790 
#    y 0.000000 1.662980 0.000000 
#    z 0.005790 0.000000 1.679910 
# 
# From -- ./inp_files/249296.got.cif
#   From: 2010.05.17/outbox.cif.g08.bks.cpg/sg12_125_cif.got.tgz:249296.got - 2010.06.03 13:09:07.
