data_PCOD9183275
_publ_section_title
;
Structure prediction by ZEFSAII (Michael W. Deem and Ramdas Pophale) SiO2 
 PCOD9183275
Probable space group: C 2/M
;
_chemical_formula_sum "Si O2"
_cell_formula_units_Z 56
_cell_length_a 29.820833
_cell_length_b 8.502888
_cell_length_c 13.676044
_cell_angle_alpha 90.000000
_cell_angle_beta 123.200614
_cell_angle_gamma 90.000000
_cell_volume 2901.662005
_symmetry_space_group_name_H-M "C 2/M"
_symmetry_group_IT_number 12
_symmetry_cell_setting 'monoclinic'
loop_
_space_group_symop_operation_xyz
x,y,z
-x,y,-z
-x,-y,-z
x,-y,z
1/2+x,1/2+y,z
1/2-x,1/2+y,-z
1/2-x,1/2-y,-z
1/2+x,1/2-y,z
loop_
_atom_site_type_symbol
_atom_site_label
_atom_site_fract_x
_atom_site_fract_y
_atom_site_fract_z
Si Si1 0.875201 0.191012 0.201630
Si Si2 0.585463 0.189777 0.279395
Si Si3 0.697528 0.312760 0.716181
Si Si4 0.025797 0.188449 0.804752
Si Si5 0.405477 0.188692 0.934658
Si Si6 0.199527 0.687357 0.500080
Si Si7 0.305819 0.687829 0.931123
O O1 0.852966 0.244250 0.279353
O O2 0.933605 0.240548 0.233057
O O3 0.875304 0.000000 0.203742
O O4 0.832959 0.236333 0.066196
O O5 0.535075 0.257920 0.277251
O O6 0.580724 0.234204 0.159480
O O7 0.642920 0.243819 0.388022
O O8 0.583361 0.000000 0.282279
O O9 0.693812 0.500000 0.698972
O O10 0.702264 0.235529 0.616270
O O11 0.750693 0.272841 0.841263
O O12 0.028622 0.000000 0.814499
O O13 0.050256 0.258681 0.934060
O O14 0.349924 0.266840 0.902465
O O15 0.399796 0.000000 0.931611
O O16 0.200133 0.500000 0.492927
O O17 0.250000 0.750000 0.500000
O O18 0.297905 0.500000 0.922473
#
# Coordination Sequence:
#
# PCOD9183275 Si02
#       7
#     8   8   8   8   8   8   8
#     4   8  18  35  54  80 113 145 181 226 272 325
#     4  10  22  38  55  77 108 145 182 223 272 326
#     4  11  21  36  57  80 110 148 186 225 277 331
#     4  10  20  35  56  83 112 142 180 225 271 323
#     4  10  19  33  54  81 113 147 181 220 275 335
#     4  11  24  42  61  83 111 142 183 230 274 323
#     4  10  19  33  54  83 115 145 184 230 275 326
#
# _framework density 19.299282999999999
#
# number of rings (size 3 to 8) (size 9 to 14) (size 15 to 20)
#    0.000    2.000    0.000    4.714    0.000    5.143 
#    0.000    8.571    0.000    4.286    0.000    0.000 
#    0.000    0.000    0.000    0.000    0.000    0.000 
#
# Total GULP energy -156382.407604 kJ/mol
# GULP energy per Si atom -5585.085986 kJ/mol
# Density = 1.925536 g / cm^3
# Si number density = 19.299283 Si / 1000 Ang^3
#
#
#
# Elastic Constant Matrix: (Units=GPa)
#
#
# Indices 1 2 3 4 5 6 
#
# 1 162.6322 12.6759 81.2273 0.0000 -7.1872 0.0000
# 2 12.6759 25.3750 16.4090 0.0000 -2.1797 0.0000
# 3 81.2273 16.4090 54.6727 0.0000 -6.3397 0.0000
# 4 0.0000 0.0000 0.0000 21.3155 0.0000 4.0459
# 5 -7.1872 -2.1797 -6.3397 0.0000 32.5607 0.0000
# 6 0.0000 0.0000 0.0000 4.0459 0.0000 26.6429
#
#
#
# Elastic Compliance Matrix: (Units=1/GPa)
#
#
# Indices 1 2 3 4 5 6 
#
# 1 0.028474 0.016270 -0.047401 0.000000 -0.001855 0.000000
# 2 0.016270 0.058202 -0.041713 0.000000 -0.000635 0.000000
# 3 -0.047401 -0.041713 0.102001 0.000000 0.006605 0.000000
# 4 0.000000 0.000000 0.000000 0.048307 0.000000 -0.007336
# 5 -0.001855 -0.000635 0.006605 0.000000 0.031546 0.000000
# 6 0.000000 0.000000 0.000000 -0.007336 0.000000 0.038647
#
#
# Mechanical properties :
#
#
# Convention : Reuss Voigt Hill
#
# Bulk Modulus (GPa) = 23.26392 51.47827 37.37110
# Shear Modulus (GPa) = 10.70218 24.92834 17.81526
#
# Velocity S-wave (km/s) = 2.35742 3.59788 3.04156
# Velocity P-wave (km/s) = 4.41479 6.63259 5.63390
#
# Compressibility (1/GPa) = 0.04298502
#
# Stress axis : x y z
#
# Youngs Moduli (GPa) = 35.12020 17.18165 9.80387
#
# Poissons Ratio (x) = -0.27954 0.46472
# Poissons Ratio (y) = -0.57139 0.40895
# Poissons Ratio (z) = 1.66475 0.71671
#
# Static dielectric constant tensor:
#      x y z
#    x 1.690500 0.000000 0.002120 
#    y 0.000000 1.658130 0.000000 
#    z 0.002120 0.000000 1.655630 
# 
# From -- ./inp_files/187761.got.cif
#   From: 2010.05.17/outbox.cif.g08.bks.cpg/sg12_94_cif.got.tgz:187761.got - 2010.06.03 13:09:07.
