data_PCOD9183330
_publ_section_title
;
Structure prediction by ZEFSAII (Michael W. Deem and Ramdas Pophale) SiO2 
 PCOD9183330
Probable space group: C 2/M
;
_chemical_formula_sum "Si O2"
_cell_formula_units_Z 56
_cell_length_a 25.812887
_cell_length_b 24.167910
_cell_length_c 5.032879
_cell_angle_alpha 90.000000
_cell_angle_beta 123.946909
_cell_angle_gamma 90.000000
_cell_volume 2604.579059
_symmetry_space_group_name_H-M "C 2/M"
_symmetry_group_IT_number 12
_symmetry_cell_setting 'monoclinic'
loop_
_space_group_symop_operation_xyz
x,y,z
-x,y,-z
-x,-y,-z
x,-y,z
1/2+x,1/2+y,z
1/2-x,1/2+y,-z
1/2-x,1/2-y,-z
1/2+x,1/2-y,z
loop_
_atom_site_type_symbol
_atom_site_label
_atom_site_fract_x
_atom_site_fract_y
_atom_site_fract_z
Si Si1 0.202654 0.775840 0.077235
Si Si2 0.541377 0.436784 0.355198
Si Si3 0.066460 0.767327 0.743512
Si Si4 0.663943 0.435151 0.976380
Si Si5 0.433593 0.191803 0.751615
Si Si6 0.693041 0.161814 0.376420
Si Si7 0.756285 0.935827 0.300871
O O1 0.242466 0.827971 0.283626
O O2 0.191438 0.721906 0.228879
O O3 0.250000 0.750000 0.000000
O O4 0.131357 0.794602 0.838313
O O5 0.500000 0.440233 0.500000
O O6 0.555868 0.500000 0.299609
O O7 0.605346 0.410753 0.647372
O O8 0.500000 0.410521 0.000000
O O9 0.065519 0.713647 0.545738
O O10 0.000000 0.796695 0.500000
O O11 0.066988 0.745014 0.047948
O O12 0.646615 0.500000 0.951374
O O13 0.722034 0.432242 0.940015
O O14 0.685161 0.421604 0.336177
O O15 0.370126 0.159332 0.634372
O O16 0.500000 0.163217 0.000000
O O17 0.703782 0.109243 0.221109
O O18 0.739066 0.000000 0.308070
#
# Coordination Sequence:
#
# PCOD9183330 Si02
#       7
#     8   8   8   8   8   8   8
#     4  10  19  33  54  83 112 137 176 225 272 319
#     4   9  15  24  43  68  91 119 162 219 271 314
#     4   9  17  30  49  75 108 142 171 207 262 322
#     4   9  18  32  48  71  98 128 171 218 266 313
#     4   9  17  30  49  76 107 137 171 210 257 320
#     4  10  21  33  54  82 109 141 179 223 268 318
#     4  10  21  35  52  74 104 142 180 221 267 317
#
# _framework density 21.500594
#
# number of rings (size 3 to 8) (size 9 to 14) (size 15 to 20)
#    0.000    2.571    1.429    0.857    2.000    3.429 
#    0.000    0.000    0.000    3.000    0.000    0.000 
#    0.000   10.571    0.000    0.000    0.000    1.714 
#
# Total GULP energy -155880.212388 kJ/mol
# GULP energy per Si atom -5567.150442 kJ/mol
# Density = 2.145166 g / cm^3
# Si number density = 21.500594 Si / 1000 Ang^3
#
#
#
# Elastic Constant Matrix: (Units=GPa)
#
#
# Indices 1 2 3 4 5 6 
#
# 1 131.6272 15.2663 13.7240 0.0000 25.6526 0.0000
# 2 15.2663 76.9080 6.8510 0.0000 8.1425 0.0000
# 3 13.7240 6.8510 58.4373 0.0000 2.7741 0.0000
# 4 0.0000 0.0000 0.0000 9.8756 0.0000 -9.7458
# 5 25.6526 8.1425 2.7741 0.0000 51.3455 0.0000
# 6 0.0000 0.0000 0.0000 -9.7458 0.0000 4.1521
#
#
#
# Elastic Compliance Matrix: (Units=1/GPa)
#
#
# Indices 1 2 3 4 5 6 
#
# 1 0.008703 -0.001143 -0.001716 0.000000 -0.004074 0.000000
# 2 -0.001143 0.013499 -0.001243 0.000000 -0.001502 0.000000
# 3 -0.001716 -0.001243 0.017656 0.000000 0.000101 0.000000
# 4 0.000000 0.000000 0.000000 -0.076923 0.000000 -0.180555
# 5 -0.004074 -0.001502 0.000101 0.000000 0.021744 0.000000
# 6 0.000000 0.000000 0.000000 -0.180555 0.000000 -0.182959
#
#
# Mechanical properties :
#
#
# Convention : Reuss Voigt Hill
#
# Bulk Modulus (GPa) = 31.59217 37.62835 34.61026
# Shear Modulus (GPa) = -27.85160 28.48337 0.31588
#
# Velocity S-wave (km/s) = -3.60305 3.64369 0.38372
# Velocity P-wave (km/s) = 1.60742 5.93642 4.04087
#
# Compressibility (1/GPa) = 0.03165342
#
# Stress axis : x y z
#
# Youngs Moduli (GPa) = 114.90641 74.07808 56.63677
#
# Poissons Ratio (x) = 0.08469 0.09721
# Poissons Ratio (y) = 0.13137 0.07039
# Poissons Ratio (z) = 0.19723 0.09206
#
# Static dielectric constant tensor:
#      x y z
#    x 1.924510 0.000000 0.088520 
#    y 0.000000 1.811050 0.000000 
#    z 0.088520 0.000000 1.947950 
# 
# From -- ./inp_files/26454.got.cif
#   From: 2010.05.17/outbox.cif.g08.bks.cpg/sg12_14_cif.got.tgz:26454.got - 2010.06.03 13:09:07.
