data_PCOD9183808
_publ_section_title
;
Structure prediction by ZEFSAII (Michael W. Deem and Ramdas Pophale) SiO2 
 PCOD9183808
Probable space group: C 2/M
;
_chemical_formula_sum "Si O2"
_cell_formula_units_Z 48
_cell_length_a 11.890647
_cell_length_b 13.361037
_cell_length_c 15.718167
_cell_angle_alpha 90.000000
_cell_angle_beta 111.202424
_cell_angle_gamma 90.000000
_cell_volume 2328.129833
_symmetry_space_group_name_H-M "C 2/M"
_symmetry_group_IT_number 12
_symmetry_cell_setting 'monoclinic'
loop_
_space_group_symop_operation_xyz
x,y,z
-x,y,-z
-x,-y,-z
x,-y,z
1/2+x,1/2+y,z
1/2-x,1/2+y,-z
1/2-x,1/2-y,-z
1/2+x,1/2-y,z
loop_
_atom_site_type_symbol
_atom_site_label
_atom_site_fract_x
_atom_site_fract_y
_atom_site_fract_z
Si Si1 0.199686 0.390675 0.929056
Si Si2 0.114920 0.823079 0.878717
Si Si3 0.333865 0.276927 0.293950
Si Si4 0.561986 0.195753 0.428314
Si Si5 0.685407 0.387968 0.538307
Si Si6 0.658993 0.611211 0.212219
O O1 0.141361 0.500000 0.919994
O O2 0.113497 0.294348 0.905064
O O3 0.273622 0.387410 0.860606
O O4 0.297077 0.376121 0.030509
O O5 0.170989 0.826288 0.799556
O O6 0.981680 0.867794 0.839721
O O7 0.455712 0.210275 0.331684
O O8 0.341293 0.355478 0.372210
O O9 0.222968 0.201251 0.280045
O O10 0.500000 0.164039 0.500000
O O11 0.620509 0.304905 0.462745
O O12 0.671310 0.124508 0.434642
O O13 0.646219 0.500000 0.508966
O O14 0.675835 0.500000 0.254475
#
# Coordination Sequence:
#
# PCOD9183808 Si02
#       6
#     8   8   8   8   8   8
#     4   9  19  35  55  78 106 145 187 226 269 313
#     4  10  19  33  56  81 110 141 182 229 267 316
#     4  10  21  36  53  81 114 140 173 220 271 321
#     4   9  20  39  58  79 108 139 179 222 262 317
#     4  10  21  38  59  81 108 143 178 217 267 319
#     4  10  20  35  56  79 106 143 184 224 265 313
#
# _framework density 20.617405999999999
#
# number of rings (size 3 to 8) (size 9 to 14) (size 15 to 20)
#    0.000    2.333    0.000    2.000    0.000    6.667 
#    0.000   15.833    0.000   14.000    0.000    0.000 
#    0.000    0.000    0.000    0.000    0.000    0.000 
#
# Total GULP energy -134036.235899 kJ/mol
# GULP energy per Si atom -5584.843162 kJ/mol
# Density = 2.057048 g / cm^3
# Si number density = 20.617406 Si / 1000 Ang^3
#
#
#
# Elastic Constant Matrix: (Units=GPa)
#
#
# Indices 1 2 3 4 5 6 
#
# 1 52.6661 -4.6742 -8.6854 0.0000 10.3687 0.0000
# 2 -4.6742 84.5878 3.0289 0.0000 -4.8611 0.0000
# 3 -8.6854 3.0289 35.8310 0.0000 1.4187 0.0000
# 4 0.0000 0.0000 0.0000 13.1965 0.0000 -5.8070
# 5 10.3687 -4.8611 1.4187 0.0000 18.6722 0.0000
# 6 0.0000 0.0000 0.0000 -5.8070 0.0000 17.2542
#
#
#
# Elastic Compliance Matrix: (Units=1/GPa)
#
#
# Indices 1 2 3 4 5 6 
#
# 1 0.022532 0.000291 0.005947 0.000000 -0.012888 0.000000
# 2 0.000291 0.012052 -0.001069 0.000000 0.003057 0.000000
# 3 0.005947 -0.001069 0.029672 0.000000 -0.005835 0.000000
# 4 0.000000 0.000000 0.000000 0.088952 0.000000 0.029937
# 5 -0.012888 0.003057 -0.005835 0.000000 0.061951 0.000000
# 6 0.000000 0.000000 0.000000 0.029937 0.000000 0.068033
#
#
# Mechanical properties :
#
#
# Convention : Reuss Voigt Hill
#
# Bulk Modulus (GPa) = 13.40581 16.93595 15.17088
# Shear Modulus (GPa) = 16.79448 22.05227 19.42338
#
# Velocity S-wave (km/s) = 2.85718 3.27401 3.07267
# Velocity P-wave (km/s) = 4.17144 4.74599 4.46796
#
# Compressibility (1/GPa) = 0.07459453
#
# Stress axis : x y z
#
# Youngs Moduli (GPa) = 44.38229 82.97304 33.70196
#
# Poissons Ratio (x) = -0.02418 -0.20043
# Poissons Ratio (y) = -0.01294 0.03603
# Poissons Ratio (z) = -0.26395 0.08871
#
# Static dielectric constant tensor:
#      x y z
#    x 1.727820 0.000000 -0.005320 
#    y 0.000000 1.759070 0.000000 
#    z -0.005320 0.000000 1.737870 
# 
# From -- ./inp_files/204263.got.cif
#   From: 2010.05.17/outbox.cif.g08.bks.cpg/sg12_103_cif.got.tgz:204263.got - 2010.06.03 13:09:07.
