data_PCOD9183089
_publ_section_title
;
Structure prediction by ZEFSAII (Michael W. Deem and Ramdas Pophale) SiO2 
 PCOD9183089
Probable space group: C 2/M
;
_chemical_formula_sum "Si O2"
_cell_formula_units_Z 64
_cell_length_a 32.486158
_cell_length_b 8.320903
_cell_length_c 12.522704
_cell_angle_alpha 90.000000
_cell_angle_beta 101.079716
_cell_angle_gamma 90.000000
_cell_volume 3321.969305
_symmetry_space_group_name_H-M "C 2/M"
_symmetry_group_IT_number 12
_symmetry_cell_setting 'monoclinic'
loop_
_space_group_symop_operation_xyz
x,y,z
-x,y,-z
-x,-y,-z
x,-y,z
1/2+x,1/2+y,z
1/2-x,1/2+y,-z
1/2-x,1/2-y,-z
1/2+x,1/2-y,z
loop_
_atom_site_type_symbol
_atom_site_label
_atom_site_fract_x
_atom_site_fract_y
_atom_site_fract_z
Si Si1 0.290008 0.808260 0.157853
Si Si2 0.623049 0.693963 0.193300
Si Si3 0.137682 0.191606 0.663853
Si Si4 0.015753 0.307033 0.387838
Si Si5 0.695041 0.305459 0.067877
Si Si6 0.609848 0.308182 0.419675
Si Si7 0.451462 0.805618 0.984642
Si Si8 0.935198 0.693956 0.214158
O O1 0.317392 0.740040 0.267384
O O2 0.241509 0.754206 0.129381
O O3 0.290561 0.000000 0.164221
O O4 0.310256 0.756423 0.055095
O O5 0.625023 0.500000 0.195999
O O6 0.659019 0.751261 0.130071
O O7 0.628311 0.753993 0.317074
O O8 0.578114 0.743113 0.123701
O O9 0.128197 0.256681 0.540270
O O10 0.102420 0.251041 0.729169
O O11 0.134794 0.000000 0.659069
O O12 0.020990 0.500000 0.380138
O O13 0.060312 0.226140 0.392694
O O14 0.000000 0.273895 0.500000
O O15 0.979430 0.254833 0.288350
O O16 0.694466 0.500000 0.064245
O O17 0.616349 0.500000 0.424053
O O18 0.433292 0.751882 0.090496
O O19 0.450842 0.000000 0.981112
O O20 0.500000 0.755448 0.000000
O O21 0.934977 0.500000 0.213892
#
# Coordination Sequence:
#
# PCOD9183089 Si02
#       8
#     8   8   8   8   8   8   8   8
#     4  10  20  35  58  85 111 136 169 217 269 319
#     4  10  21  38  57  77 105 141 182 219 260 314
#     4  11  22  35  52  77 108 140 175 218 267 314
#     4  10  19  33  54  77 103 139 181 223 265 312
#     4   9  19  37  60  84 109 139 173 214 265 320
#     4  10  22  37  53  75 106 145 182 221 264 312
#     4  10  21  36  53  76 108 141 174 216 265 313
#     4  10  20  34  53  78 106 137 176 222 270 318
#
# _framework density 19.26568
#
# number of rings (size 3 to 8) (size 9 to 14) (size 15 to 20)
#    0.000    2.000    1.250    2.250    0.000    6.500 
#    0.000    0.625    0.000    0.000    0.000    0.000 
#    0.000    0.000    0.000    0.000    0.000    0.000 
#
# Total GULP energy -178718.120595 kJ/mol
# GULP energy per Si atom -5584.941269 kJ/mol
# Density = 1.922183 g / cm^3
# Si number density = 19.265680 Si / 1000 Ang^3
#
#
#
# Elastic Constant Matrix: (Units=GPa)
#
#
# Indices 1 2 3 4 5 6 
#
# 1 78.1918 3.3046 48.7205 0.0000 -0.5029 0.0000
# 2 3.3046 3.4752 13.5271 0.0000 -1.3884 0.0000
# 3 48.7205 13.5271 131.5219 0.0000 5.2694 0.0000
# 4 0.0000 0.0000 0.0000 -15.3432 0.0000 -18.0479
# 5 -0.5029 -1.3884 5.2694 0.0000 32.6036 0.0000
# 6 0.0000 0.0000 0.0000 -18.0479 0.0000 12.4052
#
#
#
# Elastic Compliance Matrix: (Units=1/GPa)
#
#
# Indices 1 2 3 4 5 6 
#
# 1 0.017178 0.016163 -0.008116 0.000000 0.002265 0.000000
# 2 0.016163 0.523100 -0.061087 0.000000 0.032398 0.000000
# 3 -0.008116 -0.061087 0.017113 0.000000 -0.005492 0.000000
# 4 0.000000 0.000000 0.000000 -0.024038 0.000000 -0.034972
# 5 0.002265 0.032398 -0.005492 0.000000 0.032974 0.000000
# 6 0.000000 0.000000 0.000000 -0.034972 0.000000 0.029731
#
#
# Mechanical properties :
#
#
# Convention : Reuss Voigt Hill
#
# Bulk Modulus (GPa) = 2.21576 38.25480 20.23528
# Shear Modulus (GPa) = 5.86459 15.77557 10.82008
#
# Velocity S-wave (km/s) = 1.74662 2.86465 2.37243
# Velocity P-wave (km/s) = 2.28477 5.55348 4.24625
#
# Compressibility (1/GPa) = 0.45131152
#
# Stress axis : x y z
#
# Youngs Moduli (GPa) = 58.21466 1.91168 58.43589
#
# Poissons Ratio (x) = -0.03090 0.47429
# Poissons Ratio (y) = -0.94095 3.56965
# Poissons Ratio (z) = 0.47250 0.11678
#
# Static dielectric constant tensor:
#      x y z
#    x 1.652170 0.000000 -0.004530 
#    y 0.000000 1.671360 0.000000 
#    z -0.004530 0.000000 1.684370 
# 
# From -- ./inp_files/187400.got.cif
#   From: 2010.05.17/outbox.cif.g08.bks.cpg/sg12_94_cif.got.tgz:187400.got - 2010.06.03 13:09:07.
