data_PCOD9183936
_publ_section_title
;
Structure prediction by ZEFSAII (Michael W. Deem and Ramdas Pophale) SiO2 
 PCOD9183936
Probable space group: C 2/M
;
_chemical_formula_sum "Si O2"
_cell_formula_units_Z 56
_cell_length_a 29.888128
_cell_length_b 11.565271
_cell_length_c 24.242560
_cell_angle_alpha 90.000000
_cell_angle_beta 19.026043
_cell_angle_gamma 90.000000
_cell_volume 2731.793081
_symmetry_space_group_name_H-M "C 2/M"
_symmetry_group_IT_number 12
_symmetry_cell_setting 'monoclinic'
loop_
_space_group_symop_operation_xyz
x,y,z
-x,y,-z
-x,-y,-z
x,-y,z
1/2+x,1/2+y,z
1/2-x,1/2+y,-z
1/2-x,1/2-y,-z
1/2+x,1/2-y,z
loop_
_atom_site_type_symbol
_atom_site_label
_atom_site_fract_x
_atom_site_fract_y
_atom_site_fract_z
Si Si1 0.117544 0.719969 0.084694
Si Si2 0.170347 0.369677 0.578392
Si Si3 0.201057 0.124482 0.682027
Si Si4 0.105384 0.131851 0.994286
Si Si5 0.910807 0.866046 0.772660
Si Si6 0.949648 0.869019 0.501283
Si Si7 0.151140 0.701339 0.836960
O O1 0.156035 0.806425 0.990331
O O2 0.072951 0.793687 0.190320
O O3 0.985589 0.646302 0.220539
O O4 0.249944 0.645045 0.945189
O O5 0.220359 0.500000 0.537845
O O6 0.250000 0.250000 0.500000
O O7 0.178552 0.371474 0.502343
O O8 0.192206 0.226081 0.735203
O O9 0.060745 0.127617 0.810031
O O10 0.201918 0.000000 0.710529
O O11 0.154397 0.000000 0.931728
O O12 0.136324 0.208985 0.904779
O O13 0.994304 0.819837 0.621929
O O14 0.949282 0.000000 0.737388
O O15 0.784940 0.873058 0.693460
O O16 0.000000 0.812530 0.500000
O O17 0.006565 0.000000 0.435162
O O18 0.000000 0.649773 0.000000
#
# Coordination Sequence:
#
# PCOD9183936 Si02
#       7
#     8   8   8   8   8   8   8
#     4  11  21  36  59  85 118 154 200 248 292 357
#     4  11  22  37  59  88 122 156 196 246 301 358
#     4   9  18  34  55  82 117 153 189 234 297 361
#     4  10  19  33  56  84 115 153 195 241 300 365
#     4  10  22  38  58  83 114 158 203 246 300 360
#     4  10  21  39  60  79 110 157 200 241 299 366
#     4  10  20  35  59  86 115 145 194 251 300 356
#
# _framework density 20.499355999999999
#
# number of rings (size 3 to 8) (size 9 to 14) (size 15 to 20)
#    0.000    1.857    1.429    3.000    0.000    2.571 
#    0.000    1.429    0.000   10.286    0.000    0.000 
#    0.000    0.000    0.000    0.000    0.000    0.000 
#
# Total GULP energy -156035.392127 kJ/mol
# GULP energy per Si atom -5572.692576 kJ/mol
# Density = 2.045270 g / cm^3
# Si number density = 20.499356 Si / 1000 Ang^3
#
#
#
# Elastic Constant Matrix: (Units=GPa)
#
#
# Indices 1 2 3 4 5 6 
#
# 1 75.1060 24.1942 6.2070 -0.0002 8.1187 0.0000
# 2 24.1942 83.2012 15.8409 -0.0004 -1.5746 0.0001
# 3 6.2070 15.8409 69.5110 -0.0001 -0.4424 0.0001
# 4 -0.0002 -0.0004 -0.0001 -18.3499 0.0003 -30.9370
# 5 8.1187 -1.5746 -0.4424 0.0003 33.8905 0.0002
# 6 0.0000 0.0001 0.0001 -30.9370 0.0002 -22.6534
#
#
#
# Elastic Compliance Matrix: (Units=1/GPa)
#
#
# Indices 1 2 3 4 5 6 
#
# 1 0.015184 -0.004417 -0.000374 0.000000 -0.003848 0.000000
# 2 -0.004417 0.013859 -0.002753 0.000000 0.001666 0.000000
# 3 -0.000374 -0.002753 0.015048 0.000000 0.000158 0.000000
# 4 0.000000 0.000000 0.000000 0.041842 0.000000 -0.057142
# 5 -0.003848 0.001666 0.000158 0.000000 0.030508 0.000000
# 6 0.000000 0.000000 0.000000 -0.057142 0.000000 0.033893
#
#
# Mechanical properties :
#
#
# Convention : Reuss Voigt Hill
#
# Bulk Modulus (GPa) = 34.47904 35.58913 35.03409
# Shear Modulus (GPa) = 28.55667 10.68250 19.61958
#
# Velocity S-wave (km/s) = 3.73641 2.28527 3.09703
# Velocity P-wave (km/s) = 5.95571 4.93579 5.46957
#
# Compressibility (1/GPa) = 0.02900313
#
# Stress axis : x y z
#
# Youngs Moduli (GPa) = 65.85784 72.15387 66.45375
#
# Poissons Ratio (x) = 0.31871 0.02484
# Poissons Ratio (y) = 0.29090 0.18297
# Poissons Ratio (z) = 0.02461 0.19867
#
# Static dielectric constant tensor:
#      x y z
#    x 1.734900 0.000000 -0.005780 
#    y 0.000000 1.751590 0.000000 
#    z -0.005780 0.000000 1.739740 
# 
# From -- ./inp_files/353939.got.cif
#   From: 2010.05.17/outbox.cif.g08.bks.cpg/sg12_177_cif.got.tgz:353939.got - 2010.06.03 13:09:07.
