data_PCOD9183181
_publ_section_title
;
Structure prediction by ZEFSAII (Michael W. Deem and Ramdas Pophale) SiO2 
 PCOD9183181
Probable space group: C 2/M
;
_chemical_formula_sum "Si O2"
_cell_formula_units_Z 56
_cell_length_a 18.555245
_cell_length_b 8.423545
_cell_length_c 29.886370
_cell_angle_alpha 90.000000
_cell_angle_beta 140.834708
_cell_angle_gamma 90.000000
_cell_volume 2950.184697
_symmetry_space_group_name_H-M "C 2/M"
_symmetry_group_IT_number 12
_symmetry_cell_setting 'monoclinic'
loop_
_space_group_symop_operation_xyz
x,y,z
-x,y,-z
-x,-y,-z
x,-y,z
1/2+x,1/2+y,z
1/2-x,1/2+y,-z
1/2-x,1/2-y,-z
1/2+x,1/2-y,z
loop_
_atom_site_type_symbol
_atom_site_label
_atom_site_fract_x
_atom_site_fract_y
_atom_site_fract_z
Si Si1 0.369053 0.307832 0.430386
Si Si2 0.053012 0.808210 0.708665
Si Si3 0.218894 0.191710 0.709051
Si Si4 0.206893 0.190312 0.431392
Si Si5 0.832161 0.808638 0.999786
Si Si6 0.473911 0.309292 0.845455
Si Si7 0.361614 0.190723 0.154977
O O1 0.500000 0.256775 0.500000
O O2 0.367753 0.500000 0.430290
O O3 0.320705 0.253965 0.359153
O O4 0.290029 0.248538 0.432358
O O5 0.130909 0.753536 0.704793
O O6 0.104839 0.753306 0.780511
O O7 0.922498 0.753602 0.640160
O O8 0.052015 0.000000 0.707718
O O9 0.346492 0.245923 0.781163
O O10 0.216801 0.000000 0.707630
O O11 0.250000 0.250000 0.500000
O O12 0.206041 0.000000 0.431447
O O13 0.765069 0.757536 0.922866
O O14 0.833243 0.000000 0.999854
O O15 0.750000 0.750000 0.000000
O O16 0.957432 0.757352 0.076497
O O17 0.471738 0.500000 0.843261
O O18 0.547640 0.250484 0.838381
O O19 0.365260 0.000000 0.157024
#
# Coordination Sequence:
#
# PCOD9183181 Si02
#       7
#     8   8   8   8   8   8   8
#     4  10  21  39  61  83 110 144 178 216 267 320
#     4  10  22  39  56  78 110 145 180 221 269 317
#     4  10  21  37  56  78 107 143 182 222 265 318
#     4  11  23  39  60  85 112 142 178 220 265 315
#     4   8  16  30  49  75 105 137 175 220 268 318
#     4  10  19  33  54  79 108 141 178 223 273 321
#     4  10  19  33  55  81 107 139 181 224 268 321
#
# _framework density 18.981862
#
# number of rings (size 3 to 8) (size 9 to 14) (size 15 to 20)
#    0.000    2.143    0.000    3.000    0.000    8.286 
#    0.000    2.143    0.000    4.286    0.000    0.000 
#    0.000    0.000    0.000    0.000    0.000    0.000 
#
# Total GULP energy -156257.522158 kJ/mol
# GULP energy per Si atom -5580.625791 kJ/mol
# Density = 1.893866 g / cm^3
# Si number density = 18.981862 Si / 1000 Ang^3
#
#
#
# Elastic Constant Matrix: (Units=GPa)
#
#
# Indices 1 2 3 4 5 6 
#
# 1 150.1729 21.6736 116.5612 0.0000 0.1282 0.0000
# 2 21.6736 12.8954 27.4207 0.0000 0.7960 0.0000
# 3 116.5612 27.4207 238.1035 0.0000 -0.2254 0.0000
# 4 0.0000 0.0000 0.0000 27.2480 0.0000 -0.3174
# 5 0.1282 0.7960 -0.2254 0.0000 32.5853 0.0000
# 6 0.0000 0.0000 0.0000 -0.3174 0.0000 28.0254
#
#
#
# Elastic Compliance Matrix: (Units=1/GPa)
#
#
# Indices 1 2 3 4 5 6 
#
# 1 0.011612 -0.009852 -0.004550 0.000000 0.000164 0.000000
# 2 -0.009852 0.111273 -0.007994 0.000000 -0.002735 0.000000
# 3 -0.004550 -0.007994 0.007348 0.000000 0.000264 0.000000
# 4 0.000000 0.000000 0.000000 0.036705 0.000000 0.000416
# 5 0.000164 -0.002735 0.000264 0.000000 0.030757 0.000000
# 6 0.000000 0.000000 0.000000 0.000416 0.000000 0.035687
#
#
# Mechanical properties :
#
#
# Convention : Reuss Voigt Hill
#
# Bulk Modulus (GPa) = 11.70397 81.38697 46.54547
# Shear Modulus (GPa) = 16.30500 33.27284 24.78892
#
# Velocity S-wave (km/s) = 2.93401 4.19128 3.61768
# Velocity P-wave (km/s) = 4.20204 8.14811 6.48262
#
# Compressibility (1/GPa) = 0.08544110
#
# Stress axis : x y z
#
# Youngs Moduli (GPa) = 86.11536 8.98690 136.08949
#
# Poissons Ratio (x) = 0.08854 0.61920
# Poissons Ratio (y) = 0.84843 1.08791
# Poissons Ratio (z) = 0.39182 0.07184
#
# Static dielectric constant tensor:
#      x y z
#    x 1.614480 0.000000 0.003050 
#    y 0.000000 1.730430 0.000000 
#    z 0.003050 0.000000 1.680780 
# 
# From -- ./inp_files/275516.got.cif
#   From: 2010.05.17/outbox.cif.g08.bks.cpg/sg12_138_cif.got.tgz:275516.got - 2010.06.03 13:09:07.
