data_PCOD9183684
_publ_section_title
;
Structure prediction by ZEFSAII (Michael W. Deem and Ramdas Pophale) SiO2 
 PCOD9183684
Probable space group: C 2/M
;
_chemical_formula_sum "Si O2"
_cell_formula_units_Z 56
_cell_length_a 15.711249
_cell_length_b 16.894510
_cell_length_c 21.445215
_cell_angle_alpha 90.000000
_cell_angle_beta 30.488683
_cell_angle_gamma 90.000000
_cell_volume 2888.084730
_symmetry_space_group_name_H-M "C 2/M"
_symmetry_group_IT_number 12
_symmetry_cell_setting 'monoclinic'
loop_
_space_group_symop_operation_xyz
x,y,z
-x,y,-z
-x,-y,-z
x,-y,z
1/2+x,1/2+y,z
1/2-x,1/2+y,-z
1/2-x,1/2-y,-z
1/2+x,1/2-y,z
loop_
_atom_site_type_symbol
_atom_site_label
_atom_site_fract_x
_atom_site_fract_y
_atom_site_fract_z
Si Si1 0.217836 0.091441 0.483496
Si Si2 0.391829 0.090869 0.742497
Si Si3 0.515926 0.251661 0.832426
Si Si4 0.796289 0.410381 0.292117
Si Si5 0.395732 0.674693 0.691527
Si Si6 0.258074 0.258287 0.098457
Si Si7 0.642398 0.832840 0.361638
O O1 0.409810 0.111655 0.378274
O O2 0.202988 0.097419 0.417506
O O3 0.075564 0.146248 0.602338
O O4 0.191454 0.000000 0.517857
O O5 0.291933 0.154470 0.846182
O O6 0.337176 0.103134 0.705603
O O7 0.372746 0.000000 0.774710
O O8 0.569116 0.159900 0.792792
O O9 0.376766 0.268354 0.868512
O O10 0.680155 0.305940 0.721670
O O11 0.435236 0.261158 0.951839
O O12 0.862423 0.500000 0.247778
O O13 0.680164 0.391806 0.306091
O O14 0.269002 0.700032 0.826124
O O15 0.418828 0.752722 0.634729
O O16 0.500000 0.856654 0.500000
#
# Coordination Sequence:
#
# PCOD9183684 Si02
#       7
#     8   8   8   8   8   8   8
#     4  10  19  33  55  84 118 149 186 231 279 337
#     4  10  22  38  59  83 109 150 192 236 283 330
#     4  10  21  40  58  84 113 150 193 231 279 326
#     4  10  19  34  58  83 114 148 180 229 287 339
#     4  10  20  32  54  87 114 147 186 227 279 336
#     4  10  22  38  61  81 112 152 192 235 271 336
#     4  10  22  35  58  87 116 144 183 236 285 336
#
# _framework density 19.390014000000001
#
# number of rings (size 3 to 8) (size 9 to 14) (size 15 to 20)
#    0.000    2.000    1.429    2.571    2.000    7.714 
#    0.000    3.571    0.000    2.571    0.000    0.000 
#    0.000    0.000    0.000    0.000    0.000    0.000 
#
# Total GULP energy -156277.740167 kJ/mol
# GULP energy per Si atom -5581.347863 kJ/mol
# Density = 1.934588 g / cm^3
# Si number density = 19.390014 Si / 1000 Ang^3
#
#
#
# Elastic Constant Matrix: (Units=GPa)
#
#
# Indices 1 2 3 4 5 6 
#
# 1 53.5471 6.9936 10.5378 -0.0038 3.7430 0.0003
# 2 6.9936 24.3074 3.6859 0.0008 -4.3232 0.0017
# 3 10.5378 3.6859 67.7673 -0.0021 4.5145 -0.0014
# 4 -0.0038 0.0008 -0.0021 13.1148 0.0063 3.1698
# 5 3.7430 -4.3232 4.5145 0.0063 25.7424 -0.0006
# 6 0.0003 0.0017 -0.0014 3.1698 -0.0006 13.3510
#
#
#
# Elastic Compliance Matrix: (Units=1/GPa)
#
#
# Indices 1 2 3 4 5 6 
#
# 1 0.020218 -0.006049 -0.002582 0.000008 -0.003503 -0.000002
# 2 -0.006049 0.044753 -0.002077 -0.000008 0.008760 -0.000004
# 3 -0.002582 -0.002077 0.015450 0.000003 -0.002683 0.000001
# 4 0.000008 -0.000008 0.000003 0.080892 -0.000023 -0.019206
# 5 -0.003503 0.008760 -0.002683 -0.000023 0.041297 0.000006
# 6 -0.000002 -0.000004 0.000001 -0.019206 0.000006 0.079461
#
#
# Mechanical properties :
#
#
# Convention : Reuss Voigt Hill
#
# Bulk Modulus (GPa) = 16.94745 20.89517 18.92131
# Shear Modulus (GPa) = 15.47252 18.73526 17.10389
#
# Velocity S-wave (km/s) = 2.82789 3.11180 2.97324
# Velocity P-wave (km/s) = 4.40703 4.86936 4.64395
#
# Compressibility (1/GPa) = 0.05900592
#
# Stress axis : x y z
#
# Youngs Moduli (GPa) = 49.46083 22.34493 64.72696
#
# Poissons Ratio (x) = 0.13515 0.16710
# Poissons Ratio (y) = 0.29917 0.13445
# Poissons Ratio (z) = 0.12769 0.04641
#
# Static dielectric constant tensor:
#      x y z
#    x 1.728630 0.000000 -0.013810 
#    y 0.000000 1.664650 0.000000 
#    z -0.013810 0.000000 1.677580 
# 
# From -- ./inp_files/177159.got.cif
#   From: 2010.05.17/outbox.cif.g08.bks.cpg/sg12_89_cif.got.tgz:177159.got - 2010.06.03 13:09:07.
