data_PCOD9183862
_publ_section_title
;
Structure prediction by ZEFSAII (Michael W. Deem and Ramdas Pophale) SiO2 
 PCOD9183862
Probable space group: C 2/M
;
_chemical_formula_sum "Si O2"
_cell_formula_units_Z 56
_cell_length_a 19.297916
_cell_length_b 8.212060
_cell_length_c 18.945439
_cell_angle_alpha 90.000000
_cell_angle_beta 111.505395
_cell_angle_gamma 90.000000
_cell_volume 2793.373380
_symmetry_space_group_name_H-M "C 2/M"
_symmetry_group_IT_number 12
_symmetry_cell_setting 'monoclinic'
loop_
_space_group_symop_operation_xyz
x,y,z
-x,y,-z
-x,-y,-z
x,-y,z
1/2+x,1/2+y,z
1/2-x,1/2+y,-z
1/2-x,1/2-y,-z
1/2+x,1/2-y,z
loop_
_atom_site_type_symbol
_atom_site_label
_atom_site_fract_x
_atom_site_fract_y
_atom_site_fract_z
Si Si1 0.635075 0.801021 0.152490
Si Si2 0.304274 0.311641 0.460487
Si Si3 0.925702 0.696728 0.276620
Si Si4 0.223690 0.803107 0.707116
Si Si5 0.960694 0.312916 0.561030
Si Si6 0.030251 0.300988 0.864079
Si Si7 0.826627 0.696692 0.991613
O O1 0.696404 0.749603 0.232954
O O2 0.550899 0.747499 0.138714
O O3 0.663354 0.749033 0.085700
O O4 0.633583 0.000000 0.151768
O O5 0.288826 0.500000 0.445363
O O6 0.250000 0.250000 0.500000
O O7 0.293592 0.237694 0.378134
O O8 0.386359 0.285742 0.520974
O O9 0.925522 0.500000 0.277576
O O10 0.843238 0.752730 0.266262
O O11 0.953125 0.750131 0.209982
O O12 0.983081 0.751453 0.358845
O O13 0.224111 0.000000 0.706248
O O14 0.940726 0.500000 0.572508
O O15 0.000000 0.315936 0.500000
O O16 0.029301 0.500000 0.864792
O O17 0.099980 0.248973 0.938039
O O18 0.826709 0.500000 0.991621
O O19 0.750000 0.750000 0.000000
#
# Coordination Sequence:
#
# PCOD9183862 Si02
#       7
#     8   8   8   8   8   8   8
#     4   9  18  33  54  79 108 140 177 220 262 310
#     4  11  24  38  56  80 109 144 183 228 276 326
#     4  10  20  34  56  80 107 142 179 224 269 318
#     4  10  21  36  55  78 106 142 179 221 270 321
#     4  10  20  36  57  80 107 143 183 224 274 324
#     4   9  18  32  54  82 107 137 180 221 260 311
#     4  10  19  33  56  83 108 139 175 216 262 314
#
# _framework density 20.047446000000001
#
# number of rings (size 3 to 8) (size 9 to 14) (size 15 to 20)
#    0.000    2.143    1.429    1.714    2.000    3.143 
#    0.000    0.000    0.000    3.429    0.000    0.000 
#    0.000    0.000    0.000    0.000    0.000    0.000 
#
# Total GULP energy -156292.525968 kJ/mol
# GULP energy per Si atom -5581.875927 kJ/mol
# Density = 2.000182 g / cm^3
# Si number density = 20.047446 Si / 1000 Ang^3
#
#
#
# Elastic Constant Matrix: (Units=GPa)
#
#
# Indices 1 2 3 4 5 6 
#
# 1 175.2399 12.8412 65.2009 0.0000 5.9317 0.0000
# 2 12.8412 6.8748 11.9760 0.0000 -3.2322 0.0000
# 3 65.2009 11.9760 89.6075 0.0000 22.5513 0.0000
# 4 0.0000 0.0000 0.0000 -3.2602 0.0000 -0.3186
# 5 5.9317 -3.2322 22.5513 0.0000 31.3117 0.0000
# 6 0.0000 0.0000 0.0000 -0.3186 0.0000 32.5823
#
#
#
# Elastic Compliance Matrix: (Units=1/GPa)
#
#
# Indices 1 2 3 4 5 6 
#
# 1 0.008140 -0.003415 -0.006094 0.000000 0.002495 0.000000
# 2 -0.003415 0.267929 -0.049401 0.000000 0.063884 0.000000
# 3 -0.006094 -0.049401 0.028323 0.000000 -0.024344 0.000000
# 4 0.000000 0.000000 0.000000 -0.306440 0.000000 -0.002996
# 5 0.002495 0.063884 -0.024344 0.000000 0.055592 0.000000
# 6 0.000000 0.000000 0.000000 -0.002996 0.000000 0.030662
#
#
# Mechanical properties :
#
#
# Convention : Reuss Voigt Hill
#
# Bulk Modulus (GPa) = 5.35989 50.19537 27.77763
# Shear Modulus (GPa) = 18.92377 24.24037 21.58207
#
# Velocity S-wave (km/s) = 3.07571 3.48106 3.28464
# Velocity P-wave (km/s) = 3.91059 6.42259 5.31706
#
# Compressibility (1/GPa) = 0.18657109
#
# Stress axis : x y z
#
# Youngs Moduli (GPa) = 122.85552 3.73233 35.30695
#
# Poissons Ratio (x) = 0.01275 0.21516
# Poissons Ratio (y) = 0.41956 1.74422
# Poissons Ratio (z) = 0.74868 0.18438
#
# Static dielectric constant tensor:
#      x y z
#    x 1.645300 0.000000 -0.025630 
#    y 0.000000 1.734270 0.000000 
#    z -0.025630 0.000000 1.725280 
# 
# From -- ./inp_files/275533.got.cif
#   From: 2010.05.17/outbox.cif.g08.bks.cpg/sg12_138_cif.got.tgz:275533.got - 2010.06.03 13:09:07.
