data_PCOD9183929
_publ_section_title
;
Structure prediction by ZEFSAII (Michael W. Deem and Ramdas Pophale) SiO2 
 PCOD9183929
Probable space group: C 2/M
;
_chemical_formula_sum "Si O2"
_cell_formula_units_Z 64
_cell_length_a 30.353457
_cell_length_b 7.584510
_cell_length_c 24.593895
_cell_angle_alpha 90.000000
_cell_angle_beta 150.711858
_cell_angle_gamma 90.000000
_cell_volume 2769.817718
_symmetry_space_group_name_H-M "C 2/M"
_symmetry_group_IT_number 12
_symmetry_cell_setting 'monoclinic'
loop_
_space_group_symop_operation_xyz
x,y,z
-x,y,-z
-x,-y,-z
x,-y,z
1/2+x,1/2+y,z
1/2-x,1/2+y,-z
1/2-x,1/2-y,-z
1/2+x,1/2-y,z
loop_
_atom_site_type_symbol
_atom_site_label
_atom_site_fract_x
_atom_site_fract_y
_atom_site_fract_z
Si Si1 0.346711 0.207716 0.748354
Si Si2 0.681354 0.208668 0.879343
Si Si3 0.993201 0.287356 0.555225
Si Si4 0.147341 0.206917 0.504146
Si Si5 0.471748 0.700962 0.110224
Si Si6 0.850687 0.785766 0.878558
Si Si7 0.497467 0.705769 0.736615
Si Si8 0.806440 0.712417 0.220720
O O1 0.247114 0.276725 0.624964
O O2 0.425732 0.299333 0.800228
O O3 0.365948 0.227103 0.833545
O O4 0.350760 0.000000 0.740133
O O5 0.585149 0.286303 0.792640
O O6 0.733703 0.261534 0.880519
O O7 0.665024 0.000000 0.856731
O O8 0.750000 0.250000 0.000000
O O9 0.986150 0.500000 0.549124
O O10 0.913841 0.221095 0.507579
O O11 0.000000 0.233278 0.500000
O O12 0.091818 0.230979 0.680057
O O13 0.086914 0.281082 0.389078
O O14 0.158878 0.000000 0.505183
O O15 0.436406 0.500000 0.078657
O O16 0.475981 0.781959 0.175500
O O17 0.415640 0.774619 0.997962
O O18 0.751177 0.725251 0.790748
O O19 0.855891 0.000000 0.882684
O O20 0.476279 0.500000 0.724124
O O21 0.808858 0.500000 0.230287
#
# Coordination Sequence:
#
# PCOD9183929 Si02
#       8
#     8   8   8   8   8   8   8   8
#     4  11  24  40  58  85 119 153 192 244 302 357
#     4  11  21  35  56  84 119 155 193 236 284 340
#     4  10  19  33  56  84 113 148 192 236 277 332
#     4  10  22  39  58  83 120 157 191 239 298 353
#     4  10  22  40  63  87 112 150 200 249 298 351
#     4  10  20  38  62  86 114 150 194 243 293 349
#     4  10  21  40  62  85 116 154 197 245 296 350
#     4   9  18  33  54  83 114 145 184 229 275 331
#
# _framework density 23.106214000000001
#
# number of rings (size 3 to 8) (size 9 to 14) (size 15 to 20)
#    0.000    1.875    1.250    2.625    0.000    7.250 
#    0.000    3.125    0.000    0.000    0.000    0.000 
#    0.000    0.000    0.000    0.000    0.000    0.000 
#
# Total GULP energy -178520.576207 kJ/mol
# GULP energy per Si atom -5578.768006 kJ/mol
# Density = 2.305362 g / cm^3
# Si number density = 23.106214 Si / 1000 Ang^3
#
#
#
# Elastic Constant Matrix: (Units=GPa)
#
#
# Indices 1 2 3 4 5 6 
#
# 1 98.2640 -6.0358 15.5292 0.0000 -8.4211 0.0000
# 2 -6.0358 52.9673 -1.8182 0.0000 -4.2596 0.0000
# 3 15.5292 -1.8182 98.6722 0.0000 -5.8325 0.0000
# 4 0.0000 0.0000 0.0000 13.9566 0.0000 1.2897
# 5 -8.4211 -4.2596 -5.8325 0.0000 41.7053 0.0000
# 6 0.0000 0.0000 0.0000 1.2897 0.0000 16.6082
#
#
#
# Elastic Compliance Matrix: (Units=1/GPa)
#
#
# Indices 1 2 3 4 5 6 
#
# 1 0.010679 0.001331 -0.001533 0.000000 0.002078 0.000000
# 2 0.001331 0.019223 0.000279 0.000000 0.002271 0.000000
# 3 -0.001533 0.000279 0.010451 0.000000 0.001180 0.000000
# 4 0.000000 0.000000 0.000000 0.072168 0.000000 -0.005604
# 5 0.002078 0.002271 0.001180 0.000000 0.024794 0.000000
# 6 0.000000 0.000000 0.000000 -0.005604 0.000000 0.060646
#
#
# Mechanical properties :
#
#
# Convention : Reuss Voigt Hill
#
# Bulk Modulus (GPa) = 24.68703 29.47266 27.07985
# Shear Modulus (GPa) = 23.66184 30.60258 27.13221
#
# Velocity S-wave (km/s) = 3.20354 3.64322 3.43043
# Velocity P-wave (km/s) = 4.93872 5.52091 5.23791
#
# Compressibility (1/GPa) = 0.04050710
#
# Stress axis : x y z
#
# Youngs Moduli (GPa) = 93.64319 52.01968 95.68646
#
# Poissons Ratio (x) = -0.06926 0.14672
# Poissons Ratio (y) = -0.12467 -0.02669
# Poissons Ratio (z) = 0.14358 -0.01451
#
# Static dielectric constant tensor:
#      x y z
#    x 1.877210 0.000000 -0.110150 
#    y 0.000000 1.925070 0.000000 
#    z -0.110150 0.000000 2.100410 
# 
# From -- ./inp_files/250024.got.cif
#   From: 2010.05.17/outbox.cif.g08.bks.cpg/sg12_126_cif.got.tgz:250024.got - 2010.06.03 13:09:07.
