data_PCOD9183100
_publ_section_title
;
Structure prediction by ZEFSAII (Michael W. Deem and Ramdas Pophale) SiO2 
 PCOD9183100
Probable space group: C 2/M
;
_chemical_formula_sum "Si O2"
_cell_formula_units_Z 48
_cell_length_a 16.569610
_cell_length_b 7.681187
_cell_length_c 26.460084
_cell_angle_alpha 90.000000
_cell_angle_beta 37.704533
_cell_angle_gamma 90.000000
_cell_volume 2059.643051
_symmetry_space_group_name_H-M "C 2/M"
_symmetry_group_IT_number 12
_symmetry_cell_setting 'monoclinic'
loop_
_space_group_symop_operation_xyz
x,y,z
-x,y,-z
-x,-y,-z
x,-y,z
1/2+x,1/2+y,z
1/2-x,1/2+y,-z
1/2-x,1/2-y,-z
1/2+x,1/2-y,z
loop_
_atom_site_type_symbol
_atom_site_label
_atom_site_fract_x
_atom_site_fract_y
_atom_site_fract_z
Si Si1 0.624729 0.500000 0.373296
Si Si2 0.222268 0.708818 0.955741
Si Si3 0.826012 0.000000 0.529472
Si Si4 0.062371 0.710288 0.886069
Si Si5 0.626502 0.297128 0.637832
Si Si6 0.839181 0.787080 0.796490
Si Si7 0.183017 0.805424 0.729328
O O1 0.472244 0.500000 0.434438
O O2 0.644522 0.500000 0.424396
O O3 0.703440 0.667054 0.315254
O O4 0.222206 0.500000 0.951021
O O5 0.321806 0.771928 0.863344
O O6 0.250000 0.750000 0.000000
O O7 0.071527 0.769390 0.020934
O O8 0.738219 0.830818 0.561706
O O9 0.062834 0.500000 0.887697
O O10 0.202248 0.769145 0.838954
O O11 0.064931 0.770025 0.826615
O O12 0.645205 0.500000 0.614423
O O13 0.476772 0.233924 0.703090
O O14 0.640628 0.288728 0.692144
O O15 0.844576 0.000000 0.792666
O O16 0.232524 0.000000 0.711956
#
# Coordination Sequence:
#
# PCOD9183100 Si02
#       7
#     4   8   4   8   8   8   8
#     4   9  18  34  54  84 113 138 175 225 278 329
#     4  10  20  34  53  77 108 145 185 228 275 319
#     4   9  18  32  56  84 111 136 177 229 272 331
#     4  10  19  33  54  77 105 148 187 227 270 323
#     4   9  18  33  54  79 108 143 180 223 275 326
#     4   9  18  34  53  76 106 146 185 226 270 325
#     4  10  19  33  55  81 110 143 180 223 274 329
#
# _framework density 23.305008000000001
#
# number of rings (size 3 to 8) (size 9 to 14) (size 15 to 20)
#    0.000    2.500    0.833    1.500    0.000    4.667 
#    3.000    3.333    0.000    3.000    0.000    0.000 
#    0.000    0.000    0.000    0.000    0.000    0.000 
#
# Total GULP energy -134134.602994 kJ/mol
# GULP energy per Si atom -5588.941791 kJ/mol
# Density = 2.325196 g / cm^3
# Si number density = 23.305008 Si / 1000 Ang^3
#
#
#
# Elastic Constant Matrix: (Units=GPa)
#
#
# Indices 1 2 3 4 5 6 
#
# 1 80.1586 11.9429 15.8180 0.0002 -12.1411 -0.0026
# 2 11.9429 79.3207 44.6446 0.0001 -24.5453 0.0008
# 3 15.8180 44.6446 94.8416 -0.0007 -31.8689 0.0000
# 4 0.0002 0.0001 -0.0007 10.4964 0.0005 5.6569
# 5 -12.1411 -24.5453 -31.8689 0.0005 40.7851 0.0003
# 6 -0.0026 0.0008 0.0000 5.6569 0.0003 10.6691
#
#
#
# Elastic Compliance Matrix: (Units=1/GPa)
#
#
# Indices 1 2 3 4 5 6 
#
# 1 0.013180 -0.000556 -0.000991 -0.000003 0.002815 0.000005
# 2 -0.000556 0.018114 -0.006545 0.000000 0.005622 -0.000002
# 3 -0.000991 -0.006545 0.016771 0.000001 0.008871 -0.000001
# 4 -0.000003 0.000000 0.000001 0.133388 -0.000001 -0.070725
# 5 0.002815 0.005622 0.008871 -0.000001 0.035671 0.000000
# 6 0.000005 -0.000002 -0.000001 -0.070725 0.000000 0.131228
#
#
# Mechanical properties :
#
#
# Convention : Reuss Voigt Hill
#
# Bulk Modulus (GPa) = 31.36597 44.34801 37.85699
# Shear Modulus (GPa) = 13.32754 24.51779 18.92267
#
# Velocity S-wave (km/s) = 2.39398 3.24703 2.85258
# Velocity P-wave (km/s) = 4.59670 5.75572 5.20855
#
# Compressibility (1/GPa) = 0.03188168
#
# Stress axis : x y z
#
# Youngs Moduli (GPa) = 75.87295 55.20534 59.62733
#
# Poissons Ratio (x) = 0.03068 0.05907
# Poissons Ratio (y) = 0.04217 0.39027
# Poissons Ratio (z) = 0.07517 0.36133
#
# Static dielectric constant tensor:
#      x y z
#    x 1.932640 0.000000 0.008060 
#    y 0.000000 1.844020 0.000000 
#    z 0.008060 0.000000 1.852000 
# 
# From -- ./inp_files/274634.got.cif
#   From: 2010.05.17/outbox.cif.g08.bks.cpg/sg12_138_cif.got.tgz:274634.got - 2010.06.03 13:09:07.
