data_PCOD9183553
_publ_section_title
;
Structure prediction by ZEFSAII (Michael W. Deem and Ramdas Pophale) SiO2 
 PCOD9183553
Probable space group: C 2/M
;
_chemical_formula_sum "Si O2"
_cell_formula_units_Z 56
_cell_length_a 18.402650
_cell_length_b 8.626616
_cell_length_c 29.596869
_cell_angle_alpha 90.000000
_cell_angle_beta 140.712219
_cell_angle_gamma 90.000000
_cell_volume 2975.215069
_symmetry_space_group_name_H-M "C 2/M"
_symmetry_group_IT_number 12
_symmetry_cell_setting 'monoclinic'
loop_
_space_group_symop_operation_xyz
x,y,z
-x,y,-z
-x,-y,-z
x,-y,z
1/2+x,1/2+y,z
1/2-x,1/2+y,-z
1/2-x,1/2-y,-z
1/2+x,1/2-y,z
loop_
_atom_site_type_symbol
_atom_site_label
_atom_site_fract_x
_atom_site_fract_y
_atom_site_fract_z
Si Si1 0.633228 0.314294 0.570284
Si Si2 0.047808 0.685950 0.706983
Si Si3 0.215932 0.687773 0.706010
Si Si4 0.293810 0.315285 0.568727
Si Si5 0.672468 0.686443 0.003896
Si Si6 0.475065 0.311930 0.847763
Si Si7 0.356509 0.314039 0.153465
O O1 0.500000 0.270412 0.500000
O O2 0.641901 0.500000 0.571727
O O3 0.677978 0.257267 0.640153
O O4 0.709412 0.240835 0.567567
O O5 0.040426 0.500000 0.704962
O O6 0.126610 0.730198 0.702222
O O7 0.105137 0.746350 0.780471
O O8 0.921303 0.754630 0.640294
O O9 0.217016 0.500000 0.702788
O O10 0.344536 0.740493 0.780729
O O11 0.294794 0.500000 0.567469
O O12 0.250000 0.250000 0.500000
O O13 0.678870 0.500000 0.008474
O O14 0.732346 0.754812 0.076965
O O15 0.750000 0.750000 0.000000
O O16 0.544417 0.732709 0.926521
O O17 0.473706 0.500000 0.846725
O O18 0.550596 0.264994 0.840378
O O19 0.356249 0.500000 0.154764
#
# Coordination Sequence:
#
# PCOD9183553 Si02
#       7
#     8   8   8   8   8   8   8
#     4  11  24  41  62  89 119 150 188 234 283 336
#     4  11  23  38  58  85 116 151 193 238 286 341
#     4  10  21  38  59  83 113 150 192 237 287 342
#     4  12  25  42  64  88 118 153 190 233 281 337
#     4   9  16  29  51  78 109 143 184 235 288 345
#     4   8  16  32  54  79 105 140 186 233 283 339
#     4  10  19  33  55  81 111 148 191 238 289 345
#
# _framework density 18.822168000000001
#
# number of rings (size 3 to 8) (size 9 to 14) (size 15 to 20)
#    0.000    1.857    0.000    5.571    0.000    5.714 
#    0.000    4.286    0.000    4.286    0.000    0.000 
#    0.000    0.000    0.000    0.000    0.000    0.000 
#
# Total GULP energy -156380.709763 kJ/mol
# GULP energy per Si atom -5585.025349 kJ/mol
# Density = 1.877933 g / cm^3
# Si number density = 18.822168 Si / 1000 Ang^3
#
#
#
# Elastic Constant Matrix: (Units=GPa)
#
#
# Indices 1 2 3 4 5 6 
#
# 1 135.6464 58.9920 109.6653 0.0000 -3.2074 0.0000
# 2 58.9920 67.3500 62.1299 0.0000 -0.3448 -0.0002
# 3 109.6653 62.1299 228.2805 0.0000 -3.1750 0.0000
# 4 0.0000 0.0000 0.0000 33.7735 0.0000 -8.3705
# 5 -3.2074 -0.3448 -3.1750 0.0000 32.7648 0.0000
# 6 0.0000 -0.0002 0.0000 -8.3705 0.0000 19.1447
#
#
#
# Elastic Compliance Matrix: (Units=1/GPa)
#
#
# Indices 1 2 3 4 5 6 
#
# 1 0.015151 -0.008764 -0.004880 0.000000 0.000918 0.000000
# 2 -0.008764 0.024898 -0.002578 0.000000 -0.000846 0.000000
# 3 -0.004880 -0.002578 0.007430 0.000000 0.000215 0.000000
# 4 0.000000 0.000000 0.000000 0.033207 0.000000 0.014519
# 5 0.000918 -0.000846 0.000215 0.000000 0.030622 0.000000
# 6 0.000000 0.000000 0.000000 0.014519 0.000000 0.058582
#
#
# Mechanical properties :
#
#
# Convention : Reuss Voigt Hill
#
# Bulk Modulus (GPa) = 66.51577 99.20569 82.86073
# Shear Modulus (GPa) = 24.11430 30.50258 27.30844
#
# Velocity S-wave (km/s) = 3.58322 4.02999 3.81316
# Velocity P-wave (km/s) = 7.24811 8.62993 7.96903
#
# Compressibility (1/GPa) = 0.01503403
#
# Stress axis : x y z
#
# Youngs Moduli (GPa) = 66.00323 40.16415 134.59378
#
# Poissons Ratio (x) = 0.35199 0.65688
# Poissons Ratio (y) = 0.57843 0.34698
# Poissons Ratio (z) = 0.32213 0.10354
#
# Static dielectric constant tensor:
#      x y z
#    x 1.618620 0.000000 0.016000 
#    y 0.000000 1.636780 0.000000 
#    z 0.016000 0.000000 1.650820 
# 
# From -- ./inp_files/377779.got.cif
#   From: 2010.05.17/outbox.cif.g08.bks.cpg/sg12_189_cif.got.tgz:377779.got - 2010.06.03 13:09:07.
