data_PCOD9183696
_publ_section_title
;
Structure prediction by ZEFSAII (Michael W. Deem and Ramdas Pophale) SiO2 
 PCOD9183696
Probable space group: C 2/M
;
_chemical_formula_sum "Si O2"
_cell_formula_units_Z 40
_cell_length_a 20.099686
_cell_length_b 12.510980
_cell_length_c 34.210171
_cell_angle_alpha 90.000000
_cell_angle_beta 163.901103
_cell_angle_gamma 90.000000
_cell_volume 2385.501528
_symmetry_space_group_name_H-M "C 2/M"
_symmetry_group_IT_number 12
_symmetry_cell_setting 'monoclinic'
loop_
_space_group_symop_operation_xyz
x,y,z
-x,y,-z
-x,-y,-z
x,-y,z
1/2+x,1/2+y,z
1/2-x,1/2+y,-z
1/2-x,1/2-y,-z
1/2+x,1/2-y,z
loop_
_atom_site_type_symbol
_atom_site_label
_atom_site_fract_x
_atom_site_fract_y
_atom_site_fract_z
Si Si1 0.890710 0.126804 0.623010
Si Si2 0.856774 0.786613 0.019289
Si Si3 0.337313 0.000000 0.222303
Si Si4 0.283303 0.126747 0.907237
Si Si5 0.225583 0.000000 0.071333
Si Si6 0.585911 0.804773 0.678781
O O1 0.616018 0.165176 0.466752
O O2 0.037213 0.149275 0.745236
O O3 0.021233 0.192191 0.662162
O O4 0.903015 0.000000 0.623281
O O5 0.143585 0.805526 0.183888
O O6 0.750000 0.750000 0.000000
O O7 0.812447 0.694973 0.962295
O O8 0.742705 0.894608 0.936899
O O9 0.436340 0.894505 0.299599
O O10 0.367366 0.000000 0.192536
O O11 0.053368 0.000000 0.072210
O O12 0.299470 0.000000 0.924005
O O13 0.500000 0.155604 0.000000
#
# Coordination Sequence:
#
# PCOD9183696 Si02
#       6
#     8   8   4   8   4   8
#     4  10  19  33  56  87 111 141 182 238 282 323
#     4  11  23  37  56  81 117 153 189 227 280 340
#     4   9  16  32  56  80 111 134 188 236 274 327
#     4  10  20  36  59  84 112 143 192 238 279 326
#     4   9  20  32  54  80 105 150 184 236 279 322
#     4  10  19  33  55  85 113 143 182 229 281 329
#
# _framework density 16.767962000000001
#
# number of rings (size 3 to 8) (size 9 to 14) (size 15 to 20)
#    0.000    2.000    3.000    1.200    4.200    0.000 
#    0.000    1.000    0.000    2.400    0.000    4.200 
#    0.000    0.000    0.000    0.000    0.000    0.000 
#
# Total GULP energy -111552.998208 kJ/mol
# GULP energy per Si atom -5577.649910 kJ/mol
# Density = 1.672980 g / cm^3
# Si number density = 16.767962 Si / 1000 Ang^3
#
#
#
# Elastic Constant Matrix: (Units=GPa)
#
#
# Indices 1 2 3 4 5 6 
#
# 1 126.4756 70.3324 56.3802 0.0046 -14.8751 -0.0003
# 2 70.3324 76.5631 41.4875 0.0193 -9.5881 -0.0019
# 3 56.3802 41.4875 120.6009 0.0475 -14.6862 -0.0042
# 4 0.0046 0.0193 0.0475 21.2877 -0.0096 -3.5654
# 5 -14.8751 -9.5881 -14.6862 -0.0096 17.9923 -0.0040
# 6 -0.0003 -0.0019 -0.0042 -3.5654 -0.0040 20.3815
#
#
#
# Elastic Compliance Matrix: (Units=1/GPa)
#
#
# Indices 1 2 3 4 5 6 
#
# 1 0.017452 -0.013927 -0.002792 0.000018 0.004728 0.000002
# 2 -0.013927 0.027501 -0.002851 -0.000015 0.000815 -0.000001
# 3 -0.002792 -0.002851 0.011228 -0.000019 0.005337 0.000000
# 4 0.000018 -0.000015 -0.000019 0.048393 0.000018 0.008466
# 5 0.004728 0.000815 0.005337 0.000018 0.064278 0.000017
# 6 0.000002 -0.000001 0.000000 0.008466 0.000017 0.050545
#
#
# Mechanical properties :
#
#
# Convention : Reuss Voigt Hill
#
# Bulk Modulus (GPa) = 58.67919 73.33775 66.00847
# Shear Modulus (GPa) = 18.92383 22.29494 20.60938
#
# Velocity S-wave (km/s) = 3.36306 3.65034 3.50965
# Velocity P-wave (km/s) = 7.08174 7.84847 7.47494
#
# Compressibility (1/GPa) = 0.01704182
#
# Stress axis : x y z
#
# Youngs Moduli (GPa) = 57.30047 36.36214 89.06543
#
# Poissons Ratio (x) = 0.50640 0.24868
# Poissons Ratio (y) = 0.79800 0.25390
# Poissons Ratio (z) = 0.15999 0.10366
#
# Static dielectric constant tensor:
#      x y z
#    x 1.521090 0.000000 -0.007640 
#    y 0.000000 1.580780 -0.000010 
#    z -0.007640 -0.000010 1.596880 
# 
# From -- ./inp_files/153317.got.cif
#   From: 2010.05.17/outbox.cif.g08.bks.cpg/sg12_77_cif.got.tgz:153317.got - 2010.06.03 13:09:07.
