data_PCOD9183092
_publ_section_title
;
Structure prediction by ZEFSAII (Michael W. Deem and Ramdas Pophale) SiO2 
 PCOD9183092
Probable space group: C 2/M
;
_chemical_formula_sum "Si O2"
_cell_formula_units_Z 56
_cell_length_a 14.836497
_cell_length_b 7.719455
_cell_length_c 28.150552
_cell_angle_alpha 90.000000
_cell_angle_beta 132.119866
_cell_angle_gamma 90.000000
_cell_volume 2391.435019
_symmetry_space_group_name_H-M "C 2/M"
_symmetry_group_IT_number 12
_symmetry_cell_setting 'monoclinic'
loop_
_space_group_symop_operation_xyz
x,y,z
-x,y,-z
-x,-y,-z
x,-y,z
1/2+x,1/2+y,z
1/2-x,1/2+y,-z
1/2-x,1/2-y,-z
1/2+x,1/2-y,z
loop_
_atom_site_type_symbol
_atom_site_label
_atom_site_fract_x
_atom_site_fract_y
_atom_site_fract_z
Si Si1 0.087373 0.301918 0.284012
Si Si2 0.699185 0.705461 0.055955
Si Si3 0.330770 0.299213 0.190871
Si Si4 0.092042 0.205281 0.492561
Si Si5 0.935240 0.292136 0.080335
Si Si6 0.871376 0.709863 0.597066
Si Si7 0.323514 0.786822 0.780176
O O1 0.128921 0.500000 0.304460
O O2 0.083620 0.227752 0.335571
O O3 0.169289 0.224147 0.271312
O O4 0.949850 0.299774 0.215837
O O5 0.707294 0.500000 0.064307
O O6 0.718979 0.783581 0.114818
O O7 0.817006 0.771183 0.067703
O O8 0.585502 0.743733 0.981919
O O9 0.364272 0.500000 0.205577
O O10 0.289011 0.233176 0.227415
O O11 0.058479 0.230703 0.425377
O O12 0.230594 0.271850 0.545162
O O13 0.000000 0.275782 0.500000
O O14 0.100313 0.000000 0.504067
O O15 0.935204 0.500000 0.082603
O O16 0.056210 0.229464 0.148849
O O17 0.874430 0.500000 0.596363
O O18 0.324324 0.000000 0.780004
#
# Coordination Sequence:
#
# PCOD9183092 Si02
#       7
#     8   8   8   8   8   8   8
#     4  10  20  39  58  75 108 148 183 216 264 322
#     4  10  19  33  54  77 104 137 173 220 278 329
#     4  11  22  35  55  81 105 136 183 229 270 317
#     4   9  18  34  57  86 116 145 180 221 259 304
#     4   9  17  33  55  75  98 135 179 218 268 329
#     4   9  19  34  56  83 111 147 181 217 265 314
#     4   9  19  36  56  76 102 141 180 219 268 328
#
# _framework density 23.416900999999999
#
# number of rings (size 3 to 8) (size 9 to 14) (size 15 to 20)
#    0.000    2.429    1.429    0.857    0.000    3.143 
#    0.000    8.571    0.000    0.000    0.000    0.000 
#    0.000    0.000    0.000    0.000    0.000    0.000 
#
# Total GULP energy -156306.299760 kJ/mol
# GULP energy per Si atom -5582.367849 kJ/mol
# Density = 2.336360 g / cm^3
# Si number density = 23.416901 Si / 1000 Ang^3
#
#
#
# Elastic Constant Matrix: (Units=GPa)
#
#
# Indices 1 2 3 4 5 6 
#
# 1 110.0357 0.6381 26.4544 0.0000 -44.2085 0.0000
# 2 0.6381 41.8494 -8.8674 0.0000 0.5635 0.0000
# 3 26.4544 -8.8674 91.4777 0.0000 -36.1231 0.0000
# 4 0.0000 0.0000 0.0000 18.3075 0.0000 -0.7313
# 5 -44.2085 0.5635 -36.1231 0.0000 37.3811 0.0000
# 6 0.0000 0.0000 0.0000 -0.7313 0.0000 5.5441
#
#
#
# Elastic Compliance Matrix: (Units=1/GPa)
#
#
# Indices 1 2 3 4 5 6 
#
# 1 0.018851 0.000505 0.005495 0.000000 0.027597 0.000000
# 2 0.000505 0.024634 0.003770 0.000000 0.003869 0.000000
# 3 0.005495 0.003770 0.019812 0.000000 0.025587 0.000000
# 4 0.000000 0.000000 0.000000 0.054912 0.000000 0.007243
# 5 0.027597 0.003869 0.025587 0.000000 0.084056 0.000000
# 6 0.000000 0.000000 0.000000 0.007243 0.000000 0.181327
#
#
# Mechanical properties :
#
#
# Convention : Reuss Voigt Hill
#
# Bulk Modulus (GPa) = 12.07194 31.09034 21.58114
# Shear Modulus (GPa) = 12.76601 27.25572 20.01087
#
# Velocity S-wave (km/s) = 2.33740 3.41535 2.92644
# Velocity P-wave (km/s) = 3.52860 5.37201 4.54475
#
# Compressibility (1/GPa) = 0.08283672
#
# Stress axis : x y z
#
# Youngs Moduli (GPa) = 53.04637 40.59409 50.47513
#
# Poissons Ratio (x) = -0.02051 -0.27736
# Poissons Ratio (y) = -0.02680 -0.19027
# Poissons Ratio (z) = -0.29148 -0.15302
#
# Static dielectric constant tensor:
#      x y z
#    x 1.902440 0.000000 -0.019120 
#    y 0.000000 1.862740 0.000000 
#    z -0.019120 0.000000 1.936940 
# 
# From -- ./inp_files/359646.got.cif
#   From: 2010.05.17/outbox.cif.g08.bks.cpg/sg12_180_cif.got.tgz:359646.got - 2010.06.03 13:09:07.
