data_PCOD9183273
_publ_section_title
;
Structure prediction by ZEFSAII (Michael W. Deem and Ramdas Pophale) SiO2 
 PCOD9183273
Probable space group: C 2/M
;
_chemical_formula_sum "Si O2"
_cell_formula_units_Z 58
_cell_length_a 17.476739
_cell_length_b 7.519411
_cell_length_c 20.235271
_cell_angle_alpha 90.000000
_cell_angle_beta 73.347814
_cell_angle_gamma 90.000000
_cell_volume 2547.691563
_symmetry_space_group_name_H-M "C 2/M"
_symmetry_group_IT_number 12
_symmetry_cell_setting 'monoclinic'
loop_
_space_group_symop_operation_xyz
x,y,z
-x,y,-z
-x,-y,-z
x,-y,z
1/2+x,1/2+y,z
1/2-x,1/2+y,-z
1/2-x,1/2-y,-z
1/2+x,1/2-y,z
loop_
_atom_site_type_symbol
_atom_site_label
_atom_site_fract_x
_atom_site_fract_y
_atom_site_fract_z
Si Si1 0.630851 0.714184 0.110076
Si Si2 0.176820 0.698369 0.564181
Si Si3 0.814245 0.214795 0.292441
Si Si4 0.908075 0.782343 0.024864
Si Si5 0.783963 0.210702 0.159470
Si Si6 0.000000 0.500000 0.500000
Si Si7 0.495798 0.298592 0.607029
Si Si8 0.500562 0.284767 0.755288
O O1 0.624893 0.500000 0.108834
O O2 0.631053 0.776393 0.034495
O O3 0.709565 0.761926 0.130431
O O4 0.556244 0.779750 0.172282
O O5 0.150104 0.500000 0.551717
O O6 0.250000 0.750000 0.500000
O O7 0.207824 0.706436 0.631532
O O8 0.093677 0.803970 0.581410
O O9 0.770482 0.277676 0.237052
O O10 0.907250 0.263648 0.258194
O O11 0.808046 0.000000 0.301320
O O12 0.906158 0.000000 0.027121
O O13 0.860478 0.718609 0.100763
O O14 0.000000 0.729456 0.000000
O O15 0.797509 0.000000 0.164559
O O16 0.029946 0.657404 0.440709
O O17 0.466518 0.500000 0.603235
O O18 0.475347 0.236526 0.686880
O O19 0.498470 0.500000 0.756975
#
# Coordination Sequence:
#
# PCOD9183273 Si02
#       8
#     8   8   8   8   8   2   8   8
#     4  10  19  33  54  81 112 149 186 232 291 348
#     4  11  21  38  61  88 116 151 200 249 306 367
#     4   9  18  35  57  78 105 147 194 243 290 344
#     4   9  17  31  56  83 107 144 196 240 272 333
#     4  10  20  34  51  81 116 146 184 234 292 346
#     4  12  22  40  60  94 120 160 208 238 314 378
#     4  10  21  40  61  87 122 159 200 255 302 363
#     4   8  16  34  58  77 103 146 195 239 287 341
#
# _framework density 22.765706999999999
#
# number of rings (size 3 to 8) (size 9 to 14) (size 15 to 20)
#    0.000    2.345    0.690    3.517    0.000    3.862 
#    3.724    0.000    0.000    3.310    0.000    0.000 
#    0.000    0.000    0.000    0.000    0.000    0.000 
#
# Total GULP energy -161765.305199 kJ/mol
# GULP energy per Si atom -5578.113972 kJ/mol
# Density = 2.271389 g / cm^3
# Si number density = 22.765707 Si / 1000 Ang^3
#
#
#
# Elastic Constant Matrix: (Units=GPa)
#
#
# Indices 1 2 3 4 5 6 
#
# 1 30.0752 -15.9001 15.2664 0.0000 -1.9731 0.0000
# 2 -15.9001 85.3123 5.3528 0.0000 5.1285 0.0001
# 3 15.2664 5.3528 120.4901 0.0000 -2.6928 0.0000
# 4 0.0000 0.0000 0.0000 6.6597 0.0000 10.3277
# 5 -1.9731 5.1285 -2.6928 0.0000 35.1128 0.0000
# 6 0.0000 0.0001 0.0000 10.3277 0.0000 15.8446
#
#
#
# Elastic Compliance Matrix: (Units=1/GPa)
#
#
# Indices 1 2 3 4 5 6 
#
# 1 0.040161 0.007783 -0.005419 -0.000010 0.000705 0.000007
# 2 0.007783 0.013372 -0.001617 -0.000006 -0.001640 0.000004
# 3 -0.005419 -0.001617 0.009072 -0.000001 0.000627 0.000000
# 4 -0.000010 -0.000006 -0.000001-13.896484 -0.000005 9.057852
# 5 0.000705 -0.001640 0.000627 -0.000005 0.028807 0.000003
# 6 0.000007 0.000004 0.000000 9.057852 0.000003 -5.840876
#
#
# Mechanical properties :
#
#
# Convention : Reuss Voigt Hill
#
# Bulk Modulus (GPa) = 15.60060 27.25729 21.42895
# Shear Modulus (GPa) = -0.25476 26.93399 13.33961
#
# Velocity S-wave (km/s) = -0.33489 3.44335 2.42327
# Velocity P-wave (km/s) = 2.59191 5.27331 4.15487
#
# Compressibility (1/GPa) = 0.06410011
#
# Stress axis : x y z
#
# Youngs Moduli (GPa) = 24.89957 74.78217 110.23141
#
# Poissons Ratio (x) = -0.58201 0.59729
# Poissons Ratio (y) = -0.19379 0.17822
# Poissons Ratio (z) = 0.13492 0.12091
#
# Static dielectric constant tensor:
#      x y z
#    x 1.908490 0.000000 0.041960 
#    y 0.000000 1.905050 0.000000 
#    z 0.041960 0.000000 1.861840 
# 
# From -- ./inp_files/281111.got.cif
#   From: 2010.05.17/outbox.cif.g08.bks.cpg/sg12_141_cif.got.tgz:281111.got - 2010.06.03 13:09:07.
