data_PCOD9183283
_publ_section_title
;
Structure prediction by ZEFSAII (Michael W. Deem and Ramdas Pophale) SiO2 
 PCOD9183283
Probable space group: C 2/M
;
_chemical_formula_sum "Si O2"
_cell_formula_units_Z 64
_cell_length_a 29.677244
_cell_length_b 7.710697
_cell_length_c 18.662930
_cell_angle_alpha 90.000000
_cell_angle_beta 42.738882
_cell_angle_gamma 90.000000
_cell_volume 2898.332180
_symmetry_space_group_name_H-M "C 2/M"
_symmetry_group_IT_number 12
_symmetry_cell_setting 'monoclinic'
loop_
_space_group_symop_operation_xyz
x,y,z
-x,y,-z
-x,-y,-z
x,-y,z
1/2+x,1/2+y,z
1/2-x,1/2+y,-z
1/2-x,1/2-y,-z
1/2+x,1/2-y,z
loop_
_atom_site_type_symbol
_atom_site_label
_atom_site_fract_x
_atom_site_fract_y
_atom_site_fract_z
Si Si1 0.785567 0.201345 0.032145
Si Si2 0.931937 0.287444 0.379440
Si Si3 0.824305 0.708306 0.388728
Si Si4 0.814863 0.287582 0.237307
Si Si5 0.703989 0.300186 0.264591
Si Si6 0.564739 0.203018 0.463451
Si Si7 0.446990 0.211667 0.004055
Si Si8 0.439569 0.209161 0.853019
O O1 0.751117 0.292746 0.140057
O O2 0.775772 0.000000 0.057678
O O3 0.750000 0.250000 0.000000
O O4 0.863621 0.237098 0.932336
O O5 0.928849 0.500000 0.381801
O O6 0.877610 0.227054 0.384660
O O7 0.921018 0.226842 0.473396
O O8 0.005502 0.234284 0.267915
O O9 0.832342 0.500000 0.376288
O O10 0.750000 0.750000 0.500000
O O11 0.830457 0.771256 0.299551
O O12 0.813005 0.500000 0.240027
O O13 0.745966 0.226766 0.282781
O O14 0.874167 0.236150 0.115136
O O15 0.689909 0.500000 0.296477
O O16 0.632277 0.215639 0.339296
O O17 0.500000 0.279178 0.500000
O O18 0.549980 0.000000 0.491938
O O19 0.461288 0.268131 0.906946
O O20 0.448604 0.000000 0.002146
O O21 0.500000 0.271657 0.000000
O O22 0.440009 0.000000 0.852026
#
# Coordination Sequence:
#
# PCOD9183283 Si02
#       8
#     8   8   8   8   8   8   8   8
#     4  12  26  43  64  91 121 158 198 245 304 364
#     4   9  19  35  57  86 120 159 204 250 300 358
#     4  10  19  33  54  81 114 154 202 249 298 352
#     4   9  17  30  51  82 114 145 187 242 292 342
#     4  11  22  40  63  90 120 152 197 251 301 358
#     4  10  22  39  58  84 118 159 203 250 306 362
#     4   9  15  26  50  83 115 149 193 239 286 341
#     4  10  19  36  61  89 121 158 202 249 296 357
#
# _framework density 22.081665000000001
#
# number of rings (size 3 to 8) (size 9 to 14) (size 15 to 20)
#    0.000    2.000    1.250    3.000    1.750    3.250 
#    0.000    1.875    0.000    0.375    0.000    0.000 
#    0.000    0.000    0.000    0.000    0.000    0.000 
#
# Total GULP energy -178777.138507 kJ/mol
# GULP energy per Si atom -5586.785578 kJ/mol
# Density = 2.203141 g / cm^3
# Si number density = 22.081665 Si / 1000 Ang^3
#
#
#
# Elastic Constant Matrix: (Units=GPa)
#
#
# Indices 1 2 3 4 5 6 
#
# 1 146.6786 3.5129 34.3586 0.0048 -13.0854 0.0020
# 2 3.5129 39.0657 -5.5056 0.0394 2.9491 -0.0234
# 3 34.3586 -5.5056 94.4319 0.0064 -8.5118 -0.0086
# 4 0.0048 0.0394 0.0064 19.8639 -0.0071 -6.1888
# 5 -13.0854 2.9491 -8.5118 -0.0071 37.3860 0.0008
# 6 0.0020 -0.0234 -0.0086 -6.1888 0.0008 1.0493
#
#
#
# Elastic Compliance Matrix: (Units=1/GPa)
#
#
# Indices 1 2 3 4 5 6 
#
# 1 0.007665 -0.001229 -0.002665 0.000022 0.002173 0.000062
# 2 -0.001229 0.026117 0.001782 -0.000161 -0.002085 -0.000346
# 3 -0.002665 0.001782 0.011809 -0.000045 0.001615 -0.000124
# 4 0.000022 -0.000161 -0.000045 -0.060098 0.000006 -0.354475
# 5 0.002173 -0.002085 0.001615 0.000006 0.028041 -0.000022
# 6 0.000062 -0.000346 -0.000124 -0.354475 -0.000022 -1.137743
#
#
# Mechanical properties :
#
#
# Convention : Reuss Voigt Hill
#
# Bulk Modulus (GPa) = 24.17371 38.32312 31.24841
# Shear Modulus (GPa) = -4.51999 28.18052 11.83027
#
# Velocity S-wave (km/s) = -1.43227 3.57626 2.31714
# Velocity P-wave (km/s) = 2.86984 5.86905 4.61962
#
# Compressibility (1/GPa) = 0.04136726
#
# Stress axis : x y z
#
# Youngs Moduli (GPa) = 130.46139 38.28951 84.68373
#
# Poissons Ratio (x) = 0.04705 0.22565
# Poissons Ratio (y) = 0.16032 -0.15089
# Poissons Ratio (z) = 0.34764 -0.06823
#
# Static dielectric constant tensor:
#      x y z
#    x 1.802990 0.000000 0.003120 
#    y 0.000000 1.831640 0.000000 
#    z 0.003120 0.000000 1.780680 
# 
# From -- ./inp_files/295563.got.cif
#   From: 2010.05.17/outbox.cif.g08.bks.cpg/sg12_148_cif.got.tgz:295563.got - 2010.06.03 13:09:07.
