data_PCOD9183052
_publ_section_title
;
Structure prediction by ZEFSAII (Michael W. Deem and Ramdas Pophale) SiO2 
 PCOD9183052
Probable space group: C 2/M
;
_chemical_formula_sum "Si O2"
_cell_formula_units_Z 64
_cell_length_a 26.258218
_cell_length_b 9.389287
_cell_length_c 16.438073
_cell_angle_alpha 90.000000
_cell_angle_beta 66.006062
_cell_angle_gamma 90.000000
_cell_volume 3702.536820
_symmetry_space_group_name_H-M "C 2/M"
_symmetry_group_IT_number 12
_symmetry_cell_setting 'monoclinic'
loop_
_space_group_symop_operation_xyz
x,y,z
-x,y,-z
-x,-y,-z
x,-y,z
1/2+x,1/2+y,z
1/2-x,1/2+y,-z
1/2-x,1/2-y,-z
1/2+x,1/2-y,z
loop_
_atom_site_type_symbol
_atom_site_label
_atom_site_fract_x
_atom_site_fract_y
_atom_site_fract_z
Si Si1 0.785032 0.329530 0.595947
Si Si2 0.440938 0.341430 0.081695
Si Si3 0.951448 0.172255 0.261686
Si Si4 0.922954 0.171807 0.793421
Si Si5 0.113600 0.660015 0.020856
Si Si6 0.330763 0.328646 0.406964
Si Si7 0.826225 0.828653 0.729495
Si Si8 0.744150 0.842257 0.924633
O O1 0.793448 0.500000 0.591496
O O2 0.717993 0.304411 0.628794
O O3 0.812144 0.257647 0.498601
O O4 0.812826 0.256160 0.656243
O O5 0.414342 0.500000 0.102091
O O6 0.449171 0.288825 0.167982
O O7 0.410428 0.234618 0.042674
O O8 0.500000 0.357559 0.000000
O O9 0.893085 0.216273 0.340231
O O10 0.011883 0.215491 0.257825
O O11 0.951502 0.000000 0.264711
O O12 0.883857 0.202586 0.740672
O O13 0.921201 0.000000 0.807420
O O14 0.898721 0.248492 0.889786
O O15 0.091569 0.500000 0.047892
O O16 0.178518 0.649867 0.957847
O O17 0.330893 0.500000 0.422787
O O18 0.777514 0.789091 0.825123
O O19 0.824347 0.000000 0.715456
O O20 0.767602 0.000000 0.925349
O O21 0.750000 0.750000 0.000000
#
# Coordination Sequence:
#
# PCOD9183052 Si02
#       8
#     8   8   8   8   8   8   8   8
#     4  10  21  37  59  85 110 137 170 215 274 330
#     4  10  19  33  54  76 104 144 186 224 261 309
#     4   9  18  34  57  83 104 134 185 230 263 309
#     4  10  19  36  58  77 104 145 187 224 263 312
#     4  11  22  33  47  74 112 147 180 224 275 317
#     4   9  19  38  61  83 108 136 172 221 270 320
#     4  10  21  36  56  80 107 143 182 221 266 315
#     4  10  21  35  51  75 108 146 186 224 263 313
#
# _framework density 17.285444999999999
#
# number of rings (size 3 to 8) (size 9 to 14) (size 15 to 20)
#    0.000    2.125    2.500    0.750    1.750    2.250 
#    0.000    1.875    0.000    3.750    0.000    0.000 
#    0.000    0.000    0.000    0.000    0.000    0.000 
#
# Total GULP energy -178229.966924 kJ/mol
# GULP energy per Si atom -5569.686466 kJ/mol
# Density = 1.724610 g / cm^3
# Si number density = 17.285445 Si / 1000 Ang^3
#
#
#
# Elastic Constant Matrix: (Units=GPa)
#
#
# Indices 1 2 3 4 5 6 
#
# 1 143.7785 53.9172 74.0517 0.0000 4.6731 0.0000
# 2 53.9172 58.4760 37.9988 0.0000 15.6351 0.0000
# 3 74.0517 37.9988 98.6609 0.0000 6.7555 0.0000
# 4 0.0000 0.0000 0.0000 26.6439 0.0000 5.4200
# 5 4.6731 15.6351 6.7555 0.0000 32.8841 0.0000
# 6 0.0000 0.0000 0.0000 5.4200 0.0000 26.2772
#
#
#
# Elastic Compliance Matrix: (Units=1/GPa)
#
#
# Indices 1 2 3 4 5 6 
#
# 1 0.014031 -0.009289 -0.007221 0.000000 0.003906 0.000000
# 2 -0.009289 0.032055 -0.004484 0.000000 -0.013000 0.000000
# 3 -0.007221 -0.004484 0.017310 0.000000 -0.000398 0.000000
# 4 0.000000 0.000000 0.000000 0.039176 0.000000 -0.008080
# 5 0.003906 -0.013000 -0.000398 0.000000 0.036117 0.000000
# 6 0.000000 0.000000 0.000000 -0.008080 0.000000 0.039723
#
#
# Mechanical properties :
#
#
# Convention : Reuss Voigt Hill
#
# Bulk Modulus (GPa) = 46.71065 70.31676 58.51370
# Shear Modulus (GPa) = 21.97469 26.15754 24.06612
#
# Velocity S-wave (km/s) = 3.56937 3.89430 3.73537
# Velocity P-wave (km/s) = 6.63845 7.80953 7.24768
#
# Compressibility (1/GPa) = 0.02140839
#
# Stress axis : x y z
#
# Youngs Moduli (GPa) = 71.27327 31.19599 57.77159
#
# Poissons Ratio (x) = 0.28978 0.41715
# Poissons Ratio (y) = 0.66205 0.25904
# Poissons Ratio (z) = 0.51464 0.13988
#
# Static dielectric constant tensor:
#      x y z
#    x 1.597770 0.000000 -0.017160 
#    y 0.000000 1.610980 0.000000 
#    z -0.017160 0.000000 1.557960 
# 
# From -- ./inp_files/243804.got.cif
#   From: 2010.05.17/outbox.cif.g08.bks.cpg/sg12_122_cif.got.tgz:243804.got - 2010.06.03 13:09:07.
