data_PCOD9183673
_publ_section_title
;
Structure prediction by ZEFSAII (Michael W. Deem and Ramdas Pophale) SiO2 
 PCOD9183673
Probable space group: C 2/M
;
_chemical_formula_sum "Si O2"
_cell_formula_units_Z 48
_cell_length_a 18.130974
_cell_length_b 26.752060
_cell_length_c 9.064532
_cell_angle_alpha 90.000000
_cell_angle_beta 145.514888
_cell_angle_gamma 90.000000
_cell_volume 2489.359021
_symmetry_space_group_name_H-M "C 2/M"
_symmetry_group_IT_number 12
_symmetry_cell_setting 'monoclinic'
loop_
_space_group_symop_operation_xyz
x,y,z
-x,y,-z
-x,-y,-z
x,-y,z
1/2+x,1/2+y,z
1/2-x,1/2+y,-z
1/2-x,1/2-y,-z
1/2+x,1/2-y,z
loop_
_atom_site_type_symbol
_atom_site_label
_atom_site_fract_x
_atom_site_fract_y
_atom_site_fract_z
Si Si1 0.857671 0.000000 0.839079
Si Si2 0.858030 0.000000 0.192595
Si Si3 0.746960 0.299910 0.805287
Si Si4 0.358927 0.391337 0.842280
Si Si5 0.693149 0.193819 0.419209
Si Si6 0.643544 0.390745 0.809456
Si Si7 0.996397 0.270860 0.655587
O O1 0.796972 0.054067 0.702605
O O2 0.000000 0.000000 0.000000
O O3 0.874767 0.000000 0.043715
O O4 0.798790 0.945906 0.133018
O O5 0.000000 0.000000 0.500000
O O6 0.805014 0.321298 0.748338
O O7 0.726003 0.345227 0.882157
O O8 0.606096 0.274452 0.541115
O O9 0.854934 0.261386 0.048335
O O10 0.283383 0.344460 0.654172
O O11 0.500000 0.390786 0.000000
O O12 0.369701 0.387018 0.036272
O O13 0.750000 0.250000 0.500000
O O14 0.566339 0.199099 0.311950
O O15 0.500000 0.387979 0.500000
O O16 0.000000 0.296325 0.500000
#
# Coordination Sequence:
#
# PCOD9183673 Si02
#       7
#     4   4   8   8   8   8   8
#     4   8  16  30  52  79 110 147 190 237 285 339
#     4   8  16  30  50  79 114 145 184 235 289 339
#     4  11  23  39  58  83 115 152 192 236 285 340
#     4  10  19  34  55  83 116 152 193 239 290 343
#     4  10  23  37  53  78 112 152 190 233 282 337
#     4  10  19  33  55  84 115 151 191 238 289 342
#     4  11  23  39  58  81 112 152 195 237 279 336
#
# _framework density 19.282071999999999
#
# number of rings (size 3 to 8) (size 9 to 14) (size 15 to 20)
#    0.000    2.000    0.000    3.500    0.000   12.000 
#    0.000    0.000    0.000    1.000    0.000    7.000 
#    0.000    1.333    0.000    0.000    0.000    0.000 
#
# Total GULP energy -133680.628617 kJ/mol
# GULP energy per Si atom -5570.026192 kJ/mol
# Density = 1.923819 g / cm^3
# Si number density = 19.282072 Si / 1000 Ang^3
#
#
#
# Elastic Constant Matrix: (Units=GPa)
#
#
# Indices 1 2 3 4 5 6 
#
# 1 125.2458 41.4711 24.1769 0.0000 -6.3232 0.0000
# 2 41.4711 138.4422 53.8294 0.0000 1.0880 0.0000
# 3 24.1769 53.8294 79.1475 0.0000 -4.7851 0.0000
# 4 0.0000 0.0000 0.0000 23.2425 0.0000 -5.0282
# 5 -6.3232 1.0880 -4.7851 0.0000 22.3747 0.0000
# 6 0.0000 0.0000 0.0000 -5.0282 0.0000 23.2219
#
#
#
# Elastic Compliance Matrix: (Units=1/GPa)
#
#
# Indices 1 2 3 4 5 6 
#
# 1 0.009082 -0.002337 -0.001036 0.000000 0.002459 0.000000
# 2 -0.002337 0.010505 -0.006586 0.000000 -0.002580 0.000000
# 3 -0.001036 -0.006586 0.017661 0.000000 0.003804 0.000000
# 4 0.000000 0.000000 0.000000 0.045139 0.000000 0.009774
# 5 0.002459 -0.002580 0.003804 0.000000 0.046327 0.000000
# 6 0.000000 0.000000 0.000000 0.009774 0.000000 0.045179
#
#
# Mechanical properties :
#
#
# Convention : Reuss Voigt Hill
#
# Bulk Modulus (GPa) = 57.70941 64.64337 61.17639
# Shear Modulus (GPa) = 25.05156 28.65835 26.85495
#
# Velocity S-wave (km/s) = 3.60837 3.85940 3.73599
# Velocity P-wave (km/s) = 6.88146 7.31149 7.09973
#
# Compressibility (1/GPa) = 0.01732820
#
# Stress axis : x y z
#
# Youngs Moduli (GPa) = 110.10418 95.19717 56.62300
#
# Poissons Ratio (x) = 0.22248 0.05867
# Poissons Ratio (y) = 0.25732 0.37294
# Poissons Ratio (z) = 0.11409 0.62700
#
# Static dielectric constant tensor:
#      x y z
#    x 1.719210 0.000000 0.059630 
#    y 0.000000 1.740100 0.000000 
#    z 0.059630 0.000000 2.048640 
# 
# From -- ./inp_files/80884.got.cif
#   From: 2010.05.17/outbox.cif.g08.bks.cpg/sg12_41_cif.got.tgz:80884.got - 2010.06.03 13:09:07.
