data_PCOD9183715
_publ_section_title
;
Structure prediction by ZEFSAII (Michael W. Deem and Ramdas Pophale) SiO2 
 PCOD9183715
Probable space group: C 2/M
;
_chemical_formula_sum "Si O2"
_cell_formula_units_Z 56
_cell_length_a 26.098567
_cell_length_b 8.981882
_cell_length_c 14.801727
_cell_angle_alpha 90.000000
_cell_angle_beta 124.482248
_cell_angle_gamma 90.000000
_cell_volume 2860.108842
_symmetry_space_group_name_H-M "C 2/M"
_symmetry_group_IT_number 12
_symmetry_cell_setting 'monoclinic'
loop_
_space_group_symop_operation_xyz
x,y,z
-x,y,-z
-x,-y,-z
x,-y,z
1/2+x,1/2+y,z
1/2-x,1/2+y,-z
1/2-x,1/2-y,-z
1/2+x,1/2-y,z
loop_
_atom_site_type_symbol
_atom_site_label
_atom_site_fract_x
_atom_site_fract_y
_atom_site_fract_z
Si Si1 0.640181 0.824577 0.666195
Si Si2 0.882630 0.173722 0.734286
Si Si3 0.759570 0.176330 0.912468
Si Si4 0.532410 0.325324 0.882687
Si Si5 0.132963 0.676578 0.098529
Si Si6 0.394056 0.677822 0.544438
Si Si7 0.529460 0.178799 0.689955
O O1 0.697838 0.804001 0.790600
O O2 0.645200 0.730715 0.580059
O O3 0.577766 0.784064 0.658997
O O4 0.636116 0.000000 0.638985
O O5 0.855555 0.270988 0.787641
O O6 0.866496 0.217288 0.615413
O O7 0.957844 0.186414 0.814220
O O8 0.866657 0.000000 0.732781
O O9 0.815800 0.253301 0.915995
O O10 0.771140 0.000000 0.933665
O O11 0.750000 0.250000 0.000000
O O12 0.548347 0.500000 0.899089
O O13 0.551027 0.250068 0.806262
O O14 0.567761 0.243554 0.998382
O O15 0.132443 0.500000 0.091346
O O16 0.403345 0.500000 0.553986
O O17 0.461168 0.756800 0.602924
O O18 0.526983 0.000000 0.696098
#
# Coordination Sequence:
#
# PCOD9183715 Si02
#       7
#     8   8   8   8   8   8   8
#     4  10  22  38  57  82 112 149 190 233 282 332
#     4   9  20  38  57  82 115 149 187 233 285 337
#     4  11  24  43  64  86 115 149 188 236 285 334
#     4  10  20  35  57  85 117 152 189 234 288 341
#     4  12  24  37  57  85 114 150 194 234 282 342
#     4  10  21  36  57  85 116 150 188 230 280 339
#     4  10  19  33  55  85 120 151 185 232 282 338
#
# _framework density 19.579675999999999
#
# number of rings (size 3 to 8) (size 9 to 14) (size 15 to 20)
#    0.000    1.714    0.000    5.571    0.000   10.286 
#    0.000    0.714    0.000    0.000    0.000    0.000 
#    0.000    0.000    0.000    0.000    0.000    0.000 
#
# Total GULP energy -156528.328801 kJ/mol
# GULP energy per Si atom -5590.297457 kJ/mol
# Density = 1.953511 g / cm^3
# Si number density = 19.579676 Si / 1000 Ang^3
#
#
#
# Elastic Constant Matrix: (Units=GPa)
#
#
# Indices 1 2 3 4 5 6 
#
# 1 64.0417 48.7633 35.9304 0.0000 -30.9378 0.0000
# 2 48.7633 113.1759 62.9265 0.0000 -27.4880 0.0000
# 3 35.9304 62.9265 94.9781 0.0000 -38.6598 0.0000
# 4 0.0000 0.0000 0.0000 37.5018 0.0000 -6.1393
# 5 -30.9378 -27.4880 -38.6598 0.0000 29.7738 0.0000
# 6 0.0000 0.0000 0.0000 -6.1393 0.0000 26.9429
#
#
#
# Elastic Compliance Matrix: (Units=1/GPa)
#
#
# Indices 1 2 3 4 5 6 
#
# 1 0.041308 -0.013210 0.011946 0.000000 0.046239 0.000000
# 2 -0.013210 0.018262 -0.012358 0.000000 -0.012912 0.000000
# 3 0.011946 -0.012358 0.030978 0.000000 0.041228 0.000000
# 4 0.000000 0.000000 0.000000 0.027699 0.000000 0.006312
# 5 0.046239 -0.012912 0.041228 0.000000 0.123244 0.000000
# 6 0.000000 0.000000 0.000000 0.006312 0.000000 0.038554
#
#
# Mechanical properties :
#
#
# Convention : Reuss Voigt Hill
#
# Bulk Modulus (GPa) = 15.79643 63.04845 39.42244
# Shear Modulus (GPa) = 15.22575 27.14874 21.18724
#
# Velocity S-wave (km/s) = 2.79163 3.72772 3.29310
# Velocity P-wave (km/s) = 4.29839 7.12732 5.88536
#
# Compressibility (1/GPa) = 0.06330545
#
# Stress axis : x y z
#
# Youngs Moduli (GPa) = 24.20819 54.75714 32.28056
#
# Poissons Ratio (x) = 0.72333 -0.38562
# Poissons Ratio (y) = 0.31979 0.39892
# Poissons Ratio (z) = -0.28919 0.67668
#
# Static dielectric constant tensor:
#      x y z
#    x 1.675380 0.000000 0.002740 
#    y 0.000000 1.650440 0.000000 
#    z 0.002740 0.000000 1.709210 
# 
# From -- ./inp_files/238885.got.cif
#   From: 2010.05.17/outbox.cif.g08.bks.cpg/sg12_120_cif.got.tgz:238885.got - 2010.06.03 13:09:07.
