data_PCOD9183827
_publ_section_title
;
Structure prediction by ZEFSAII (Michael W. Deem and Ramdas Pophale) SiO2 
 PCOD9183827
Probable space group: C 2/M
;
_chemical_formula_sum "Si O2"
_cell_formula_units_Z 56
_cell_length_a 16.194331
_cell_length_b 7.974989
_cell_length_c 21.465756
_cell_angle_alpha 90.000000
_cell_angle_beta 127.613382
_cell_angle_gamma 90.000000
_cell_volume 2196.064737
_symmetry_space_group_name_H-M "C 2/M"
_symmetry_group_IT_number 12
_symmetry_cell_setting 'monoclinic'
loop_
_space_group_symop_operation_xyz
x,y,z
-x,y,-z
-x,-y,-z
x,-y,z
1/2+x,1/2+y,z
1/2-x,1/2+y,-z
1/2-x,1/2-y,-z
1/2+x,1/2-y,z
loop_
_atom_site_type_symbol
_atom_site_label
_atom_site_fract_x
_atom_site_fract_y
_atom_site_fract_z
Si Si1 0.629066 0.298603 0.954126
Si Si2 0.343520 0.696053 0.763142
Si Si3 0.869259 0.193610 0.180012
Si Si4 0.861594 0.804103 0.906562
Si Si5 0.135255 0.202463 0.621563
Si Si6 0.890565 0.799657 0.527803
Si Si7 0.568372 0.810622 0.325658
O O1 0.620129 0.500000 0.954476
O O2 0.598079 0.233463 0.008493
O O3 0.750000 0.250000 0.000000
O O4 0.583935 0.250372 0.865883
O O5 0.373167 0.500000 0.771762
O O6 0.384715 0.765290 0.848293
O O7 0.218117 0.713130 0.704765
O O8 0.374387 0.785240 0.713490
O O9 0.764406 0.293777 0.145286
O O10 0.962966 0.202979 0.271740
O O11 0.835981 0.000000 0.159100
O O12 0.890923 0.000000 0.916974
O O13 0.154091 0.260167 0.558666
O O14 0.014775 0.237642 0.580084
O O15 0.148165 0.000000 0.630478
O O16 0.861787 0.729093 0.581989
O O17 0.877571 0.000000 0.523322
O O18 0.532865 0.000000 0.314410
#
# Coordination Sequence:
#
# PCOD9183827 Si02
#       7
#     8   8   8   8   8   8   8
#     4   8  15  29  51  79 107 135 171 216 263 311
#     4  11  23  37  54  77 108 145 181 219 263 313
#     4  10  19  33  56  82 108 140 176 217 267 319
#     4   9  18  34  56  82 109 138 177 221 263 311
#     4   9  19  37  61  86 110 137 170 213 263 314
#     4   9  19  38  62  85 109 137 172 214 261 315
#     4  12  25  38  53  75 107 145 182 222 265 312
#
# _framework density 25.500157999999999
#
# number of rings (size 3 to 8) (size 9 to 14) (size 15 to 20)
#    0.000    2.286    0.000    3.857    0.000    5.714 
#    0.000    2.143    0.000    4.286    0.000    0.000 
#    0.000    0.000    0.000    0.000    0.000    0.000 
#
# Total GULP energy -156520.519207 kJ/mol
# GULP energy per Si atom -5590.018543 kJ/mol
# Density = 2.544212 g / cm^3
# Si number density = 25.500158 Si / 1000 Ang^3
#
#
#
# Elastic Constant Matrix: (Units=GPa)
#
#
# Indices 1 2 3 4 5 6 
#
# 1 86.7216 4.0075 27.2478 0.0000 -25.3549 0.0000
# 2 4.0075 41.4232 7.1165 0.0000 -3.4101 0.0000
# 3 27.2478 7.1165 194.0181 0.0000 -34.9153 0.0000
# 4 0.0000 0.0000 0.0000 14.3151 0.0000 -0.9078
# 5 -25.3549 -3.4101 -34.9153 0.0000 57.9631 0.0000
# 6 0.0000 0.0000 0.0000 -0.9078 0.0000 13.0446
#
#
#
# Elastic Compliance Matrix: (Units=1/GPa)
#
#
# Indices 1 2 3 4 5 6 
#
# 1 0.013389 -0.000706 -0.000906 0.000000 0.005269 0.000000
# 2 -0.000706 0.024383 -0.000665 0.000000 0.000725 0.000000
# 3 -0.000906 -0.000665 0.005863 0.000000 0.003096 0.000000
# 4 0.000000 0.000000 0.000000 0.070166 0.000000 0.004883
# 5 0.005269 0.000725 0.003096 0.000000 0.021465 0.000000
# 6 0.000000 0.000000 0.000000 0.004883 0.000000 0.077000
#
#
# Mechanical properties :
#
#
# Convention : Reuss Voigt Hill
#
# Bulk Modulus (GPa) = 25.58733 44.32297 34.95515
# Shear Modulus (GPa) = 21.75358 35.98395 28.86877
#
# Velocity S-wave (km/s) = 2.92392 3.76057 3.36832
# Velocity P-wave (km/s) = 4.63196 6.02288 5.37262
#
# Compressibility (1/GPa) = 0.03908185
#
# Stress axis : x y z
#
# Youngs Moduli (GPa) = 74.68742 41.01177 170.56131
#
# Poissons Ratio (x) = 0.02895 0.15456
# Poissons Ratio (y) = 0.05272 0.11337
# Poissons Ratio (z) = 0.06768 0.02726
#
# Static dielectric constant tensor:
#      x y z
#    x 2.108000 0.000000 -0.031440 
#    y 0.000000 1.922940 0.000000 
#    z -0.031440 0.000000 2.031020 
# 
# From -- ./inp_files/314409.got.cif
#   From: 2010.05.17/outbox.cif.g08.bks.cpg/sg12_158_cif.got.tgz:314409.got - 2010.06.03 13:09:07.
