data_PCOD9183713
_publ_section_title
;
Structure prediction by ZEFSAII (Michael W. Deem and Ramdas Pophale) SiO2 
 PCOD9183713
Probable space group: C 2/M
;
_chemical_formula_sum "Si O2"
_cell_formula_units_Z 64
_cell_length_a 15.542776
_cell_length_b 8.580211
_cell_length_c 30.089755
_cell_angle_alpha 90.000000
_cell_angle_beta 54.052328
_cell_angle_gamma 90.000000
_cell_volume 3248.558941
_symmetry_space_group_name_H-M "C 2/M"
_symmetry_group_IT_number 12
_symmetry_cell_setting 'monoclinic'
loop_
_space_group_symop_operation_xyz
x,y,z
-x,y,-z
-x,-y,-z
x,-y,z
1/2+x,1/2+y,z
1/2-x,1/2+y,-z
1/2-x,1/2-y,-z
1/2+x,1/2-y,z
loop_
_atom_site_type_symbol
_atom_site_label
_atom_site_fract_x
_atom_site_fract_y
_atom_site_fract_z
Si Si1 0.283700 0.186810 0.862344
Si Si2 0.323818 0.816801 0.315670
Si Si3 0.447817 0.314278 0.741689
Si Si4 0.156059 0.187383 0.059889
Si Si5 0.081204 0.182661 0.542775
Si Si6 0.392095 0.309716 0.659471
Si Si7 0.459020 0.689741 0.061071
Si Si8 0.753521 0.679254 0.570475
O O1 0.358134 0.242151 0.799983
O O2 0.327282 0.250843 0.895728
O O3 0.161476 0.241100 0.894262
O O4 0.283472 0.000000 0.864311
O O5 0.435116 0.730489 0.277311
O O6 0.228979 0.762652 0.312237
O O7 0.279216 0.786506 0.378713
O O8 0.341335 0.000000 0.303578
O O9 0.436741 0.500000 0.745371
O O10 0.434311 0.259905 0.694707
O O11 0.044240 0.238048 0.072122
O O12 0.159695 0.000000 0.058778
O O13 0.250000 0.250000 0.000000
O O14 0.136005 0.272627 0.485885
O O15 0.163692 0.191780 0.559278
O O16 0.970034 0.242381 0.596154
O O17 0.071466 0.000000 0.533625
O O18 0.396263 0.500000 0.657066
O O19 0.458474 0.500000 0.060702
O O20 0.500000 0.740162 0.000000
O O21 0.755045 0.500000 0.584993
#
# Coordination Sequence:
#
# PCOD9183713 Si02
#       8
#     8   8   8   8   8   8   8   8
#     4  11  23  41  63  90 121 158 201 245 294 350
#     4  11  22  38  62  89 115 153 200 245 297 356
#     4  11  23  44  64  84 118 156 197 247 299 349
#     4  11  21  37  62  93 126 162 198 239 290 345
#     4   9  17  34  57  81 112 153 196 239 295 357
#     4   9  20  39  62  84 113 155 199 244 295 355
#     4   9  18  36  61  88 123 161 194 236 289 344
#     4  10  19  33  55  85 119 153 192 242 298 354
#
# _framework density 19.701044
#
# number of rings (size 3 to 8) (size 9 to 14) (size 15 to 20)
#    0.000    1.875    2.500    1.875    0.000    2.000 
#    0.000   11.875    0.000    0.000    0.000    0.000 
#    0.000    0.000    0.000    0.000    0.000    0.000 
#
# Total GULP energy -178781.634232 kJ/mol
# GULP energy per Si atom -5586.926070 kJ/mol
# Density = 1.965620 g / cm^3
# Si number density = 19.701044 Si / 1000 Ang^3
#
#
#
# Elastic Constant Matrix: (Units=GPa)
#
#
# Indices 1 2 3 4 5 6 
#
# 1 114.7583 19.5738 44.8113 0.0000 -31.9497 -0.0001
# 2 19.5738 33.2575 9.6762 0.0000 -4.0574 -0.0001
# 3 44.8113 9.6762 111.0006 0.0000 -29.1477 0.0000
# 4 0.0000 0.0000 0.0000 32.2019 0.0000 1.6074
# 5 -31.9497 -4.0574 -29.1477 0.0000 25.8011 0.0000
# 6 -0.0001 -0.0001 0.0000 1.6074 0.0000 18.2632
#
#
#
# Elastic Compliance Matrix: (Units=1/GPa)
#
#
# Indices 1 2 3 4 5 6 
#
# 1 0.014670 -0.006352 -0.001224 0.000000 0.015784 0.000000
# 2 -0.006352 0.033723 -0.001490 0.000000 -0.004247 0.000000
# 3 -0.001224 -0.001490 0.013043 0.000000 0.012985 0.000000
# 4 0.000000 0.000000 0.000000 0.031191 0.000000 -0.002745
# 5 0.015784 -0.004247 0.012985 0.000000 0.072305 0.000000
# 6 0.000000 0.000000 0.000000 -0.002745 0.000000 0.054997
#
#
# Mechanical properties :
#
#
# Convention : Reuss Voigt Hill
#
# Bulk Modulus (GPa) = 23.09348 45.23767 34.16557
# Shear Modulus (GPa) = 19.80243 27.58357 23.69300
#
# Velocity S-wave (km/s) = 3.17384 3.74586 3.47165
# Velocity P-wave (km/s) = 5.01781 6.45914 5.78355
#
# Compressibility (1/GPa) = 0.04330226
#
# Stress axis : x y z
#
# Youngs Moduli (GPa) = 68.16733 29.65374 76.67227
#
# Poissons Ratio (x) = 0.18837 0.09382
# Poissons Ratio (y) = 0.43301 0.11427
# Poissons Ratio (z) = 0.08341 0.04420
#
# Static dielectric constant tensor:
#      x y z
#    x 1.707330 0.000000 -0.011650 
#    y 0.000000 1.670170 0.000000 
#    z -0.011650 0.000000 1.631630 
# 
# From -- ./inp_files/375508.got.cif
#   From: 2010.05.17/outbox.cif.g08.bks.cpg/sg12_188_cif.got.tgz:375508.got - 2010.06.03 13:09:07.
