data_PCOD9183994
_publ_section_title
;
Structure prediction by ZEFSAII (Michael W. Deem and Ramdas Pophale) SiO2 
 PCOD9183994
Probable space group: C 2/M
;
_chemical_formula_sum "Si O2"
_cell_formula_units_Z 64
_cell_length_a 20.803912
_cell_length_b 8.900796
_cell_length_c 32.987212
_cell_angle_alpha 90.000000
_cell_angle_beta 36.601847
_cell_angle_gamma 90.000000
_cell_volume 3642.071007
_symmetry_space_group_name_H-M "C 2/M"
_symmetry_group_IT_number 12
_symmetry_cell_setting 'monoclinic'
loop_
_space_group_symop_operation_xyz
x,y,z
-x,y,-z
-x,-y,-z
x,-y,z
1/2+x,1/2+y,z
1/2-x,1/2+y,-z
1/2-x,1/2-y,-z
1/2+x,1/2-y,z
loop_
_atom_site_type_symbol
_atom_site_label
_atom_site_fract_x
_atom_site_fract_y
_atom_site_fract_z
Si Si1 0.746491 0.320525 0.064607
Si Si2 0.848152 0.320075 0.719164
Si Si3 0.377554 0.319750 0.792120
Si Si4 0.761727 0.678668 0.428538
Si Si5 0.913802 0.320498 0.428599
Si Si6 0.423046 0.678437 0.921434
Si Si7 0.115630 0.179346 0.706432
Si Si8 0.360042 0.179043 0.217264
O O1 0.765709 0.500000 0.053305
O O2 0.706080 0.280469 0.129800
O O3 0.649275 0.289387 0.082101
O O4 0.850693 0.234775 0.995422
O O5 0.837173 0.500000 0.723417
O O6 0.855796 0.265261 0.761595
O O7 0.747892 0.243301 0.748129
O O8 0.961685 0.280119 0.640245
O O9 0.371766 0.500000 0.788405
O O10 0.497346 0.286074 0.748083
O O11 0.760679 0.500000 0.422729
O O12 0.850429 0.712915 0.418692
O O13 0.649231 0.735200 0.504078
O O14 0.797532 0.762500 0.369888
O O15 0.905106 0.500000 0.439566
O O16 0.440205 0.500000 0.914567
O O17 0.535764 0.762057 0.859878
O O18 0.129410 0.257924 0.742556
O O19 0.122790 0.000000 0.708010
O O20 0.358445 0.000000 0.218387
#
# Coordination Sequence:
#
# PCOD9183994 Si02
#       8
#     8   8   8   8   8   8   8   8
#     4   9  18  34  56  86 118 149 188 236 286 339
#     4  11  23  40  60  84 118 154 194 238 288 347
#     4  10  20  36  59  87 118 150 191 237 286 340
#     4  10  19  33  56  88 118 148 190 239 286 338
#     4   9  19  35  55  83 116 153 190 232 288 343
#     4  10  19  35  57  85 117 152 191 234 289 342
#     4  11  21  37  60  87 118 152 192 240 288 338
#     4  12  25  40  59  84 117 156 196 237 289 346
#
# _framework density 17.572420000000001
#
# number of rings (size 3 to 8) (size 9 to 14) (size 15 to 20)
#    0.000    1.750    2.500    2.625    0.000    3.000 
#    0.000    1.250    0.000    7.500    0.000    0.000 
#    0.000    0.000    0.000    0.000    0.000    0.000 
#
# Total GULP energy -178746.302553 kJ/mol
# GULP energy per Si atom -5585.821955 kJ/mol
# Density = 1.753242 g / cm^3
# Si number density = 17.572420 Si / 1000 Ang^3
#
#
#
# Elastic Constant Matrix: (Units=GPa)
#
#
# Indices 1 2 3 4 5 6 
#
# 1 89.0957 60.6273 70.6764 0.0040 -10.9316 0.0104
# 2 60.6273 79.2364 74.3399 0.0070 -7.8254 0.0008
# 3 70.6764 74.3399 158.5541 -0.0030 -6.0698 0.0007
# 4 0.0040 0.0070 -0.0030 33.2212 -0.0003 3.6004
# 5 -10.9316 -7.8254 -6.0698 -0.0003 22.2996 0.0005
# 6 0.0104 0.0008 0.0007 3.6004 0.0005 28.3165
#
#
#
# Elastic Compliance Matrix: (Units=1/GPa)
#
#
# Indices 1 2 3 4 5 6 
#
# 1 0.025423 -0.015065 -0.004036 0.000001 0.006077 -0.000009
# 2 -0.015065 0.032045 -0.008247 -0.000006 0.001615 0.000006
# 3 -0.004036 -0.008247 0.011911 0.000003 -0.001631 0.000001
# 4 0.000001 -0.000006 0.000003 0.030522 0.000000 -0.003881
# 5 0.006077 0.001615 -0.001631 0.000000 0.047946 -0.000003
# 6 -0.000009 0.000006 0.000001 -0.003881 -0.000003 0.035809
#
#
# Mechanical properties :
#
#
# Convention : Reuss Voigt Hill
#
# Bulk Modulus (GPa) = 68.11666 82.01926 75.06796
# Shear Modulus (GPa) = 20.55543 24.85031 22.70287
#
# Velocity S-wave (km/s) = 3.42388 3.76462 3.59828
# Velocity P-wave (km/s) = 7.38093 8.10388 7.75084
#
# Compressibility (1/GPa) = 0.01468070
#
# Stress axis : x y z
#
# Youngs Moduli (GPa) = 39.33493 31.20660 83.95889
#
# Poissons Ratio (x) = 0.47013 0.33888
# Poissons Ratio (y) = 0.59258 0.69243
# Poissons Ratio (z) = 0.15877 0.25737
#
# Static dielectric constant tensor:
#      x y z
#    x 1.570580 0.000000 -0.002030 
#    y 0.000000 1.583530 0.000000 
#    z -0.002030 0.000000 1.589140 
# 
# From -- ./inp_files/378027.got.cif
#   From: 2010.05.17/outbox.cif.g08.bks.cpg/sg12_190_cif.got.tgz:378027.got - 2010.06.03 13:09:07.
