data_PCOD9183599
_publ_section_title
;
Structure prediction by ZEFSAII (Michael W. Deem and Ramdas Pophale) SiO2 
 PCOD9183599
Probable space group: C 2/M
;
_chemical_formula_sum "Si O2"
_cell_formula_units_Z 48
_cell_length_a 16.430604
_cell_length_b 8.689464
_cell_length_c 14.948764
_cell_angle_alpha 90.000000
_cell_angle_beta 77.843772
_cell_angle_gamma 90.000000
_cell_volume 2086.425114
_symmetry_space_group_name_H-M "C 2/M"
_symmetry_group_IT_number 12
_symmetry_cell_setting 'monoclinic'
loop_
_space_group_symop_operation_xyz
x,y,z
-x,y,-z
-x,-y,-z
x,-y,z
1/2+x,1/2+y,z
1/2-x,1/2+y,-z
1/2-x,1/2-y,-z
1/2+x,1/2-y,z
loop_
_atom_site_type_symbol
_atom_site_label
_atom_site_fract_x
_atom_site_fract_y
_atom_site_fract_z
Si Si1 0.406840 0.181783 0.616688
Si Si2 0.340252 0.815128 0.451753
Si Si3 0.661975 0.815968 0.051196
Si Si4 0.542606 0.681005 0.217987
Si Si5 0.769228 0.316984 0.287070
Si Si6 0.094021 0.317426 0.880270
O O1 0.404257 0.238671 0.513792
O O2 0.464125 0.253313 0.680120
O O3 0.312754 0.219944 0.672636
O O4 0.422920 0.000000 0.612669
O O5 0.250000 0.750000 0.500000
O O6 0.339392 0.781103 0.346677
O O7 0.340030 0.000000 0.459542
O O8 0.624997 0.746486 0.150062
O O9 0.666817 0.000000 0.057786
O O10 0.750000 0.750000 0.000000
O O11 0.599135 0.779199 0.983414
O O12 0.549162 0.500000 0.223141
O O13 0.469824 0.728688 0.167252
O O14 0.748300 0.500000 0.299358
O O15 0.814312 0.291135 0.182986
O O16 0.075648 0.500000 0.875833
#
# Coordination Sequence:
#
# PCOD9183599 Si02
#       6
#     8   8   8   8   8   8
#     4  10  19  33  55  82 112 146 186 230 276 327
#     4   8  15  28  50  80 110 142 179 223 274 326
#     4  11  23  40  63  89 115 143 179 222 270 327
#     4  12  25  39  56  79 110 149 189 230 276 323
#     4   9  17  33  57  84 113 143 181 227 276 333
#     4  10  22  39  58  81 111 146 180 221 275 331
#
# _framework density 23.005858
#
# number of rings (size 3 to 8) (size 9 to 14) (size 15 to 20)
#    0.000    2.000    0.000    4.000    0.000    6.000 
#    0.000    0.833    0.000    5.000    0.000    0.000 
#    0.000    0.000    0.000    0.000    0.000    0.000 
#
# Total GULP energy -134118.518199 kJ/mol
# GULP energy per Si atom -5588.271592 kJ/mol
# Density = 2.295350 g / cm^3
# Si number density = 23.005858 Si / 1000 Ang^3
#
#
#
# Elastic Constant Matrix: (Units=GPa)
#
#
# Indices 1 2 3 4 5 6 
#
# 1 76.6962 18.8850 5.7744 0.0000 21.0975 0.0000
# 2 18.8850 44.1165 32.9681 0.0000 16.1463 0.0000
# 3 5.7744 32.9681 133.9715 0.0000 22.7970 0.0000
# 4 0.0000 0.0000 0.0000 19.5371 0.0000 7.2785
# 5 21.0975 16.1463 22.7970 0.0000 42.0963 0.0000
# 6 0.0000 0.0000 0.0000 7.2785 0.0000 25.8582
#
#
#
# Elastic Compliance Matrix: (Units=1/GPa)
#
#
# Indices 1 2 3 4 5 6 
#
# 1 0.016242 -0.005849 0.001919 0.000000 -0.006936 0.000000
# 2 -0.005849 0.032319 -0.006709 0.000000 -0.005832 0.000000
# 3 0.001919 -0.006709 0.009647 0.000000 -0.003613 0.000000
# 4 0.000000 0.000000 0.000000 0.057181 0.000000 -0.016095
# 5 -0.006936 -0.005832 -0.003613 0.000000 0.031425 0.000000
# 6 0.000000 0.000000 0.000000 -0.016095 0.000000 0.043203
#
#
# Mechanical properties :
#
#
# Convention : Reuss Voigt Hill
#
# Bulk Modulus (GPa) = 27.07635 41.11547 34.09591
# Shear Modulus (GPa) = 22.36107 30.64210 26.50158
#
# Velocity S-wave (km/s) = 3.12103 3.65352 3.39772
# Velocity P-wave (km/s) = 4.97822 5.97563 5.49958
#
# Compressibility (1/GPa) = 0.03693260
#
# Stress axis : x y z
#
# Youngs Moduli (GPa) = 61.56848 30.94192 103.65642
#
# Poissons Ratio (x) = 0.18096 -0.19896
# Poissons Ratio (y) = 0.36009 0.69539
# Poissons Ratio (z) = -0.11818 0.20758
#
# Static dielectric constant tensor:
#      x y z
#    x 1.911520 0.000000 0.037660 
#    y 0.000000 1.766630 0.000000 
#    z 0.037660 0.000000 1.868510 
# 
# From -- ./inp_files/221625.got.cif
#   From: 2010.05.17/outbox.cif.g08.bks.cpg/sg12_111_cif.got.tgz:221625.got - 2010.06.03 13:09:07.
