data_PCOD9183871
_publ_section_title
;
Structure prediction by ZEFSAII (Michael W. Deem and Ramdas Pophale) SiO2 
 PCOD9183871
Probable space group: C 2/M
;
_chemical_formula_sum "Si O2"
_cell_formula_units_Z 64
_cell_length_a 25.063604
_cell_length_b 8.863688
_cell_length_c 20.451510
_cell_angle_alpha 90.000000
_cell_angle_beta 126.016825
_cell_angle_gamma 90.000000
_cell_volume 3674.923633
_symmetry_space_group_name_H-M "C 2/M"
_symmetry_group_IT_number 12
_symmetry_cell_setting 'monoclinic'
loop_
_space_group_symop_operation_xyz
x,y,z
-x,y,-z
-x,-y,-z
x,-y,z
1/2+x,1/2+y,z
1/2-x,1/2+y,-z
1/2-x,1/2-y,-z
1/2+x,1/2-y,z
loop_
_atom_site_type_symbol
_atom_site_label
_atom_site_fract_x
_atom_site_fract_y
_atom_site_fract_z
Si Si1 0.178842 0.319519 0.965751
Si Si2 0.157449 0.679698 0.737312
Si Si3 0.297535 0.820416 0.871711
Si Si4 0.924346 0.819270 0.209897
Si Si5 0.803689 0.680593 0.379673
Si Si6 0.162559 0.679843 0.242686
Si Si7 0.425910 0.681296 0.714757
Si Si8 0.319562 0.680818 0.527209
O O1 0.180765 0.500000 0.957887
O O2 0.124042 0.248837 0.879652
O O3 0.250000 0.250000 0.000000
O O4 0.167745 0.287065 0.034676
O O5 0.152467 0.500000 0.740618
O O6 0.228192 0.733850 0.816245
O O7 0.101278 0.758760 0.739053
O O8 0.159280 0.717196 0.661506
O O9 0.338438 0.786596 0.835583
O O10 0.282575 0.000000 0.860270
O O11 0.999618 0.775899 0.249260
O O12 0.919219 0.000000 0.205358
O O13 0.800992 0.500000 0.384867
O O14 0.729268 0.743010 0.317859
O O15 0.833987 0.755025 0.465733
O O16 0.168021 0.500000 0.254969
O O17 0.101629 0.742194 0.239739
O O18 0.423328 0.500000 0.720794
O O19 0.375862 0.721379 0.619989
O O20 0.313882 0.500000 0.520825
O O21 0.250000 0.750000 0.500000
#
# Coordination Sequence:
#
# PCOD9183871 Si02
#       8
#     8   8   8   8   8   8   8   8
#     4  11  21  35  57  85 114 145 185 233 277 327
#     4  10  20  34  55  82 111 145 184 228 278 329
#     4   9  19  34  54  82 113 142 179 228 278 327
#     4  11  23  39  57  79 112 152 188 229 279 335
#     4  10  20  34  54  83 115 143 179 230 281 331
#     4  10  19  33  56  83 109 144 185 226 276 329
#     4  10  23  40  56  78 113 151 186 228 281 334
#     4  11  21  35  57  84 111 144 188 235 279 329
#
# _framework density 17.415327999999999
#
# number of rings (size 3 to 8) (size 9 to 14) (size 15 to 20)
#    0.000    1.750    2.500    2.250    0.000    4.000 
#    0.000    1.250    0.000    7.500    0.000    0.000 
#    0.000    0.000    0.000    0.000    0.000    0.000 
#
# Total GULP energy -178679.555947 kJ/mol
# GULP energy per Si atom -5583.736123 kJ/mol
# Density = 1.737569 g / cm^3
# Si number density = 17.415328 Si / 1000 Ang^3
#
#
#
# Elastic Constant Matrix: (Units=GPa)
#
#
# Indices 1 2 3 4 5 6 
#
# 1 161.3425 60.5841 74.7431 0.0000 -6.3610 0.0000
# 2 60.5841 52.9381 43.9989 0.0000 -4.5410 0.0000
# 3 74.7431 43.9989 99.4974 0.0000 -6.2130 0.0000
# 4 0.0000 0.0000 0.0000 26.4220 0.0000 -3.6050
# 5 -6.3610 -4.5410 -6.2130 0.0000 28.6981 0.0000
# 6 0.0000 0.0000 0.0000 -3.6050 0.0000 30.5214
#
#
#
# Elastic Compliance Matrix: (Units=1/GPa)
#
#
# Indices 1 2 3 4 5 6 
#
# 1 0.012113 -0.009956 -0.004691 0.000000 0.000094 0.000000
# 2 -0.009956 0.038152 -0.009279 0.000000 0.001821 0.000000
# 3 -0.004691 -0.009279 0.017761 0.000000 0.001337 0.000000
# 4 0.000000 0.000000 0.000000 0.038467 0.000000 0.004543
# 5 0.000094 0.001821 0.001337 0.000000 0.035444 0.000000
# 6 0.000000 0.000000 0.000000 0.004543 0.000000 0.033301
#
#
# Mechanical properties :
#
#
# Convention : Reuss Voigt Hill
#
# Bulk Modulus (GPa) = 49.56586 74.71446 62.14016
# Shear Modulus (GPa) = 21.75673 26.09178 23.92425
#
# Velocity S-wave (km/s) = 3.53836 3.87487 3.71043
# Velocity P-wave (km/s) = 6.72430 7.93815 7.35630
#
# Compressibility (1/GPa) = 0.02017518
#
# Stress axis : x y z
#
# Youngs Moduli (GPa) = 82.55366 26.21109 56.30283
#
# Poissons Ratio (x) = 0.26095 0.26412
# Poissons Ratio (y) = 0.82189 0.52241
# Poissons Ratio (z) = 0.38727 0.24320
#
# Static dielectric constant tensor:
#      x y z
#    x 1.589450 0.000000 -0.032200 
#    y 0.000000 1.582810 0.000000 
#    z -0.032200 0.000000 1.578380 
# 
# From -- ./inp_files/324071.got.cif
#   From: 2010.05.17/outbox.cif.g08.bks.cpg/sg12_163_cif.got.tgz:324071.got - 2010.06.03 13:09:07.
