data_PCOD9183079
_publ_section_title
;
Structure prediction by ZEFSAII (Michael W. Deem and Ramdas Pophale) SiO2 
 PCOD9183079
Probable space group: C 2/M
;
_chemical_formula_sum "Si O2"
_cell_formula_units_Z 40
_cell_length_a 23.691443
_cell_length_b 8.660114
_cell_length_c 29.540588
_cell_angle_alpha 90.000000
_cell_angle_beta 157.905882
_cell_angle_gamma 90.000000
_cell_volume 2279.666111
_symmetry_space_group_name_H-M "C 2/M"
_symmetry_group_IT_number 12
_symmetry_cell_setting 'monoclinic'
loop_
_space_group_symop_operation_xyz
x,y,z
-x,y,-z
-x,-y,-z
x,-y,z
1/2+x,1/2+y,z
1/2-x,1/2+y,-z
1/2-x,1/2-y,-z
1/2+x,1/2-y,z
loop_
_atom_site_type_symbol
_atom_site_label
_atom_site_fract_x
_atom_site_fract_y
_atom_site_fract_z
Si Si1 0.881057 0.186225 0.655856
Si Si2 0.459091 0.184200 0.617137
Si Si3 0.019870 0.814335 0.944815
Si Si4 0.087922 0.186323 0.892890
Si Si5 0.730709 0.816360 0.179260
O O1 0.704367 0.225307 0.524459
O O2 0.953277 0.262595 0.665137
O O3 0.967484 0.233487 0.765367
O O4 0.892343 0.000000 0.659366
O O5 0.597568 0.264265 0.695359
O O6 0.477598 0.000000 0.628769
O O7 0.043301 0.765786 0.910431
O O8 0.863172 0.757473 0.849438
O O9 0.027226 0.000000 0.953228
O O10 0.148241 0.744376 0.072530
O O11 0.094060 0.000000 0.897222
O O12 0.250000 0.250000 0.000000
O O13 0.717861 0.000000 0.171569
#
# Coordination Sequence:
#
# PCOD9183079 Si02
#       5
#     8   8   8   8   8
#     4   9  19  35  53  76 105 134 169 210 252 300
#     4  10  19  33  54  77 102 135 172 210 251 297
#     4  10  20  35  54  77 103 132 171 211 250 301
#     4  10  21  35  53  77 104 134 165 204 254 303
#     4  11  21  34  53  76 103 135 170 210 256 300
#
# _framework density 17.546427999999999
#
# number of rings (size 3 to 8) (size 9 to 14) (size 15 to 20)
#    0.000    2.000    0.000    5.400    0.000    6.400 
#    0.000    1.000    0.000    6.000    0.000    0.000 
#    0.000    0.000    0.000    0.000    0.000    0.000 
#
# Total GULP energy -111685.175520 kJ/mol
# GULP energy per Si atom -5584.258776 kJ/mol
# Density = 1.750649 g / cm^3
# Si number density = 17.546428 Si / 1000 Ang^3
#
#
#
# Elastic Constant Matrix: (Units=GPa)
#
#
# Indices 1 2 3 4 5 6 
#
# 1 138.9681 29.6655 81.7208 -0.0001 -6.9449 0.0000
# 2 29.6655 44.6807 21.4684 -0.0001 2.3134 0.0001
# 3 81.7208 21.4684 90.2066 0.0002 4.3281 0.0000
# 4 -0.0001 -0.0001 0.0002 24.3811 0.0001 7.5825
# 5 -6.9449 2.3134 4.3281 0.0001 29.1827 0.0000
# 6 0.0000 0.0001 0.0000 7.5825 0.0000 27.6900
#
#
#
# Elastic Compliance Matrix: (Units=1/GPa)
#
#
# Indices 1 2 3 4 5 6 
#
# 1 0.017252 -0.004671 -0.014838 0.000000 0.006677 0.000000
# 2 -0.004671 0.026572 -0.001952 0.000000 -0.002928 0.000000
# 3 -0.014838 -0.001952 0.025335 0.000000 -0.007134 0.000000
# 4 0.000000 0.000000 0.000000 0.044833 0.000000 -0.012277
# 5 0.006677 -0.002928 -0.007134 0.000000 0.037146 0.000000
# 6 0.000000 0.000000 0.000000 -0.012277 0.000000 0.039476
#
#
# Mechanical properties :
#
#
# Convention : Reuss Voigt Hill
#
# Bulk Modulus (GPa) = 38.11401 59.95166 49.03284
# Shear Modulus (GPa) = 20.63722 25.65081 23.14402
#
# Velocity S-wave (km/s) = 3.43322 3.82760 3.63577
# Velocity P-wave (km/s) = 6.12250 7.33319 6.75502
#
# Compressibility (1/GPa) = 0.02623707
#
# Stress axis : x y z
#
# Youngs Moduli (GPa) = 57.96389 37.63413 39.47170
#
# Poissons Ratio (x) = 0.17578 0.58568
# Poissons Ratio (y) = 0.27073 0.07705
# Poissons Ratio (z) = 0.86006 0.07346
#
# Static dielectric constant tensor:
#      x y z
#    x 1.575010 0.000000 -0.001230 
#    y 0.000000 1.593580 0.000000 
#    z -0.001230 0.000000 1.589610 
# 
# From -- ./inp_files/162714.got.cif
#   From: 2010.05.17/outbox.cif.g08.bks.cpg/sg12_82_cif.got.tgz:162714.got - 2010.06.03 13:09:07.
