data_PCOD9183509
_publ_section_title
;
Structure prediction by ZEFSAII (Michael W. Deem and Ramdas Pophale) SiO2 
 PCOD9183509
Probable space group: C 2/M
;
_chemical_formula_sum "Si O2"
_cell_formula_units_Z 56
_cell_length_a 18.412393
_cell_length_b 8.622790
_cell_length_c 19.317274
_cell_angle_alpha 90.000000
_cell_angle_beta 75.934704
_cell_angle_gamma 90.000000
_cell_volume 2974.981731
_symmetry_space_group_name_H-M "C 2/M"
_symmetry_group_IT_number 12
_symmetry_cell_setting 'monoclinic'
loop_
_space_group_symop_operation_xyz
x,y,z
-x,y,-z
-x,-y,-z
x,-y,z
1/2+x,1/2+y,z
1/2-x,1/2+y,-z
1/2-x,1/2-y,-z
1/2+x,1/2-y,z
loop_
_atom_site_type_symbol
_atom_site_label
_atom_site_fract_x
_atom_site_fract_y
_atom_site_fract_z
Si Si1 0.873867 0.313931 0.846468
Si Si2 0.166657 0.813450 0.003854
Si Si3 0.436700 0.814069 0.570557
Si Si4 0.774669 0.815275 0.568479
Si Si5 0.843311 0.812170 0.293796
Si Si6 0.703622 0.688166 0.847650
Si Si7 0.987391 0.813937 0.706839
O O1 0.876399 0.500000 0.844702
O O2 0.790199 0.265160 0.840346
O O3 0.934503 0.245031 0.780648
O O4 0.883059 0.255298 0.923153
O O5 0.154801 0.767280 0.926409
O O6 0.166093 0.000000 0.008526
O O7 0.250000 0.750000 0.000000
O O8 0.500000 0.770052 0.500000
O O9 0.357516 0.742846 0.567576
O O10 0.460427 0.756549 0.640700
O O11 0.430162 0.000000 0.572630
O O12 0.750000 0.750000 0.500000
O O13 0.717420 0.755229 0.639806
O O14 0.773429 0.000000 0.566604
O O15 0.826341 0.758909 0.219342
O O16 0.926832 0.769131 0.297666
O O17 0.837960 0.000000 0.296541
O O18 0.703763 0.500000 0.846539
O O19 0.983309 0.000000 0.704050
#
# Coordination Sequence:
#
# PCOD9183509 Si02
#       7
#     8   8   8   8   8   8   8
#     4  10  19  33  55  80 110 149 192 239 291 346
#     4   9  16  29  51  79 110 143 186 236 287 346
#     4  11  24  42  64  88 117 153 190 231 282 339
#     4  12  25  41  63  90 119 151 190 234 282 336
#     4  10  21  39  60  83 115 152 192 237 287 342
#     4   8  16  32  55  80 105 142 187 231 283 340
#     4  11  23  37  57  85 115 150 192 239 287 339
#
# _framework density 18.823644999999999
#
# number of rings (size 3 to 8) (size 9 to 14) (size 15 to 20)
#    0.000    1.857    0.000    5.571    0.000    5.714 
#    0.000    4.286    0.000    4.286    0.000    0.000 
#    0.000    0.000    0.000    0.000    0.000    0.000 
#
# Total GULP energy -156381.425442 kJ/mol
# GULP energy per Si atom -5585.050909 kJ/mol
# Density = 1.878080 g / cm^3
# Si number density = 18.823645 Si / 1000 Ang^3
#
#
#
# Elastic Constant Matrix: (Units=GPa)
#
#
# Indices 1 2 3 4 5 6 
#
# 1 136.0698 41.8327 100.2029 0.0000 4.4263 0.0000
# 2 41.8327 48.1224 44.0068 0.0000 -1.2286 0.0000
# 3 100.2029 44.0068 212.9833 0.0000 4.6630 0.0000
# 4 0.0000 0.0000 0.0000 34.8744 0.0000 0.5691
# 5 4.4263 -1.2286 4.6630 0.0000 32.8157 0.0000
# 6 0.0000 0.0000 0.0000 0.5691 0.0000 20.0201
#
#
#
# Elastic Compliance Matrix: (Units=1/GPa)
#
#
# Indices 1 2 3 4 5 6 
#
# 1 0.012965 -0.007095 -0.004604 0.000000 -0.001360 0.000000
# 2 -0.007095 0.029601 -0.002832 0.000000 0.002468 0.000000
# 3 -0.004604 -0.002832 0.007458 0.000000 -0.000545 0.000000
# 4 0.000000 0.000000 0.000000 0.028688 0.000000 -0.000816
# 5 -0.001360 0.002468 -0.000545 0.000000 0.030826 0.000000
# 6 0.000000 0.000000 0.000000 -0.000816 0.000000 0.049973
#
#
# Mechanical properties :
#
#
# Convention : Reuss Voigt Hill
#
# Bulk Modulus (GPa) = 47.70520 85.47336 66.58928
# Shear Modulus (GPa) = 25.56747 31.61761 28.59254
#
# Velocity S-wave (km/s) = 3.68946 4.10283 3.90162
# Velocity P-wave (km/s) = 6.59907 8.24320 7.46653
#
# Compressibility (1/GPa) = 0.02096208
#
# Stress axis : x y z
#
# Youngs Moduli (GPa) = 77.13041 33.78267 134.07780
#
# Poissons Ratio (x) = 0.23969 0.61729
# Poissons Ratio (y) = 0.54724 0.37974
# Poissons Ratio (z) = 0.35510 0.09568
#
# Static dielectric constant tensor:
#      x y z
#    x 1.603790 0.000000 0.022910 
#    y 0.000000 1.637320 0.000000 
#    z 0.022910 0.000000 1.642010 
# 
# From -- ./inp_files/275184.got.cif
#   From: 2010.05.17/outbox.cif.g08.bks.cpg/sg12_138_cif.got.tgz:275184.got - 2010.06.03 13:09:07.
