data_PCOD9183285
_publ_section_title
;
Structure prediction by ZEFSAII (Michael W. Deem and Ramdas Pophale) SiO2 
 PCOD9183285
Probable space group: C 2/M
;
_chemical_formula_sum "Si O2"
_cell_formula_units_Z 56
_cell_length_a 31.991843
_cell_length_b 7.585624
_cell_length_c 12.220815
_cell_angle_alpha 90.000000
_cell_angle_beta 56.048671
_cell_angle_gamma 90.000000
_cell_volume 2460.104564
_symmetry_space_group_name_H-M "C 2/M"
_symmetry_group_IT_number 12
_symmetry_cell_setting 'monoclinic'
loop_
_space_group_symop_operation_xyz
x,y,z
-x,y,-z
-x,-y,-z
x,-y,z
1/2+x,1/2+y,z
1/2-x,1/2+y,-z
1/2-x,1/2-y,-z
1/2+x,1/2-y,z
loop_
_atom_site_type_symbol
_atom_site_label
_atom_site_fract_x
_atom_site_fract_y
_atom_site_fract_z
Si Si1 0.602251 0.786507 0.076620
Si Si2 0.382944 0.708248 0.185116
Si Si3 0.077309 0.794169 0.645134
Si Si4 0.673494 0.214443 0.357841
Si Si5 0.230385 0.211094 0.650300
Si Si6 0.808996 0.289178 0.909779
Si Si7 0.515816 0.798330 0.361257
O O1 0.657157 0.724862 0.038736
O O2 0.561578 0.721638 0.224272
O O3 0.600962 0.000000 0.077254
O O4 0.591211 0.729632 0.969546
O O5 0.377354 0.500000 0.215813
O O6 0.411583 0.778423 0.249708
O O7 0.326202 0.782595 0.256701
O O8 0.128704 0.778293 0.500592
O O9 0.032815 0.701281 0.645026
O O10 0.063052 0.000000 0.673085
O O11 0.727372 0.275284 0.326871
O O12 0.669057 0.272711 0.238780
O O13 0.672320 0.000000 0.362142
O O14 0.250000 0.250000 0.500000
O O15 0.228140 0.000000 0.668071
O O16 0.813701 0.500000 0.902957
O O17 0.750000 0.250000 0.000000
O O18 0.500000 0.715152 0.500000
O O19 0.531720 0.000000 0.363907
#
# Coordination Sequence:
#
# PCOD9183285 Si02
#       7
#     8   8   8   8   8   8   8
#     4  10  22  39  61  87 114 152 198 240 283 342
#     4  10  22  39  57  83 122 159 190 235 295 347
#     4  11  23  38  59  88 118 149 192 243 293 346
#     4  10  20  35  58  84 115 157 198 239 290 345
#     4  10  19  33  54  81 115 156 195 232 280 338
#     4  10  21  38  59  86 118 152 193 237 288 346
#     4  10  22  43  67  87 113 150 192 241 293 346
#
# _framework density 22.763259000000001
#
# number of rings (size 3 to 8) (size 9 to 14) (size 15 to 20)
#    0.000    1.857    1.429    2.143    0.000    7.714 
#    0.000    4.286    0.000    0.000    0.000    0.000 
#    0.000    0.000    0.000    0.000    0.000    0.000 
#
# Total GULP energy -156515.423270 kJ/mol
# GULP energy per Si atom -5589.836545 kJ/mol
# Density = 2.271145 g / cm^3
# Si number density = 22.763259 Si / 1000 Ang^3
#
#
#
# Elastic Constant Matrix: (Units=GPa)
#
#
# Indices 1 2 3 4 5 6 
#
# 1 116.3771 -5.7847 45.1593 0.0000 15.2625 0.0000
# 2 -5.7847 49.9676 -14.8499 0.0000 0.8261 0.0000
# 3 45.1593 -14.8499 135.4854 0.0000 18.3748 0.0000
# 4 0.0000 0.0000 0.0000 -2.6749 0.0000 5.1218
# 5 15.2625 0.8261 18.3748 0.0000 39.9609 0.0000
# 6 0.0000 0.0000 0.0000 5.1218 0.0000 10.1675
#
#
#
# Elastic Compliance Matrix: (Units=1/GPa)
#
#
# Indices 1 2 3 4 5 6 
#
# 1 0.010096 0.000320 -0.002993 0.000000 -0.002487 0.000000
# 2 0.000320 0.020790 0.002396 0.000000 -0.001654 0.000000
# 3 -0.002993 0.002396 0.009058 0.000000 -0.003071 0.000000
# 4 0.000000 0.000000 0.000000 -0.190298 0.000000 0.095861
# 5 -0.002487 -0.001654 -0.003071 0.000000 0.027421 0.000000
# 6 0.000000 0.000000 0.000000 0.095861 0.000000 0.050064
#
#
# Mechanical properties :
#
#
# Convention : Reuss Voigt Hill
#
# Bulk Modulus (GPa) = 25.38665 38.98662 32.18664
# Shear Modulus (GPa) = -84.47611 27.97774 -28.24918
#
# Velocity S-wave (km/s) = -6.09847 3.50962 -3.52660
# Velocity P-wave (km/s) = 6.19772 5.79546 1.55311
#
# Compressibility (1/GPa) = 0.03939078
#
# Stress axis : x y z
#
# Youngs Moduli (GPa) = 99.04778 48.10119 110.40468
#
# Poissons Ratio (x) = -0.01542 0.33042
# Poissons Ratio (y) = -0.03174 -0.26454
# Poissons Ratio (z) = 0.29643 -0.11526
#
# Static dielectric constant tensor:
#      x y z
#    x 1.839520 0.000000 0.002540 
#    y 0.000000 1.926130 0.000000 
#    z 0.002540 0.000000 1.817870 
# 
# From -- ./inp_files/180840.got.cif
#   From: 2010.05.17/outbox.cif.g08.bks.cpg/sg12_91_cif.got.tgz:180840.got - 2010.06.03 13:09:07.
