data_PCOD9183041
_publ_section_title
;
Structure prediction by ZEFSAII (Michael W. Deem and Ramdas Pophale) SiO2 
 PCOD9183041
Probable space group: C 2/M
;
_chemical_formula_sum "Si O2"
_cell_formula_units_Z 56
_cell_length_a 19.672596
_cell_length_b 8.214253
_cell_length_c 33.379790
_cell_angle_alpha 90.000000
_cell_angle_beta 149.122355
_cell_angle_gamma 90.000000
_cell_volume 2768.250785
_symmetry_space_group_name_H-M "C 2/M"
_symmetry_group_IT_number 12
_symmetry_cell_setting 'monoclinic'
loop_
_space_group_symop_operation_xyz
x,y,z
-x,y,-z
-x,-y,-z
x,-y,z
1/2+x,1/2+y,z
1/2-x,1/2+y,-z
1/2-x,1/2-y,-z
1/2+x,1/2-y,z
loop_
_atom_site_type_symbol
_atom_site_label
_atom_site_fract_x
_atom_site_fract_y
_atom_site_fract_z
Si Si1 0.399671 0.188623 0.074231
Si Si2 0.659693 0.800777 0.246623
Si Si3 0.653390 0.698494 0.730649
Si Si4 0.578832 0.309701 0.000857
Si Si5 0.620691 0.194384 0.314185
Si Si6 0.820348 0.807842 0.167041
Si Si7 0.848918 0.805336 0.584466
O O1 0.512236 0.259500 0.160247
O O2 0.391774 0.000000 0.079655
O O3 0.250000 0.250000 0.000000
O O4 0.449919 0.215558 0.054331
O O5 0.761917 0.744917 0.264352
O O6 0.690744 0.757080 0.308112
O O7 0.658933 0.000000 0.244174
O O8 0.653627 0.500000 0.730787
O O9 0.711556 0.746744 0.803446
O O10 0.499886 0.751138 0.651901
O O11 0.549636 0.500000 0.980044
O O12 0.732218 0.286476 0.090504
O O13 0.500000 0.249441 0.000000
O O14 0.475831 0.276042 0.240841
O O15 0.687996 0.241942 0.389992
O O16 0.602208 0.000000 0.304326
O O17 0.793169 0.000000 0.149242
O O18 0.750000 0.750000 0.500000
O O19 0.851405 0.000000 0.587245
#
# Coordination Sequence:
#
# PCOD9183041 Si02
#       7
#     8   8   8   8   8   8   8
#     4  11  22  36  55  78 108 146 187 232 282 336
#     4   9  18  33  53  77 104 136 177 222 265 315
#     4   8  16  32  54  79 103 132 176 222 262 310
#     4  11  23  36  50  73 106 142 185 238 289 332
#     4  10  19  33  56  82 108 137 169 212 266 321
#     4  10  19  33  54  76 101 138 184 229 271 324
#     4  10  20  36  59  84 110 139 173 214 258 314
#
# _framework density 20.229382000000001
#
# number of rings (size 3 to 8) (size 9 to 14) (size 15 to 20)
#    0.000    2.143    0.000    4.714    0.000    3.429 
#    0.000    2.857    0.000   17.143    0.000    0.000 
#    0.000    0.000    0.000    0.000    0.000    0.000 
#
# Total GULP energy -156349.265833 kJ/mol
# GULP energy per Si atom -5583.902351 kJ/mol
# Density = 2.018334 g / cm^3
# Si number density = 20.229382 Si / 1000 Ang^3
#
#
#
# Elastic Constant Matrix: (Units=GPa)
#
#
# Indices 1 2 3 4 5 6 
#
# 1 106.9030 8.4354 25.8357 0.0003 -24.7721 -0.0002
# 2 8.4354 25.8509 2.1182 0.0003 -0.4835 -0.0003
# 3 25.8357 2.1182 90.8400 0.0001 -24.9484 -0.0002
# 4 0.0003 0.0003 0.0001 21.5941 -0.0001 -1.2028
# 5 -24.7721 -0.4835 -24.9484 -0.0001 27.8308 0.0001
# 6 -0.0002 -0.0003 -0.0002 -1.2028 0.0001 23.0726
#
#
#
# Elastic Compliance Matrix: (Units=1/GPa)
#
#
# Indices 1 2 3 4 5 6 
#
# 1 0.012161 -0.003731 -0.000553 0.000000 0.010264 0.000000
# 2 -0.003731 0.039903 -0.000784 -0.000001 -0.003330 0.000000
# 3 -0.000553 -0.000784 0.014652 0.000000 0.012629 0.000000
# 4 0.000000 -0.000001 0.000000 0.046444 0.000000 0.002421
# 5 0.010264 -0.003330 0.012629 0.000000 0.056331 0.000000
# 6 0.000000 0.000000 0.000000 0.002421 0.000000 0.043468
#
#
# Mechanical properties :
#
#
# Convention : Reuss Voigt Hill
#
# Bulk Modulus (GPa) = 17.67395 32.93028 25.30212
# Shear Modulus (GPa) = 20.66515 26.97980 23.82248
#
# Velocity S-wave (km/s) = 3.19962 3.65594 3.43537
# Velocity P-wave (km/s) = 4.73348 5.84251 5.31699
#
# Compressibility (1/GPa) = 0.05658044
#
# Stress axis : x y z
#
# Youngs Moduli (GPa) = 82.23261 25.06092 68.24847
#
# Poissons Ratio (x) = 0.09350 0.03772
# Poissons Ratio (y) = 0.30680 0.05351
# Poissons Ratio (z) = 0.04545 0.01965
#
# Static dielectric constant tensor:
#      x y z
#    x 1.756870 0.000000 0.004080 
#    y 0.000000 1.725250 0.000000 
#    z 0.004080 0.000000 1.713200 
# 
# From -- ./inp_files/377742.got.cif
#   From: 2010.05.17/outbox.cif.g08.bks.cpg/sg12_189_cif.got.tgz:377742.got - 2010.06.03 13:09:07.
