data_PCOD9183722
_publ_section_title
;
Structure prediction by ZEFSAII (Michael W. Deem and Ramdas Pophale) SiO2 
 PCOD9183722
Probable space group: C 2/M
;
_chemical_formula_sum "Si O2"
_cell_formula_units_Z 40
_cell_length_a 7.645757
_cell_length_b 19.764221
_cell_length_c 16.628299
_cell_angle_alpha 90.000000
_cell_angle_beta 40.191156
_cell_angle_gamma 90.000000
_cell_volume 1621.572819
_symmetry_space_group_name_H-M "C 2/M"
_symmetry_group_IT_number 12
_symmetry_cell_setting 'monoclinic'
loop_
_space_group_symop_operation_xyz
x,y,z
-x,y,-z
-x,-y,-z
x,-y,z
1/2+x,1/2+y,z
1/2-x,1/2+y,-z
1/2-x,1/2-y,-z
1/2+x,1/2-y,z
loop_
_atom_site_type_symbol
_atom_site_label
_atom_site_fract_x
_atom_site_fract_y
_atom_site_fract_z
Si Si1 0.985775 0.361993 0.810548
Si Si2 0.194385 0.000000 0.552060
Si Si3 0.087183 0.500000 0.693326
Si Si4 0.272481 0.228835 0.399597
Si Si5 0.782063 0.921989 0.951791
Si Si6 0.065458 0.871379 0.698691
O O1 0.962310 0.433581 0.774958
O O2 0.001420 0.308573 0.732318
O O3 0.278479 0.355658 0.753410
O O4 0.767567 0.368919 0.958670
O O5 0.402976 0.000000 0.405744
O O6 0.895480 0.000000 0.617810
O O7 0.200553 0.067676 0.602505
O O8 0.250000 0.250000 0.500000
O O9 0.266153 0.302456 0.359356
O O10 0.000000 0.182273 0.500000
O O11 0.832731 0.000000 0.959611
O O12 0.500000 0.924377 0.000000
O O13 0.997389 0.896972 0.811431
#
# Coordination Sequence:
#
# PCOD9183722 Si02
#       6
#     8   4   4   8   8   8
#     4  10  19  33  55  86 115 148 189 241 288 334
#     4   9  16  27  50  79 106 144 187 232 283 328
#     4   9  16  25  49  81 110 135 187 243 284 316
#     4  12  24  39  56  82 122 159 192 232 285 346
#     4   9  16  31  56  88 116 141 188 248 292 330
#     4  10  19  34  56  82 116 151 188 240 288 336
#
# _framework density 24.66741
#
# number of rings (size 3 to 8) (size 9 to 14) (size 15 to 20)
#    0.000    2.000    4.000    1.200    2.800    0.800 
#    0.000    0.500    0.000    0.000    0.000    1.400 
#    0.000    0.000    0.000    0.000    0.000    0.000 
#
# Total GULP energy -111645.902724 kJ/mol
# GULP energy per Si atom -5582.295136 kJ/mol
# Density = 2.461127 g / cm^3
# Si number density = 24.667410 Si / 1000 Ang^3
#
#
#
# Elastic Constant Matrix: (Units=GPa)
#
#
# Indices 1 2 3 4 5 6 
#
# 1 79.2453 0.7992 19.5914 0.0002 4.7098 -0.0002
# 2 0.7992 132.4180 61.3515 -0.0001 16.4356 0.0000
# 3 19.5914 61.3515 209.2132 0.0006 47.4884 -0.0004
# 4 0.0002 -0.0001 0.0006 40.4069 -0.0003 17.2860
# 5 4.7098 16.4356 47.4884 -0.0003 25.8470 0.0002
# 6 -0.0002 0.0000 -0.0004 17.2860 0.0002 9.5636
#
#
#
# Elastic Compliance Matrix: (Units=1/GPa)
#
#
# Indices 1 2 3 4 5 6 
#
# 1 0.012955 0.000567 -0.001307 -0.000001 -0.000320 0.000001
# 2 0.000567 0.008796 -0.002298 0.000000 -0.001475 -0.000001
# 3 -0.001307 -0.002298 0.008903 -0.000002 -0.014659 0.000005
# 4 -0.000001 0.000000 -0.000002 0.109137 0.000008 -0.197262
# 5 -0.000320 -0.001475 -0.014659 0.000008 0.066618 -0.000016
# 6 0.000001 -0.000001 0.000005 -0.197262 -0.000016 0.461110
#
#
# Mechanical properties :
#
#
# Convention : Reuss Voigt Hill
#
# Bulk Modulus (GPa) = 40.68369 64.92898 52.80634
# Shear Modulus (GPa) = 7.33366 37.77246 22.55306
#
# Velocity S-wave (km/s) = 1.72611 3.91739 3.02700
# Velocity P-wave (km/s) = 4.52784 6.84399 5.80265
#
# Compressibility (1/GPa) = 0.02457987
#
# Stress axis : x y z
#
# Youngs Moduli (GPa) = 77.18770 113.68716 112.31774
#
# Poissons Ratio (x) = -0.06446 0.14677
# Poissons Ratio (y) = -0.04377 0.25808
# Poissons Ratio (z) = 0.10086 0.26122
#
# Static dielectric constant tensor:
#      x y z
#    x 2.241330 0.000000 -0.020500 
#    y 0.000000 1.896470 0.000000 
#    z -0.020500 0.000000 1.887010 
# 
# From -- ./inp_files/120339.got.cif
#   From: 2010.05.17/outbox.cif.g08.bks.cpg/sg12_61_cif.got.tgz:120339.got - 2010.06.03 13:09:07.
