data_PCOD9183284
_publ_section_title
;
Structure prediction by ZEFSAII (Michael W. Deem and Ramdas Pophale) SiO2 
 PCOD9183284
Probable space group: C 2/M
;
_chemical_formula_sum "Si O2"
_cell_formula_units_Z 52
_cell_length_a 29.829055
_cell_length_b 10.699615
_cell_length_c 13.959340
_cell_angle_alpha 90.000000
_cell_angle_beta 141.352141
_cell_angle_gamma 90.000000
_cell_volume 2782.449896
_symmetry_space_group_name_H-M "C 2/M"
_symmetry_group_IT_number 12
_symmetry_cell_setting 'monoclinic'
loop_
_space_group_symop_operation_xyz
x,y,z
-x,y,-z
-x,-y,-z
x,-y,z
1/2+x,1/2+y,z
1/2-x,1/2+y,-z
1/2-x,1/2-y,-z
1/2+x,1/2-y,z
loop_
_atom_site_type_symbol
_atom_site_label
_atom_site_fract_x
_atom_site_fract_y
_atom_site_fract_z
Si Si1 0.284803 0.363181 0.878198
Si Si2 0.580398 0.000000 0.827005
Si Si3 0.385513 0.856130 0.813475
Si Si4 0.932891 0.240669 0.083887
Si Si5 0.592153 0.236658 0.363411
Si Si6 0.189737 0.500000 0.843017
Si Si7 0.236044 0.859093 0.661815
Si Si8 0.080201 0.500000 0.483298
O O1 0.271544 0.500000 0.807412
O O2 0.242251 0.383625 0.906344
O O3 0.253939 0.246534 0.769468
O O4 0.369950 0.343520 0.022389
O O5 0.578499 0.122513 0.888997
O O6 0.650000 0.000000 0.876591
O O7 0.505653 0.000000 0.643094
O O8 0.403138 0.820302 0.735030
O O9 0.299994 0.849745 0.690766
O O10 0.408169 0.000000 0.868977
O O11 0.420553 0.763861 0.950077
O O12 0.013773 0.201469 0.241139
O O13 0.658475 0.328370 0.490174
O O14 0.596550 0.122713 0.446713
O O15 0.127537 0.500000 0.657779
O O16 0.238956 0.000000 0.705852
#
# Coordination Sequence:
#
# PCOD9183284 Si02
#       8
#     8   4   8   8   8   4   8   4
#     4   9  20  38  59  81 110 148 186 227 285 330
#     4  10  21  33  58  89 114 137 186 242 280 330
#     4  10  19  33  54  81 115 150 193 228 267 330
#     4  10  21  34  53  84 117 147 185 231 278 330
#     4  11  19  33  54  82 116 152 184 224 277 328
#     4  10  19  38  60  80 109 146 192 229 286 332
#     4  10  21  36  56  84 112 150 191 229 274 329
#     4  10  19  33  56  87 110 144 183 232 280 328
#
# _framework density 18.688566000000002
#
# number of rings (size 3 to 8) (size 9 to 14) (size 15 to 20)
#    0.462    1.538    3.077    1.154    1.077    1.846 
#    0.000    3.077    0.000    4.615    0.000    2.154 
#    0.000    0.000    0.000    0.000    0.000    0.000 
#
# Total GULP energy -144949.926231 kJ/mol
# GULP energy per Si atom -5574.997163 kJ/mol
# Density = 1.864603 g / cm^3
# Si number density = 18.688566 Si / 1000 Ang^3
#
#
#
# Elastic Constant Matrix: (Units=GPa)
#
#
# Indices 1 2 3 4 5 6 
#
# 1 72.0871 9.5070 15.8931 0.0000 17.0141 0.0000
# 2 9.5070 64.8577 15.7570 0.0000 12.1274 0.0000
# 3 15.8931 15.7570 74.1002 0.0000 24.3071 0.0000
# 4 0.0000 0.0000 0.0000 43.3259 0.0000 93.1957
# 5 17.0141 12.1274 24.3071 0.0000 28.5340 0.0000
# 6 0.0000 0.0000 0.0000 93.1957 0.0000 310.9031
#
#
#
# Elastic Compliance Matrix: (Units=1/GPa)
#
#
# Indices 1 2 3 4 5 6 
#
# 1 0.016174 -0.000583 -0.000365 0.000000 -0.009085 0.000000
# 2 -0.000583 0.016927 -0.001705 0.000000 -0.005394 0.000000
# 3 -0.000365 -0.001705 0.018912 0.000000 -0.015168 0.000000
# 4 0.000000 0.000000 0.000000 0.064978 0.000000 -0.019478
# 5 -0.009085 -0.005394 -0.015168 0.000000 0.055677 0.000000
# 6 0.000000 0.000000 0.000000 -0.019478 0.000000 0.009055
#
#
# Mechanical properties :
#
#
# Convention : Reuss Voigt Hill
#
# Bulk Modulus (GPa) = 21.41042 32.59548 27.00295
# Shear Modulus (GPa) = 24.67957 87.87846 56.27901
#
# Velocity S-wave (km/s) = 3.63791 6.86474 5.49359
# Velocity P-wave (km/s) = 5.39696 8.96170 7.39727
#
# Compressibility (1/GPa) = 0.04670624
#
# Stress axis : x y z
#
# Youngs Moduli (GPa) = 61.82848 59.07839 52.87768
#
# Poissons Ratio (x) = 0.03446 0.01928
# Poissons Ratio (y) = 0.03607 0.09015
# Poissons Ratio (z) = 0.02254 0.10072
#
# Static dielectric constant tensor:
#      x y z
#    x 1.645500 0.000000 0.035220 
#    y 0.000000 1.638040 0.000000 
#    z 0.035220 0.000000 1.672020 
# 
# From -- ./inp_files/250215.got.cif
#   From: 2010.05.17/outbox.cif.g08.bks.cpg/sg12_126_cif.got.tgz:250215.got - 2010.06.03 13:09:07.
