data_PCOD9183947
_publ_section_title
;
Structure prediction by ZEFSAII (Michael W. Deem and Ramdas Pophale) SiO2 
 PCOD9183947
Probable space group: C 2/M
;
_chemical_formula_sum "Si O2"
_cell_formula_units_Z 64
_cell_length_a 30.445990
_cell_length_b 9.898539
_cell_length_c 23.262996
_cell_angle_alpha 90.000000
_cell_angle_beta 149.064818
_cell_angle_gamma 90.000000
_cell_volume 3604.022152
_symmetry_space_group_name_H-M "C 2/M"
_symmetry_group_IT_number 12
_symmetry_cell_setting 'monoclinic'
loop_
_space_group_symop_operation_xyz
x,y,z
-x,y,-z
-x,-y,-z
x,-y,z
1/2+x,1/2+y,z
1/2-x,1/2+y,-z
1/2-x,1/2-y,-z
1/2+x,1/2-y,z
loop_
_atom_site_type_symbol
_atom_site_label
_atom_site_fract_x
_atom_site_fract_y
_atom_site_fract_z
Si Si1 0.170278 0.157987 0.428400
Si Si2 0.050292 0.836290 0.000044
Si Si3 0.013566 0.840064 0.582831
Si Si4 0.334501 0.344349 0.439913
Si Si5 0.486242 0.335599 0.170606
Si Si6 0.167303 0.654315 0.763316
Si Si7 0.196110 0.159460 0.984116
Si Si8 0.240332 0.841700 0.251047
O O1 0.250000 0.250000 0.500000
O O2 0.164616 0.163271 0.490854
O O3 0.078464 0.202802 0.299629
O O4 0.183495 0.000000 0.426406
O O5 0.022098 0.789121 0.905154
O O6 0.041502 0.000000 0.988855
O O7 0.148804 0.805475 0.122278
O O8 0.000000 0.787369 0.000000
O O9 0.093381 0.757451 0.696118
O O10 0.000000 0.810193 0.500000
O O11 0.927351 0.806488 0.519704
O O12 0.029351 0.000000 0.606069
O O13 0.318525 0.500000 0.404679
O O14 0.265941 0.247980 0.333540
O O15 0.483447 0.500000 0.167412
O O16 0.401623 0.295831 0.112216
O O17 0.136756 0.500000 0.734934
O O18 0.193252 0.677241 0.726375
O O19 0.250887 0.667132 0.896737
O O20 0.194956 0.000000 0.965530
O O21 0.250000 0.250000 0.000000
O O22 0.238641 0.000000 0.264648
#
# Coordination Sequence:
#
# PCOD9183947 Si02
#       8
#     8   8   8   8   8   8   8   8
#     4  10  23  41  61  82 109 149 192 236 283 329
#     4   9  17  30  54  86 109 130 173 229 275 324
#     4  10  20  34  53  78 108 146 187 219 260 332
#     4  10  22  38  54  79 114 149 187 227 270 329
#     4   9  18  36  58  81 112 146 182 228 280 331
#     4  10  20  34  52  79 115 144 177 231 287 325
#     4  10  21  37  57  82 113 149 187 230 279 335
#     4  10  19  33  56  85 111 140 180 229 281 327
#
# _framework density 17.757937999999999
#
# number of rings (size 3 to 8) (size 9 to 14) (size 15 to 20)
#    0.000    2.250    2.500    0.000    3.500    1.750 
#    0.000    0.625    0.000    1.125    0.000    0.000 
#    0.000    0.000    0.000    0.000    0.000    0.000 
#
# Total GULP energy -178420.397880 kJ/mol
# GULP energy per Si atom -5575.637434 kJ/mol
# Density = 1.771752 g / cm^3
# Si number density = 17.757938 Si / 1000 Ang^3
#
#
#
# Elastic Constant Matrix: (Units=GPa)
#
#
# Indices 1 2 3 4 5 6 
#
# 1 89.7714 35.7904 49.3151 0.0000 14.3093 0.0000
# 2 35.7904 31.5008 49.9405 0.0000 4.7537 0.0000
# 3 49.3151 49.9405 116.8649 0.0000 0.5300 0.0000
# 4 0.0000 0.0000 0.0000 25.1909 0.0000 3.7675
# 5 14.3093 4.7537 0.5300 0.0000 20.9876 0.0000
# 6 0.0000 0.0000 0.0000 3.7675 0.0000 21.6002
#
#
#
# Elastic Compliance Matrix: (Units=1/GPa)
#
#
# Indices 1 2 3 4 5 6 
#
# 1 0.022393 -0.028477 0.002760 0.000000 -0.008887 0.000000
# 2 -0.028477 0.145113 -0.049940 0.000000 -0.012192 0.000000
# 3 0.002760 -0.049940 0.028694 0.000000 0.008705 0.000000
# 4 0.000000 0.000000 0.000000 0.040760 0.000000 -0.007109
# 5 -0.008887 -0.012192 0.008705 0.000000 0.056248 0.000000
# 6 0.000000 0.000000 0.000000 -0.007109 0.000000 0.047536
#
#
# Mechanical properties :
#
#
# Convention : Reuss Voigt Hill
#
# Bulk Modulus (GPa) = 22.27845 56.46989 39.37417
# Shear Modulus (GPa) = 9.86154 20.42847 15.14501
#
# Velocity S-wave (km/s) = 2.35910 3.39541 2.92354
# Velocity P-wave (km/s) = 4.47139 6.87318 5.79802
#
# Compressibility (1/GPa) = 0.04488643
#
# Stress axis : x y z
#
# Youngs Moduli (GPa) = 44.65669 6.89118 34.85066
#
# Poissons Ratio (x) = 0.19624 -0.09619
# Poissons Ratio (y) = 1.27168 1.74044
# Poissons Ratio (z) = -0.12325 0.34414
#
# Static dielectric constant tensor:
#      x y z
#    x 1.621630 0.000000 0.002580 
#    y 0.000000 1.594150 0.000000 
#    z 0.002580 0.000000 1.602920 
# 
# From -- ./inp_files/249992.got.cif
#   From: 2010.05.17/outbox.cif.g08.bks.cpg/sg12_125_cif.got.tgz:249992.got - 2010.06.03 13:09:07.
