data_PCOD9183264
_publ_section_title
;
Structure prediction by ZEFSAII (Michael W. Deem and Ramdas Pophale) SiO2 
 PCOD9183264
Probable space group: C 2/M
;
_chemical_formula_sum "Si O2"
_cell_formula_units_Z 44
_cell_length_a 19.126886
_cell_length_b 10.425241
_cell_length_c 17.956711
_cell_angle_alpha 90.000000
_cell_angle_beta 136.986972
_cell_angle_gamma 90.000000
_cell_volume 2442.566346
_symmetry_space_group_name_H-M "C 2/M"
_symmetry_group_IT_number 12
_symmetry_cell_setting 'monoclinic'
loop_
_space_group_symop_operation_xyz
x,y,z
-x,y,-z
-x,-y,-z
x,-y,z
1/2+x,1/2+y,z
1/2-x,1/2+y,-z
1/2-x,1/2-y,-z
1/2+x,1/2-y,z
loop_
_atom_site_type_symbol
_atom_site_label
_atom_site_fract_x
_atom_site_fract_y
_atom_site_fract_z
Si Si1 0.083303 0.651921 0.755778
Si Si2 0.500000 0.289465 0.000000
Si Si3 0.755154 0.350601 0.664451
Si Si4 0.513272 0.848841 0.167991
Si Si5 0.229713 0.140402 0.197249
Si Si6 0.534193 0.351826 0.440098
O O1 0.053591 0.500000 0.725694
O O2 0.201254 0.660148 0.822057
O O3 0.059019 0.694068 0.821000
O O4 0.020786 0.745023 0.652121
O O5 0.496007 0.211015 0.073881
O O6 0.608814 0.359806 0.088048
O O7 0.753286 0.500000 0.688290
O O8 0.867290 0.326504 0.717368
O O9 0.746331 0.253777 0.726580
O O10 0.657127 0.334084 0.535656
O O11 0.498750 0.000000 0.148356
O O12 0.258932 0.000000 0.251192
O O13 0.500000 0.339374 0.500000
O O14 0.510623 0.500000 0.399491
#
# Coordination Sequence:
#
# PCOD9183264 Si02
#       6
#     8   4   8   8   8   8
#     4  10  21  35  53  80 112 138 171 218 265 312
#     4  10  20  36  58  74  99 140 181 218 265 316
#     4   9  18  34  56  77 105 143 180 213 249 307
#     4   9  19  36  55  79 106 137 177 220 262 311
#     4  10  20  34  53  78 107 137 172 219 267 314
#     4  10  19  33  54  81 110 142 177 212 253 307
#
# _framework density 18.013839000000001
#
# number of rings (size 3 to 8) (size 9 to 14) (size 15 to 20)
#    0.000    2.364    1.818    0.545    0.000    3.273 
#    0.000    4.545    0.000    0.000    0.000    0.000 
#    0.000    0.000    0.000    0.000    0.000    0.000 
#
# Total GULP energy -122520.886194 kJ/mol
# GULP energy per Si atom -5569.131191 kJ/mol
# Density = 1.797284 g / cm^3
# Si number density = 18.013839 Si / 1000 Ang^3
#
#
#
# Elastic Constant Matrix: (Units=GPa)
#
#
# Indices 1 2 3 4 5 6 
#
# 1 127.2569 55.4074 38.4363 0.0000 -6.5352 0.0000
# 2 55.4074 65.0868 39.1755 0.0000 -3.4091 0.0000
# 3 38.4363 39.1755 62.6694 0.0000 1.7173 0.0000
# 4 0.0000 0.0000 0.0000 -8.9424 0.0000 -8.1117
# 5 -6.5352 -3.4091 1.7173 0.0000 23.1868 0.0000
# 6 0.0000 0.0000 0.0000 -8.1117 0.0000 17.8402
#
#
#
# Elastic Compliance Matrix: (Units=1/GPa)
#
#
# Indices 1 2 3 4 5 6 
#
# 1 0.012710 -0.009569 -0.001877 0.000000 0.002315 0.000000
# 2 -0.009569 0.032374 -0.014455 0.000000 0.003133 0.000000
# 3 -0.001877 -0.014455 0.026270 0.000000 -0.004600 0.000000
# 4 0.000000 0.000000 0.000000 -0.079172 0.000000 -0.035999
# 5 0.002315 0.003133 -0.004600 0.000000 0.044582 0.000000
# 6 0.000000 0.000000 0.000000 -0.035999 0.000000 0.039685
#
#
# Mechanical properties :
#
#
# Convention : Reuss Voigt Hill
#
# Bulk Modulus (GPa) = 51.14333 57.89460 54.51897
# Shear Modulus (GPa) = 37.10065 14.54985 25.82525
#
# Velocity S-wave (km/s) = 4.54316 2.84510 3.79044
# Velocity P-wave (km/s) = 7.48153 6.55755 7.03473
#
# Compressibility (1/GPa) = 0.01955289
#
# Stress axis : x y z
#
# Youngs Moduli (GPa) = 78.67661 30.88858 38.06633
#
# Poissons Ratio (x) = 0.29557 0.07146
# Poissons Ratio (y) = 0.75285 0.55024
# Poissons Ratio (z) = 0.14769 0.44649
#
# Static dielectric constant tensor:
#      x y z
#    x 1.643020 0.000000 0.030170 
#    y 0.000000 1.615230 0.000000 
#    z 0.030170 0.000000 1.597890 
# 
# From -- ./inp_files/275881.got.cif
#   From: 2010.05.17/outbox.cif.g08.bks.cpg/sg12_138_cif.got.tgz:275881.got - 2010.06.03 13:09:07.
