data_PCOD9183222
_publ_section_title
;
Structure prediction by ZEFSAII (Michael W. Deem and Ramdas Pophale) SiO2 
 PCOD9183222
Probable space group: C 2/M
;
_chemical_formula_sum "Si O2"
_cell_formula_units_Z 56
_cell_length_a 30.442780
_cell_length_b 7.409285
_cell_length_c 12.857469
_cell_angle_alpha 90.000000
_cell_angle_beta 59.274042
_cell_angle_gamma 90.000000
_cell_volume 2493.004438
_symmetry_space_group_name_H-M "C 2/M"
_symmetry_group_IT_number 12
_symmetry_cell_setting 'monoclinic'
loop_
_space_group_symop_operation_xyz
x,y,z
-x,y,-z
-x,-y,-z
x,-y,z
1/2+x,1/2+y,z
1/2-x,1/2+y,-z
1/2-x,1/2-y,-z
1/2+x,1/2-y,z
loop_
_atom_site_type_symbol
_atom_site_label
_atom_site_fract_x
_atom_site_fract_y
_atom_site_fract_z
Si Si1 0.640864 0.788568 0.482401
Si Si2 0.904198 0.218909 0.849266
Si Si3 0.943288 0.709693 0.573280
Si Si4 0.446318 0.279819 0.016884
Si Si5 0.209357 0.785079 0.959351
Si Si6 0.255525 0.720781 0.310967
Si Si7 0.640434 0.717506 0.716659
O O1 0.599535 0.711160 0.452112
O O2 0.698576 0.714290 0.405225
O O3 0.623459 0.771721 0.622331
O O4 0.645993 0.000000 0.449648
O O5 0.923798 0.282779 0.714684
O O6 0.846417 0.282177 0.941097
O O7 0.904305 0.000000 0.845557
O O8 0.937651 0.274963 0.908249
O O9 0.948722 0.500000 0.534356
O O10 0.000000 0.790649 0.500000
O O11 0.446059 0.500000 0.018006
O O12 0.398832 0.222241 0.146573
O O13 0.500000 0.220913 0.000000
O O14 0.203893 0.000000 0.954147
O O15 0.250000 0.750000 0.000000
O O16 0.229084 0.720688 0.823963
O O17 0.255214 0.500000 0.314810
O O18 0.301719 0.779913 0.329869
O O19 0.640834 0.500000 0.719747
#
# Coordination Sequence:
#
# PCOD9183222 Si02
#       7
#     8   8   8   8   8   8   8
#     4  10  21  36  54  76 107 146 181 217 266 320
#     4  10  20  36  59  85 110 137 181 234 271 315
#     4  10  23  41  57  76 109 150 185 221 272 330
#     4   9  18  33  55  83 111 139 173 219 277 326
#     4  10  19  33  54  80 110 144 181 220 267 322
#     4   9  17  33  54  76 106 142 175 212 268 328
#     4  10  19  34  57  82 107 138 177 220 267 321
#
# _framework density 22.462857
#
# number of rings (size 3 to 8) (size 9 to 14) (size 15 to 20)
#    0.000    2.286    1.429    1.286    2.000    2.571 
#    0.000    2.143    0.000    0.857    0.000    0.000 
#    0.000    0.000    0.000    0.000    0.000    0.000 
#
# Total GULP energy -156496.294645 kJ/mol
# GULP energy per Si atom -5589.153380 kJ/mol
# Density = 2.241173 g / cm^3
# Si number density = 22.462857 Si / 1000 Ang^3
#
#
#
# Elastic Constant Matrix: (Units=GPa)
#
#
# Indices 1 2 3 4 5 6 
#
# 1 195.8365 3.4608 61.8314 0.0000 22.6714 0.0000
# 2 3.4608 71.7883 -12.7986 0.0000 -8.7744 0.0000
# 3 61.8314 -12.7986 104.9752 0.0000 23.4336 0.0000
# 4 0.0000 0.0000 0.0000 3.3610 0.0000 -1.5808
# 5 22.6714 -8.7744 23.4336 0.0000 33.9413 0.0000
# 6 0.0000 0.0000 0.0000 -1.5808 0.0000 -23.5733
#
#
#
# Elastic Compliance Matrix: (Units=1/GPa)
#
#
# Indices 1 2 3 4 5 6 
#
# 1 0.006481 -0.001205 -0.003462 0.000000 -0.002250 0.000000
# 2 -0.001205 0.014715 0.001744 0.000000 0.003405 0.000000
# 3 -0.003462 0.001744 0.013195 0.000000 -0.006346 0.000000
# 4 0.000000 0.000000 0.000000 0.288431 0.000000 -0.019341
# 5 -0.002250 0.003405 -0.006346 0.000000 0.036228 0.000000
# 6 0.000000 0.000000 0.000000 -0.019341 0.000000 -0.041124
#
#
# Mechanical properties :
#
#
# Convention : Reuss Voigt Hill
#
# Bulk Modulus (GPa) = 35.03326 53.06524 44.04925
# Shear Modulus (GPa) = 15.00212 24.08622 19.54417
#
# Velocity S-wave (km/s) = 2.58711 3.27810 2.95289
# Velocity P-wave (km/s) = 4.95521 6.16464 5.59271
#
# Compressibility (1/GPa) = 0.02854430
#
# Stress axis : x y z
#
# Youngs Moduli (GPa) = 154.29324 67.95810 75.78910
#
# Poissons Ratio (x) = 0.08187 0.26238
# Poissons Ratio (y) = 0.18588 -0.13214
# Poissons Ratio (z) = 0.53416 -0.11849
#
# Static dielectric constant tensor:
#      x y z
#    x 1.788160 0.000000 -0.026830 
#    y 0.000000 1.849370 0.000000 
#    z -0.026830 0.000000 1.757490 
# 
# From -- ./inp_files/180865.got.cif
#   From: 2010.05.17/outbox.cif.g08.bks.cpg/sg12_91_cif.got.tgz:180865.got - 2010.06.03 13:09:07.
