data_PCOD9183205
_publ_section_title
;
Structure prediction by ZEFSAII (Michael W. Deem and Ramdas Pophale) SiO2 
 PCOD9183205
Probable space group: C 2/M
;
_chemical_formula_sum "Si O2"
_cell_formula_units_Z 52
_cell_length_a 13.283179
_cell_length_b 18.263021
_cell_length_c 12.690457
_cell_angle_alpha 90.000000
_cell_angle_beta 68.408419
_cell_angle_gamma 90.000000
_cell_volume 2862.567425
_symmetry_space_group_name_H-M "C 2/M"
_symmetry_group_IT_number 12
_symmetry_cell_setting 'monoclinic'
loop_
_space_group_symop_operation_xyz
x,y,z
-x,y,-z
-x,-y,-z
x,-y,z
1/2+x,1/2+y,z
1/2-x,1/2+y,-z
1/2-x,1/2-y,-z
1/2+x,1/2-y,z
loop_
_atom_site_type_symbol
_atom_site_label
_atom_site_fract_x
_atom_site_fract_y
_atom_site_fract_z
Si Si1 0.500000 0.379434 0.500000
Si Si2 0.688066 0.411020 0.715823
Si Si3 0.455142 0.583404 0.754906
Si Si4 0.650313 0.089064 0.161657
Si Si5 0.901782 0.588613 0.263213
Si Si6 0.231534 0.166012 0.481900
Si Si7 0.717455 0.910805 0.903074
O O1 0.523091 0.418858 0.379373
O O2 0.388267 0.338427 0.521321
O O3 0.687094 0.500000 0.712397
O O4 0.562910 0.384411 0.767069
O O5 0.762940 0.387585 0.784100
O O6 0.733264 0.380588 0.588837
O O7 0.449225 0.500000 0.795720
O O8 0.337900 0.616215 0.825495
O O9 0.526519 0.109176 0.234696
O O10 0.652366 0.000000 0.159438
O O11 0.682608 0.114117 0.032190
O O12 0.890124 0.500000 0.281335
O O13 0.819343 0.630556 0.370657
O O14 0.866713 0.606816 0.157085
O O15 0.250000 0.250000 0.500000
O O16 0.720123 0.000000 0.904124
#
# Coordination Sequence:
#
# PCOD9183205 Si02
#       7
#     4   8   8   8   8   8   8
#     4  10  19  34  50  72 101 136 172 218 258 312
#     4   9  19  34  51  77 108 141 173 211 263 318
#     4   9  16  27  50  78 105 134 172 218 261 303
#     4   9  18  31  50  79 114 141 172 214 257 311
#     4  10  19  33  54  80 107 140 177 218 261 308
#     4  11  23  36  54  79 103 136 175 220 266 313
#     4   9  16  28  50  82 108 135 174 219 261 302
#
# _framework density 18.165510999999999
#
# number of rings (size 3 to 8) (size 9 to 14) (size 15 to 20)
#    0.000    2.462    1.538    1.154    0.000    5.538 
#    0.000    5.385    0.000    0.923    8.000    0.000 
#    0.000    0.000    0.000    0.000    0.000    0.000 
#
# Total GULP energy -144800.891395 kJ/mol
# GULP energy per Si atom -5569.265054 kJ/mol
# Density = 1.812417 g / cm^3
# Si number density = 18.165511 Si / 1000 Ang^3
#
#
#
# Elastic Constant Matrix: (Units=GPa)
#
#
# Indices 1 2 3 4 5 6 
#
# 1 149.9417 25.6585 42.4301 0.0000 6.6213 0.0000
# 2 25.6585 24.5725 12.7059 0.0000 0.8343 0.0000
# 3 42.4301 12.7059 61.6317 0.0000 0.7971 0.0000
# 4 0.0000 0.0000 0.0000 -4.5641 0.0000 0.2529
# 5 6.6213 0.8343 0.7971 0.0000 31.2393 0.0000
# 6 0.0000 0.0000 0.0000 0.2529 0.0000 5.6588
#
#
#
# Elastic Compliance Matrix: (Units=1/GPa)
#
#
# Indices 1 2 3 4 5 6 
#
# 1 0.009371 -0.007168 -0.004952 0.000000 -0.001668 0.000000
# 2 -0.007168 0.051064 -0.005597 0.000000 0.000298 0.000000
# 3 -0.004952 -0.005597 0.020780 0.000000 0.000669 0.000000
# 4 0.000000 0.000000 0.000000 -0.218558 0.000000 0.009769
# 5 -0.001668 0.000298 0.000669 0.000000 0.032340 0.000000
# 6 0.000000 0.000000 0.000000 0.009769 0.000000 0.176280
#
#
# Mechanical properties :
#
#
# Convention : Reuss Voigt Hill
#
# Bulk Modulus (GPa) = 21.84265 44.19277 33.01771
# Shear Modulus (GPa) = 40.99392 16.82355 28.90874
#
# Velocity S-wave (km/s) = 4.75562 3.04653 3.99357
# Velocity P-wave (km/s) = 6.49653 6.06266 6.28334
#
# Compressibility (1/GPa) = 0.04578200
#
# Stress axis : x y z
#
# Youngs Moduli (GPa) = 106.71439 19.58324 48.12377
#
# Poissons Ratio (x) = 0.14037 0.23831
# Poissons Ratio (y) = 0.76490 0.26933
# Poissons Ratio (z) = 0.52845 0.10960
#
# Static dielectric constant tensor:
#      x y z
#    x 1.645170 0.000000 -0.005180 
#    y 0.000000 1.601140 0.000000 
#    z -0.005180 0.000000 1.615490 
# 
# From -- ./inp_files/133060.got.cif
#   From: 2010.05.17/outbox.cif.g08.bks.cpg/sg12_67_cif.got.tgz:133060.got - 2010.06.03 13:09:07.
