data_PCOD9183535
_publ_section_title
;
Structure prediction by ZEFSAII (Michael W. Deem and Ramdas Pophale) SiO2 
 PCOD9183535
Probable space group: C 2/M
;
_chemical_formula_sum "Si O2"
_cell_formula_units_Z 56
_cell_length_a 19.331612
_cell_length_b 8.780673
_cell_length_c 20.862017
_cell_angle_alpha 90.000000
_cell_angle_beta 112.922179
_cell_angle_gamma 90.000000
_cell_volume 3261.580975
_symmetry_space_group_name_H-M "C 2/M"
_symmetry_group_IT_number 12
_symmetry_cell_setting 'monoclinic'
loop_
_space_group_symop_operation_xyz
x,y,z
-x,y,-z
-x,-y,-z
x,-y,z
1/2+x,1/2+y,z
1/2-x,1/2+y,-z
1/2-x,1/2-y,-z
1/2+x,1/2-y,z
loop_
_atom_site_type_symbol
_atom_site_label
_atom_site_fract_x
_atom_site_fract_y
_atom_site_fract_z
Si Si1 0.695325 0.322242 0.428615
Si Si2 0.110258 0.181775 0.057980
Si Si3 0.560424 0.820773 0.315335
Si Si4 0.315455 0.321534 0.717138
Si Si5 0.520213 0.181385 0.908813
Si Si6 0.923979 0.819819 0.204185
Si Si7 0.764570 0.682470 0.180483
O O1 0.684098 0.500000 0.438019
O O2 0.750000 0.250000 0.500000
O O3 0.614692 0.239628 0.391549
O O4 0.726801 0.309885 0.366778
O O5 0.196205 0.213245 0.107021
O O6 0.056421 0.236256 0.096426
O O7 0.101049 0.000000 0.046166
O O8 0.080360 0.268530 0.984778
O O9 0.610310 0.776692 0.270353
O O10 0.482213 0.734922 0.279684
O O11 0.549587 0.000000 0.315190
O O12 0.337272 0.500000 0.733075
O O13 0.267146 0.276455 0.760556
O O14 0.549793 0.237347 0.851383
O O15 0.510091 0.000000 0.905984
O O16 0.840005 0.769184 0.190608
O O17 0.929043 0.000000 0.197602
O O18 0.778647 0.500000 0.185145
#
# Coordination Sequence:
#
# PCOD9183535 Si02
#       7
#     8   8   8   8   8   8   8
#     4   9  17  31  54  85 114 142 176 219 265 309
#     4  10  20  36  59  82 107 138 176 225 278 324
#     4  10  19  33  55  81 108 140 178 219 263 317
#     4   8  17  33  54  79 109 141 175 217 263 316
#     4  11  22  37  57  79 106 140 182 226 269 322
#     4  12  24  37  53  76 108 143 181 225 272 320
#     4  10  21  37  55  77 106 142 180 220 269 324
#
# _framework density 17.169587
#
# number of rings (size 3 to 8) (size 9 to 14) (size 15 to 20)
#    0.857    1.143    0.000    6.000    0.000    3.429 
#    0.000    0.000    0.000    0.857    0.000    6.000 
#    0.000    0.000    0.000    0.000    0.000    0.000 
#
# Total GULP energy -156096.660785 kJ/mol
# GULP energy per Si atom -5574.880742 kJ/mol
# Density = 1.713051 g / cm^3
# Si number density = 17.169587 Si / 1000 Ang^3
#
#
#
# Elastic Constant Matrix: (Units=GPa)
#
#
# Indices 1 2 3 4 5 6 
#
# 1 64.4142 28.4389 29.9742 0.0000 24.2585 0.0000
# 2 28.4389 80.4262 21.5690 0.0000 13.3787 0.0000
# 3 29.9742 21.5690 68.1231 0.0000 22.3152 0.0000
# 4 0.0000 0.0000 0.0000 24.3292 0.0000 1.6400
# 5 24.2585 13.3787 22.3152 0.0000 20.1884 0.0000
# 6 0.0000 0.0000 0.0000 1.6400 0.0000 29.6868
#
#
#
# Elastic Compliance Matrix: (Units=1/GPa)
#
#
# Indices 1 2 3 4 5 6 
#
# 1 0.030269 -0.005096 -0.001406 0.000000 -0.031441 0.000000
# 2 -0.005096 0.015042 -0.001977 0.000000 -0.001660 0.000000
# 3 -0.001406 -0.001977 0.023422 0.000000 -0.022890 0.000000
# 4 0.000000 0.000000 0.000000 0.041256 0.000000 -0.002279
# 5 -0.031441 -0.001660 -0.022890 0.000000 0.113714 0.000000
# 6 0.000000 0.000000 0.000000 -0.002279 0.000000 0.033811
#
#
# Mechanical properties :
#
#
# Convention : Reuss Voigt Hill
#
# Bulk Modulus (GPa) = 19.31405 41.43641 30.37523
# Shear Modulus (GPa) = 17.13912 23.70633 20.42273
#
# Velocity S-wave (km/s) = 3.16290 3.71983 3.45261
# Velocity P-wave (km/s) = 4.96105 6.52959 5.79860
#
# Compressibility (1/GPa) = 0.05177578
#
# Stress axis : x y z
#
# Youngs Moduli (GPa) = 33.03674 66.48072 42.69525
#
# Poissons Ratio (x) = 0.33880 0.06003
# Poissons Ratio (y) = 0.16836 0.08439
# Poissons Ratio (z) = 0.04645 0.13140
#
# Static dielectric constant tensor:
#      x y z
#    x 1.558360 0.000000 0.001380 
#    y 0.000000 1.571940 0.000000 
#    z 0.001380 0.000000 1.605050 
# 
# From -- ./inp_files/342027.got.cif
#   From: 2010.05.17/outbox.cif.g08.bks.cpg/sg12_172_cif.got.tgz:342027.got - 2010.06.03 13:09:07.
