data_PCOD9183423
_publ_section_title
;
Structure prediction by ZEFSAII (Michael W. Deem and Ramdas Pophale) SiO2 
 PCOD9183423
Probable space group: C 2/M
;
_chemical_formula_sum "Si O2"
_cell_formula_units_Z 56
_cell_length_a 20.242695
_cell_length_b 8.667939
_cell_length_c 21.657857
_cell_angle_alpha 90.000000
_cell_angle_beta 125.656802
_cell_angle_gamma 90.000000
_cell_volume 3087.702573
_symmetry_space_group_name_H-M "C 2/M"
_symmetry_group_IT_number 12
_symmetry_cell_setting 'monoclinic'
loop_
_space_group_symop_operation_xyz
x,y,z
-x,y,-z
-x,-y,-z
x,-y,z
1/2+x,1/2+y,z
1/2-x,1/2+y,-z
1/2-x,1/2-y,-z
1/2+x,1/2-y,z
loop_
_atom_site_type_symbol
_atom_site_label
_atom_site_fract_x
_atom_site_fract_y
_atom_site_fract_z
Si Si1 0.235235 0.683596 0.200593
Si Si2 0.659787 0.313709 0.954113
Si Si3 0.607259 0.684987 0.793788
Si Si4 0.850577 0.186665 0.373799
Si Si5 0.407904 0.314072 0.951360
Si Si6 0.996364 0.316644 0.372766
Si Si7 0.673156 0.685377 0.496509
O O1 0.224351 0.500000 0.198156
O O2 0.302600 0.715237 0.184402
O O3 0.278917 0.734919 0.287586
O O4 0.151036 0.758135 0.134879
O O5 0.662242 0.500000 0.954159
O O6 0.608494 0.266854 0.865778
O O7 0.750000 0.250000 0.000000
O O8 0.625331 0.262238 0.000593
O O9 0.593542 0.500000 0.781526
O O10 0.545264 0.769057 0.714633
O O11 0.828313 0.230125 0.431487
O O12 0.935152 0.253076 0.392737
O O13 0.857634 0.000000 0.374552
O O14 0.407658 0.500000 0.949814
O O15 0.500000 0.259336 0.000000
O O16 0.001395 0.500000 0.381232
O O17 0.086000 0.244638 0.424931
O O18 0.675720 0.500000 0.494632
O O19 0.750000 0.750000 0.500000
#
# Coordination Sequence:
#
# PCOD9183423 Si02
#       7
#     8   8   8   8   8   8   8
#     4   9  17  33  56  80 106 138 181 226 269 325
#     4  10  19  33  55  78 107 143 185 230 277 329
#     4   9  18  34  55  80 109 144 186 231 281 331
#     4   9  20  39  62  85 113 148 185 229 284 338
#     4  10  21  35  50  75 112 146 179 223 276 329
#     4  11  22  36  59  89 117 145 189 238 277 332
#     4  11  23  41  62  84 117 154 186 227 282 339
#
# _framework density 18.136462000000002
#
# number of rings (size 3 to 8) (size 9 to 14) (size 15 to 20)
#    0.000    2.143    1.429    3.000    0.000    6.000 
#    2.571    0.000    0.000    0.000    0.000    0.000 
#    0.000    0.000    0.000    0.000    0.000    0.000 
#
# Total GULP energy -156208.170644 kJ/mol
# GULP energy per Si atom -5578.863237 kJ/mol
# Density = 1.809518 g / cm^3
# Si number density = 18.136462 Si / 1000 Ang^3
#
#
#
# Elastic Constant Matrix: (Units=GPa)
#
#
# Indices 1 2 3 4 5 6 
#
# 1 136.7463 35.7532 84.1259 0.0000 16.4960 0.0000
# 2 35.7532 28.0201 34.8797 0.0000 5.6313 0.0000
# 3 84.1259 34.8797 133.7345 0.0000 12.5765 0.0000
# 4 0.0000 0.0000 0.0000 25.6058 0.0000 6.7443
# 5 16.4960 5.6313 12.5765 0.0000 27.3007 0.0000
# 6 0.0000 0.0000 0.0000 6.7443 0.0000 25.7835
#
#
#
# Elastic Compliance Matrix: (Units=1/GPa)
#
#
# Indices 1 2 3 4 5 6 
#
# 1 0.013905 -0.009690 -0.005872 0.000000 -0.003698 0.000000
# 2 -0.009690 0.060196 -0.009395 0.000000 -0.002234 0.000000
# 3 -0.005872 -0.009395 0.013699 0.000000 -0.000825 0.000000
# 4 0.000000 0.000000 0.000000 0.041943 0.000000 -0.010971
# 5 -0.003698 -0.002234 -0.000825 0.000000 0.039704 0.000000
# 6 0.000000 0.000000 0.000000 -0.010971 0.000000 0.041654
#
#
# Mechanical properties :
#
#
# Convention : Reuss Voigt Hill
#
# Bulk Modulus (GPa) = 26.39386 67.55760 46.97573
# Shear Modulus (GPa) = 18.27201 25.32081 21.79641
#
# Velocity S-wave (km/s) = 3.17752 3.74053 3.47046
# Velocity P-wave (km/s) = 5.29591 7.48237 6.48200
#
# Compressibility (1/GPa) = 0.03788760
#
# Stress axis : x y z
#
# Youngs Moduli (GPa) = 71.91853 16.61245 72.99827
#
# Poissons Ratio (x) = 0.16097 0.42863
# Poissons Ratio (y) = 0.69686 0.68578
# Poissons Ratio (z) = 0.42229 0.15607
#
# Static dielectric constant tensor:
#      x y z
#    x 1.533850 0.000000 -0.035510 
#    y 0.000000 1.616150 0.000000 
#    z -0.035510 0.000000 1.624520 
# 
# From -- ./inp_files/320192.got.cif
#   From: 2010.05.17/outbox.cif.g08.bks.cpg/sg12_161_cif.got.tgz:320192.got - 2010.06.03 13:09:07.
