data_PCOD9183379
_publ_section_title
;
Structure prediction by ZEFSAII (Michael W. Deem and Ramdas Pophale) SiO2 
 PCOD9183379
Probable space group: C 2/M
;
_chemical_formula_sum "Si O2"
_cell_formula_units_Z 56
_cell_length_a 14.372024
_cell_length_b 14.082269
_cell_length_c 20.855556
_cell_angle_alpha 90.000000
_cell_angle_beta 41.201650
_cell_angle_gamma 90.000000
_cell_volume 2780.400400
_symmetry_space_group_name_H-M "C 2/M"
_symmetry_group_IT_number 12
_symmetry_cell_setting 'monoclinic'
loop_
_space_group_symop_operation_xyz
x,y,z
-x,y,-z
-x,-y,-z
x,-y,z
1/2+x,1/2+y,z
1/2-x,1/2+y,-z
1/2-x,1/2-y,-z
1/2+x,1/2-y,z
loop_
_atom_site_type_symbol
_atom_site_label
_atom_site_fract_x
_atom_site_fract_y
_atom_site_fract_z
Si Si1 0.733805 0.265034 0.747565
Si Si2 0.663698 0.114897 0.090652
Si Si3 0.847163 0.267498 0.551619
Si Si4 0.764437 0.108949 0.503742
Si Si5 0.066489 0.387061 0.897221
Si Si6 0.480929 0.613077 0.933222
Si Si7 0.055645 0.389622 0.285839
O O1 0.754324 0.243528 0.662281
O O2 0.703288 0.171632 0.805482
O O3 0.601005 0.332633 0.832346
O O4 0.868971 0.322576 0.702418
O O5 0.552284 0.137144 0.093750
O O6 0.605479 0.143839 0.190131
O O7 0.671532 0.000000 0.088812
O O8 0.823681 0.147051 0.997009
O O9 0.861706 0.177538 0.496117
O O10 0.768643 0.346248 0.548790
O O11 0.000000 0.296916 0.500000
O O12 0.611735 0.112096 0.618076
O O13 0.811695 0.000000 0.475568
O O14 0.092434 0.500000 0.883447
O O15 0.000000 0.360952 0.000000
O O16 0.492693 0.500000 0.915799
O O17 0.500000 0.627263 0.000000
O O18 0.101368 0.500000 0.270558
#
# Coordination Sequence:
#
# PCOD9183379 Si02
#       7
#     8   8   8   8   8   8   8
#     4  12  22  36  60  90 120 161 198 258 319 361
#     4   9  18  35  58  83 116 155 197 250 297 356
#     4  11  24  43  64  96 130 157 213 273 311 378
#     4  10  23  44  68  91 126 171 207 255 323 382
#     4  10  23  42  58  81 121 170 218 247 284 361
#     4  10  19  33  54  87 125 151 189 249 313 373
#     4  10  19  35  63  94 121 155 202 250 314 385
#
# _framework density 20.140985000000001
#
# number of rings (size 3 to 8) (size 9 to 14) (size 15 to 20)
#    0.000    1.714    2.857    1.714    0.000    4.000 
#    2.571    0.000    0.000    0.000    0.000    0.000 
#    0.000    0.000    0.000    0.000    0.000    0.000 
#
# Total GULP energy -156418.362089 kJ/mol
# GULP energy per Si atom -5586.370075 kJ/mol
# Density = 2.009514 g / cm^3
# Si number density = 20.140985 Si / 1000 Ang^3
#
#
#
# Elastic Constant Matrix: (Units=GPa)
#
#
# Indices 1 2 3 4 5 6 
#
# 1 73.6241 14.2043 6.7558 0.0000 23.3146 0.0000
# 2 14.2043 82.4474 12.0230 0.0000 20.2097 0.0000
# 3 6.7558 12.0230 74.2524 -0.0001 24.9705 0.0000
# 4 0.0000 0.0000 -0.0001 22.8486 0.0000 -2.9594
# 5 23.3146 20.2097 24.9705 0.0000 32.7448 0.0000
# 6 0.0000 0.0000 0.0000 -2.9594 0.0000 16.9259
#
#
#
# Elastic Compliance Matrix: (Units=1/GPa)
#
#
# Indices 1 2 3 4 5 6 
#
# 1 0.018244 0.000225 0.003657 0.000000 -0.015917 0.000000
# 2 0.000225 0.014336 0.000925 0.000000 -0.009714 0.000000
# 3 0.003657 0.000925 0.018899 0.000000 -0.017587 0.000000
# 4 0.000000 0.000000 0.000000 0.044780 0.000000 0.007830
# 5 -0.015917 -0.009714 -0.017587 0.000000 0.061279 0.000000
# 6 0.000000 0.000000 0.000000 0.007830 0.000000 0.060450
#
#
# Mechanical properties :
#
#
# Convention : Reuss Voigt Hill
#
# Bulk Modulus (GPa) = 16.36840 32.92112 24.64476
# Shear Modulus (GPa) = 21.85884 27.65991 24.75938
#
# Velocity S-wave (km/s) = 3.29795 3.70985 3.50995
# Velocity P-wave (km/s) = 4.75884 5.89334 5.35621
#
# Compressibility (1/GPa) = 0.06109334
#
# Stress axis : x y z
#
# Youngs Moduli (GPa) = 54.81222 69.75263 52.91182
#
# Poissons Ratio (x) = -0.01572 -0.19347
# Poissons Ratio (y) = -0.01235 -0.04894
# Poissons Ratio (z) = -0.20042 -0.06451
#
# Static dielectric constant tensor:
#      x y z
#    x 1.712120 0.000000 -0.021390 
#    y 0.000000 1.736250 0.000000 
#    z -0.021390 0.000000 1.731040 
# 
# From -- ./inp_files/310787.got.cif
#   From: 2010.05.17/outbox.cif.g08.bks.cpg/sg12_156_cif.got.tgz:310787.got - 2010.06.03 13:09:07.
