data_PCOD9183836
_publ_section_title
;
Structure prediction by ZEFSAII (Michael W. Deem and Ramdas Pophale) SiO2 
 PCOD9183836
Probable space group: C 2/M
;
_chemical_formula_sum "Si O2"
_cell_formula_units_Z 48
_cell_length_a 20.799152
_cell_length_b 8.658059
_cell_length_c 23.656914
_cell_angle_alpha 90.000000
_cell_angle_beta 39.765435
_cell_angle_gamma 90.000000
_cell_volume 2724.984372
_symmetry_space_group_name_H-M "C 2/M"
_symmetry_group_IT_number 12
_symmetry_cell_setting 'monoclinic'
loop_
_space_group_symop_operation_xyz
x,y,z
-x,y,-z
-x,-y,-z
x,-y,z
1/2+x,1/2+y,z
1/2-x,1/2+y,-z
1/2-x,1/2-y,-z
1/2+x,1/2-y,z
loop_
_atom_site_type_symbol
_atom_site_label
_atom_site_fract_x
_atom_site_fract_y
_atom_site_fract_z
Si Si1 0.145141 0.316286 0.049825
Si Si2 0.113491 0.312376 0.430485
Si Si3 0.111001 0.184480 0.949479
Si Si4 0.068537 0.685323 0.765249
Si Si5 0.236297 0.814542 0.571892
Si Si6 0.792839 0.813416 0.230194
O O1 0.148337 0.500000 0.052049
O O2 0.047212 0.263213 0.151561
O O3 0.250000 0.250000 0.000000
O O4 0.128126 0.268575 0.996526
O O5 0.109510 0.500000 0.434886
O O6 0.173260 0.264332 0.446764
O O7 0.185326 0.271033 0.329315
O O8 0.000000 0.255078 0.500000
O O9 0.187898 0.228780 0.847594
O O10 0.118813 0.000000 0.953846
O O11 0.000000 0.215119 0.000000
O O12 0.072108 0.500000 0.758712
O O13 0.133657 0.756769 0.670590
O O14 0.124086 0.738394 0.785226
O O15 0.250000 0.750000 0.500000
O O16 0.235897 0.000000 0.570885
O O17 0.804169 0.000000 0.226924
#
# Coordination Sequence:
#
# PCOD9183836 Si02
#       6
#     8   8   8   8   8   8
#     4  11  24  39  56  79 111 147 185 231 282 335
#     4   8  15  30  52  77 104 135 172 215 260 308
#     4  10  19  33  56  82 109 141 181 225 269 330
#     4  10  20  35  56  80 106 141 185 229 273 326
#     4  10  20  35  57  81 108 142 182 225 271 326
#     4   9  17  31  54  81 106 140 180 219 268 324
#
# _framework density 17.61478
#
# number of rings (size 3 to 8) (size 9 to 14) (size 15 to 20)
#    0.000    2.333    1.667    2.500    0.000    3.000 
#    3.000    0.000    0.000   12.500    0.000    0.000 
#    0.000    0.000    0.000    0.000    0.000    0.000 
#
# Total GULP energy -133862.948787 kJ/mol
# GULP energy per Si atom -5577.622866 kJ/mol
# Density = 1.757469 g / cm^3
# Si number density = 17.614780 Si / 1000 Ang^3
#
#
#
# Elastic Constant Matrix: (Units=GPa)
#
#
# Indices 1 2 3 4 5 6 
#
# 1 88.7843 30.6230 92.2766 0.0001 -10.0555 -0.0003
# 2 30.6230 32.5971 40.7927 0.0001 -1.7273 -0.0001
# 3 92.2766 40.7927 172.4304 0.0001 -7.9602 -0.0001
# 4 0.0001 0.0001 0.0001 25.7774 0.0000 4.6996
# 5 -10.0555 -1.7273 -7.9602 0.0000 35.8043 0.0001
# 6 -0.0003 -0.0001 -0.0001 4.6996 0.0001 27.0783
#
#
#
# Elastic Compliance Matrix: (Units=1/GPa)
#
#
# Indices 1 2 3 4 5 6 
#
# 1 0.028518 -0.010960 -0.012451 0.000000 0.004712 0.000000
# 2 -0.010960 0.047793 -0.005534 0.000000 -0.002003 0.000000
# 3 -0.012451 -0.005534 0.013739 0.000000 -0.000709 0.000000
# 4 0.000000 0.000000 0.000000 0.040061 0.000000 -0.006953
# 5 0.004712 -0.002003 -0.000709 0.000000 0.028999 0.000000
# 6 0.000000 0.000000 0.000000 -0.006953 0.000000 0.038137
#
#
# Mechanical properties :
#
#
# Convention : Reuss Voigt Hill
#
# Bulk Modulus (GPa) = 31.09416 69.02181 50.05798
# Shear Modulus (GPa) = 18.80718 26.40663 22.60690
#
# Velocity S-wave (km/s) = 3.27110 3.87604 3.58635
# Velocity P-wave (km/s) = 5.65309 7.70070 6.75493
#
# Compressibility (1/GPa) = 0.03216038
#
# Stress axis : x y z
#
# Youngs Moduli (GPa) = 35.06554 20.92378 72.78446
#
# Poissons Ratio (x) = 0.22931 0.90626
# Poissons Ratio (y) = 0.38430 0.40278
# Poissons Ratio (z) = 0.43661 0.11579
#
# Static dielectric constant tensor:
#      x y z
#    x 1.571570 0.000000 -0.013610 
#    y 0.000000 1.597510 0.000000 
#    z -0.013610 0.000000 1.620000 
# 
# From -- ./inp_files/345395.got.cif
#   From: 2010.05.17/outbox.cif.g08.bks.cpg/sg12_173_cif.got.tgz:345395.got - 2010.06.03 13:09:07.
