data_PCOD9183141
_publ_section_title
;
Structure prediction by ZEFSAII (Michael W. Deem and Ramdas Pophale) SiO2 
 PCOD9183141
Probable space group: C 2/M
;
_chemical_formula_sum "Si O2"
_cell_formula_units_Z 40
_cell_length_a 9.104123
_cell_length_b 17.519586
_cell_length_c 16.267751
_cell_angle_alpha 90.000000
_cell_angle_beta 46.615918
_cell_angle_gamma 90.000000
_cell_volume 1885.748597
_symmetry_space_group_name_H-M "C 2/M"
_symmetry_group_IT_number 12
_symmetry_cell_setting 'monoclinic'
loop_
_space_group_symop_operation_xyz
x,y,z
-x,y,-z
-x,-y,-z
x,-y,z
1/2+x,1/2+y,z
1/2-x,1/2+y,-z
1/2-x,1/2-y,-z
1/2+x,1/2-y,z
loop_
_atom_site_type_symbol
_atom_site_label
_atom_site_fract_x
_atom_site_fract_y
_atom_site_fract_z
Si Si1 0.304241 0.703529 0.681508
Si Si2 0.277418 0.590194 0.109610
Si Si3 0.588490 0.909196 0.638672
Si Si4 0.070571 0.311050 0.064065
Si Si5 0.762213 0.818720 0.430861
O O1 0.238569 0.637895 0.641415
O O2 0.322791 0.780874 0.619621
O O3 0.493747 0.673521 0.661972
O O4 0.119948 0.719147 0.812458
O O5 0.301089 0.500000 0.109998
O O6 0.143222 0.613445 0.083279
O O7 0.137663 0.614187 0.241697
O O8 0.500000 0.622057 0.000000
O O9 0.652647 0.887502 0.520850
O O10 0.606830 0.000000 0.643024
O O11 0.250000 0.250000 0.000000
O O12 0.000000 0.326263 0.000000
O O13 0.750000 0.750000 0.500000
#
# Coordination Sequence:
#
# PCOD9183141 Si02
#       5
#     8   8   8   8   8
#     4  10  21  36  54  80 111 146 182 227 279 328
#     4   9  19  37  59  84 116 151 185 228 286 342
#     4   9  18  33  56  84 111 143 183 225 275 334
#     4  11  22  36  57  85 114 147 191 238 281 333
#     4  10  19  33  54  78 107 145 183 220 270 330
#
# _framework density 21.211736999999999
#
# number of rings (size 3 to 8) (size 9 to 14) (size 15 to 20)
#    0.000    2.200    0.000    4.200    0.000    5.200 
#    0.000    2.000    0.000   13.200    0.000    5.600 
#    0.000    0.000    0.000    0.000    0.000    0.000 
#
# Total GULP energy -111448.372828 kJ/mol
# GULP energy per Si atom -5572.418641 kJ/mol
# Density = 2.116346 g / cm^3
# Si number density = 21.211737 Si / 1000 Ang^3
#
#
#
# Elastic Constant Matrix: (Units=GPa)
#
#
# Indices 1 2 3 4 5 6 
#
# 1 99.6635 21.6485 56.3952 -0.0001 -7.7338 0.0003
# 2 21.6485 54.3683 21.4346 -0.0001 -2.1745 0.0001
# 3 56.3952 21.4346 142.9040 -0.0001 -11.2135 0.0002
# 4 -0.0001 -0.0001 -0.0001 27.7024 0.0001 -4.7221
# 5 -7.7338 -2.1745 -11.2135 0.0001 42.1784 -0.0001
# 6 0.0003 0.0001 0.0002 -4.7221 -0.0001 19.3621
#
#
#
# Elastic Compliance Matrix: (Units=1/GPa)
#
#
# Indices 1 2 3 4 5 6 
#
# 1 0.013557 -0.003486 -0.004745 0.000000 0.001045 0.000000
# 2 -0.003486 0.020448 -0.001694 0.000000 -0.000035 0.000000
# 3 -0.004745 -0.001694 0.009242 0.000000 0.001500 0.000000
# 4 0.000000 0.000000 0.000000 0.037664 0.000000 0.009185
# 5 0.001045 -0.000035 0.001500 0.000000 0.024297 0.000000
# 6 0.000000 0.000000 0.000000 0.009185 0.000000 0.053887
#
#
# Mechanical properties :
#
#
# Convention : Reuss Voigt Hill
#
# Bulk Modulus (GPa) = 42.74144 55.09914 48.92029
# Shear Modulus (GPa) = 26.77456 31.01242 28.89349
#
# Velocity S-wave (km/s) = 3.55667 3.82781 3.69473
# Velocity P-wave (km/s) = 6.08771 6.75043 6.42762
#
# Compressibility (1/GPa) = 0.02339650
#
# Stress axis : x y z
#
# Youngs Moduli (GPa) = 73.76186 48.90569 108.19934
#
# Poissons Ratio (x) = 0.17047 0.51345
# Poissons Ratio (y) = 0.25710 0.18331
# Poissons Ratio (z) = 0.35003 0.08286
#
# Static dielectric constant tensor:
#      x y z
#    x 1.888250 0.000000 -0.058910 
#    y 0.000000 1.757980 0.000000 
#    z -0.058910 0.000000 1.929500 
# 
# From -- ./inp_files/119134.got.cif
#   From: 2010.05.17/outbox.cif.g08.bks.cpg/sg12_60_cif.got.tgz:119134.got - 2010.06.03 13:09:07.
