data_PCOD9183825
_publ_section_title
;
Structure prediction by ZEFSAII (Michael W. Deem and Ramdas Pophale) SiO2 
 PCOD9183825
Probable space group: C 2/M
;
_chemical_formula_sum "Si O2"
_cell_formula_units_Z 56
_cell_length_a 24.579759
_cell_length_b 14.667952
_cell_length_c 11.625665
_cell_angle_alpha 90.000000
_cell_angle_beta 138.091105
_cell_angle_gamma 90.000000
_cell_volume 2799.675027
_symmetry_space_group_name_H-M "C 2/M"
_symmetry_group_IT_number 12
_symmetry_cell_setting 'monoclinic'
loop_
_space_group_symop_operation_xyz
x,y,z
-x,y,-z
-x,-y,-z
x,-y,z
1/2+x,1/2+y,z
1/2-x,1/2+y,-z
1/2-x,1/2-y,-z
1/2+x,1/2-y,z
loop_
_atom_site_type_symbol
_atom_site_label
_atom_site_fract_x
_atom_site_fract_y
_atom_site_fract_z
Si Si1 0.240201 0.105921 0.770629
Si Si2 0.411694 0.608853 0.321565
Si Si3 0.347022 0.398171 0.612920
Si Si4 0.865785 0.895404 0.984315
Si Si5 0.079070 0.708113 0.275874
Si Si6 0.215874 0.603873 0.611599
Si Si7 0.400452 0.796325 0.956339
O O1 0.167301 0.143927 0.734822
O O2 0.204469 0.105504 0.585437
O O3 0.257307 0.000000 0.829222
O O4 0.322739 0.163531 0.898797
O O5 0.500000 0.645358 0.500000
O O6 0.413239 0.500000 0.350583
O O7 0.395614 0.618089 0.161015
O O8 0.382440 0.500000 0.678878
O O9 0.411607 0.317358 0.708779
O O10 0.283106 0.383586 0.616011
O O11 0.768223 0.885376 0.810102
O O12 0.885051 0.000000 0.979906
O O13 0.901536 0.813244 0.966886
O O14 0.142254 0.670050 0.467787
O O15 0.986974 0.674893 0.144645
O O16 0.104225 0.678140 0.185781
O O17 0.186608 0.500000 0.558258
#
# Coordination Sequence:
#
# PCOD9183825 Si02
#       7
#     8   8   8   8   8   8   8
#     4  10  21  38  60  83 112 150 191 237 285 335
#     4   9  20  39  62  87 113 145 187 238 292 342
#     4  10  19  33  56  82 107 148 193 234 288 342
#     4  10  21  38  59  84 114 146 190 239 287 342
#     4  11  22  35  52  83 124 156 189 229 278 343
#     4  10  19  35  58  82 111 153 195 233 284 336
#     4  11  23  35  54  85 119 156 191 231 281 336
#
# _framework density 20.002320999999998
#
# number of rings (size 3 to 8) (size 9 to 14) (size 15 to 20)
#    0.000    1.857    2.857    1.286    2.000    1.714 
#    0.000    2.857    0.000    0.000    0.000    4.000 
#    0.000    0.000    0.000    0.000    0.000    0.000 
#
# Total GULP energy -156219.755589 kJ/mol
# GULP energy per Si atom -5579.276985 kJ/mol
# Density = 1.995680 g / cm^3
# Si number density = 20.002321 Si / 1000 Ang^3
#
#
#
# Elastic Constant Matrix: (Units=GPa)
#
#
# Indices 1 2 3 4 5 6 
#
# 1 60.5531 19.4662 32.0664 0.0000 19.1662 0.0000
# 2 19.4662 51.3718 37.9075 0.0000 15.2867 0.0000
# 3 32.0664 37.9075 110.6756 0.0000 17.1098 0.0000
# 4 0.0000 0.0000 0.0000 17.8015 0.0000 -4.0943
# 5 19.1662 15.2867 17.1098 0.0000 26.6399 0.0000
# 6 0.0000 0.0000 0.0000 -4.0943 0.0000 7.0738
#
#
#
# Elastic Compliance Matrix: (Units=1/GPa)
#
#
# Indices 1 2 3 4 5 6 
#
# 1 0.023471 -0.001963 -0.004098 0.000000 -0.013128 0.000000
# 2 -0.001963 0.028995 -0.007781 0.000000 -0.010228 0.000000
# 3 -0.004098 -0.007781 0.013036 0.000000 -0.000959 0.000000
# 4 0.000000 0.000000 0.000000 0.064802 0.000000 0.037507
# 5 -0.013128 -0.010228 -0.000959 0.000000 0.053468 0.000000
# 6 0.000000 0.000000 0.000000 0.037507 0.000000 0.163076
#
#
# Mechanical properties :
#
#
# Convention : Reuss Voigt Hill
#
# Bulk Modulus (GPa) = 26.44321 44.60895 35.52608
# Shear Modulus (GPa) = 12.91526 19.18038 16.04782
#
# Velocity S-wave (km/s) = 2.54380 3.09998 2.83556
# Velocity P-wave (km/s) = 4.67725 5.92988 5.34042
#
# Compressibility (1/GPa) = 0.03781688
#
# Stress axis : x y z
#
# Youngs Moduli (GPa) = 42.60566 34.48855 76.70921
#
# Poissons Ratio (x) = 0.06771 0.31439
# Poissons Ratio (y) = 0.08364 0.59688
# Poissons Ratio (z) = 0.17462 0.26836
#
# Static dielectric constant tensor:
#      x y z
#    x 1.710100 0.000000 -0.003360 
#    y 0.000000 1.738060 0.000000 
#    z -0.003360 0.000000 1.719230 
# 
# From -- ./inp_files/183534.got.cif
#   From: 2010.05.17/outbox.cif.g08.bks.cpg/sg12_92_cif.got.tgz:183534.got - 2010.06.03 13:09:07.
