data_PCOD9183354
_publ_section_title
;
Structure prediction by ZEFSAII (Michael W. Deem and Ramdas Pophale) SiO2 
 PCOD9183354
Probable space group: C 2/M
;
_chemical_formula_sum "Si O2"
_cell_formula_units_Z 60
_cell_length_a 14.272189
_cell_length_b 15.323856
_cell_length_c 15.054810
_cell_angle_alpha 90.000000
_cell_angle_beta 86.113914
_cell_angle_gamma 90.000000
_cell_volume 3284.991387
_symmetry_space_group_name_H-M "C 2/M"
_symmetry_group_IT_number 12
_symmetry_cell_setting 'monoclinic'
loop_
_space_group_symop_operation_xyz
x,y,z
-x,y,-z
-x,-y,-z
x,-y,z
1/2+x,1/2+y,z
1/2-x,1/2+y,-z
1/2-x,1/2-y,-z
1/2+x,1/2-y,z
loop_
_atom_site_type_symbol
_atom_site_label
_atom_site_fract_x
_atom_site_fract_y
_atom_site_fract_z
Si Si1 0.000000 0.839085 0.000000
Si Si2 0.691326 0.095340 0.387393
Si Si3 0.504572 0.905193 0.701451
Si Si4 0.096323 0.306079 0.543743
Si Si5 0.982076 0.236831 0.812990
Si Si6 0.713842 0.603835 0.995659
Si Si7 0.355864 0.686418 0.296565
Si Si8 0.263491 0.743031 0.854394
O O1 0.098997 0.890085 0.002297
O O2 0.992208 0.779348 0.087212
O O3 0.601774 0.098634 0.328199
O O4 0.670535 0.165522 0.465144
O O5 0.783866 0.110410 0.323966
O O6 0.693253 0.000000 0.429429
O O7 0.567125 0.885788 0.610525
O O8 0.513814 0.829057 0.771594
O O9 0.524750 0.000000 0.737131
O O10 0.128885 0.234140 0.610939
O O11 0.000000 0.279971 0.500000
O O12 0.042160 0.167526 0.751634
O O13 0.870218 0.233555 0.813707
O O14 0.739191 0.500000 0.990398
O O15 0.749899 0.659075 0.079776
O O16 0.749644 0.667132 0.912864
O O17 0.303422 0.745978 0.226083
#
# Coordination Sequence:
#
# PCOD9183354 Si02
#       8
#     4   8   8   8   8   8   8   8
#     4  10  19  36  59  80 114 154 191 234 270 334
#     4  10  19  33  54  84 109 138 189 239 285 336
#     4   9  17  31  53  80 111 143 184 235 285 338
#     4   9  19  34  56  81 111 148 185 230 289 347
#     4  10  20  35  54  79 115 147 189 231 286 330
#     4  10  21  38  61  85 115 153 195 237 285 339
#     4  11  20  36  58  83 109 152 190 234 286 340
#     4  10  21  38  58  84 116 152 191 240 287 332
#
# _framework density 18.264889
#
# number of rings (size 3 to 8) (size 9 to 14) (size 15 to 20)
#    0.000    2.133    2.667    1.000    0.000    2.667 
#    0.000    4.333    0.000    0.400    0.000    0.000 
#    0.000    0.000    0.000    0.000    0.000    0.000 
#
# Total GULP energy -167017.357031 kJ/mol
# GULP energy per Si atom -5567.245234 kJ/mol
# Density = 1.822332 g / cm^3
# Si number density = 18.264889 Si / 1000 Ang^3
#
#
#
# Elastic Constant Matrix: (Units=GPa)
#
#
# Indices 1 2 3 4 5 6 
#
# 1 72.8398 18.3925 26.6808 0.0000 -20.9581 0.0000
# 2 18.3925 66.4315 27.2876 0.0000 2.2418 0.0000
# 3 26.6808 27.2876 84.5633 0.0000 0.9043 0.0000
# 4 0.0000 0.0000 0.0000 14.5033 0.0000 -4.9179
# 5 -20.9581 2.2418 0.9043 0.0000 33.9146 0.0000
# 6 0.0000 0.0000 0.0000 -4.9179 0.0000 1.9287
#
#
#
# Elastic Compliance Matrix: (Units=1/GPa)
#
#
# Indices 1 2 3 4 5 6 
#
# 1 0.020406 -0.003904 -0.005317 0.000000 0.013010 0.000000
# 2 -0.003904 0.018134 -0.004582 0.000000 -0.003489 0.000000
# 3 -0.005317 -0.004582 0.015018 0.000000 -0.003384 0.000000
# 4 0.000000 0.000000 0.000000 0.509228 0.000000 1.298425
# 5 0.013010 -0.003489 -0.003384 0.000000 0.037846 0.000000
# 6 0.000000 0.000000 0.000000 1.298425 0.000000 3.829186
#
#
# Mechanical properties :
#
#
# Convention : Reuss Voigt Hill
#
# Bulk Modulus (GPa) = 38.53679 40.95072 39.74376
# Shear Modulus (GPa) = 1.11955 20.16758 10.64356
#
# Velocity S-wave (km/s) = 0.78376 3.32651 2.41661
# Velocity P-wave (km/s) = 4.68654 6.10110 5.43999
#
# Compressibility (1/GPa) = 0.02594923
#
# Stress axis : x y z
#
# Youngs Moduli (GPa) = 49.00567 55.14451 66.58636
#
# Poissons Ratio (x) = 0.21531 0.35407
# Poissons Ratio (y) = 0.19134 0.30513
# Poissons Ratio (z) = 0.26059 0.25270
#
# Static dielectric constant tensor:
#      x y z
#    x 1.670810 0.000000 -0.021350 
#    y 0.000000 1.625220 0.000000 
#    z -0.021350 0.000000 1.625300 
# 
# From -- ./inp_files/214835.got.cif
#   From: 2010.05.17/outbox.cif.g08.bks.cpg/sg12_108_cif.got.tgz:214835.got - 2010.06.03 13:09:07.
