data_PCOD9183645
_publ_section_title
;
Structure prediction by ZEFSAII (Michael W. Deem and Ramdas Pophale) SiO2 
 PCOD9183645
Probable space group: C 2/M
;
_chemical_formula_sum "Si O2"
_cell_formula_units_Z 56
_cell_length_a 13.882545
_cell_length_b 20.938028
_cell_length_c 9.654608
_cell_angle_alpha 90.000000
_cell_angle_beta 89.201947
_cell_angle_gamma 90.000000
_cell_volume 2806.062770
_symmetry_space_group_name_H-M "C 2/M"
_symmetry_group_IT_number 12
_symmetry_cell_setting 'monoclinic'
loop_
_space_group_symop_operation_xyz
x,y,z
-x,y,-z
-x,-y,-z
x,-y,z
1/2+x,1/2+y,z
1/2-x,1/2+y,-z
1/2-x,1/2-y,-z
1/2+x,1/2-y,z
loop_
_atom_site_type_symbol
_atom_site_label
_atom_site_fract_x
_atom_site_fract_y
_atom_site_fract_z
Si Si1 0.550613 0.251664 0.629374
Si Si2 0.927161 0.825526 0.107959
Si Si3 0.402874 0.000000 0.193241
Si Si4 0.728011 0.127475 0.236841
Si Si5 0.371831 0.000000 0.863489
Si Si6 0.821014 0.636767 0.244414
Si Si7 0.887997 0.306743 0.975306
Si Si8 0.209724 0.177803 0.485779
O O1 0.500000 0.218983 0.500000
O O2 0.515924 0.289709 0.766921
O O3 0.611542 0.193500 0.695230
O O4 0.604201 0.308767 0.544297
O O5 0.835390 0.861584 0.172981
O O6 0.883948 0.766341 0.020747
O O7 0.000000 0.859471 0.000000
O O8 0.518557 0.000000 0.193039
O O9 0.361642 0.065451 0.258804
O O10 0.375705 0.000000 0.030311
O O11 0.683203 0.061573 0.190424
O O12 0.735518 0.135931 0.401009
O O13 0.654642 0.180222 0.174645
O O14 0.821614 0.652776 0.081956
O O15 0.724752 0.648726 0.334681
O O16 0.000000 0.327728 0.000000
O O17 0.250000 0.250000 0.500000
#
# Coordination Sequence:
#
# PCOD9183645 Si02
#       8
#     8   8   4   8   4   8   8   8
#     4   9  19  36  55  80 116 147 178 232 301 342
#     4   9  20  34  55  87 110 140 191 243 293 342
#     4  11  22  39  55  81 117 152 200 234 265 331
#     4  11  21  38  57  80 116 156 191 230 291 340
#     4  11  24  39  58  79 115 163 193 229 284 331
#     4  10  20  34  54  80 113 151 189 232 267 338
#     4  10  19  33  55  83 114 150 188 236 293 341
#     4   9  21  37  54  82 114 145 185 235 290 340
#
# _framework density 19.956790000000002
#
# number of rings (size 3 to 8) (size 9 to 14) (size 15 to 20)
#    0.000    2.143    1.429    2.143    0.000   10.857 
#    0.000    1.429    0.000    0.000    0.000    2.500 
#    0.000    0.000    0.000    0.000    0.000    0.000 
#
# Total GULP energy -155940.093835 kJ/mol
# GULP energy per Si atom -5569.289066 kJ/mol
# Density = 1.991137 g / cm^3
# Si number density = 19.956790 Si / 1000 Ang^3
#
#
#
# Elastic Constant Matrix: (Units=GPa)
#
#
# Indices 1 2 3 4 5 6 
#
# 1 45.9111 22.6863 12.4494 0.0000 -11.4551 0.0000
# 2 22.6863 80.5297 15.7075 0.0000 -14.6509 0.0000
# 3 12.4494 15.7075 45.8123 0.0000 -15.0079 0.0000
# 4 0.0000 0.0000 0.0000 26.8574 0.0000 -0.1914
# 5 -11.4551 -14.6509 -15.0079 0.0000 35.9526 0.0000
# 6 0.0000 0.0000 0.0000 -0.1914 0.0000 20.6797
#
#
#
# Elastic Compliance Matrix: (Units=1/GPa)
#
#
# Indices 1 2 3 4 5 6 
#
# 1 0.026911 -0.006020 -0.003758 0.000000 0.004552 0.000000
# 2 -0.006020 0.015191 -0.002517 0.000000 0.003222 0.000000
# 3 -0.003758 -0.002517 0.026625 0.000000 0.008891 0.000000
# 4 0.000000 0.000000 0.000000 0.037236 0.000000 0.000345
# 5 0.004552 0.003222 0.008891 0.000000 0.034289 0.000000
# 6 0.000000 0.000000 0.000000 0.000345 0.000000 0.048360
#
#
# Mechanical properties :
#
#
# Convention : Reuss Voigt Hill
#
# Bulk Modulus (GPa) = 22.65656 30.43772 26.54714
# Shear Modulus (GPa) = 21.93818 24.79195 23.36506
#
# Velocity S-wave (km/s) = 3.31914 3.52842 3.42538
# Velocity P-wave (km/s) = 5.10553 5.64665 5.38289
#
# Compressibility (1/GPa) = 0.04413733
#
# Stress axis : x y z
#
# Youngs Moduli (GPa) = 37.16002 65.82958 37.55856
#
# Poissons Ratio (x) = 0.39629 0.14113
# Poissons Ratio (y) = 0.22370 0.09454
# Poissons Ratio (z) = 0.13963 0.16570
#
# Static dielectric constant tensor:
#      x y z
#    x 1.854970 0.000000 -0.012020 
#    y 0.000000 1.681600 0.000000 
#    z -0.012020 0.000000 1.857330 
# 
# From -- ./inp_files/64125.got.cif
#   From: 2010.05.17/outbox.cif.g08.bks.cpg/sg12_33_cif.got.tgz:64125.got - 2010.06.03 13:09:07.
