data_PCOD9183503
_publ_section_title
;
Structure prediction by ZEFSAII (Michael W. Deem and Ramdas Pophale) SiO2 
 PCOD9183503
Probable space group: C 2/M
;
_chemical_formula_sum "Si O2"
_cell_formula_units_Z 64
_cell_length_a 17.322411
_cell_length_b 11.360707
_cell_length_c 20.362143
_cell_angle_alpha 90.000000
_cell_angle_beta 58.063657
_cell_angle_gamma 90.000000
_cell_volume 3400.625435
_symmetry_space_group_name_H-M "C 2/M"
_symmetry_group_IT_number 12
_symmetry_cell_setting 'monoclinic'
loop_
_space_group_symop_operation_xyz
x,y,z
-x,y,-z
-x,-y,-z
x,-y,z
1/2+x,1/2+y,z
1/2-x,1/2+y,-z
1/2-x,1/2-y,-z
1/2+x,1/2-y,z
loop_
_atom_site_type_symbol
_atom_site_label
_atom_site_fract_x
_atom_site_fract_y
_atom_site_fract_z
Si Si1 0.761696 0.364613 0.042659
Si Si2 0.028697 0.627341 0.827999
Si Si3 0.937304 0.864283 0.347110
Si Si4 0.798618 0.716041 0.319899
Si Si5 0.298816 0.363255 0.512348
Si Si6 0.750222 0.864386 0.215936
Si Si7 0.590646 0.759289 0.931256
Si Si8 0.893924 0.231787 0.800987
O O1 0.763028 0.500000 0.015459
O O2 0.853821 0.334547 0.040515
O O3 0.678854 0.354818 0.132546
O O4 0.750000 0.250000 0.000000
O O5 0.986120 0.500000 0.840596
O O6 0.123646 0.632870 0.745519
O O7 0.055248 0.656077 0.889864
O O8 0.958904 0.720096 0.829169
O O9 0.860689 0.802833 0.336428
O O10 0.901234 0.852673 0.438070
O O11 0.036291 0.816798 0.284637
O O12 0.937454 0.000000 0.329308
O O13 0.726070 0.654558 0.400290
O O14 0.753324 0.784791 0.279877
O O15 0.270449 0.500000 0.507530
O O16 0.250000 0.250000 0.500000
O O17 0.839649 0.830763 0.133731
O O18 0.665785 0.831035 0.207761
O O19 0.749945 0.000000 0.234162
O O20 0.500000 0.700213 0.000000
#
# Coordination Sequence:
#
# PCOD9183503 Si02
#       8
#     8   8   8   8   8   8   8   8
#     4  11  24  40  59  83 113 149 185 226 277 332
#     4  10  19  33  55  80 108 144 185 229 275 326
#     4   9  17  32  55  79 105 141 183 228 276 325
#     4   9  18  32  52  80 111 143 184 229 274 328
#     4   9  17  31  54  84 115 147 187 234 282 330
#     4  10  21  37  56  79 110 148 185 225 280 337
#     4  10  22  38  56  82 108 137 182 233 278 327
#     4  10  21  36  55  80 110 143 184 229 277 331
#
# _framework density 18.820067000000002
#
# number of rings (size 3 to 8) (size 9 to 14) (size 15 to 20)
#    0.000    2.250    0.000    2.625    0.000    5.250 
#    0.000    7.500    0.000    2.250    0.000    0.000 
#    0.000    0.000    0.000    0.000    0.000    0.000 
#
# Total GULP energy -178191.515806 kJ/mol
# GULP energy per Si atom -5568.484869 kJ/mol
# Density = 1.877723 g / cm^3
# Si number density = 18.820067 Si / 1000 Ang^3
#
#
#
# Elastic Constant Matrix: (Units=GPa)
#
#
# Indices 1 2 3 4 5 6 
#
# 1 73.4616 27.2887 44.6265 0.0000 -2.3323 0.0000
# 2 27.2887 102.5579 26.4536 0.0000 -2.8118 0.0000
# 3 44.6265 26.4536 114.0069 0.0000 -16.0280 0.0000
# 4 0.0000 0.0000 0.0000 4.0131 0.0000 0.9414
# 5 -2.3323 -2.8118 -16.0280 0.0000 25.2736 0.0000
# 6 0.0000 0.0000 0.0000 0.9414 0.0000 3.2773
#
#
#
# Elastic Compliance Matrix: (Units=1/GPa)
#
#
# Indices 1 2 3 4 5 6 
#
# 1 0.019085 -0.003322 -0.007141 0.000000 -0.003137 0.000000
# 2 -0.003322 0.010954 -0.001222 0.000000 0.000137 0.000000
# 3 -0.007141 -0.001222 0.012887 0.000000 0.007378 0.000000
# 4 0.000000 0.000000 0.000000 0.267186 0.000000 -0.076748
# 5 -0.003137 0.000137 0.007378 0.000000 0.043972 0.000000
# 6 0.000000 0.000000 0.000000 -0.076748 0.000000 0.327171
#
#
# Mechanical properties :
#
#
# Convention : Reuss Voigt Hill
#
# Bulk Modulus (GPa) = 51.13490 54.08489 52.60990
# Shear Modulus (GPa) = 7.03094 19.28999 13.16047
#
# Velocity S-wave (km/s) = 1.93494 3.20499 2.64726
# Velocity P-wave (km/s) = 5.67639 6.51891 6.11218
#
# Compressibility (1/GPa) = 0.01955611
#
# Stress axis : x y z
#
# Youngs Moduli (GPa) = 52.39742 91.29500 77.59589
#
# Poissons Ratio (x) = 0.30331 0.55409
# Poissons Ratio (y) = 0.17408 0.09481
# Poissons Ratio (z) = 0.37415 0.11155
#
# Static dielectric constant tensor:
#      x y z
#    x 1.616180 0.000000 0.000730 
#    y 0.000000 1.664850 0.000000 
#    z 0.000730 0.000000 1.706520 
# 
# From -- ./inp_files/315678.got.cif
#   From: 2010.05.17/outbox.cif.g08.bks.cpg/sg12_158_cif.got.tgz:315678.got - 2010.06.03 13:09:07.
