data_PCOD9183126
_publ_section_title
;
Structure prediction by ZEFSAII (Michael W. Deem and Ramdas Pophale) SiO2 
 PCOD9183126
Probable space group: C 2/M
;
_chemical_formula_sum "Si O2"
_cell_formula_units_Z 64
_cell_length_a 23.487157
_cell_length_b 18.370422
_cell_length_c 22.536120
_cell_angle_alpha 90.000000
_cell_angle_beta 20.972207
_cell_angle_gamma 90.000000
_cell_volume 3480.235934
_symmetry_space_group_name_H-M "C 2/M"
_symmetry_group_IT_number 12
_symmetry_cell_setting 'monoclinic'
loop_
_space_group_symop_operation_xyz
x,y,z
-x,y,-z
-x,-y,-z
x,-y,z
1/2+x,1/2+y,z
1/2-x,1/2+y,-z
1/2-x,1/2-y,-z
1/2+x,1/2-y,z
loop_
_atom_site_type_symbol
_atom_site_label
_atom_site_fract_x
_atom_site_fract_y
_atom_site_fract_z
Si Si1 0.790167 0.422758 0.506087
Si Si2 0.642723 0.364098 0.537467
Si Si3 0.827379 0.717848 0.783299
Si Si4 0.154533 0.082588 0.391726
Si Si5 0.712959 0.781391 0.421828
Si Si6 0.827855 0.582606 0.865225
Si Si7 0.794431 0.819394 0.916046
Si Si8 0.318080 0.230772 0.194842
O O1 0.734907 0.500000 0.584800
O O2 0.734776 0.415885 0.492429
O O3 0.731813 0.352969 0.598510
O O4 0.980937 0.420056 0.323603
O O5 0.614592 0.397210 0.499278
O O6 0.746191 0.291085 0.427228
O O7 0.478945 0.340730 0.728657
O O8 0.775834 0.642983 0.866668
O O9 0.754095 0.787173 0.890347
O O10 0.781154 0.730300 0.760660
O O11 0.019963 0.719567 0.601951
O O12 0.262194 0.148018 0.262119
O O13 0.000000 0.083465 0.500000
O O14 0.220292 0.000000 0.326134
O O15 0.789553 0.773336 0.283500
O O16 0.768009 0.500000 0.914469
O O17 0.784362 0.613657 0.972689
O O18 0.750000 0.750000 0.000000
O O19 0.500000 0.231452 0.000000
#
# Coordination Sequence:
#
# PCOD9183126 Si02
#       8
#     8   8   8   8   8   8   8   8
#     4  10  20  34  52  78 108 135 171 217 264 311
#     4  10  19  33  54  78 105 139 176 212 259 312
#     4   9  18  36  55  73 102 140 179 213 256 317
#     4  10  21  38  57  77 106 143 178 210 253 314
#     4   9  19  35  55  73  99 140 178 212 255 317
#     4   9  19  34  53  78 107 139 174 217 263 308
#     4   9  18  31  51  76 102 134 171 210 251 303
#     4  11  22  35  55  80 103 132 175 224 266 305
#
# _framework density 18.389558000000001
#
# number of rings (size 3 to 8) (size 9 to 14) (size 15 to 20)
#    0.000    2.375    0.000    4.125    0.000    5.250 
#    0.000    1.250    0.000    3.750    0.000    0.000 
#    0.000    0.000    0.000    0.000    0.000    0.000 
#
# Total GULP energy -178276.861776 kJ/mol
# GULP energy per Si atom -5571.151930 kJ/mol
# Density = 1.834770 g / cm^3
# Si number density = 18.389558 Si / 1000 Ang^3
#
#
#
# Elastic Constant Matrix: (Units=GPa)
#
#
# Indices 1 2 3 4 5 6 
#
# 1 66.3433 53.0019 11.9802 0.0288 15.9382 -0.0121
# 2 53.0019 143.5066 30.6811 0.0570 18.2286 -0.0191
# 3 11.9802 30.6811 41.3916 0.0624 23.3929 -0.0288
# 4 0.0288 0.0570 0.0624 15.3055 -0.0200 0.6199
# 5 15.9382 18.2286 23.3929 -0.0200 23.4076 0.0073
# 6 -0.0121 -0.0191 -0.0288 0.6199 0.0073 13.4267
#
#
#
# Elastic Compliance Matrix: (Units=1/GPa)
#
#
# Indices 1 2 3 4 5 6 
#
# 1 0.025592 -0.009186 0.011966 -0.000094 -0.022230 0.000052
# 2 -0.009186 0.011583 -0.010028 0.000025 0.007257 -0.000018
# 3 0.011966 -0.010028 0.065078 -0.000343 -0.065375 0.000188
# 4 -0.000094 0.000025 -0.000343 0.065460 0.000444 -0.003023
# 5 -0.022230 0.007257 -0.065375 0.000444 0.117541 -0.000235
# 6 0.000052 -0.000018 0.000188 -0.003023 -0.000235 0.074619
#
#
# Mechanical properties :
#
#
# Convention : Reuss Voigt Hill
#
# Bulk Modulus (GPa) = 11.39539 49.17422 30.28480
# Shear Modulus (GPa) = 12.38781 20.79986 16.59384
#
# Velocity S-wave (km/s) = 2.59826 3.36679 3.00717
# Velocity P-wave (km/s) = 3.90018 6.47395 5.34431
#
# Compressibility (1/GPa) = 0.08775482
#
# Stress axis : x y z
#
# Youngs Moduli (GPa) = 39.07477 86.33003 15.36628
#
# Poissons Ratio (x) = 0.79307 -0.18387
# Poissons Ratio (y) = 0.35896 0.15410
# Poissons Ratio (z) = -0.46756 0.86575
#
# Static dielectric constant tensor:
#      x y z
#    x 1.628060 -0.000010 -0.003920 
#    y -0.000010 1.667610 0.000000 
#    z -0.003920 0.000000 1.632930 
# 
# From -- ./inp_files/326085.got.cif
#   From: 2010.05.17/outbox.cif.g08.bks.cpg/sg12_164_cif.got.tgz:326085.got - 2010.06.03 13:09:07.
