data_PCOD9183631
_publ_section_title
;
Structure prediction by ZEFSAII (Michael W. Deem and Ramdas Pophale) SiO2 
 PCOD9183631
Probable space group: C 2/M
;
_chemical_formula_sum "Si O2"
_cell_formula_units_Z 64
_cell_length_a 12.768597
_cell_length_b 24.120639
_cell_length_c 24.767534
_cell_angle_alpha 90.000000
_cell_angle_beta 153.520284
_cell_angle_gamma 90.000000
_cell_volume 3401.211842
_symmetry_space_group_name_H-M "C 2/M"
_symmetry_group_IT_number 12
_symmetry_cell_setting 'monoclinic'
loop_
_space_group_symop_operation_xyz
x,y,z
-x,y,-z
-x,-y,-z
x,-y,z
1/2+x,1/2+y,z
1/2-x,1/2+y,-z
1/2-x,1/2-y,-z
1/2+x,1/2-y,z
loop_
_atom_site_type_symbol
_atom_site_label
_atom_site_fract_x
_atom_site_fract_y
_atom_site_fract_z
Si Si1 0.721205 0.693787 0.453952
Si Si2 0.999169 0.223463 0.761637
Si Si3 0.613946 0.181417 0.886898
Si Si4 0.546491 0.062869 0.699505
Si Si5 0.023665 0.437603 0.207483
Si Si6 0.083100 0.246093 0.108997
Si Si7 0.778682 0.663358 0.279997
Si Si8 0.972773 0.114119 0.548639
O O1 0.750000 0.750000 0.500000
O O2 0.642233 0.707087 0.357008
O O3 0.545830 0.656774 0.409907
O O4 0.979799 0.666901 0.575129
O O5 0.967136 0.285433 0.772333
O O6 0.269698 0.223778 0.869065
O O7 0.931421 0.180998 0.777641
O O8 0.580824 0.116068 0.870211
O O9 0.528683 0.208673 0.903078
O O10 0.881756 0.201399 0.002890
O O11 0.576971 0.065231 0.778048
O O12 0.717700 0.104713 0.747760
O O13 0.277016 0.082581 0.566121
O O14 0.575154 0.000000 0.694507
O O15 0.982092 0.500000 0.167427
O O16 0.303855 0.425734 0.340551
O O17 0.273478 0.210204 0.230949
O O18 0.000000 0.138582 0.500000
#
# Coordination Sequence:
#
# PCOD9183631 Si02
#       8
#     8   8   8   8   8   8   8   8
#     4  11  21  32  50  82 116 142 180 228 287 339
#     4  11  21  34  54  77 112 143 183 223 280 339
#     4  10  22  35  57  80 113 146 185 231 283 339
#     4   9  18  34  53  77 112 151 190 229 275 335
#     4  10  19  33  55  83 111 145 188 238 285 332
#     4  10  20  38  54  80 110 149 184 227 284 338
#     4  10  21  35  53  79 109 146 185 230 275 339
#     4   9  19  31  53  78 113 151 185 225 283 346
#
# _framework density 18.816822999999999
#
# number of rings (size 3 to 8) (size 9 to 14) (size 15 to 20)
#    0.000    2.000    1.250    2.625    5.250    1.500 
#    0.000    0.625    0.000   12.000    0.000    0.000 
#    0.000   15.000    0.000    0.000    0.000    0.000 
#
# Total GULP energy -178469.981350 kJ/mol
# GULP energy per Si atom -5577.186917 kJ/mol
# Density = 1.877400 g / cm^3
# Si number density = 18.816823 Si / 1000 Ang^3
#
#
#
# Elastic Constant Matrix: (Units=GPa)
#
#
# Indices 1 2 3 4 5 6 
#
# 1 105.3853 56.9465 12.8480 0.0037 17.7958 -0.0001
# 2 56.9465 141.4675 26.0125 0.0015 3.3048 0.0004
# 3 12.8480 26.0125 53.8682 0.0184 2.7436 0.0004
# 4 0.0037 0.0015 0.0184 18.3822 0.0031 -0.6746
# 5 17.7958 3.3048 2.7436 0.0031 24.7296 -0.0007
# 6 -0.0001 0.0004 0.0004 -0.6746 -0.0007 28.1098
#
#
#
# Elastic Compliance Matrix: (Units=1/GPa)
#
#
# Indices 1 2 3 4 5 6 
#
# 1 0.013997 -0.005366 -0.000272 -0.000001 -0.009325 0.000000
# 2 -0.005366 0.009825 -0.003615 0.000003 0.002950 0.000000
# 3 -0.000272 -0.003615 0.020455 -0.000020 -0.001591 -0.000001
# 4 -0.000001 0.000003 -0.000020 0.054449 -0.000005 0.001307
# 5 -0.009325 0.002950 -0.001591 -0.000005 0.046930 0.000001
# 6 0.000000 0.000000 -0.000001 0.001307 0.000001 0.035606
#
#
# Mechanical properties :
#
#
# Convention : Reuss Voigt Hill
#
# Bulk Modulus (GPa) = 38.80396 54.70389 46.75392
# Shear Modulus (GPa) = 23.99727 27.90524 25.95125
#
# Velocity S-wave (km/s) = 3.57502 3.85514 3.71772
# Velocity P-wave (km/s) = 6.14066 6.99651 6.58251
#
# Compressibility (1/GPa) = 0.02577057
#
# Stress axis : x y z
#
# Youngs Moduli (GPa) = 71.44606 101.78463 48.88741
#
# Poissons Ratio (x) = 0.54621 0.01330
# Poissons Ratio (y) = 0.38340 0.17671
# Poissons Ratio (z) = 0.01943 0.36791
#
# Static dielectric constant tensor:
#      x y z
#    x 1.694210 0.000000 -0.009240 
#    y 0.000000 1.639000 -0.000010 
#    z -0.009240 -0.000010 1.738070 
# 
# From -- ./inp_files/337121.got.cif
#   From: 2010.05.17/outbox.cif.g08.bks.cpg/sg12_169_cif.got.tgz:337121.got - 2010.06.03 13:09:07.
