data_PCOD9183449
_publ_section_title
;
Structure prediction by ZEFSAII (Michael W. Deem and Ramdas Pophale) SiO2 
 PCOD9183449
Probable space group: C 2/M
;
_chemical_formula_sum "Si O2"
_cell_formula_units_Z 48
_cell_length_a 30.322897
_cell_length_b 7.444362
_cell_length_c 8.559202
_cell_angle_alpha 90.000000
_cell_angle_beta 88.394138
_cell_angle_gamma 90.000000
_cell_volume 1931.349400
_symmetry_space_group_name_H-M "C 2/M"
_symmetry_group_IT_number 12
_symmetry_cell_setting 'monoclinic'
loop_
_space_group_symop_operation_xyz
x,y,z
-x,y,-z
-x,-y,-z
x,-y,z
1/2+x,1/2+y,z
1/2-x,1/2+y,-z
1/2-x,1/2-y,-z
1/2+x,1/2-y,z
loop_
_atom_site_type_symbol
_atom_site_label
_atom_site_fract_x
_atom_site_fract_y
_atom_site_fract_z
Si Si1 0.356209 0.209603 0.815065
Si Si2 0.481390 0.719305 0.166999
Si Si3 0.770990 0.714766 0.666467
Si Si4 0.312836 0.282897 0.152193
Si Si5 0.894051 0.218570 0.337773
Si Si6 0.439286 0.295350 0.644767
O O1 0.320080 0.284104 0.695218
O O2 0.403726 0.298156 0.788648
O O3 0.363989 0.000000 0.786162
O O4 0.333274 0.229253 0.985120
O O5 0.482978 0.500000 0.167214
O O6 0.431410 0.769210 0.208357
O O7 0.515048 0.782725 0.298280
O O8 0.500000 0.780553 0.000000
O O9 0.774211 0.500000 0.683685
O O10 0.750000 0.750000 0.500000
O O11 0.736028 0.781376 0.799496
O O12 0.311831 0.500000 0.154029
O O13 0.346507 0.220397 0.284286
O O14 0.912987 0.284081 0.500929
O O15 0.891571 0.000000 0.344180
O O16 0.449599 0.500000 0.597089
#
# Coordination Sequence:
#
# PCOD9183449 Si02
#       6
#     8   8   8   8   8   8
#     4  11  23  37  53  78 111 142 175 217 265 314
#     4   9  16  27  48  80 111 136 170 220 270 311
#     4  10  22  38  57  82 110 140 175 217 263 314
#     4  10  20  36  57  79 104 138 181 222 262 313
#     4   9  17  30  52  82 108 132 173 226 270 310
#     4  10  19  33  55  79 106 142 179 217 263 315
#
# _framework density 24.853090999999999
#
# number of rings (size 3 to 8) (size 9 to 14) (size 15 to 20)
#    0.000    2.167    0.000    3.500    0.000    8.000 
#    0.000    0.833    0.000    6.500    0.000    0.000 
#    0.000    0.000    0.000    0.000    0.000    0.000 
#
# Total GULP energy -134255.252841 kJ/mol
# GULP energy per Si atom -5593.968868 kJ/mol
# Density = 2.479652 g / cm^3
# Si number density = 24.853091 Si / 1000 Ang^3
#
#
#
# Elastic Constant Matrix: (Units=GPa)
#
#
# Indices 1 2 3 4 5 6 
#
# 1 94.8297 3.1460 -21.7453 0.0000 2.3930 0.0000
# 2 3.1460 87.1505 -9.2698 0.0000 2.1712 0.0000
# 3 -21.7453 -9.2698 60.7765 0.0000 -0.9941 0.0000
# 4 0.0000 0.0000 0.0000 11.6603 0.0000 -3.5065
# 5 2.3930 2.1712 -0.9941 0.0000 46.2961 0.0000
# 6 0.0000 0.0000 0.0000 -3.5065 0.0000 -2.7609
#
#
#
# Elastic Compliance Matrix: (Units=1/GPa)
#
#
# Indices 1 2 3 4 5 6 
#
# 1 0.011500 0.000035 0.004111 0.000000 -0.000508 0.000000
# 2 0.000035 0.011676 0.001785 0.000000 -0.000511 0.000000
# 3 0.004111 0.001785 0.018199 0.000000 0.000095 0.000000
# 4 0.000000 0.000000 0.000000 0.062059 0.000000 -0.078818
# 5 -0.000508 -0.000511 0.000095 0.000000 0.021652 0.000000
# 6 0.000000 0.000000 0.000000 -0.078818 0.000000 -0.262098
#
#
# Mechanical properties :
#
#
# Convention : Reuss Voigt Hill
#
# Bulk Modulus (GPa) = 18.78409 20.77983 19.78196
# Shear Modulus (GPa) = -38.13007 29.08081 -4.52463
#
# Velocity S-wave (km/s) = -3.92116 3.42440 -1.35074
# Velocity P-wave (km/s) = 3.59530 4.90046 2.35461
#
# Compressibility (1/GPa) = 0.05323654
#
# Stress axis : x y z
#
# Youngs Moduli (GPa) = 86.95898 85.64777 54.94933
#
# Poissons Ratio (x) = -0.00299 -0.22592
# Poissons Ratio (y) = -0.00303 -0.09808
# Poissons Ratio (z) = -0.35753 -0.15287
#
# Static dielectric constant tensor:
#      x y z
#    x 1.945710 0.000000 0.010280 
#    y 0.000000 2.010860 0.000000 
#    z 0.010280 0.000000 1.981240 
# 
# From -- ./inp_files/108569.got.cif
#   From: 2010.05.17/outbox.cif.g08.bks.cpg/sg12_55_cif.got.tgz:108569.got - 2010.06.03 13:09:07.
