data_PCOD9183143
_publ_section_title
;
Structure prediction by ZEFSAII (Michael W. Deem and Ramdas Pophale) SiO2 
 PCOD9183143
Probable space group: C 2/M
;
_chemical_formula_sum "Si O2"
_cell_formula_units_Z 56
_cell_length_a 16.425355
_cell_length_b 7.502954
_cell_length_c 19.566755
_cell_angle_alpha 90.000000
_cell_angle_beta 86.627523
_cell_angle_gamma 90.000000
_cell_volume 2407.205091
_symmetry_space_group_name_H-M "C 2/M"
_symmetry_group_IT_number 12
_symmetry_cell_setting 'monoclinic'
loop_
_space_group_symop_operation_xyz
x,y,z
-x,y,-z
-x,-y,-z
x,-y,z
1/2+x,1/2+y,z
1/2-x,1/2+y,-z
1/2-x,1/2-y,-z
1/2+x,1/2-y,z
loop_
_atom_site_type_symbol
_atom_site_label
_atom_site_fract_x
_atom_site_fract_y
_atom_site_fract_z
Si Si1 0.062519 0.297202 0.874525
Si Si2 0.863497 0.782537 0.270968
Si Si3 0.608495 0.286184 0.435824
Si Si4 0.732742 0.788157 0.922093
Si Si5 0.077934 0.217019 0.583300
Si Si6 0.180958 0.288758 0.288835
Si Si7 0.398552 0.208494 0.837031
O O1 0.057919 0.500000 0.902043
O O2 0.083146 0.292757 0.792775
O O3 0.143604 0.215674 0.904699
O O4 0.971779 0.214666 0.879671
O O5 0.890434 0.724632 0.345062
O O6 0.770457 0.722026 0.265824
O O7 0.867178 0.000000 0.267665
O O8 0.608155 0.500000 0.438046
O O9 0.516164 0.229487 0.422144
O O10 0.625625 0.223867 0.512400
O O11 0.664011 0.235588 0.369551
O O12 0.810012 0.718718 0.875897
O O13 0.730974 0.000000 0.910340
O O14 0.750000 0.750000 0.000000
O O15 0.080185 0.000000 0.583972
O O16 0.182572 0.500000 0.277185
O O17 0.113797 0.215642 0.239107
O O18 0.420255 0.000000 0.829798
#
# Coordination Sequence:
#
# PCOD9183143 Si02
#       7
#     8   8   8   8   8   8   8
#     4  10  22  39  61  88 118 151 191 235 281 333
#     4  10  19  33  54  78 108 147 190 237 285 337
#     4   9  17  31  50  70  99 142 187 235 283 335
#     4  11  24  42  64  91 121 152 187 230 276 334
#     4   8  16  31  49  71 100 138 188 236 283 334
#     4  10  20  32  50  78 110 143 182 233 287 334
#     4  10  21  40  62  86 119 156 189 231 286 338
#
# _framework density 23.263493
#
# number of rings (size 3 to 8) (size 9 to 14) (size 15 to 20)
#    0.000    2.286    1.429    2.143    0.000    3.429 
#    0.000    5.000    0.000    0.000    0.000    0.000 
#    0.000    0.000    0.000    0.000    0.000    0.000 
#
# Total GULP energy -156311.970705 kJ/mol
# GULP energy per Si atom -5582.570382 kJ/mol
# Density = 2.321054 g / cm^3
# Si number density = 23.263493 Si / 1000 Ang^3
#
#
#
# Elastic Constant Matrix: (Units=GPa)
#
#
# Indices 1 2 3 4 5 6 
#
# 1 65.0314 3.5435 6.8966 0.0000 34.7304 0.0000
# 2 3.5435 68.7432 -10.5201 0.0000 5.8550 0.0000
# 3 6.8966 -10.5201 91.2579 0.0000 27.0790 0.0000
# 4 0.0000 0.0000 0.0000 -759.9207 0.0000 1640.5948
# 5 34.7304 5.8550 27.0790 0.0000 38.3595 0.0000
# 6 0.0000 0.0000 0.0000 1640.5948 0.0000-3465.1006
#
#
#
# Elastic Compliance Matrix: (Units=1/GPa)
#
#
# Indices 1 2 3 4 5 6 
#
# 1 0.034669 0.002852 0.009047 0.000000 -0.038211 0.000000
# 2 0.002852 0.015649 0.003875 0.000000 -0.007706 0.000000
# 3 0.009047 0.003875 0.016858 0.000000 -0.020684 0.000000
# 4 0.000000 0.000000 0.000000 0.059385 0.000000 0.028117
# 5 -0.038211 -0.007706 -0.020684 0.000000 0.076443 0.000000
# 6 0.000000 0.000000 0.000000 0.028117 0.000000 0.013024
#
#
# Mechanical properties :
#
#
# Convention : Reuss Voigt Hill
#
# Bulk Modulus (GPa) = 10.12907 24.98584 17.55745
# Shear Modulus (GPa) = 23.00031 -822.32487 -399.66228
#
# Velocity S-wave (km/s) = 3.14775 -18.82154 -13.12140
# Velocity P-wave (km/s) = 4.19221 21.48418 14.89959
#
# Compressibility (1/GPa) = 0.09872573
#
# Stress axis : x y z
#
# Youngs Moduli (GPa) = 28.84400 63.90061 59.31758
#
# Poissons Ratio (x) = -0.18224 -0.53666
# Poissons Ratio (y) = -0.08226 -0.22987
# Poissons Ratio (z) = -0.26096 -0.24763
#
# Static dielectric constant tensor:
#      x y z
#    x 1.907430 0.000000 0.037350 
#    y 0.000000 1.905470 0.000000 
#    z 0.037350 0.000000 1.882980 
# 
# From -- ./inp_files/308987.got.cif
#   From: 2010.05.17/outbox.cif.g08.bks.cpg/sg12_155_cif.got.tgz:308987.got - 2010.06.03 13:09:07.
