data_PCOD9183723
_publ_section_title
;
Structure prediction by ZEFSAII (Michael W. Deem and Ramdas Pophale) SiO2 
 PCOD9183723
Probable space group: C 2/M
;
_chemical_formula_sum "Si O2"
_cell_formula_units_Z 40
_cell_length_a 10.663915
_cell_length_b 15.613709
_cell_length_c 18.019268
_cell_angle_alpha 90.000000
_cell_angle_beta 139.602980
_cell_angle_gamma 90.000000
_cell_volume 1944.413891
_symmetry_space_group_name_H-M "C 2/M"
_symmetry_group_IT_number 12
_symmetry_cell_setting 'monoclinic'
loop_
_space_group_symop_operation_xyz
x,y,z
-x,y,-z
-x,-y,-z
x,-y,z
1/2+x,1/2+y,z
1/2-x,1/2+y,-z
1/2-x,1/2-y,-z
1/2+x,1/2-y,z
loop_
_atom_site_type_symbol
_atom_site_label
_atom_site_fract_x
_atom_site_fract_y
_atom_site_fract_z
Si Si1 0.642569 0.785227 0.726300
Si Si2 0.692641 0.303075 0.046157
Si Si3 0.993191 0.094276 0.846090
Si Si4 0.876813 0.404231 0.520165
Si Si5 0.080597 0.904166 0.718993
O O1 0.651845 0.804048 0.818767
O O2 0.824984 0.835638 0.774302
O O3 0.453150 0.828448 0.606412
O O4 0.662427 0.683589 0.722464
O O5 0.500000 0.267294 0.000000
O O6 0.750000 0.250000 0.000000
O O7 0.625499 0.391571 0.977971
O O8 0.106934 0.101625 0.820057
O O9 0.904051 0.000000 0.806460
O O10 0.911231 0.500000 0.567523
O O11 0.650347 0.399116 0.399245
O O12 0.000000 0.398762 0.500000
O O13 0.145463 0.000000 0.724302
#
# Coordination Sequence:
#
# PCOD9183723 Si02
#       5
#     8   8   8   8   8
#     4  11  20  33  59  83 113 152 199 243 299 356
#     4  10  21  36  57  88 124 155 200 253 303 355
#     4  10  20  36  59  85 114 150 196 248 298 348
#     4  10  19  33  55  86 117 146 193 250 301 356
#     4  10  20  35  55  80 113 151 190 239 299 361
#
# _framework density 20.571752
#
# number of rings (size 3 to 8) (size 9 to 14) (size 15 to 20)
#    0.000    1.800    4.000    1.200    0.000    4.400 
#    0.000    0.000    0.000   13.800    0.000    0.000 
#    0.000    0.000    0.000    0.000    0.000    0.000 
#
# Total GULP energy -111518.174789 kJ/mol
# GULP energy per Si atom -5575.908739 kJ/mol
# Density = 2.052493 g / cm^3
# Si number density = 20.571752 Si / 1000 Ang^3
#
#
#
# Elastic Constant Matrix: (Units=GPa)
#
#
# Indices 1 2 3 4 5 6 
#
# 1 44.1462 29.6319 -2.3873 0.0000 -11.2907 0.0000
# 2 29.6319 179.9929 23.0946 0.0000 -3.5585 0.0000
# 3 -2.3873 23.0946 74.5716 0.0000 -17.8360 0.0000
# 4 0.0000 0.0000 0.0000 29.9840 0.0000 -2.7163
# 5 -11.2907 -3.5585 -17.8360 0.0000 16.9457 0.0000
# 6 0.0000 0.0000 0.0000 -2.7163 0.0000 25.8021
#
#
#
# Elastic Compliance Matrix: (Units=1/GPa)
#
#
# Indices 1 2 3 4 5 6 
#
# 1 0.037092 -0.006924 0.011888 0.000000 0.035772 0.000000
# 2 -0.006924 0.007089 -0.004229 0.000000 -0.007576 0.000000
# 3 0.011888 -0.004229 0.022429 0.000000 0.030640 0.000000
# 4 0.000000 0.000000 0.000000 0.033672 0.000000 0.003545
# 5 0.035772 -0.007576 0.030640 0.000000 0.113505 0.000000
# 6 0.000000 0.000000 0.000000 0.003545 0.000000 0.039130
#
#
# Mechanical properties :
#
#
# Convention : Reuss Voigt Hill
#
# Bulk Modulus (GPa) = 14.68916 44.37654 29.53285
# Shear Modulus (GPa) = 18.23892 31.10447 24.67169
#
# Velocity S-wave (km/s) = 2.98081 3.89266 3.46685
# Velocity P-wave (km/s) = 4.35924 6.46701 5.51476
#
# Compressibility (1/GPa) = 0.06807742
#
# Stress axis : x y z
#
# Youngs Moduli (GPa) = 26.96029 141.07234 44.58593
#
# Poissons Ratio (x) = 0.97684 -0.53003
# Poissons Ratio (y) = 0.18668 0.18856
# Poissons Ratio (z) = -0.32050 0.59661
#
# Static dielectric constant tensor:
#      x y z
#    x 1.723100 0.000000 0.015590 
#    y 0.000000 1.788890 0.000000 
#    z 0.015590 0.000000 1.797200 
# 
# From -- ./inp_files/129149.got.cif
#   From: 2010.05.17/outbox.cif.g08.bks.cpg/sg12_65_cif.got.tgz:129149.got - 2010.06.03 13:09:07.
