data_PCOD9183621
_publ_section_title
;
Structure prediction by ZEFSAII (Michael W. Deem and Ramdas Pophale) SiO2 
 PCOD9183621
Probable space group: C 2/M
;
_chemical_formula_sum "Si O2"
_cell_formula_units_Z 48
_cell_length_a 21.174250
_cell_length_b 7.695923
_cell_length_c 15.611020
_cell_angle_alpha 90.000000
_cell_angle_beta 112.066642
_cell_angle_gamma 90.000000
_cell_volume 2357.552974
_symmetry_space_group_name_H-M "C 2/M"
_symmetry_group_IT_number 12
_symmetry_cell_setting 'monoclinic'
loop_
_space_group_symop_operation_xyz
x,y,z
-x,y,-z
-x,-y,-z
x,-y,z
1/2+x,1/2+y,z
1/2-x,1/2+y,-z
1/2-x,1/2-y,-z
1/2+x,1/2-y,z
loop_
_atom_site_type_symbol
_atom_site_label
_atom_site_fract_x
_atom_site_fract_y
_atom_site_fract_z
Si Si1 0.327757 0.708779 0.319678
Si Si2 0.678020 0.213388 0.182819
Si Si3 0.327276 0.707358 0.512401
Si Si4 0.172752 0.291225 0.986993
Si Si5 0.425062 0.790635 0.213810
Si Si6 0.921346 0.294756 0.718598
O O1 0.323031 0.500000 0.322446
O O2 0.254368 0.770147 0.247160
O O3 0.339531 0.773789 0.422190
O O4 0.386515 0.751067 0.282427
O O5 0.624502 0.274849 0.226748
O O6 0.678443 0.000000 0.183767
O O7 0.660828 0.270475 0.077852
O O8 0.334202 0.500000 0.515244
O O9 0.250000 0.750000 0.500000
O O10 0.379360 0.775310 0.609687
O O11 0.166282 0.500000 0.985224
O O12 0.120798 0.224300 0.888649
O O13 0.250000 0.250000 0.000000
O O14 0.502298 0.723186 0.249679
O O15 0.427274 0.000000 0.208351
O O16 0.928246 0.500000 0.738951
#
# Coordination Sequence:
#
# PCOD9183621 Si02
#       6
#     8   8   8   8   8   8
#     4  10  20  36  58  81 108 146 186 224 272 334
#     4   9  17  33  57  80 106 145 185 221 269 330
#     4  11  22  37  59  85 110 144 188 230 274 327
#     4  10  19  33  55  83 109 142 185 225 272 325
#     4  10  22  36  55  85 116 144 180 233 280 318
#     4  10  21  39  57  80 116 148 182 228 278 328
#
# _framework density 20.360094
#
# number of rings (size 3 to 8) (size 9 to 14) (size 15 to 20)
#    0.000    2.000    3.333    0.500    0.000    3.333 
#    0.000    7.500    0.000    0.000    0.000    3.500 
#    0.000    0.000    0.000    0.000    0.000    0.000 
#
# Total GULP energy -134046.911362 kJ/mol
# GULP energy per Si atom -5585.287973 kJ/mol
# Density = 2.031375 g / cm^3
# Si number density = 20.360094 Si / 1000 Ang^3
#
#
#
# Elastic Constant Matrix: (Units=GPa)
#
#
# Indices 1 2 3 4 5 6 
#
# 1 194.7572 -2.7376 112.6704 0.0000 -2.8685 0.0000
# 2 -2.7376 28.4206 -8.4904 0.0000 -4.6747 0.0000
# 3 112.6704 -8.4904 187.6003 0.0000 -18.2662 0.0000
# 4 0.0000 0.0000 0.0000 17.3504 0.0000 -0.9336
# 5 -2.8685 -4.6747 -18.2662 0.0000 37.9390 0.0000
# 6 0.0000 0.0000 0.0000 -0.9336 0.0000 22.4373
#
#
#
# Elastic Compliance Matrix: (Units=1/GPa)
#
#
# Indices 1 2 3 4 5 6 
#
# 1 0.008013 -0.001059 -0.005051 0.000000 -0.001956 0.000000
# 2 -0.001059 0.036906 0.002876 0.000000 0.005852 0.000000
# 3 -0.005051 0.002876 0.008909 0.000000 0.004262 0.000000
# 4 0.000000 0.000000 0.000000 0.057765 0.000000 0.002404
# 5 -0.001956 0.005852 0.004262 0.000000 0.028983 0.000000
# 6 0.000000 0.000000 0.000000 0.002404 0.000000 0.044669
#
#
# Mechanical properties :
#
#
# Convention : Reuss Voigt Hill
#
# Bulk Modulus (GPa) = 21.11484 68.18477 44.64980
# Shear Modulus (GPa) = 24.09656 36.16771 30.13214
#
# Velocity S-wave (km/s) = 3.44396 4.21931 3.85120
# Velocity P-wave (km/s) = 5.11935 7.56960 6.46168
#
# Compressibility (1/GPa) = 0.04736006
#
# Stress axis : x y z
#
# Youngs Moduli (GPa) = 124.79849 27.09622 112.24471
#
# Poissons Ratio (x) = 0.02869 0.56693
# Poissons Ratio (y) = 0.13214 -0.32281
# Poissons Ratio (z) = 0.63034 -0.07793
#
# Static dielectric constant tensor:
#      x y z
#    x 1.688130 0.000000 -0.007730 
#    y 0.000000 1.774000 0.000000 
#    z -0.007730 0.000000 1.702780 
# 
# From -- ./inp_files/229872.got.cif
#   From: 2010.05.17/outbox.cif.g08.bks.cpg/sg12_115_cif.got.tgz:229872.got - 2010.06.03 13:09:07.
