data_PCOD9183425
_publ_section_title
;
Structure prediction by ZEFSAII (Michael W. Deem and Ramdas Pophale) SiO2 
 PCOD9183425
Probable space group: C 2/M
;
_chemical_formula_sum "Si O2"
_cell_formula_units_Z 64
_cell_length_a 9.762281
_cell_length_b 15.566313
_cell_length_c 32.068382
_cell_angle_alpha 90.000000
_cell_angle_beta 43.550010
_cell_angle_gamma 90.000000
_cell_volume 3357.572675
_symmetry_space_group_name_H-M "C 2/M"
_symmetry_group_IT_number 12
_symmetry_cell_setting 'monoclinic'
loop_
_space_group_symop_operation_xyz
x,y,z
-x,y,-z
-x,-y,-z
x,-y,z
1/2+x,1/2+y,z
1/2-x,1/2+y,-z
1/2-x,1/2-y,-z
1/2+x,1/2-y,z
loop_
_atom_site_type_symbol
_atom_site_label
_atom_site_fract_x
_atom_site_fract_y
_atom_site_fract_z
Si Si1 0.052437 0.250072 0.092436
Si Si2 0.110320 0.764814 0.173449
Si Si3 0.155617 0.103197 0.004085
Si Si4 0.330673 0.405515 0.501466
Si Si5 0.278434 0.596009 0.257962
Si Si6 0.643250 0.345517 0.368973
Si Si7 0.060167 0.315021 0.621166
Si Si8 0.997745 0.592883 0.761760
O O1 0.147487 0.228528 0.115977
O O2 0.068256 0.163475 0.060631
O O3 0.821161 0.271146 0.149430
O O4 0.158520 0.335404 0.050335
O O5 0.952390 0.835251 0.222702
O O6 0.020822 0.671596 0.203208
O O7 0.193105 0.000000 0.005135
O O8 0.000000 0.103995 0.000000
O O9 0.500000 0.406820 0.500000
O O10 0.238431 0.500000 0.520379
O O11 0.451430 0.387878 0.432814
O O12 0.169960 0.338510 0.553788
O O13 0.355334 0.500000 0.246043
O O14 0.100023 0.614120 0.329637
O O15 0.172187 0.602922 0.236181
O O16 0.777335 0.309899 0.377823
O O17 0.561775 0.271159 0.357701
O O18 0.794313 0.402629 0.309107
O O19 0.973771 0.500000 0.787311
#
# Coordination Sequence:
#
# PCOD9183425 Si02
#       8
#     8   8   8   8   8   8   8   8
#     4  11  24  40  65  96 124 158 193 241 288 337
#     4  12  22  39  61  88 127 156 198 244 287 340
#     4  10  22  43  69  95 124 159 195 235 285 342
#     4   9  17  30  51  79 105 139 193 250 293 349
#     4  10  21  37  58  84 116 158 202 246 295 350
#     4  10  19  33  55  79 109 145 193 247 299 352
#     4  10  19  33  55  78 109 147 193 242 301 356
#     4  10  21  37  59  84 114 160 205 243 292 355
#
# _framework density 19.061388000000001
#
# number of rings (size 3 to 8) (size 9 to 14) (size 15 to 20)
#    0.000    1.750    3.750    1.125    0.000    5.000 
#    0.000    0.625    0.000    3.000    0.000    0.000 
#    0.000    0.000    0.000    0.000    0.000    0.000 
#
# Total GULP energy -178380.023426 kJ/mol
# GULP energy per Si atom -5574.375732 kJ/mol
# Density = 1.901800 g / cm^3
# Si number density = 19.061388 Si / 1000 Ang^3
#
#
#
# Elastic Constant Matrix: (Units=GPa)
#
#
# Indices 1 2 3 4 5 6 
#
# 1 18.8013 27.1436 2.7967 -0.0005 -7.8376 0.0002
# 2 27.1436 131.9812 25.6608 -0.0001 -9.8729 0.0000
# 3 2.7967 25.6608 51.8254 0.0008 -7.5922 0.0001
# 4 -0.0005 -0.0001 0.0008 -3.7964 0.0003 7.4979
# 5 -7.8376 -9.8729 -7.5922 0.0003 27.5116 -0.0003
# 6 0.0002 0.0000 0.0001 7.4979 -0.0003 20.3550
#
#
#
# Elastic Compliance Matrix: (Units=1/GPa)
#
#
# Indices 1 2 3 4 5 6 
#
# 1 0.085782 -0.017496 0.006976 -0.000005 0.020084 0.000001
# 2 -0.017496 0.012053 -0.005336 0.000001 -0.002131 0.000000
# 3 0.006976 -0.005336 0.022481 0.000002 0.006276 -0.000001
# 4 -0.000005 0.000001 0.000002 -0.152480 0.000002 0.056167
# 5 0.020084 -0.002131 0.006276 0.000002 0.043037 0.000000
# 6 0.000001 0.000000 -0.000001 0.056167 0.000000 0.028439
#
#
# Mechanical properties :
#
#
# Convention : Reuss Voigt Hill
#
# Bulk Modulus (GPa) = 11.28622 34.86779 23.07701
# Shear Modulus (GPa) = 49.72230 18.61450 34.16840
#
# Velocity S-wave (km/s) = 5.11292 3.12838 4.23844
# Velocity P-wave (km/s) = 6.38669 5.60188 6.00712
#
# Compressibility (1/GPa) = 0.08860363
#
# Stress axis : x y z
#
# Youngs Moduli (GPa) = 11.65745 82.96566 44.48276
#
# Poissons Ratio (x) = 1.45158 -0.31032
# Poissons Ratio (y) = 0.20396 0.23736
# Poissons Ratio (z) = -0.08132 0.44271
#
# Static dielectric constant tensor:
#      x y z
#    x 1.624540 0.000000 0.007410 
#    y 0.000000 1.663200 0.000000 
#    z 0.007410 0.000000 1.704880 
# 
# From -- ./inp_files/372552.got.cif
#   From: 2010.05.17/outbox.cif.g08.bks.cpg/sg12_187_cif.got.tgz:372552.got - 2010.06.03 13:09:07.
