data_PCOD9183611
_publ_section_title
;
Structure prediction by ZEFSAII (Michael W. Deem and Ramdas Pophale) SiO2 
 PCOD9183611
Probable space group: C 2/M
;
_chemical_formula_sum "Si O2"
_cell_formula_units_Z 56
_cell_length_a 25.587380
_cell_length_b 8.691934
_cell_length_c 15.317518
_cell_angle_alpha 90.000000
_cell_angle_beta 105.468225
_cell_angle_gamma 90.000000
_cell_volume 3283.279661
_symmetry_space_group_name_H-M "C 2/M"
_symmetry_group_IT_number 12
_symmetry_cell_setting 'monoclinic'
loop_
_space_group_symop_operation_xyz
x,y,z
-x,y,-z
-x,-y,-z
x,-y,z
1/2+x,1/2+y,z
1/2-x,1/2+y,-z
1/2-x,1/2-y,-z
1/2+x,1/2-y,z
loop_
_atom_site_type_symbol
_atom_site_label
_atom_site_fract_x
_atom_site_fract_y
_atom_site_fract_z
Si Si1 0.429122 0.684116 0.616713
Si Si2 0.539409 0.816674 0.899503
Si Si3 0.871783 0.184824 0.408587
Si Si4 0.649905 0.182862 0.271962
Si Si5 0.243803 0.316855 0.594901
Si Si6 0.075995 0.183841 0.093939
Si Si7 0.447165 0.685168 0.280937
O O1 0.422781 0.500000 0.628821
O O2 0.408656 0.717244 0.510049
O O3 0.391506 0.770855 0.669003
O O4 0.492045 0.722342 0.658889
O O5 0.479344 0.744700 0.885279
O O6 0.561210 0.765461 0.815490
O O7 0.535357 0.000000 0.904290
O O8 0.574113 0.751325 0.995581
O O9 0.814632 0.267621 0.395043
O O10 0.903994 0.228422 0.335652
O O11 0.862922 0.000000 0.403138
O O12 0.708107 0.248326 0.325129
O O13 0.625770 0.257257 0.173647
O O14 0.651930 0.000000 0.264365
O O15 0.248843 0.500000 0.593024
O O16 0.250000 0.250000 0.500000
O O17 0.074332 0.000000 0.090889
O O18 0.444919 0.500000 0.268440
#
# Coordination Sequence:
#
# PCOD9183611 Si02
#       7
#     8   8   8   8   8   8   8
#     4  10  19  33  55  82 115 153 189 226 276 336
#     4  11  21  34  54  83 117 149 186 233 280 333
#     4  10  21  37  57  82 114 153 196 236 277 332
#     4  12  23  36  57  85 115 147 185 236 287 337
#     4  12  24  39  58  81 111 150 193 239 284 330
#     4  11  21  36  57  82 112 148 187 231 285 342
#     4  10  20  35  56  83 117 156 191 228 280 341
#
# _framework density 17.056115999999999
#
# number of rings (size 3 to 8) (size 9 to 14) (size 15 to 20)
#    0.000    1.143    2.857    6.429    0.000    2.286 
#    0.000    0.000    0.000    3.429    0.000    0.000 
#    0.000    0.000    0.000    0.000    0.000    0.000 
#
# Total GULP energy -156529.612105 kJ/mol
# GULP energy per Si atom -5590.343289 kJ/mol
# Density = 1.701730 g / cm^3
# Si number density = 17.056116 Si / 1000 Ang^3
#
#
#
# Elastic Constant Matrix: (Units=GPa)
#
#
# Indices 1 2 3 4 5 6 
#
# 1 101.1328 59.3222 70.6611 0.0000 -3.6527 0.0000
# 2 59.3222 120.4285 74.8466 0.0000 -1.7096 0.0000
# 3 70.6611 74.8466 155.1342 0.0000 8.2806 0.0000
# 4 0.0000 0.0000 0.0000 19.8933 0.0000 3.6859
# 5 -3.6527 -1.7096 8.2806 0.0000 23.0751 0.0000
# 6 0.0000 0.0000 0.0000 3.6859 0.0000 25.7708
#
#
#
# Elastic Compliance Matrix: (Units=1/GPa)
#
#
# Indices 1 2 3 4 5 6 
#
# 1 0.016687 -0.004703 -0.005560 0.000000 0.004288 0.000000
# 2 -0.004703 0.013391 -0.004416 0.000000 0.001833 0.000000
# 3 -0.005560 -0.004416 0.011392 0.000000 -0.005295 0.000000
# 4 0.000000 0.000000 0.000000 0.051637 0.000000 -0.007385
# 5 0.004288 0.001833 -0.005295 0.000000 0.046052 0.000000
# 6 0.000000 0.000000 0.000000 -0.007385 0.000000 0.039860
#
#
# Mechanical properties :
#
#
# Convention : Reuss Voigt Hill
#
# Bulk Modulus (GPa) = 82.57442 87.37280 84.97361
# Shear Modulus (GPa) = 23.53889 25.20553 24.37221
#
# Velocity S-wave (km/s) = 3.71898 3.84839 3.78424
# Velocity P-wave (km/s) = 8.18288 8.43117 8.30795
#
# Compressibility (1/GPa) = 0.01211029
#
# Stress axis : x y z
#
# Youngs Moduli (GPa) = 59.92857 74.67590 87.78032
#
# Poissons Ratio (x) = 0.35120 0.48808
# Poissons Ratio (y) = 0.28185 0.38767
# Poissons Ratio (z) = 0.33322 0.32980
#
# Static dielectric constant tensor:
#      x y z
#    x 1.547740 0.000000 0.002460 
#    y 0.000000 1.572390 0.000000 
#    z 0.002460 0.000000 1.573390 
# 
# From -- ./inp_files/237876.got.cif
#   From: 2010.05.17/outbox.cif.g08.bks.cpg/sg12_119_cif.got.tgz:237876.got - 2010.06.03 13:09:07.
