data_PCOD9183259
_publ_section_title
;
Structure prediction by ZEFSAII (Michael W. Deem and Ramdas Pophale) SiO2 
 PCOD9183259
Probable space group: C 2/M
;
_chemical_formula_sum "Si O2"
_cell_formula_units_Z 64
_cell_length_a 9.081513
_cell_length_b 30.958741
_cell_length_c 16.753215
_cell_angle_alpha 90.000000
_cell_angle_beta 47.858848
_cell_angle_gamma 90.000000
_cell_volume 3492.588145
_symmetry_space_group_name_H-M "C 2/M"
_symmetry_group_IT_number 12
_symmetry_cell_setting 'monoclinic'
loop_
_space_group_symop_operation_xyz
x,y,z
-x,y,-z
-x,-y,-z
x,-y,z
1/2+x,1/2+y,z
1/2-x,1/2+y,-z
1/2-x,1/2-y,-z
1/2+x,1/2-y,z
loop_
_atom_site_type_symbol
_atom_site_label
_atom_site_fract_x
_atom_site_fract_y
_atom_site_fract_z
Si Si1 0.263098 0.049871 0.583846
Si Si2 0.276917 0.602970 0.560973
Si Si3 0.825990 0.306852 0.448000
Si Si4 0.179768 0.450611 0.999604
Si Si5 0.499481 0.691226 0.708358
Si Si6 0.652731 0.948311 0.761532
Si Si7 0.443691 0.405168 0.786529
Si Si8 0.709513 0.747202 0.335707
O O1 0.500000 0.051476 0.500000
O O2 0.202337 0.073862 0.524954
O O3 0.160893 0.074752 0.693972
O O4 0.199516 0.000000 0.606686
O O5 0.500000 0.619137 0.500000
O O6 0.141138 0.644477 0.593338
O O7 0.193742 0.574540 0.663134
O O8 0.674416 0.311851 0.577211
O O9 0.727053 0.280058 0.411406
O O10 0.023684 0.280456 0.398533
O O11 0.256128 0.500000 0.974211
O O12 0.067060 0.440068 0.122665
O O13 0.344617 0.418314 0.906123
O O14 0.000000 0.450429 0.000000
O O15 0.449776 0.645177 0.763132
O O16 0.321620 0.713660 0.724759
O O17 0.592615 0.724056 0.738365
O O18 0.808853 0.928917 0.768275
O O19 0.677978 0.000000 0.747330
#
# Coordination Sequence:
#
# PCOD9183259 Si02
#       8
#     8   8   8   8   8   8   8   8
#     4  11  24  37  49  74 116 153 176 208 270 333
#     4  12  22  33  53  81 113 144 180 219 268 322
#     4  11  19  32  47  73 106 138 178 214 262 326
#     4   8  16  31  52  79 106 136 181 230 269 303
#     4  11  19  31  48  75 105 137 177 214 263 323
#     4  10  19  33  54  81 109 141 183 229 270 307
#     4  11  19  31  55  79 107 139 184 225 265 312
#     4  10  21  32  49  70 106 145 169 214 272 321
#
# _framework density 18.324518999999999
#
# number of rings (size 3 to 8) (size 9 to 14) (size 15 to 20)
#    0.000    1.500    2.500    6.750    1.750    0.500 
#    0.000    0.000    0.000    0.750    0.000   27.125 
#    0.000    0.000    0.000    0.000    0.000    0.000 
#
# Total GULP energy -178631.593938 kJ/mol
# GULP energy per Si atom -5582.237311 kJ/mol
# Density = 1.828281 g / cm^3
# Si number density = 18.324519 Si / 1000 Ang^3
#
#
#
# Elastic Constant Matrix: (Units=GPa)
#
#
# Indices 1 2 3 4 5 6 
#
# 1 49.8461 19.4604 7.2352 0.0000 -1.6331 0.0000
# 2 19.4604 126.4467 48.0325 0.0000 -5.5930 0.0000
# 3 7.2352 48.0325 89.9590 0.0000 -8.2438 0.0000
# 4 0.0000 0.0000 0.0000 13.8919 0.0000 -1.1015
# 5 -1.6331 -5.5930 -8.2438 0.0000 10.6346 0.0000
# 6 0.0000 0.0000 0.0000 -1.1015 0.0000 20.1999
#
#
#
# Elastic Compliance Matrix: (Units=1/GPa)
#
#
# Indices 1 2 3 4 5 6 
#
# 1 0.021373 -0.003287 0.000192 0.000000 0.001702 0.000000
# 2 -0.003287 0.010440 -0.005224 0.000000 0.000936 0.000000
# 3 0.000192 -0.005224 0.014684 0.000000 0.008665 0.000000
# 4 0.000000 0.000000 0.000000 0.072297 0.000000 0.003943
# 5 0.001702 0.000936 0.008665 0.000000 0.101504 0.000000
# 6 0.000000 0.000000 0.000000 0.003943 0.000000 0.049720
#
#
# Mechanical properties :
#
#
# Convention : Reuss Voigt Hill
#
# Bulk Modulus (GPa) = 33.49078 46.18978 39.84028
# Shear Modulus (GPa) = 16.85714 21.71351 19.28532
#
# Velocity S-wave (km/s) = 3.03631 3.44603 3.24764
# Velocity P-wave (km/s) = 5.53249 6.41052 5.98762
#
# Compressibility (1/GPa) = 0.02985897
#
# Stress axis : x y z
#
# Youngs Moduli (GPa) = 46.78824 95.78294 68.10033
#
# Poissons Ratio (x) = 0.31484 -0.01308
# Poissons Ratio (y) = 0.15379 0.35578
# Poissons Ratio (z) = -0.00899 0.50040
#
# Static dielectric constant tensor:
#      x y z
#    x 1.670460 0.000000 -0.016640 
#    y 0.000000 1.641560 0.000000 
#    z -0.016640 0.000000 1.634660 
# 
# From -- ./inp_files/201274.got.cif
#   From: 2010.05.17/outbox.cif.g08.bks.cpg/sg12_101_cif.got.tgz:201274.got - 2010.06.03 13:09:07.
