data_PCOD9183456
_publ_section_title
;
Structure prediction by ZEFSAII (Michael W. Deem and Ramdas Pophale) SiO2 
 PCOD9183456
Probable space group: C 2/M
;
_chemical_formula_sum "Si O2"
_cell_formula_units_Z 40
_cell_length_a 13.555992
_cell_length_b 10.980858
_cell_length_c 13.708054
_cell_angle_alpha 90.000000
_cell_angle_beta 100.663192
_cell_angle_gamma 90.000000
_cell_volume 2005.295717
_symmetry_space_group_name_H-M "C 2/M"
_symmetry_group_IT_number 12
_symmetry_cell_setting 'monoclinic'
loop_
_space_group_symop_operation_xyz
x,y,z
-x,y,-z
-x,-y,-z
x,-y,z
1/2+x,1/2+y,z
1/2-x,1/2+y,-z
1/2-x,1/2-y,-z
1/2+x,1/2-y,z
loop_
_atom_site_type_symbol
_atom_site_label
_atom_site_fract_x
_atom_site_fract_y
_atom_site_fract_z
Si Si1 0.945606 0.358477 0.391025
Si Si2 0.926620 0.365414 0.782543
Si Si3 0.960932 0.865675 0.117695
Si Si4 0.707666 0.275712 0.762501
Si Si5 0.714155 0.632296 0.051180
O O1 0.914382 0.500000 0.397299
O O2 0.023825 0.355078 0.315139
O O3 0.000000 0.319182 0.500000
O O4 0.853198 0.275279 0.340414
O O5 0.952824 0.500000 0.826501
O O6 0.806935 0.351362 0.756989
O O7 0.972912 0.254284 0.852561
O O8 0.870657 0.846804 0.181903
O O9 0.006189 0.000000 0.145715
O O10 0.901349 0.870614 0.003882
O O11 0.750603 0.161076 0.833367
O O12 0.756042 0.500000 0.029543
O O13 0.750000 0.750000 0.000000
#
# Coordination Sequence:
#
# PCOD9183456 Si02
#       5
#     8   8   8   8   8
#     4   9  19  36  56  79 108 140 176 223 276 327
#     4  10  21  36  56  81 109 141 180 222 268 322
#     4   9  19  35  53  76 110 145 179 217 260 312
#     4  10  19  33  55  79 108 141 179 222 267 316
#     4   9  18  32  52  79 110 147 183 218 261 312
#
# _framework density 19.947182999999999
#
# number of rings (size 3 to 8) (size 9 to 14) (size 15 to 20)
#    0.000    2.600    0.000    1.200    0.000    8.800 
#    0.000    3.000    0.000   15.000    0.000    0.000 
#    0.000    0.000    0.000    0.000    0.000    0.000 
#
# Total GULP energy -111482.948386 kJ/mol
# GULP energy per Si atom -5574.147419 kJ/mol
# Density = 1.990178 g / cm^3
# Si number density = 19.947183 Si / 1000 Ang^3
#
#
#
# Elastic Constant Matrix: (Units=GPa)
#
#
# Indices 1 2 3 4 5 6 
#
# 1 65.7511 42.2972 -1.2475 0.0000 18.1630 0.0000
# 2 42.2972 173.9165 64.6831 0.0000 10.4902 0.0000
# 3 -1.2475 64.6831 121.0778 0.0000 15.7276 0.0000
# 4 0.0000 0.0000 0.0000 26.8787 0.0000 4.5550
# 5 18.1630 10.4902 15.7276 0.0000 21.7188 0.0000
# 6 0.0000 0.0000 0.0000 4.5550 0.0000 25.6093
#
#
#
# Elastic Compliance Matrix: (Units=1/GPa)
#
#
# Indices 1 2 3 4 5 6 
#
# 1 0.027338 -0.008059 0.007784 0.000000 -0.024606 0.000000
# 2 -0.008059 0.009563 -0.006035 0.000000 0.006491 0.000000
# 3 0.007784 -0.006035 0.013279 0.000000 -0.013211 0.000000
# 4 0.000000 0.000000 0.000000 0.038360 0.000000 -0.006823
# 5 -0.024606 0.006491 -0.013211 0.000000 0.073052 0.000000
# 6 0.000000 0.000000 0.000000 -0.006823 0.000000 0.040262
#
#
# Mechanical properties :
#
#
# Convention : Reuss Voigt Hill
#
# Bulk Modulus (GPa) = 26.62492 63.57898 45.10195
# Shear Modulus (GPa) = 22.02677 31.84220 26.93448
#
# Velocity S-wave (km/s) = 3.32664 3.99974 3.67862
# Velocity P-wave (km/s) = 5.30396 7.29886 6.37987
#
# Compressibility (1/GPa) = 0.03755880
#
# Stress axis : x y z
#
# Youngs Moduli (GPa) = 36.57865 104.56965 75.30438
#
# Poissons Ratio (x) = 0.84278 -0.58613
# Poissons Ratio (y) = 0.29480 0.45447
# Poissons Ratio (z) = -0.28471 0.63108
#
# Static dielectric constant tensor:
#      x y z
#    x 1.819790 0.000000 -0.014730 
#    y 0.000000 1.791980 0.000000 
#    z -0.014730 0.000000 1.691620 
# 
# From -- ./inp_files/213051.got.cif
#   From: 2010.05.17/outbox.cif.g08.bks.cpg/sg12_107_cif.got.tgz:213051.got - 2010.06.03 13:09:07.
