data_PCOD9183487
_publ_section_title
;
Structure prediction by ZEFSAII (Michael W. Deem and Ramdas Pophale) SiO2 
 PCOD9183487
Probable space group: C 2/M
;
_chemical_formula_sum "Si O2"
_cell_formula_units_Z 56
_cell_length_a 19.321606
_cell_length_b 9.323193
_cell_length_c 21.019374
_cell_angle_alpha 90.000000
_cell_angle_beta 58.248805
_cell_angle_gamma 90.000000
_cell_volume 3219.740877
_symmetry_space_group_name_H-M "C 2/M"
_symmetry_group_IT_number 12
_symmetry_cell_setting 'monoclinic'
loop_
_space_group_symop_operation_xyz
x,y,z
-x,y,-z
-x,-y,-z
x,-y,z
1/2+x,1/2+y,z
1/2-x,1/2+y,-z
1/2-x,1/2-y,-z
1/2+x,1/2-y,z
loop_
_atom_site_type_symbol
_atom_site_label
_atom_site_fract_x
_atom_site_fract_y
_atom_site_fract_z
Si Si1 0.723049 0.330585 0.575901
Si Si2 0.619039 0.830023 0.240184
Si Si3 0.775545 0.331579 0.686240
Si Si4 0.613792 0.839769 0.789504
Si Si5 0.591362 0.835903 0.949879
Si Si6 0.956720 0.171147 0.282683
Si Si7 0.243363 0.173011 0.934457
O O1 0.722103 0.500000 0.563917
O O2 0.750000 0.250000 0.500000
O O3 0.784597 0.307102 0.606017
O O4 0.630496 0.291190 0.642235
O O5 0.657062 0.808071 0.292344
O O6 0.536384 0.740922 0.274362
O O7 0.684344 0.793322 0.152177
O O8 0.602292 0.000000 0.241493
O O9 0.750744 0.500000 0.704148
O O10 0.701930 0.227922 0.738162
O O11 0.602400 0.846864 0.869518
O O12 0.551188 0.736985 0.783962
O O13 0.607685 0.000000 0.765105
O O14 0.659952 0.734831 0.945517
O O15 0.596120 0.000000 0.974573
O O16 0.500000 0.780140 0.000000
O O17 0.962733 0.000000 0.278596
O O18 0.241641 0.000000 0.942278
O O19 0.250000 0.250000 0.000000
#
# Coordination Sequence:
#
# PCOD9183487 Si02
#       7
#     8   8   8   8   8   8   8
#     4   9  19  36  59  85 114 146 180 225 274 329
#     4  10  21  38  59  81 111 149 190 233 279 333
#     4   9  18  36  58  81 110 144 184 228 274 326
#     4  10  19  33  55  80 106 142 187 232 278 328
#     4  10  22  38  55  78 110 144 185 236 284 334
#     4  10  22  37  56  83 115 147 185 229 276 329
#     4  11  24  40  58  81 112 151 192 237 288 336
#
# _framework density 17.392703999999998
#
# number of rings (size 3 to 8) (size 9 to 14) (size 15 to 20)
#    0.000    2.143    1.429    2.143    2.000    5.429 
#    0.000    0.714    0.000    4.286    0.000    0.000 
#    0.000    0.000    0.000    0.000    0.000    0.000 
#
# Total GULP energy -155959.975447 kJ/mol
# GULP energy per Si atom -5569.999123 kJ/mol
# Density = 1.735312 g / cm^3
# Si number density = 17.392704 Si / 1000 Ang^3
#
#
#
# Elastic Constant Matrix: (Units=GPa)
#
#
# Indices 1 2 3 4 5 6 
#
# 1 129.3302 74.4723 63.6267 0.0000 7.6370 0.0001
# 2 74.4723 65.3117 45.7076 0.0000 6.9261 0.0002
# 3 63.6267 45.7076 84.6978 0.0000 20.5964 0.0000
# 4 0.0000 0.0000 0.0000 28.9272 0.0000 1.6950
# 5 7.6370 6.9261 20.5964 0.0000 20.8699 0.0000
# 6 0.0001 0.0002 0.0000 1.6950 0.0000 40.2102
#
#
#
# Elastic Compliance Matrix: (Units=1/GPa)
#
#
# Indices 1 2 3 4 5 6 
#
# 1 0.024382 -0.023474 -0.007070 0.000000 0.005845 0.000000
# 2 -0.023474 0.047892 -0.008466 0.000000 0.001052 0.000000
# 3 -0.007070 -0.008466 0.026808 0.000000 -0.021060 0.000000
# 4 0.000000 0.000000 0.000000 0.034655 0.000000 -0.001461
# 5 0.005845 0.001052 -0.021060 0.000000 0.066212 0.000000
# 6 0.000000 0.000000 0.000000 -0.001461 0.000000 0.024931
#
#
# Mechanical properties :
#
#
# Convention : Reuss Voigt Hill
#
# Bulk Modulus (GPa) = 47.48180 71.88365 59.68273
# Shear Modulus (GPa) = 16.13313 24.37032 20.25173
#
# Velocity S-wave (km/s) = 3.04892 3.74730 3.41600
# Velocity P-wave (km/s) = 6.30505 7.75516 7.06740
#
# Compressibility (1/GPa) = 0.02106070
#
# Stress axis : x y z
#
# Youngs Moduli (GPa) = 41.01306 20.88053 37.30244
#
# Poissons Ratio (x) = 0.49016 0.26373
# Poissons Ratio (y) = 0.96276 0.31581
# Poissons Ratio (z) = 0.28996 0.17678
#
# Static dielectric constant tensor:
#      x y z
#    x 1.601710 0.000000 0.012690 
#    y 0.000000 1.609140 0.000000 
#    z 0.012690 0.000000 1.630720 
# 
# From -- ./inp_files/313690.got.cif
#   From: 2010.05.17/outbox.cif.g08.bks.cpg/sg12_157_cif.got.tgz:313690.got - 2010.06.03 13:09:07.
