data_PCOD9183163
_publ_section_title
;
Structure prediction by ZEFSAII (Michael W. Deem and Ramdas Pophale) SiO2 
 PCOD9183163
Probable space group: C 2/M
;
_chemical_formula_sum "Si O2"
_cell_formula_units_Z 56
_cell_length_a 25.701301
_cell_length_b 8.769122
_cell_length_c 17.310241
_cell_angle_alpha 90.000000
_cell_angle_beta 59.969240
_cell_angle_gamma 90.000000
_cell_volume 3377.615971
_symmetry_space_group_name_H-M "C 2/M"
_symmetry_group_IT_number 12
_symmetry_cell_setting 'monoclinic'
loop_
_space_group_symop_operation_xyz
x,y,z
-x,y,-z
-x,-y,-z
x,-y,z
1/2+x,1/2+y,z
1/2-x,1/2+y,-z
1/2-x,1/2-y,-z
1/2+x,1/2-y,z
loop_
_atom_site_type_symbol
_atom_site_label
_atom_site_fract_x
_atom_site_fract_y
_atom_site_fract_z
Si Si1 0.076247 0.816181 0.091144
Si Si2 0.840923 0.316087 0.398308
Si Si3 0.775856 0.683959 0.598031
Si Si4 0.261475 0.183531 0.781481
Si Si5 0.803749 0.182696 0.908500
Si Si6 0.880710 0.183561 0.111520
Si Si7 0.446724 0.182523 0.211746
O O1 0.132680 0.769317 0.101877
O O2 0.013331 0.748892 0.164821
O O3 0.072748 0.000000 0.095192
O O4 0.090447 0.771990 0.991910
O O5 0.837832 0.500000 0.396754
O O6 0.825862 0.271004 0.497650
O O7 0.787032 0.249846 0.386370
O O8 0.904054 0.268271 0.314698
O O9 0.771065 0.500000 0.601106
O O10 0.785549 0.730254 0.679256
O O11 0.294361 0.261022 0.828467
O O12 0.190222 0.220359 0.836798
O O13 0.266472 0.000000 0.785600
O O14 0.800548 0.000000 0.914581
O O15 0.750000 0.250000 0.000000
O O16 0.914148 0.260787 0.157966
O O17 0.885954 0.000000 0.115868
O O18 0.449552 0.000000 0.208942
#
# Coordination Sequence:
#
# PCOD9183163 Si02
#       7
#     8   8   8   8   8   8   8
#     4  10  22  38  52  69  99 140 177 206 247 306
#     4   9  18  31  48  75 107 133 165 211 256 298
#     4   9  17  31  52  75 102 136 169 204 252 311
#     4  10  19  33  54  79 105 135 172 208 255 308
#     4  11  22  37  56  77 102 134 173 217 258 299
#     4  10  19  34  52  73 104 139 172 203 247 309
#     4  11  22  33  49  77 108 135 170 213 255 298
#
# _framework density 16.579740999999999
#
# number of rings (size 3 to 8) (size 9 to 14) (size 15 to 20)
#    0.000    2.000    2.857    1.286    0.000    5.143 
#    0.000    0.000    0.000    0.857    0.000    6.000 
#    0.000    0.000    0.000    0.000    0.000    0.000 
#
# Total GULP energy -156247.814125 kJ/mol
# GULP energy per Si atom -5580.279076 kJ/mol
# Density = 1.654200 g / cm^3
# Si number density = 16.579741 Si / 1000 Ang^3
#
#
#
# Elastic Constant Matrix: (Units=GPa)
#
#
# Indices 1 2 3 4 5 6 
#
# 1 105.3437 30.2487 84.8607 0.0000 -10.2386 0.0001
# 2 30.2487 15.0232 35.2990 0.0000 -2.3798 0.0004
# 3 84.8607 35.2990 175.0901 0.0000 -1.2957 0.0000
# 4 0.0000 0.0000 0.0000 21.1514 0.0000 2.0013
# 5 -10.2386 -2.3798 -1.2957 0.0000 25.7540 0.0000
# 6 0.0001 0.0004 0.0000 2.0013 0.0000 28.5762
#
#
#
# Elastic Compliance Matrix: (Units=1/GPa)
#
#
# Indices 1 2 3 4 5 6 
#
# 1 0.024448 -0.039046 -0.003934 0.000000 0.005913 0.000000
# 2 -0.039046 0.191687 -0.019712 0.000000 0.001198 -0.000002
# 3 -0.003934 -0.019712 0.011571 0.000000 -0.002803 0.000000
# 4 0.000000 0.000000 0.000000 0.047594 0.000000 -0.003333
# 5 0.005913 0.001198 -0.002803 0.000000 0.041149 0.000000
# 6 0.000000 -0.000002 0.000000 -0.003333 0.000000 0.035228
#
#
# Mechanical properties :
#
#
# Convention : Reuss Voigt Hill
#
# Bulk Modulus (GPa) = 9.77296 66.25262 38.01279
# Shear Modulus (GPa) = 9.78155 24.76623 17.27389
#
# Velocity S-wave (km/s) = 2.43157 3.86912 3.23130
# Velocity P-wave (km/s) = 3.71358 7.74641 6.07443
#
# Compressibility (1/GPa) = 0.10232310
#
# Stress axis : x y z
#
# Youngs Moduli (GPa) = 40.90320 5.21685 86.42275
#
# Poissons Ratio (x) = 0.20370 0.33995
# Poissons Ratio (y) = 1.59711 1.70353
# Poissons Ratio (z) = 0.16089 0.10283
#
# Static dielectric constant tensor:
#      x y z
#    x 1.520970 0.000000 0.000550 
#    y 0.000000 1.560270 0.000000 
#    z 0.000550 0.000000 1.579890 
# 
# From -- ./inp_files/287393.got.cif
#   From: 2010.05.17/outbox.cif.g08.bks.cpg/sg12_144_cif.got.tgz:287393.got - 2010.06.03 13:09:07.
