data_PCOD9183663
_publ_section_title
;
Structure prediction by ZEFSAII (Michael W. Deem and Ramdas Pophale) SiO2 
 PCOD9183663
Probable space group: C 2/M
;
_chemical_formula_sum "Si O2"
_cell_formula_units_Z 40
_cell_length_a 8.574281
_cell_length_b 29.802108
_cell_length_c 13.657677
_cell_angle_alpha 90.000000
_cell_angle_beta 33.121358
_cell_angle_gamma 90.000000
_cell_volume 1906.968455
_symmetry_space_group_name_H-M "C 2/M"
_symmetry_group_IT_number 12
_symmetry_cell_setting 'monoclinic'
loop_
_space_group_symop_operation_xyz
x,y,z
-x,y,-z
-x,-y,-z
x,-y,z
1/2+x,1/2+y,z
1/2-x,1/2+y,-z
1/2-x,1/2-y,-z
1/2+x,1/2-y,z
loop_
_atom_site_type_symbol
_atom_site_label
_atom_site_fract_x
_atom_site_fract_y
_atom_site_fract_z
Si Si1 0.188103 0.300185 0.497884
Si Si2 0.836296 0.135599 0.693588
Si Si3 0.465056 0.449500 0.302987
Si Si4 0.324283 0.144099 0.844726
Si Si5 0.654745 0.949508 0.265668
O O1 0.250000 0.250000 0.500000
O O2 0.482416 0.328161 0.340692
O O3 0.000000 0.299381 0.500000
O O4 0.999444 0.327702 0.673718
O O5 0.511227 0.149831 0.844021
O O6 0.000000 0.131123 0.500000
O O7 0.852364 0.088727 0.742007
O O8 0.580213 0.500000 0.252759
O O9 0.383664 0.441531 0.232306
O O10 0.157124 0.448237 0.519689
O O11 0.335128 0.091068 0.814480
O O12 0.000000 0.158212 0.000000
O O13 0.692794 0.000000 0.206580
#
# Coordination Sequence:
#
# PCOD9183663 Si02
#       5
#     8   8   8   8   8
#     4  11  22  42  67  87 110 147 189 235 286 348
#     4  10  19  33  55  84 113 150 195 233 283 340
#     4   9  16  29  53  83 111 151 208 246 271 326
#     4  11  23  38  57  88 124 152 189 239 291 342
#     4   9  17  31  53  81 118 158 195 238 285 333
#
# _framework density 20.975702999999999
#
# number of rings (size 3 to 8) (size 9 to 14) (size 15 to 20)
#    0.000    2.000    4.000    4.200    0.000    1.600 
#    0.000    8.000    0.000    2.400    0.000    0.000 
#    0.000    0.000    0.000    0.000    0.000    0.000 
#
# Total GULP energy -111668.377671 kJ/mol
# GULP energy per Si atom -5583.418884 kJ/mol
# Density = 2.092796 g / cm^3
# Si number density = 20.975703 Si / 1000 Ang^3
#
#
#
# Elastic Constant Matrix: (Units=GPa)
#
#
# Indices 1 2 3 4 5 6 
#
# 1 127.3460 73.0830 33.7782 0.0000 -53.9443 0.0000
# 2 73.0830 114.4246 28.3203 0.0000 -24.3505 0.0000
# 3 33.7782 28.3203 76.9753 0.0000 -36.7737 0.0000
# 4 0.0000 0.0000 0.0000 -11.4136 0.0000 -13.6238
# 5 -53.9443 -24.3505 -36.7737 0.0000 38.2644 0.0000
# 6 0.0000 0.0000 0.0000 -13.6238 0.0000 43.4309
#
#
#
# Elastic Compliance Matrix: (Units=1/GPa)
#
#
# Indices 1 2 3 4 5 6 
#
# 1 0.037794 -0.015713 0.018255 0.000000 0.060825 0.000000
# 2 -0.015713 0.016701 -0.008791 0.000000 -0.019972 0.000000
# 3 0.018255 -0.008791 0.032978 0.000000 0.051834 0.000000
# 4 0.000000 0.000000 0.000000 -0.063746 0.000000 -0.019996
# 5 0.060825 -0.019972 0.051834 0.000000 0.148989 0.000000
# 6 0.000000 0.000000 0.000000 -0.019996 0.000000 0.016752
#
#
# Mechanical properties :
#
#
# Convention : Reuss Voigt Hill
#
# Bulk Modulus (GPa) = 13.33786 65.45655 39.39720
# Shear Modulus (GPa) = 22.03057 26.29397 24.16227
#
# Velocity S-wave (km/s) = 3.24433 3.54438 3.39767
# Velocity P-wave (km/s) = 4.51739 6.92992 5.84939
#
# Compressibility (1/GPa) = 0.07497455
#
# Stress axis : x y z
#
# Youngs Moduli (GPa) = 26.45916 59.87753 30.32355
#
# Poissons Ratio (x) = 0.94086 -0.55355
# Poissons Ratio (y) = 0.41575 0.26656
# Poissons Ratio (z) = -0.48300 0.52636
#
# Static dielectric constant tensor:
#      x y z
#    x 1.770110 0.000000 0.000560 
#    y 0.000000 1.714660 0.000000 
#    z 0.000560 0.000000 1.813570 
# 
# From -- ./inp_files/41869.got.cif
#   From: 2010.05.17/outbox.cif.g08.bks.cpg/sg12_21_cif.got.tgz:41869.got - 2010.06.03 13:09:07.
