data_PCOD9183876
_publ_section_title
;
Structure prediction by ZEFSAII (Michael W. Deem and Ramdas Pophale) SiO2 
 PCOD9183876
Probable space group: C 2/M
;
_chemical_formula_sum "Si O2"
_cell_formula_units_Z 64
_cell_length_a 20.528943
_cell_length_b 8.887350
_cell_length_c 20.604798
_cell_angle_alpha 90.000000
_cell_angle_beta 77.566456
_cell_angle_gamma 90.000000
_cell_volume 3671.132964
_symmetry_space_group_name_H-M "C 2/M"
_symmetry_group_IT_number 12
_symmetry_cell_setting 'monoclinic'
loop_
_space_group_symop_operation_xyz
x,y,z
-x,y,-z
-x,-y,-z
x,-y,z
1/2+x,1/2+y,z
1/2-x,1/2+y,-z
1/2-x,1/2-y,-z
1/2+x,1/2-y,z
loop_
_atom_site_type_symbol
_atom_site_label
_atom_site_fract_x
_atom_site_fract_y
_atom_site_fract_z
Si Si1 0.240242 0.180924 0.072832
Si Si2 0.132700 0.319283 0.321477
Si Si3 0.155223 0.320115 0.839287
Si Si4 0.114364 0.680520 0.173600
Si Si5 0.528533 0.320354 0.806970
Si Si6 0.399914 0.320416 0.344809
Si Si7 0.002223 0.681339 0.575004
Si Si8 0.226981 0.320861 0.687685
O O1 0.302530 0.220387 0.106365
O O2 0.173553 0.245722 0.119965
O O3 0.236257 0.000000 0.070689
O O4 0.250000 0.250000 0.000000
O O5 0.139313 0.500000 0.323981
O O6 0.124152 0.279235 0.247493
O O7 0.066627 0.274774 0.374798
O O8 0.199305 0.244337 0.334423
O O9 0.143521 0.500000 0.841753
O O10 0.085497 0.236123 0.843949
O O11 0.200474 0.285133 0.766277
O O12 0.116726 0.500000 0.167286
O O13 0.042164 0.741168 0.168088
O O14 0.521415 0.500000 0.811949
O O15 0.556497 0.280547 0.728895
O O16 0.395670 0.500000 0.348827
O O17 0.437321 0.255035 0.398869
O O18 0.327087 0.251415 0.348603
O O19 0.008373 0.500000 0.578209
O O20 0.000000 0.722874 0.500000
O O21 0.227196 0.500000 0.680371
#
# Coordination Sequence:
#
# PCOD9183876 Si02
#       8
#     8   8   8   8   8   8   8   8
#     4  11  23  40  59  84 117 152 189 229 280 338
#     4  10  20  34  55  84 113 143 185 234 279 328
#     4   9  19  35  55  80 112 146 182 226 277 331
#     4  11  21  35  58  85 114 148 188 233 280 330
#     4  10  20  33  55  85 114 144 183 233 280 328
#     4  10  20  34  54  82 115 147 184 231 282 334
#     4  10  21  38  58  81 113 152 190 230 281 339
#     4  10  19  33  56  83 111 144 184 231 280 330
#
# _framework density 17.433309999999999
#
# number of rings (size 3 to 8) (size 9 to 14) (size 15 to 20)
#    0.000    1.875    2.500    1.875    0.000    3.750 
#    0.000    1.250    0.000    3.750    0.000    0.000 
#    0.000    0.000    0.000    0.000    0.000    0.000 
#
# Total GULP energy -178704.631286 kJ/mol
# GULP energy per Si atom -5584.519728 kJ/mol
# Density = 1.739363 g / cm^3
# Si number density = 17.433310 Si / 1000 Ang^3
#
#
#
# Elastic Constant Matrix: (Units=GPa)
#
#
# Indices 1 2 3 4 5 6 
#
# 1 142.8981 46.1373 58.9141 0.0000 20.6741 0.0000
# 2 46.1373 35.8129 35.7188 0.0000 8.3938 0.0000
# 3 58.9141 35.7188 97.3722 0.0000 12.8242 0.0000
# 4 0.0000 0.0000 0.0000 22.3328 0.0000 4.2047
# 5 20.6741 8.3938 12.8242 0.0000 28.2629 0.0000
# 6 0.0000 0.0000 0.0000 4.2047 0.0000 35.0779
#
#
#
# Elastic Compliance Matrix: (Units=1/GPa)
#
#
# Indices 1 2 3 4 5 6 
#
# 1 0.012871 -0.013181 -0.002369 0.000000 -0.004425 0.000000
# 2 -0.013181 0.058547 -0.013275 0.000000 -0.001723 0.000000
# 3 -0.002369 -0.013275 0.016831 0.000000 -0.001961 0.000000
# 4 0.000000 0.000000 0.000000 0.045811 0.000000 -0.005491
# 5 -0.004425 -0.001723 -0.001961 0.000000 0.040021 0.000000
# 6 0.000000 0.000000 0.000000 -0.005491 0.000000 0.029166
#
#
# Mechanical properties :
#
#
# Convention : Reuss Voigt Hill
#
# Bulk Modulus (GPa) = 32.68067 61.95818 47.31942
# Shear Modulus (GPa) = 18.44355 26.15561 22.29958
#
# Velocity S-wave (km/s) = 3.25614 3.87760 3.58038
# Velocity P-wave (km/s) = 5.73789 7.46090 6.65539
#
# Compressibility (1/GPa) = 0.03059913
#
# Stress axis : x y z
#
# Youngs Moduli (GPa) = 77.69545 17.08017 59.41279
#
# Poissons Ratio (x) = 0.22513 0.14077
# Poissons Ratio (y) = 1.02410 0.78870
# Poissons Ratio (z) = 0.18409 0.22674
#
# Static dielectric constant tensor:
#      x y z
#    x 1.568370 0.000000 0.002040 
#    y 0.000000 1.578470 0.000000 
#    z 0.002040 0.000000 1.577130 
# 
# From -- ./inp_files/314033.got.cif
#   From: 2010.05.17/outbox.cif.g08.bks.cpg/sg12_158_cif.got.tgz:314033.got - 2010.06.03 13:09:07.
