data_PCOD9183366
_publ_section_title
;
Structure prediction by ZEFSAII (Michael W. Deem and Ramdas Pophale) SiO2 
 PCOD9183366
Probable space group: C 2/M
;
_chemical_formula_sum "Si O2"
_cell_formula_units_Z 56
_cell_length_a 15.010305
_cell_length_b 21.954804
_cell_length_c 17.343037
_cell_angle_alpha 90.000000
_cell_angle_beta 30.071354
_cell_angle_gamma 90.000000
_cell_volume 2863.846112
_symmetry_space_group_name_H-M "C 2/M"
_symmetry_group_IT_number 12
_symmetry_cell_setting 'monoclinic'
loop_
_space_group_symop_operation_xyz
x,y,z
-x,y,-z
-x,-y,-z
x,-y,z
1/2+x,1/2+y,z
1/2-x,1/2+y,-z
1/2-x,1/2-y,-z
1/2+x,1/2-y,z
loop_
_atom_site_type_symbol
_atom_site_label
_atom_site_fract_x
_atom_site_fract_y
_atom_site_fract_z
Si Si1 0.659586 0.859561 0.934327
Si Si2 0.530805 0.783377 0.565116
Si Si3 0.532676 0.000000 0.566663
Si Si4 0.166020 0.000000 0.933313
Si Si5 0.971725 0.140455 0.434350
Si Si6 0.277124 0.611385 0.435075
Si Si7 0.352799 0.611394 0.935010
Si Si8 0.839082 0.216647 0.064996
O O1 0.838916 0.862241 0.749990
O O2 0.701254 0.892960 0.983042
O O3 0.628167 0.787980 0.976330
O O4 0.500000 0.881734 0.000000
O O5 0.500000 0.804187 0.500000
O O6 0.580777 0.712045 0.523738
O O7 0.681483 0.824438 0.490462
O O8 0.347467 0.789111 0.750058
O O9 0.500000 0.000000 0.500000
O O10 0.345059 0.000000 0.749989
O O11 0.644868 0.058860 0.507601
O O12 0.160097 0.058879 0.992360
O O13 0.000000 0.000000 0.000000
O O14 0.000000 0.118287 0.500000
O O15 0.832619 0.107047 0.483103
O O16 0.457760 0.608097 0.250031
O O17 0.337787 0.675597 0.990265
O O18 0.000000 0.195823 0.000000
#
# Coordination Sequence:
#
# PCOD9183366 Si02
#       8
#     8   8   4   4   8   8   8   8
#     4   9  20  36  57  84 116 149 185 228 276 326
#     4  10  19  33  54  84 117 151 186 226 275 331
#     4  12  26  44  63  84 109 144 185 230 278 330
#     4  12  26  44  63  84 109 144 185 230 278 330
#     4   9  20  36  57  84 116 149 185 228 276 326
#     4  11  22  38  58  83 113 148 187 232 279 328
#     4  11  22  38  58  83 113 148 187 232 279 328
#     4  10  19  33  54  84 117 151 186 226 275 331
#
# _framework density 19.554124000000002
#
# number of rings (size 3 to 8) (size 9 to 14) (size 15 to 20)
#    0.000    1.714    0.000    4.714    0.000    3.429 
#    0.000    0.714    0.000    0.000    0.000    0.000 
#    0.000    0.000    0.000    0.000    0.000    0.000 
#
# Total GULP energy -156490.232914 kJ/mol
# GULP energy per Si atom -5588.936890 kJ/mol
# Density = 1.950962 g / cm^3
# Si number density = 19.554124 Si / 1000 Ang^3
#
#
#
# Elastic Constant Matrix: (Units=GPa)
#
#
# Indices 1 2 3 4 5 6 
#
# 1 207.1122 53.3353 56.6166 0.0281 -2.8257 -0.0067
# 2 53.3353 40.5431 27.7415 0.0692 -0.8163 -0.0250
# 3 56.6166 27.7415 81.4366 0.1133 -1.4054 -0.0566
# 4 0.0281 0.0692 0.1133 25.3787 -0.0638 -0.2047
# 5 -2.8257 -0.8163 -1.4054 -0.0638 33.5105 0.0170
# 6 -0.0067 -0.0250 -0.0566 -0.2047 0.0170 32.6652
#
#
#
# Elastic Compliance Matrix: (Units=1/GPa)
#
#
# Indices 1 2 3 4 5 6 
#
# 1 0.007669 -0.008394 -0.002466 0.000026 0.000339 -0.000009
# 2 -0.008394 0.041353 -0.008252 -0.000067 -0.000047 0.000015
# 3 -0.002466 -0.008252 0.016810 -0.000049 0.000296 0.000022
# 4 0.000026 -0.000067 -0.000049 0.039406 0.000073 0.000247
# 5 0.000339 -0.000047 0.000296 0.000073 0.029881 -0.000015
# 6 -0.000009 0.000015 0.000022 0.000247 -0.000015 0.030615
#
#
# Mechanical properties :
#
#
# Convention : Reuss Voigt Hill
#
# Bulk Modulus (GPa) = 36.22175 67.16429 51.69302
# Shear Modulus (GPa) = 23.45637 31.07078 27.26358
#
# Velocity S-wave (km/s) = 3.46723 3.99050 3.73803
# Velocity P-wave (km/s) = 5.88158 7.46020 6.71742
#
# Compressibility (1/GPa) = 0.02760772
#
# Stress axis : x y z
#
# Youngs Moduli (GPa) = 130.39967 24.18189 59.48742
#
# Poissons Ratio (x) = 0.20299 0.14671
# Poissons Ratio (y) = 1.09459 0.49089
# Poissons Ratio (z) = 0.32159 0.19955
#
# Static dielectric constant tensor:
#      x y z
#    x 1.698430 -0.000010 0.001260 
#    y -0.000010 1.686260 -0.000200 
#    z 0.001260 -0.000200 1.705370 
# 
# From -- ./inp_files/272381.got.cif
#   From: 2010.05.17/outbox.cif.g08.bks.cpg/sg12_137_cif.got.tgz:272381.got - 2010.06.03 13:09:07.
