data_PCOD9183094
_publ_section_title
;
Structure prediction by ZEFSAII (Michael W. Deem and Ramdas Pophale) SiO2 
 PCOD9183094
Probable space group: C 2/M
;
_chemical_formula_sum "Si O2"
_cell_formula_units_Z 56
_cell_length_a 19.492439
_cell_length_b 7.855132
_cell_length_c 28.343356
_cell_angle_alpha 90.000000
_cell_angle_beta 139.929276
_cell_angle_gamma 90.000000
_cell_volume 2793.679065
_symmetry_space_group_name_H-M "C 2/M"
_symmetry_group_IT_number 12
_symmetry_cell_setting 'monoclinic'
loop_
_space_group_symop_operation_xyz
x,y,z
-x,y,-z
-x,-y,-z
x,-y,z
1/2+x,1/2+y,z
1/2-x,1/2+y,-z
1/2-x,1/2-y,-z
1/2+x,1/2-y,z
loop_
_atom_site_type_symbol
_atom_site_label
_atom_site_fract_x
_atom_site_fract_y
_atom_site_fract_z
Si Si1 0.185201 0.702884 0.787794
Si Si2 0.381905 0.700488 0.445833
Si Si3 0.482191 0.701105 0.738872
Si Si4 0.791706 0.192940 0.573064
Si Si5 0.037385 0.807932 0.166858
Si Si6 0.729877 0.303533 0.713150
Si Si7 0.067148 0.791396 0.080734
O O1 0.182612 0.500000 0.792079
O O2 0.158241 0.751506 0.719682
O O3 0.308534 0.760281 0.858805
O O4 0.097096 0.779938 0.775574
O O5 0.500000 0.768079 0.500000
O O6 0.388935 0.500000 0.463432
O O7 0.309368 0.792292 0.445695
O O8 0.326250 0.710742 0.366076
O O9 0.456708 0.500000 0.731895
O O10 0.390606 0.774004 0.655257
O O11 0.485546 0.774126 0.794132
O O12 0.750000 0.250000 0.500000
O O13 0.826366 0.000000 0.583676
O O14 0.165823 0.811715 0.232569
O O15 0.015591 0.731562 0.103395
O O16 0.992325 0.000000 0.143480
O O17 0.763258 0.500000 0.737029
O O18 0.067027 0.000000 0.082675
O O19 0.000000 0.738872 0.000000
#
# Coordination Sequence:
#
# PCOD9183094 Si02
#       7
#     8   8   8   8   8   8   8
#     4  10  21  34  54  81 109 141 182 223 262 320
#     4  10  22  38  55  77 106 139 178 223 275 327
#     4  10  21  37  55  76 109 146 180 223 272 320
#     4  11  24  40  57  78 108 145 185 229 275 322
#     4   9  17  33  56  79 104 139 181 217 260 321
#     4  10  19  33  54  77 104 138 177 224 270 318
#     4   8  15  31  56  83 109 139 176 219 265 316
#
# _framework density 20.045252000000001
#
# number of rings (size 3 to 8) (size 9 to 14) (size 15 to 20)
#    0.000    2.286    1.429    2.143    2.000    2.571 
#    0.000    0.714    0.000   10.714    0.000    0.000 
#    0.000    0.000    0.000    0.000    0.000    0.000 
#
# Total GULP energy -155997.537244 kJ/mol
# GULP energy per Si atom -5571.340616 kJ/mol
# Density = 1.999963 g / cm^3
# Si number density = 20.045252 Si / 1000 Ang^3
#
#
#
# Elastic Constant Matrix: (Units=GPa)
#
#
# Indices 1 2 3 4 5 6 
#
# 1 148.8332 -8.5585 61.8205 0.0000 -31.6871 -0.0001
# 2 -8.5585 22.4929 13.9692 0.0001 -9.8936 0.0000
# 3 61.8205 13.9692 96.3276 0.0000 -29.7026 0.0000
# 4 0.0000 0.0001 0.0000 9.2970 0.0000 0.8352
# 5 -31.6871 -9.8936 -29.7026 0.0000 33.3139 0.0000
# 6 -0.0001 0.0000 0.0000 0.8352 0.0000 22.1837
#
#
#
# Elastic Compliance Matrix: (Units=1/GPa)
#
#
# Indices 1 2 3 4 5 6 
#
# 1 0.012382 0.013200 -0.006924 0.000000 0.009524 0.000000
# 2 0.013200 0.066224 -0.011225 -0.000001 0.022214 0.000000
# 3 -0.006924 -0.011225 0.018472 0.000000 0.006551 0.000000
# 4 0.000000 -0.000001 0.000000 0.107927 0.000000 -0.004064
# 5 0.009524 0.022214 0.006551 0.000000 0.051514 0.000000
# 6 0.000000 0.000000 0.000000 -0.004064 0.000000 0.045231
#
#
# Mechanical properties :
#
#
# Convention : Reuss Voigt Hill
#
# Bulk Modulus (GPa) = 11.47050 44.67956 28.07503
# Shear Modulus (GPa) = 14.67534 26.32042 20.49788
#
# Velocity S-wave (km/s) = 2.70869 3.62753 3.20125
# Velocity P-wave (km/s) = 3.93921 6.31531 5.26310
#
# Compressibility (1/GPa) = 0.08718015
#
# Stress axis : x y z
#
# Youngs Moduli (GPa) = 80.76504 15.10031 54.13454
#
# Poissons Ratio (x) = -0.19933 0.37481
# Poissons Ratio (y) = -1.06613 0.60769
# Poissons Ratio (z) = 0.55919 0.16951
#
# Static dielectric constant tensor:
#      x y z
#    x 1.699510 0.000000 -0.038240 
#    y 0.000000 1.760390 0.000000 
#    z -0.038240 0.000000 1.738320 
# 
# From -- ./inp_files/342304.got.cif
#   From: 2010.05.17/outbox.cif.g08.bks.cpg/sg12_172_cif.got.tgz:342304.got - 2010.06.03 13:09:07.
