data_PCOD9183761
_publ_section_title
;
Structure prediction by ZEFSAII (Michael W. Deem and Ramdas Pophale) SiO2 
 PCOD9183761
Probable space group: C 2/M
;
_chemical_formula_sum "Si O2"
_cell_formula_units_Z 64
_cell_length_a 21.176430
_cell_length_b 16.238473
_cell_length_c 20.136240
_cell_angle_alpha 90.000000
_cell_angle_beta 26.161195
_cell_angle_gamma 90.000000
_cell_volume 3052.913520
_symmetry_space_group_name_H-M "C 2/M"
_symmetry_group_IT_number 12
_symmetry_cell_setting 'monoclinic'
loop_
_space_group_symop_operation_xyz
x,y,z
-x,y,-z
-x,-y,-z
x,-y,z
1/2+x,1/2+y,z
1/2-x,1/2+y,-z
1/2-x,1/2-y,-z
1/2+x,1/2-y,z
loop_
_atom_site_type_symbol
_atom_site_label
_atom_site_fract_x
_atom_site_fract_y
_atom_site_fract_z
Si Si1 0.376040 0.243639 0.216409
Si Si2 0.134526 0.088404 0.094568
Si Si3 0.558679 0.909669 0.248154
Si Si4 0.565926 0.275257 0.256627
Si Si5 0.741947 0.332366 0.464467
Si Si6 0.811931 0.091119 0.349715
Si Si7 0.195372 0.764629 0.862085
Si Si8 0.613279 0.093138 0.344127
O O1 0.344070 0.176500 0.304263
O O2 0.297506 0.327436 0.317847
O O3 0.319190 0.222216 0.196397
O O4 0.546128 0.257737 0.042978
O O5 0.147589 0.167666 0.127617
O O6 0.982497 0.092120 0.202554
O O7 0.138894 0.000000 0.127307
O O8 0.268480 0.088992 0.919867
O O9 0.527347 0.813997 0.260239
O O10 0.528158 0.910787 0.354937
O O11 0.517944 0.000000 0.257042
O O12 0.421353 0.326346 0.408271
O O13 0.670275 0.263477 0.220383
O O14 0.750000 0.250000 0.500000
O O15 0.755313 0.398349 0.512045
O O16 0.775016 0.000000 0.358889
O O17 0.239890 0.857888 0.801995
O O18 0.500000 0.134776 0.500000
O O19 0.642006 0.000000 0.338195
#
# Coordination Sequence:
#
# PCOD9183761 Si02
#       8
#     8   8   8   8   8   8   8   8
#     4  10  21  36  51  80 116 145 181 239 269 332
#     4   9  17  30  52  81 110 137 186 247 285 331
#     4   9  17  28  45  75 108 142 183 226 273 332
#     4  10  19  33  56  79 104 153 191 228 287 346
#     4   9  20  36  54  78 110 140 180 236 284 328
#     4   9  17  33  56  80 108 145 181 226 289 342
#     4  10  22  34  54  78 107 152 196 220 277 337
#     4   9  18  31  47  70 107 146 186 234 270 321
#
# _framework density 20.963581999999999
#
# number of rings (size 3 to 8) (size 9 to 14) (size 15 to 20)
#    0.000    2.625    0.000    1.875    3.500    4.000 
#    0.000    3.750    0.000    1.500    0.000    5.250 
#    0.000    0.000    0.000    0.000    0.000    0.000 
#
# Total GULP energy -178174.686425 kJ/mol
# GULP energy per Si atom -5567.958951 kJ/mol
# Density = 2.091587 g / cm^3
# Si number density = 20.963582 Si / 1000 Ang^3
#
#
#
# Elastic Constant Matrix: (Units=GPa)
#
#
# Indices 1 2 3 4 5 6 
#
# 1 79.5049 15.4219 18.3477 0.0009 9.4254 -0.0003
# 2 15.4219 73.9808 12.0585 0.0018 14.4537 -0.0013
# 3 18.3477 12.0585 110.8230 0.0022 15.6061 -0.0015
# 4 0.0009 0.0018 0.0022 27.0357 -0.0010 -2.3304
# 5 9.4254 14.4537 15.6061 -0.0010 28.7237 0.0006
# 6 -0.0003 -0.0013 -0.0015 -2.3304 0.0006 18.3456
#
#
#
# Elastic Compliance Matrix: (Units=1/GPa)
#
#
# Indices 1 2 3 4 5 6 
#
# 1 0.013669 -0.002082 -0.001681 0.000000 -0.002524 0.000000
# 2 -0.002082 0.015347 -0.000362 -0.000001 -0.006843 0.000001
# 3 -0.001681 -0.000362 0.010003 -0.000001 -0.004701 0.000001
# 4 0.000000 -0.000001 -0.000001 0.037398 0.000002 0.004750
# 5 -0.002524 -0.006843 -0.004701 0.000002 0.041640 -0.000002
# 6 0.000000 0.000001 0.000001 0.004750 -0.000002 0.055112
#
#
# Mechanical properties :
#
#
# Convention : Reuss Voigt Hill
#
# Bulk Modulus (GPa) = 32.49981 39.55165 36.02573
# Shear Modulus (GPa) = 26.08579 29.38638 27.73608
#
# Velocity S-wave (km/s) = 3.53134 3.74810 3.64134
# Velocity P-wave (km/s) = 5.67132 6.13505 5.90773
#
# Compressibility (1/GPa) = 0.03076941
#
# Stress axis : x y z
#
# Youngs Moduli (GPa) = 73.15868 65.15968 99.96929
#
# Poissons Ratio (x) = 0.13568 0.16805
# Poissons Ratio (y) = 0.15233 0.03614
# Poissons Ratio (z) = 0.12298 0.02356
#
# Static dielectric constant tensor:
#      x y z
#    x 1.811630 0.000000 -0.030950 
#    y 0.000000 1.797510 0.000000 
#    z -0.030950 0.000000 1.851820 
# 
# From -- ./inp_files/285184.got.cif
#   From: 2010.05.17/outbox.cif.g08.bks.cpg/sg12_143_cif.got.tgz:285184.got - 2010.06.03 13:09:07.
