data_PCOD9183341
_publ_section_title
;
Structure prediction by ZEFSAII (Michael W. Deem and Ramdas Pophale) SiO2 
 PCOD9183341
Probable space group: C 2/M
;
_chemical_formula_sum "Si O2"
_cell_formula_units_Z 56
_cell_length_a 19.870931
_cell_length_b 21.085589
_cell_length_c 14.999473
_cell_angle_alpha 90.000000
_cell_angle_beta 26.226827
_cell_angle_gamma 90.000000
_cell_volume 2777.342410
_symmetry_space_group_name_H-M "C 2/M"
_symmetry_group_IT_number 12
_symmetry_cell_setting 'monoclinic'
loop_
_space_group_symop_operation_xyz
x,y,z
-x,y,-z
-x,-y,-z
x,-y,z
1/2+x,1/2+y,z
1/2-x,1/2+y,-z
1/2-x,1/2-y,-z
1/2+x,1/2-y,z
loop_
_atom_site_type_symbol
_atom_site_label
_atom_site_fract_x
_atom_site_fract_y
_atom_site_fract_z
Si Si1 0.486644 0.821671 0.266854
Si Si2 0.161095 0.072118 0.840173
Si Si3 0.227716 0.568843 0.487334
Si Si4 0.585895 0.705674 0.528867
Si Si5 0.753000 0.230426 0.840254
Si Si6 0.771684 0.368090 0.885269
Si Si7 0.488855 0.427752 0.311028
O O1 0.364110 0.869982 0.374456
O O2 0.415591 0.755340 0.386926
O O3 0.569877 0.854870 0.253356
O O4 0.618801 0.812511 0.037160
O O5 0.258760 0.071560 0.634661
O O6 0.259929 0.098826 0.803622
O O7 0.122590 0.000000 0.912219
O O8 0.000000 0.103355 0.000000
O O9 0.161046 0.500000 0.592598
O O10 0.395742 0.570661 0.329164
O O11 0.416391 0.713953 0.689070
O O12 0.711624 0.727221 0.306873
O O13 0.591217 0.630339 0.541642
O O14 0.710913 0.298440 0.931879
O O15 0.658888 0.405405 0.085217
O O16 0.484384 0.500000 0.353111
#
# Coordination Sequence:
#
# PCOD9183341 Si02
#       7
#     8   8   8   8   8   8   8
#     4  11  21  39  60  88 121 152 194 255 301 350
#     4  10  19  33  54  83 116 150 193 238 287 357
#     4  10  23  38  55  84 123 160 192 244 307 353
#     4  10  20  39  62  89 119 156 201 242 301 363
#     4  10  20  37  61  88 120 150 192 258 302 343
#     4  11  19  36  61  87 112 152 199 241 301 356
#     4  11  21  38  61  85 119 161 202 243 291 360
#
# _framework density 20.163160000000001
#
# number of rings (size 3 to 8) (size 9 to 14) (size 15 to 20)
#    0.000    1.571    4.286    2.143    0.000    3.429 
#    0.000    4.286    0.000    1.714    0.000    0.000 
#    0.000    0.000    0.000    0.000    0.000    0.000 
#
# Total GULP energy -156021.543710 kJ/mol
# GULP energy per Si atom -5572.197990 kJ/mol
# Density = 2.011727 g / cm^3
# Si number density = 20.163160 Si / 1000 Ang^3
#
#
#
# Elastic Constant Matrix: (Units=GPa)
#
#
# Indices 1 2 3 4 5 6 
#
# 1 21.8538 8.7278 1.6653 -0.0062 0.2389 0.0126
# 2 8.7278 109.9930 32.1374 -0.0023 -10.1761 0.0112
# 3 1.6653 32.1374 71.2376 -0.0013 8.4031 0.0133
# 4 -0.0062 -0.0023 -0.0013 26.2954 0.0021 -3.3078
# 5 0.2389 -10.1761 8.4031 0.0021 16.9819 -0.0094
# 6 0.0126 0.0112 0.0133 -3.3078 -0.0094 23.5332
#
#
#
# Elastic Compliance Matrix: (Units=1/GPa)
#
#
# Indices 1 2 3 4 5 6 
#
# 1 0.047520 -0.004572 0.001438 0.000008 -0.004119 -0.000025
# 2 -0.004572 0.012445 -0.006791 -0.000001 0.010882 0.000005
# 3 0.001438 -0.006791 0.018638 0.000000 -0.013312 -0.000013
# 4 0.000008 -0.000001 0.000000 0.038714 -0.000002 0.005442
# 5 -0.004119 0.010882 -0.013312 -0.000002 0.072053 0.000033
# 6 -0.000025 0.000005 -0.000013 0.005442 0.000033 0.043258
#
#
# Mechanical properties :
#
#
# Convention : Reuss Voigt Hill
#
# Bulk Modulus (GPa) = 17.02062 32.01614 24.51838
# Shear Modulus (GPa) = 18.37809 24.06568 21.22189
#
# Velocity S-wave (km/s) = 3.02233 3.45852 3.24776
# Velocity P-wave (km/s) = 4.54302 5.64460 5.12350
#
# Compressibility (1/GPa) = 0.05875228
#
# Stress axis : x y z
#
# Youngs Moduli (GPa) = 21.04379 80.35163 53.65398
#
# Poissons Ratio (x) = 0.36735 -0.07713
# Poissons Ratio (y) = 0.09621 0.36438
# Poissons Ratio (z) = -0.03025 0.54569
#
# Static dielectric constant tensor:
#      x y z
#    x 1.737490 0.000000 0.022840 
#    y 0.000000 1.817370 0.000000 
#    z 0.022840 0.000000 1.710760 
# 
# From -- ./inp_files/89496.got.cif
#   From: 2010.05.17/outbox.cif.g08.bks.cpg/sg12_45_cif.got.tgz:89496.got - 2010.06.03 13:09:07.
