data_PCOD9183304
_publ_section_title
;
Structure prediction by ZEFSAII (Michael W. Deem and Ramdas Pophale) SiO2 
 PCOD9183304
Probable space group: C 2/M
;
_chemical_formula_sum "Si O2"
_cell_formula_units_Z 56
_cell_length_a 30.662608
_cell_length_b 8.877238
_cell_length_c 12.772223
_cell_angle_alpha 90.000000
_cell_angle_beta 105.659640
_cell_angle_gamma 90.000000
_cell_volume 3347.546130
_symmetry_space_group_name_H-M "C 2/M"
_symmetry_group_IT_number 12
_symmetry_cell_setting 'monoclinic'
loop_
_space_group_symop_operation_xyz
x,y,z
-x,y,-z
-x,-y,-z
x,-y,z
1/2+x,1/2+y,z
1/2-x,1/2+y,-z
1/2-x,1/2-y,-z
1/2+x,1/2-y,z
loop_
_atom_site_type_symbol
_atom_site_label
_atom_site_fract_x
_atom_site_fract_y
_atom_site_fract_z
Si Si1 0.452249 0.180468 0.245405
Si Si2 0.049467 0.819567 0.985310
Si Si3 0.887935 0.319892 0.797894
Si Si4 0.702310 0.320514 0.340770
Si Si5 0.604183 0.319553 0.606242
Si Si6 0.444926 0.819467 0.625371
Si Si7 0.797754 0.819572 0.412270
O O1 0.446362 0.250304 0.127062
O O2 0.416237 0.244611 0.303923
O O3 0.502709 0.218644 0.319940
O O4 0.449269 0.000000 0.237484
O O5 0.052685 0.000000 0.982416
O O6 0.086896 0.754611 0.088072
O O7 0.000000 0.779690 0.000000
O O8 0.888133 0.500000 0.808982
O O9 0.837379 0.259248 0.748754
O O10 0.916244 0.281830 0.710773
O O11 0.699185 0.500000 0.327218
O O12 0.752421 0.262779 0.345698
O O13 0.695672 0.283350 0.460105
O O14 0.601361 0.500000 0.611647
O O15 0.575448 0.263810 0.487750
O O16 0.656530 0.278222 0.618572
O O17 0.441779 0.000000 0.606385
O O18 0.791213 0.000000 0.400943
#
# Coordination Sequence:
#
# PCOD9183304 Si02
#       7
#     8   8   8   8   8   8   8
#     4  11  23  39  56  78 111 150 192 228 271 330
#     4  11  23  38  58  82 109 143 187 235 277 319
#     4  11  21  35  57  82 113 148 183 225 277 329
#     4  10  19  33  54  82 111 142 183 228 276 326
#     4  11  22  36  55  81 114 149 186 228 276 328
#     4  10  21  35  53  79 112 150 186 223 270 329
#     4   9  19  34  52  78 112 146 180 223 276 331
#
# _framework density 16.728670999999999
#
# number of rings (size 3 to 8) (size 9 to 14) (size 15 to 20)
#    0.000    1.571    2.857    2.571    0.000    5.714 
#    0.000    0.000    0.000    0.857    0.000    0.000 
#    0.000    0.000    0.000    0.000    0.000    0.000 
#
# Total GULP energy -156441.279860 kJ/mol
# GULP energy per Si atom -5587.188566 kJ/mol
# Density = 1.669060 g / cm^3
# Si number density = 16.728671 Si / 1000 Ang^3
#
#
#
# Elastic Constant Matrix: (Units=GPa)
#
#
# Indices 1 2 3 4 5 6 
#
# 1 142.1187 61.9803 97.4020 0.0000 5.2823 0.0000
# 2 61.9803 54.4121 59.5088 0.0000 1.7969 0.0000
# 3 97.4020 59.5088 118.8627 0.0000 1.1491 0.0000
# 4 0.0000 0.0000 0.0000 31.2188 0.0000 -0.4759
# 5 5.2823 1.7969 1.1491 0.0000 28.8482 0.0000
# 6 0.0000 0.0000 0.0000 -0.4759 0.0000 27.3821
#
#
#
# Elastic Compliance Matrix: (Units=1/GPa)
#
#
# Indices 1 2 3 4 5 6 
#
# 1 0.018269 -0.009691 -0.010096 0.000000 -0.002339 0.000000
# 2 -0.009691 0.045846 -0.015006 0.000000 -0.000483 0.000000
# 3 -0.010096 -0.015006 0.024182 0.000000 0.001820 0.000000
# 4 0.000000 0.000000 0.000000 0.032041 0.000000 0.000557
# 5 -0.002339 -0.000483 0.001820 0.000000 0.035050 0.000000
# 6 0.000000 0.000000 0.000000 0.000557 0.000000 0.036530
#
#
# Mechanical properties :
#
#
# Convention : Reuss Voigt Hill
#
# Bulk Modulus (GPa) = 53.45082 83.68618 68.56850
# Shear Modulus (GPa) = 18.67473 23.92332 21.29902
#
# Velocity S-wave (km/s) = 3.34478 3.78574 3.57207
# Velocity P-wave (km/s) = 6.85111 8.32126 7.62171
#
# Compressibility (1/GPa) = 0.01870879
#
# Stress axis : x y z
#
# Youngs Moduli (GPa) = 54.73634 21.81239 41.35333
#
# Poissons Ratio (x) = 0.21139 0.41751
# Poissons Ratio (y) = 0.53046 0.62057
# Poissons Ratio (z) = 0.55263 0.32733
#
# Static dielectric constant tensor:
#      x y z
#    x 1.555290 0.000000 0.001160 
#    y 0.000000 1.555110 0.000000 
#    z 0.001160 0.000000 1.526600 
# 
# From -- ./inp_files/181046.got.cif
#   From: 2010.05.17/outbox.cif.g08.bks.cpg/sg12_91_cif.got.tgz:181046.got - 2010.06.03 13:09:07.
