data_PCOD9183576
_publ_section_title
;
Structure prediction by ZEFSAII (Michael W. Deem and Ramdas Pophale) SiO2 
 PCOD9183576
Probable space group: C 2/M
;
_chemical_formula_sum "Si O2"
_cell_formula_units_Z 56
_cell_length_a 27.032865
_cell_length_b 8.277789
_cell_length_c 13.483696
_cell_angle_alpha 90.000000
_cell_angle_beta 112.296583
_cell_angle_gamma 90.000000
_cell_volume 2791.683551
_symmetry_space_group_name_H-M "C 2/M"
_symmetry_group_IT_number 12
_symmetry_cell_setting 'monoclinic'
loop_
_space_group_symop_operation_xyz
x,y,z
-x,y,-z
-x,-y,-z
x,-y,z
1/2+x,1/2+y,z
1/2-x,1/2+y,-z
1/2-x,1/2-y,-z
1/2+x,1/2-y,z
loop_
_atom_site_type_symbol
_atom_site_label
_atom_site_fract_x
_atom_site_fract_y
_atom_site_fract_z
Si Si1 0.624685 0.687602 0.945946
Si Si2 0.694704 0.189781 0.820239
Si Si3 0.701235 0.195092 0.394786
Si Si4 0.304665 0.810303 0.835432
Si Si5 0.974262 0.304582 0.237828
Si Si6 0.912976 0.302482 0.607539
Si Si7 0.406247 0.196415 0.377681
O O1 0.631363 0.500000 0.928419
O O2 0.662200 0.783701 0.896857
O O3 0.563994 0.737821 0.876787
O O4 0.646860 0.724947 0.071315
O O5 0.750208 0.281752 0.855035
O O6 0.653234 0.243434 0.702811
O O7 0.705832 0.000000 0.816929
O O8 0.750000 0.250000 0.500000
O O9 0.705601 0.249564 0.284045
O O10 0.644191 0.249845 0.394742
O O11 0.701363 0.000000 0.395076
O O12 0.316630 0.000000 0.840663
O O13 0.972156 0.500000 0.231689
O O14 0.946880 0.254277 0.321804
O O15 0.035782 0.252849 0.289107
O O16 0.913089 0.500000 0.606756
O O17 0.919363 0.249132 0.498150
O O18 0.407292 0.000000 0.379078
#
# Coordination Sequence:
#
# PCOD9183576 Si02
#       7
#     8   8   8   8   8   8   8
#     4  11  22  36  54  77 107 140 175 218 270 325
#     4  10  19  33  55  82 110 140 175 217 268 321
#     4  10  22  38  57  81 109 142 179 221 264 312
#     4  11  22  36  53  76 107 142 182 223 265 313
#     4   9  17  31  53  80 108 138 175 219 263 312
#     4   9  16  30  53  79 106 139 180 219 258 309
#     4   8  14  25  48  81 109 133 166 210 258 311
#
# _framework density 20.05958
#
# number of rings (size 3 to 8) (size 9 to 14) (size 15 to 20)
#    0.000    2.286    0.000    4.714    0.000    4.000 
#    0.000    1.429    0.000   12.000    0.000    0.000 
#    0.000    0.000    0.000    0.000    0.000    0.000 
#
# Total GULP energy -156322.963816 kJ/mol
# GULP energy per Si atom -5582.962993 kJ/mol
# Density = 2.001392 g / cm^3
# Si number density = 20.059580 Si / 1000 Ang^3
#
#
#
# Elastic Constant Matrix: (Units=GPa)
#
#
# Indices 1 2 3 4 5 6 
#
# 1 79.7130 5.1555 51.1010 0.0000 34.3078 0.0000
# 2 5.1555 15.7063 8.9364 0.0000 5.6713 0.0000
# 3 51.1010 8.9364 149.9405 0.0000 30.9553 0.0000
# 4 0.0000 0.0000 0.0000 21.4135 0.0000 6.2647
# 5 34.3078 5.6713 30.9553 0.0000 30.3480 0.0000
# 6 0.0000 0.0000 0.0000 6.2647 0.0000 14.4584
#
#
#
# Elastic Compliance Matrix: (Units=1/GPa)
#
#
# Indices 1 2 3 4 5 6 
#
# 1 0.025946 0.003001 -0.003610 0.000000 -0.026209 0.000000
# 2 0.003001 0.069016 -0.002246 0.000000 -0.013999 0.000000
# 3 -0.003610 -0.002246 0.008999 0.000000 -0.004678 0.000000
# 4 0.000000 0.000000 0.000000 0.053479 0.000000 -0.023172
# 5 -0.026209 -0.013999 -0.004678 0.000000 0.069968 0.000000
# 6 0.000000 0.000000 0.000000 -0.023172 0.000000 0.079204
#
#
# Mechanical properties :
#
#
# Convention : Reuss Voigt Hill
#
# Bulk Modulus (GPa) = 10.17797 41.74951 25.96374
# Shear Modulus (GPa) = 14.48968 25.25511 19.87239
#
# Velocity S-wave (km/s) = 2.69054 3.55209 3.15090
# Velocity P-wave (km/s) = 3.83887 6.13849 5.11947
#
# Compressibility (1/GPa) = 0.09825138
#
# Stress axis : x y z
#
# Youngs Moduli (GPa) = 38.54202 14.48931 111.11731
#
# Poissons Ratio (x) = -0.04349 0.40119
# Poissons Ratio (y) = -0.11568 0.24958
# Poissons Ratio (z) = 0.13916 0.03254
#
# Static dielectric constant tensor:
#      x y z
#    x 1.694220 0.000000 0.002330 
#    y 0.000000 1.700900 0.000000 
#    z 0.002330 0.000000 1.720880 
# 
# From -- ./inp_files/244328.got.cif
#   From: 2010.05.17/outbox.cif.g08.bks.cpg/sg12_123_cif.got.tgz:244328.got - 2010.06.03 13:09:07.
