data_PCOD9183080
_publ_section_title
;
Structure prediction by ZEFSAII (Michael W. Deem and Ramdas Pophale) SiO2 
 PCOD9183080
Probable space group: C 2/M
;
_chemical_formula_sum "Si O2"
_cell_formula_units_Z 56
_cell_length_a 19.644384
_cell_length_b 7.453781
_cell_length_c 19.389984
_cell_angle_alpha 90.000000
_cell_angle_beta 120.042749
_cell_angle_gamma 90.000000
_cell_volume 2457.739701
_symmetry_space_group_name_H-M "C 2/M"
_symmetry_group_IT_number 12
_symmetry_cell_setting 'monoclinic'
loop_
_space_group_symop_operation_xyz
x,y,z
-x,y,-z
-x,-y,-z
x,-y,z
1/2+x,1/2+y,z
1/2-x,1/2+y,-z
1/2-x,1/2-y,-z
1/2+x,1/2-y,z
loop_
_atom_site_type_symbol
_atom_site_label
_atom_site_fract_x
_atom_site_fract_y
_atom_site_fract_z
Si Si1 0.185329 0.280931 0.179965
Si Si2 0.229088 0.784506 0.910219
Si Si3 0.441691 0.294577 0.187875
Si Si4 0.594106 0.283484 0.345428
Si Si5 0.490178 0.783039 0.916260
Si Si6 0.259761 0.712337 0.355788
Si Si7 0.577028 0.280636 0.495641
O O1 0.185681 0.500000 0.180348
O O2 0.209034 0.222472 0.115574
O O3 0.096653 0.227538 0.151001
O O4 0.240985 0.217630 0.269704
O O5 0.143774 0.712520 0.843827
O O6 0.225603 0.000000 0.903054
O O7 0.250000 0.750000 0.000000
O O8 0.438369 0.500000 0.211137
O O9 0.520820 0.216449 0.261669
O O10 0.450912 0.291644 0.110001
O O11 0.593887 0.500000 0.343233
O O12 0.680452 0.233082 0.360989
O O13 0.578288 0.226559 0.416058
O O14 0.497231 0.000000 0.918070
O O15 0.500000 0.727259 0.000000
O O16 0.272088 0.500000 0.354731
O O17 0.340349 0.781898 0.429489
O O18 0.500000 0.224352 0.500000
O O19 0.576377 0.500000 0.495606
#
# Coordination Sequence:
#
# PCOD9183080 Si02
#       7
#     8   8   8   8   8   8   8
#     4   9  18  32  52  77 102 133 175 218 256 302
#     4  10  21  37  54  75 104 139 178 220 266 313
#     4  10  21  34  52  78 108 140 171 213 268 316
#     4  10  20  35  54  80 112 141 171 214 265 313
#     4  10  19  33  54  77 102 135 176 218 257 306
#     4  10  19  34  57  81 105 139 179 217 260 312
#     4   9  19  33  55  85 109 135 176 220 259 307
#
# _framework density 22.785160999999999
#
# number of rings (size 3 to 8) (size 9 to 14) (size 15 to 20)
#    0.000    2.286    1.429    1.286    2.000    2.000 
#    0.000    1.429    0.000    1.714    0.000    0.000 
#    0.000    0.000    0.000    0.000    0.000    0.000 
#
# Total GULP energy -156364.969837 kJ/mol
# GULP energy per Si atom -5584.463208 kJ/mol
# Density = 2.273330 g / cm^3
# Si number density = 22.785161 Si / 1000 Ang^3
#
#
#
# Elastic Constant Matrix: (Units=GPa)
#
#
# Indices 1 2 3 4 5 6 
#
# 1 101.5795 -8.8538 22.9473 0.0000 0.5470 0.0000
# 2 -8.8538 66.6615 -3.3655 0.0000 4.7455 0.0000
# 3 22.9473 -3.3655 113.5371 0.0000 -0.2049 0.0000
# 4 0.0000 0.0000 0.0000 1.2298 0.0000 0.0484
# 5 0.5470 4.7455 -0.2049 0.0000 42.2712 0.0000
# 6 0.0000 0.0000 0.0000 0.0484 0.0000 14.3273
#
#
#
# Elastic Compliance Matrix: (Units=1/GPa)
#
#
# Indices 1 2 3 4 5 6 
#
# 1 0.010427 0.001301 -0.002069 0.000000 -0.000291 0.000000
# 2 0.001301 0.015307 0.000188 0.000000 -0.001734 0.000000
# 3 -0.002069 0.000188 0.009232 0.000000 0.000050 0.000000
# 4 0.000000 0.000000 0.000000 0.813256 0.000000 -0.002746
# 5 -0.000291 -0.001734 0.000050 0.000000 0.023855 0.000000
# 6 0.000000 0.000000 0.000000 -0.002746 0.000000 0.069806
#
#
# Mechanical properties :
#
#
# Convention : Reuss Voigt Hill
#
# Bulk Modulus (GPa) = 29.58212 33.69269 31.63740
# Shear Modulus (GPa) = 5.23937 29.63567 17.43752
#
# Velocity S-wave (km/s) = 1.51804 3.61037 2.76941
# Velocity P-wave (km/s) = 4.01047 5.67441 4.91339
#
# Compressibility (1/GPa) = 0.03380420
#
# Stress axis : x y z
#
# Youngs Moduli (GPa) = 95.90524 65.32999 108.32367
#
# Poissons Ratio (x) = -0.08500 0.22416
# Poissons Ratio (y) = -0.12478 -0.02032
# Poissons Ratio (z) = 0.19846 -0.01226
#
# Static dielectric constant tensor:
#      x y z
#    x 1.804700 0.000000 0.022650 
#    y 0.000000 1.962580 0.000000 
#    z 0.022650 0.000000 1.839010 
# 
# From -- ./inp_files/275651.got.cif
#   From: 2010.05.17/outbox.cif.g08.bks.cpg/sg12_138_cif.got.tgz:275651.got - 2010.06.03 13:09:07.
