data_PCOD9183742
_publ_section_title
;
Structure prediction by ZEFSAII (Michael W. Deem and Ramdas Pophale) SiO2 
 PCOD9183742
Probable space group: C 2/M
;
_chemical_formula_sum "Si O2"
_cell_formula_units_Z 50
_cell_length_a 23.361905
_cell_length_b 13.039046
_cell_length_c 8.049524
_cell_angle_alpha 90.000000
_cell_angle_beta 115.414855
_cell_angle_gamma 90.000000
_cell_volume 2214.724781
_symmetry_space_group_name_H-M "C 2/M"
_symmetry_group_IT_number 12
_symmetry_cell_setting 'monoclinic'
loop_
_space_group_symop_operation_xyz
x,y,z
-x,y,-z
-x,-y,-z
x,-y,z
1/2+x,1/2+y,z
1/2-x,1/2+y,-z
1/2-x,1/2-y,-z
1/2+x,1/2-y,z
loop_
_atom_site_type_symbol
_atom_site_label
_atom_site_fract_x
_atom_site_fract_y
_atom_site_fract_z
Si Si1 0.595285 0.294755 0.799143
Si Si2 0.677082 0.117829 0.068163
Si Si3 0.812666 0.880229 0.340605
Si Si4 0.144133 0.286102 0.376673
Si Si5 0.574925 0.608140 0.104316
Si Si6 0.981330 0.352997 0.656438
Si Si7 0.000000 0.500000 0.000000
O O1 0.622560 0.349355 0.671096
O O2 0.523988 0.251007 0.708458
O O3 0.638472 0.197376 0.908221
O O4 0.601166 0.376547 0.953182
O O5 0.752637 0.128418 0.141965
O O6 0.666242 0.143099 0.251346
O O7 0.657146 0.000000 0.014534
O O8 0.806810 0.788148 0.467727
O O9 0.811841 0.000000 0.393995
O O10 0.098361 0.203377 0.235107
O O11 0.095301 0.345053 0.435363
O O12 0.596189 0.500000 0.203181
O O13 0.500000 0.608446 0.000000
O O14 0.998560 0.411918 0.848290
O O15 0.000000 0.396780 0.500000
#
# Coordination Sequence:
#
# PCOD9183742 Si02
#       7
#     8   8   8   8   8   8   2
#     4  11  22  40  62  93 133 168 217 288 337 406
#     4  10  24  42  67  92 123 179 234 270 334 406
#     4  11  23  43  65  92 128 176 224 277 340 397
#     4  11  22  40  62  93 133 168 217 288 337 406
#     4  10  19  33  55  88 124 172 223 267 331 412
#     4  12  25  43  66 102 141 170 231 273 358 406
#     4  12  26  44  68  94 142 196 206 280 324 432
#
# _framework density 22.576169
#
# number of rings (size 3 to 8) (size 9 to 14) (size 15 to 20)
#    0.000    1.120    3.200    4.080    4.480    0.000 
#    0.000    1.600    0.000    5.760    0.000    0.000 
#    0.000    0.000    0.000    0.000    0.000    0.000 
#
# Total GULP energy -139228.578521 kJ/mol
# GULP energy per Si atom -5569.143141 kJ/mol
# Density = 2.252478 g / cm^3
# Si number density = 22.576169 Si / 1000 Ang^3
#
#
#
# Elastic Constant Matrix: (Units=GPa)
#
#
# Indices 1 2 3 4 5 6 
#
# 1 61.6034 9.0630 1.8612 0.0000 -8.7492 0.0000
# 2 9.0630 87.1484 4.6705 0.0000 -3.0737 0.0000
# 3 1.8612 4.6705 77.4460 0.0000 -15.7407 0.0000
# 4 0.0000 0.0000 0.0000 -7.1021 0.0000 -2.2964
# 5 -8.7492 -3.0737 -15.7407 0.0000 40.7695 0.0000
# 6 0.0000 0.0000 0.0000 -2.2964 0.0000 46.8897
#
#
#
# Elastic Compliance Matrix: (Units=1/GPa)
#
#
# Indices 1 2 3 4 5 6 
#
# 1 0.016988 -0.001660 0.000442 0.000000 0.003691 0.000000
# 2 -0.001660 0.011690 -0.000606 0.000000 0.000291 0.000000
# 3 0.000442 -0.000606 0.014051 0.000000 0.005474 0.000000
# 4 0.000000 0.000000 0.000000 -0.138609 0.000000 -0.006788
# 5 0.003691 0.000291 0.005474 0.000000 0.027456 0.000000
# 6 0.000000 0.000000 0.000000 -0.006788 0.000000 0.020994
#
#
# Mechanical properties :
#
#
# Convention : Reuss Voigt Hill
#
# Bulk Modulus (GPa) = 25.58804 28.59857 27.09331
# Shear Modulus (GPa) = -162.57470 30.15164 -66.21153
#
# Velocity S-wave (km/s) = -8.49517 3.65848 -5.42141
# Velocity P-wave (km/s) = 9.21223 5.52640 5.21173
#
# Compressibility (1/GPa) = 0.03908075
#
# Stress axis : x y z
#
# Youngs Moduli (GPa) = 58.86510 85.54269 71.17077
#
# Poissons Ratio (x) = 0.14202 -0.03146
# Poissons Ratio (y) = 0.09773 0.04312
# Poissons Ratio (z) = -0.02602 0.05183
#
# Static dielectric constant tensor:
#      x y z
#    x 1.873970 0.000000 -0.015790 
#    y 0.000000 1.815490 0.000000 
#    z -0.015790 0.000000 1.879760 
# 
# From -- ./inp_files/102760.got.cif
#   From: 2010.05.17/outbox.cif.g08.bks.cpg/sg12_52_cif.got.tgz:102760.got - 2010.06.03 13:09:07.
