data_PCOD9183407
_publ_section_title
;
Structure prediction by ZEFSAII (Michael W. Deem and Ramdas Pophale) SiO2 
 PCOD9183407
Probable space group: C 2/M
;
_chemical_formula_sum "Si O2"
_cell_formula_units_Z 58
_cell_length_a 22.980348
_cell_length_b 7.363940
_cell_length_c 15.711427
_cell_angle_alpha 90.000000
_cell_angle_beta 109.980890
_cell_angle_gamma 90.000000
_cell_volume 2498.739516
_symmetry_space_group_name_H-M "C 2/M"
_symmetry_group_IT_number 12
_symmetry_cell_setting 'monoclinic'
loop_
_space_group_symop_operation_xyz
x,y,z
-x,y,-z
-x,-y,-z
x,-y,z
1/2+x,1/2+y,z
1/2-x,1/2+y,-z
1/2-x,1/2-y,-z
1/2+x,1/2-y,z
loop_
_atom_site_type_symbol
_atom_site_label
_atom_site_fract_x
_atom_site_fract_y
_atom_site_fract_z
Si Si1 0.074731 0.214280 0.956049
Si Si2 0.695551 0.222842 0.680096
Si Si3 0.994416 0.718235 0.368689
Si Si4 0.935130 0.221632 0.861020
Si Si5 0.500000 0.500000 0.500000
Si Si6 0.632422 0.788412 0.474521
Si Si7 0.827812 0.218679 0.687052
Si Si8 0.885368 0.283924 0.201373
O O1 0.121025 0.239491 0.900811
O O2 0.006274 0.285868 0.897086
O O3 0.066384 0.000000 0.961271
O O4 0.091299 0.276806 0.059254
O O5 0.663220 0.283507 0.575632
O O6 0.767140 0.276420 0.708116
O O7 0.661534 0.283778 0.749465
O O8 0.693516 0.000000 0.678871
O O9 0.990200 0.500000 0.379197
O O10 0.065473 0.785919 0.409860
O O11 0.955087 0.767077 0.266134
O O12 0.964942 0.837680 0.428162
O O13 0.890686 0.285679 0.763386
O O14 0.935399 0.000000 0.855754
O O15 0.675144 0.772684 0.412993
O O16 0.620424 0.000000 0.484862
O O17 0.828878 0.000000 0.688520
O O18 0.882280 0.500000 0.204873
#
# Coordination Sequence:
#
# PCOD9183407 Si02
#       8
#     8   8   8   8   2   8   8   8
#     4   9  17  32  55  80 105 134 171 219 278 331
#     4   9  19  34  51  71 103 147 181 216 269 330
#     4  10  22  36  53  80 114 147 182 232 282 327
#     4   8  16  32  54  79 106 132 165 223 282 324
#     4  12  22  32  56  78 112 146 198 216 276 334
#     4  10  20  36  54  74 107 144 178 226 283 322
#     4  10  19  33  55  78 100 135 189 230 265 325
#     4  10  20  36  53  74 111 147 176 218 278 330
#
# _framework density 23.211704000000001
#
# number of rings (size 3 to 8) (size 9 to 14) (size 15 to 20)
#    0.000    2.483    0.000    3.103    1.931    2.207 
#    0.000    3.448    0.000    0.000    0.000    0.000 
#    0.000    0.000    0.000    0.000    0.000    0.000 
#
# Total GULP energy -161579.673532 kJ/mol
# GULP energy per Si atom -5571.712880 kJ/mol
# Density = 2.315887 g / cm^3
# Si number density = 23.211704 Si / 1000 Ang^3
#
#
#
# Elastic Constant Matrix: (Units=GPa)
#
#
# Indices 1 2 3 4 5 6 
#
# 1 66.8288 -14.2087 16.8878 0.0000 -14.0293 0.0000
# 2 -14.2087 85.1098 -13.3132 0.0000 8.0832 0.0000
# 3 16.8878 -13.3132 107.6245 0.0000 -29.2755 0.0000
# 4 0.0000 0.0000 0.0000 12.8650 0.0000 -5.4587
# 5 -14.0293 8.0832 -29.2755 0.0000 34.5775 0.0000
# 6 0.0000 0.0000 0.0000 -5.4587 0.0000 -1.8594
#
#
#
# Elastic Compliance Matrix: (Units=1/GPa)
#
#
# Indices 1 2 3 4 5 6 
#
# 1 0.016809 0.002141 -0.000849 0.000000 0.005600 0.000000
# 2 0.002141 0.012363 0.000836 0.000000 -0.001313 0.000000
# 3 -0.000849 0.000836 0.012188 0.000000 0.009779 0.000000
# 4 0.000000 0.000000 0.000000 0.034614 0.000000 -0.101617
# 5 0.005600 -0.001313 0.009779 0.000000 0.039780 0.000000
# 6 0.000000 0.000000 0.000000 -0.101617 0.000000 -0.239490
#
#
# Mechanical properties :
#
#
# Convention : Reuss Voigt Hill
#
# Bulk Modulus (GPa) = 21.92190 26.47720 24.19955
# Shear Modulus (GPa) = -44.33123 27.12977 -8.60073
#
# Velocity S-wave (km/s) = -4.37494 3.42248 -1.92701
# Velocity P-wave (km/s) = 4.00691 5.20090 2.34458
#
# Compressibility (1/GPa) = 0.04561649
#
# Stress axis : x y z
#
# Youngs Moduli (GPa) = 59.49117 80.88952 82.04515
#
# Poissons Ratio (x) = -0.17322 0.06968
# Poissons Ratio (y) = -0.12740 -0.06859
# Poissons Ratio (z) = 0.05053 -0.06762
#
# Static dielectric constant tensor:
#      x y z
#    x 1.950740 0.000000 -0.060880 
#    y 0.000000 1.898070 0.000000 
#    z -0.060880 0.000000 1.911800 
# 
# From -- ./inp_files/237755.got.cif
#   From: 2010.05.17/outbox.cif.g08.bks.cpg/sg12_119_cif.got.tgz:237755.got - 2010.06.03 13:09:07.
