data_PCOD9183138
_publ_section_title
;
Structure prediction by ZEFSAII (Michael W. Deem and Ramdas Pophale) SiO2 
 PCOD9183138
Probable space group: C 2/M
;
_chemical_formula_sum "Si O2"
_cell_formula_units_Z 56
_cell_length_a 25.468357
_cell_length_b 9.001815
_cell_length_c 15.388737
_cell_angle_alpha 90.000000
_cell_angle_beta 74.460361
_cell_angle_gamma 90.000000
_cell_volume 3399.077522
_symmetry_space_group_name_H-M "C 2/M"
_symmetry_group_IT_number 12
_symmetry_cell_setting 'monoclinic'
loop_
_space_group_symop_operation_xyz
x,y,z
-x,y,-z
-x,-y,-z
x,-y,z
1/2+x,1/2+y,z
1/2-x,1/2+y,-z
1/2-x,1/2-y,-z
1/2+x,1/2-y,z
loop_
_atom_site_type_symbol
_atom_site_label
_atom_site_fract_x
_atom_site_fract_y
_atom_site_fract_z
Si Si1 0.493498 0.321629 0.401268
Si Si2 0.173284 0.677638 0.089757
Si Si3 0.600250 0.178004 0.283116
Si Si4 0.795723 0.823064 0.099141
Si Si5 0.869821 0.178310 0.404860
Si Si6 0.195674 0.677578 0.720313
Si Si7 0.180698 0.821483 0.388213
O O1 0.500000 0.280576 0.500000
O O2 0.500607 0.500000 0.392756
O O3 0.540602 0.242877 0.326051
O O4 0.432824 0.285256 0.396211
O O5 0.171813 0.500000 0.075595
O O6 0.126292 0.718747 0.178472
O O7 0.231762 0.711421 0.108715
O O8 0.172481 0.761102 0.998595
O O9 0.639916 0.243247 0.339563
O O10 0.599855 0.000000 0.289398
O O11 0.812634 0.746891 0.181114
O O12 0.801239 0.000000 0.102938
O O13 0.845871 0.258461 0.331779
O O14 0.835431 0.218802 0.506300
O O15 0.865763 0.000000 0.395543
O O16 0.191852 0.500000 0.726349
O O17 0.257136 0.716513 0.661954
O O18 0.173800 0.000000 0.382837
#
# Coordination Sequence:
#
# PCOD9183138 Si02
#       7
#     8   8   8   8   8   8   8
#     4  10  20  37  57  76 104 144 185 223 264 312
#     4   9  19  34  51  78 110 139 173 217 269 317
#     4  11  21  33  54  82 112 140 173 224 271 312
#     4  10  19  33  54  78 107 141 177 216 262 323
#     4  10  21  37  55  74 105 147 186 222 260 313
#     4  11  22  34  53  80 111 144 178 221 268 320
#     4  10  20  35  53  76 108 147 182 214 262 320
#
# _framework density 16.475059000000002
#
# number of rings (size 3 to 8) (size 9 to 14) (size 15 to 20)
#    0.000    1.857    2.857    1.714    0.000    3.714 
#    0.000    0.000    0.000    0.857    0.000    6.000 
#    0.000    0.000    0.000    0.000    0.000    0.000 
#
# Total GULP energy -156343.268050 kJ/mol
# GULP energy per Si atom -5583.688145 kJ/mol
# Density = 1.643756 g / cm^3
# Si number density = 16.475059 Si / 1000 Ang^3
#
#
#
# Elastic Constant Matrix: (Units=GPa)
#
#
# Indices 1 2 3 4 5 6 
#
# 1 84.4535 41.6690 72.7708 0.0000 14.6740 0.0000
# 2 41.6690 34.6192 57.0511 0.0000 7.7728 0.0000
# 3 72.7708 57.0511 164.4428 0.0000 9.0013 0.0000
# 4 0.0000 0.0000 0.0000 29.7076 0.0000 3.7627
# 5 14.6740 7.7728 9.0013 0.0000 25.4166 0.0000
# 6 0.0000 0.0000 0.0000 3.7627 0.0000 26.2183
#
#
#
# Elastic Compliance Matrix: (Units=1/GPa)
#
#
# Indices 1 2 3 4 5 6 
#
# 1 0.030532 -0.031558 -0.002168 0.000000 -0.007209 0.000000
# 2 -0.031558 0.104259 -0.021882 0.000000 -0.005915 0.000000
# 3 -0.002168 -0.021882 0.014478 0.000000 0.002816 0.000000
# 4 0.000000 0.000000 0.000000 0.034285 0.000000 -0.004920
# 5 -0.007209 -0.005915 0.002816 0.000000 0.044318 0.000000
# 6 0.000000 0.000000 0.000000 -0.004920 0.000000 0.038848
#
#
# Mechanical properties :
#
#
# Convention : Reuss Voigt Hill
#
# Bulk Modulus (GPa) = 26.27938 69.61084 47.94511
# Shear Modulus (GPa) = 12.80013 23.73681 18.26847
#
# Velocity S-wave (km/s) = 2.79039 3.79987 3.33356
# Velocity P-wave (km/s) = 5.13491 7.84831 6.63187
#
# Compressibility (1/GPa) = 0.03805265
#
# Stress axis : x y z
#
# Youngs Moduli (GPa) = 32.75212 9.59147 69.06985
#
# Poissons Ratio (x) = 0.30269 0.14975
# Poissons Ratio (y) = 1.03361 1.51139
# Poissons Ratio (z) = 0.07101 0.20988
#
# Static dielectric constant tensor:
#      x y z
#    x 1.527930 0.000000 -0.011940 
#    y 0.000000 1.546730 0.000000 
#    z -0.011940 0.000000 1.539550 
# 
# From -- ./inp_files/237309.got.cif
#   From: 2010.05.17/outbox.cif.g08.bks.cpg/sg12_119_cif.got.tgz:237309.got - 2010.06.03 13:09:07.
