data_PCOD9183450
_publ_section_title
;
Structure prediction by ZEFSAII (Michael W. Deem and Ramdas Pophale) SiO2 
 PCOD9183450
Probable space group: C 2/M
;
_chemical_formula_sum "Si O2"
_cell_formula_units_Z 56
_cell_length_a 15.308772
_cell_length_b 12.383880
_cell_length_c 16.430670
_cell_angle_alpha 90.000000
_cell_angle_beta 62.418478
_cell_angle_gamma 90.000000
_cell_volume 2760.953271
_symmetry_space_group_name_H-M "C 2/M"
_symmetry_group_IT_number 12
_symmetry_cell_setting 'monoclinic'
loop_
_space_group_symop_operation_xyz
x,y,z
-x,y,-z
-x,-y,-z
x,-y,z
1/2+x,1/2+y,z
1/2-x,1/2+y,-z
1/2-x,1/2-y,-z
1/2+x,1/2-y,z
loop_
_atom_site_type_symbol
_atom_site_label
_atom_site_fract_x
_atom_site_fract_y
_atom_site_fract_z
Si Si1 0.291331 0.379317 0.804136
Si Si2 0.895928 0.675056 0.008986
Si Si3 0.034156 0.763125 0.176442
Si Si4 0.216376 0.628667 0.481081
Si Si5 0.486388 0.121685 0.342471
Si Si6 0.614986 0.620418 0.882308
Si Si7 0.293729 0.824188 0.700491
O O1 0.307876 0.500000 0.769246
O O2 0.196741 0.375601 0.905126
O O3 0.384277 0.336340 0.815286
O O4 0.278475 0.301063 0.732158
O O5 0.886867 0.800613 0.040151
O O6 0.907391 0.678552 0.907173
O O7 0.000000 0.634259 0.000000
O O8 0.974392 0.702095 0.272214
O O9 0.958072 0.827759 0.152955
O O10 0.248694 0.500000 0.489520
O O11 0.250000 0.750000 0.500000
O O12 0.101375 0.629622 0.555315
O O13 0.234525 0.640438 0.377256
O O14 0.592421 0.147133 0.335193
O O15 0.487523 0.000000 0.310023
O O16 0.587173 0.500000 0.914000
O O17 0.723369 0.620663 0.796789
#
# Coordination Sequence:
#
# PCOD9183450 Si02
#       7
#     8   8   8   8   8   8   8
#     4  10  21  36  55  79 111 150 186 230 289 343
#     4   9  20  35  51  77 108 143 190 234 274 333
#     4  10  20  35  53  81 113 140 183 233 281 337
#     4  11  23  40  63  90 118 150 188 234 286 340
#     4  10  21  37  59  84 110 145 187 229 276 332
#     4  10  19  33  55  79 106 143 183 227 278 330
#     4  10  21  38  58  83 112 143 186 233 276 333
#
# _framework density 20.28285
#
# number of rings (size 3 to 8) (size 9 to 14) (size 15 to 20)
#    0.000    2.000    0.000    3.429    0.000    5.714 
#    0.000   11.429    0.000    4.286    0.000    0.000 
#    0.000    0.000    0.000    0.000    0.000    0.000 
#
# Total GULP energy -156052.386195 kJ/mol
# GULP energy per Si atom -5573.299507 kJ/mol
# Density = 2.023669 g / cm^3
# Si number density = 20.282850 Si / 1000 Ang^3
#
#
#
# Elastic Constant Matrix: (Units=GPa)
#
#
# Indices 1 2 3 4 5 6 
#
# 1 26.2530 17.1151 -2.3891 0.0000 -13.5005 0.0000
# 2 17.1151 118.6616 9.4643 0.0000 -3.0935 0.0000
# 3 -2.3891 9.4643 77.2473 0.0000 -11.8560 0.0000
# 4 0.0000 0.0000 0.0000 -57.4330 0.0000 42.2685
# 5 -13.5005 -3.0935 -11.8560 0.0000 30.9004 0.0000
# 6 0.0000 0.0000 0.0000 42.2685 0.0000 -19.3053
#
#
#
# Elastic Compliance Matrix: (Units=1/GPa)
#
#
# Indices 1 2 3 4 5 6 
#
# 1 0.058098 -0.008227 0.006986 0.000000 0.027240 0.000000
# 2 -0.008227 0.009682 -0.001959 0.000000 -0.003377 0.000000
# 3 0.006986 -0.001959 0.014706 0.000000 0.008498 0.000000
# 4 0.000000 0.000000 0.000000 0.028480 0.000000 0.062355
# 5 0.027240 -0.003377 0.008498 0.000000 0.047186 0.000000
# 6 0.000000 0.000000 0.000000 0.062355 0.000000 0.084726
#
#
# Mechanical properties :
#
#
# Convention : Reuss Voigt Hill
#
# Bulk Modulus (GPa) = 13.14311 30.06028 21.60170
# Shear Modulus (GPa) = 18.20569 4.03055 11.11812
#
# Velocity S-wave (km/s) = 2.99923 1.41120 2.34381
# Velocity P-wave (km/s) = 4.29975 4.18426 4.24240
#
# Compressibility (1/GPa) = 0.07608547
#
# Stress axis : x y z
#
# Youngs Moduli (GPa) = 17.21239 103.28326 68.00034
#
# Poissons Ratio (x) = 0.84968 -0.47502
# Poissons Ratio (y) = 0.14160 0.13321
# Poissons Ratio (z) = -0.12024 0.20232
#
# Static dielectric constant tensor:
#      x y z
#    x 1.733960 0.000000 -0.010370 
#    y 0.000000 1.773090 0.000000 
#    z -0.010370 0.000000 1.692130 
# 
# From -- ./inp_files/269211.got.cif
#   From: 2010.05.17/outbox.cif.g08.bks.cpg/sg12_135_cif.got.tgz:269211.got - 2010.06.03 13:09:07.
