data_PCOD9183037
_publ_section_title
;
Structure prediction by ZEFSAII (Michael W. Deem and Ramdas Pophale) SiO2 
 PCOD9183037
Probable space group: C 2/M
;
_chemical_formula_sum "Si O2"
_cell_formula_units_Z 56
_cell_length_a 19.421220
_cell_length_b 9.230445
_cell_length_c 28.522965
_cell_angle_alpha 90.000000
_cell_angle_beta 140.214998
_cell_angle_gamma 90.000000
_cell_volume 3271.988293
_symmetry_space_group_name_H-M "C 2/M"
_symmetry_group_IT_number 12
_symmetry_cell_setting 'monoclinic'
loop_
_space_group_symop_operation_xyz
x,y,z
-x,y,-z
-x,-y,-z
x,-y,z
1/2+x,1/2+y,z
1/2-x,1/2+y,-z
1/2-x,1/2-y,-z
1/2+x,1/2-y,z
loop_
_atom_site_type_symbol
_atom_site_label
_atom_site_fract_x
_atom_site_fract_y
_atom_site_fract_z
Si Si1 0.799857 0.830164 0.698166
Si Si2 0.679853 0.333630 0.400007
Si Si3 0.571976 0.327406 0.583115
Si Si4 0.915175 0.331832 0.566596
Si Si5 0.509225 0.828659 0.152271
Si Si6 0.278122 0.173370 0.063981
Si Si7 0.580543 0.173541 0.999389
O O1 0.837445 0.815035 0.663922
O O2 0.687369 0.747157 0.642498
O O3 0.889397 0.763159 0.778637
O O4 0.783751 0.000000 0.699128
O O5 0.653229 0.500000 0.399497
O O6 0.806022 0.314223 0.478766
O O7 0.615453 0.221216 0.397782
O O8 0.500000 0.287668 0.500000
O O9 0.583253 0.500000 0.589804
O O10 0.506180 0.268379 0.592728
O O11 0.945748 0.500000 0.581147
O O12 0.406742 0.801700 0.133069
O O13 0.474417 0.797423 0.080187
O O14 0.533453 0.000000 0.167300
O O15 0.261477 0.000000 0.052502
O O16 0.250000 0.250000 0.000000
O O17 0.195064 0.242980 0.057582
O O18 0.600310 0.000000 0.012153
O O19 0.500000 0.211874 0.000000
#
# Coordination Sequence:
#
# PCOD9183037 Si02
#       7
#     8   8   8   8   8   8   8
#     4  11  22  36  55  78 107 143 181 223 271 323
#     4   9  19  34  51  74 102 132 170 217 267 318
#     4  11  22  35  54  78 105 140 181 225 275 327
#     4  10  19  33  54  76 101 130 170 223 268 315
#     4   9  19  35  53  77 109 143 180 223 268 318
#     4   9  17  31  53  79 107 139 176 217 257 306
#     4   9  18  34  57  84 113 145 180 218 264 314
#
# _framework density 17.114975000000001
#
# number of rings (size 3 to 8) (size 9 to 14) (size 15 to 20)
#    0.000    2.286    1.429    2.571    0.000    5.429 
#    0.000    1.429    0.000    5.143    0.000    0.000 
#    0.000    0.000    0.000    0.000    0.000    0.000 
#
# Total GULP energy -156094.012952 kJ/mol
# GULP energy per Si atom -5574.786177 kJ/mol
# Density = 1.707602 g / cm^3
# Si number density = 17.114975 Si / 1000 Ang^3
#
#
#
# Elastic Constant Matrix: (Units=GPa)
#
#
# Indices 1 2 3 4 5 6 
#
# 1 105.6155 51.1372 38.5475 0.0000 16.1079 0.0000
# 2 51.1372 66.1947 54.0542 0.0000 16.1603 0.0000
# 3 38.5475 54.0542 72.4986 0.0000 16.2489 0.0000
# 4 0.0000 0.0000 0.0000 25.1483 0.0000 6.4198
# 5 16.1079 16.1603 16.2489 0.0000 19.5089 0.0000
# 6 0.0000 0.0000 0.0000 6.4198 0.0000 33.5796
#
#
#
# Elastic Compliance Matrix: (Units=1/GPa)
#
#
# Indices 1 2 3 4 5 6 
#
# 1 0.015453 -0.012738 0.002183 0.000000 -0.004026 0.000000
# 2 -0.012738 0.050723 -0.029491 0.000000 -0.006936 0.000000
# 3 0.002183 -0.029491 0.036332 0.000000 -0.007634 0.000000
# 4 0.000000 0.000000 0.000000 0.041804 0.000000 -0.007992
# 5 -0.004026 -0.006936 -0.007634 0.000000 0.066687 0.000000
# 6 0.000000 0.000000 0.000000 -0.007992 0.000000 0.031308
#
#
# Mechanical properties :
#
#
# Convention : Reuss Voigt Hill
#
# Bulk Modulus (GPa) = 44.61061 59.08741 51.84901
# Shear Modulus (GPa) = 15.15748 22.35203 18.75475
#
# Velocity S-wave (km/s) = 2.97918 3.61777 3.31389
# Velocity P-wave (km/s) = 6.16083 7.21455 6.70841
#
# Compressibility (1/GPa) = 0.02241619
#
# Stress axis : x y z
#
# Youngs Moduli (GPa) = 64.71295 19.71505 27.52398
#
# Poissons Ratio (x) = 0.25112 -0.06008
# Poissons Ratio (y) = 0.82428 0.81171
# Poissons Ratio (z) = -0.14127 0.58142
#
# Static dielectric constant tensor:
#      x y z
#    x 1.589810 0.000000 0.006580 
#    y 0.000000 1.566610 0.000000 
#    z 0.006580 0.000000 1.570750 
# 
# From -- ./inp_files/342488.got.cif
#   From: 2010.05.17/outbox.cif.g08.bks.cpg/sg12_172_cif.got.tgz:342488.got - 2010.06.03 13:09:07.
