data_PCOD9183403
_publ_section_title
;
Structure prediction by ZEFSAII (Michael W. Deem and Ramdas Pophale) SiO2 
 PCOD9183403
Probable space group: C 2/M
;
_chemical_formula_sum "Si O2"
_cell_formula_units_Z 48
_cell_length_a 11.208814
_cell_length_b 24.197851
_cell_length_c 11.241848
_cell_angle_alpha 90.000000
_cell_angle_beta 123.702903
_cell_angle_gamma 90.000000
_cell_volume 2536.640205
_symmetry_space_group_name_H-M "C 2/M"
_symmetry_group_IT_number 12
_symmetry_cell_setting 'monoclinic'
loop_
_space_group_symop_operation_xyz
x,y,z
-x,y,-z
-x,-y,-z
x,-y,z
1/2+x,1/2+y,z
1/2-x,1/2+y,-z
1/2-x,1/2-y,-z
1/2+x,1/2-y,z
loop_
_atom_site_type_symbol
_atom_site_label
_atom_site_fract_x
_atom_site_fract_y
_atom_site_fract_z
Si Si1 0.945049 0.280920 0.717815
Si Si2 0.157327 0.377786 0.817397
Si Si3 0.780293 0.500000 0.445462
Si Si4 0.427076 0.000000 0.265238
Si Si5 0.577962 0.678011 0.916938
Si Si6 0.673946 0.617225 0.338970
Si Si7 0.353883 0.699627 0.470049
O O1 0.784301 0.284755 0.686236
O O2 0.912128 0.253098 0.572283
O O3 0.017207 0.340010 0.746767
O O4 0.052711 0.237158 0.839834
O O5 0.123468 0.442408 0.821417
O O6 0.224755 0.374934 0.721021
O O7 0.269355 0.348772 0.969265
O O8 0.857354 0.500000 0.358707
O O9 0.689517 0.555614 0.394991
O O10 0.903102 0.500000 0.613797
O O11 0.484218 0.634200 0.790849
O O12 0.500000 0.684248 0.000000
O O13 0.707940 0.658570 0.464530
O O14 0.500000 0.674170 0.500000
#
# Coordination Sequence:
#
# PCOD9183403 Si02
#       7
#     8   8   4   4   8   8   8
#     4  10  21  33  53  76 103 143 168 217 266 299
#     4  10  19  33  55  77 111 133 176 214 254 318
#     4   9  16  31  52  75 106 135 175 215 254 312
#     4   9  18  29  49  83 103 137 167 214 269 295
#     4   9  19  33  50  77 107 138 175 205 260 317
#     4   9  19  34  52  77 106 139 173 215 263 299
#     4  10  22  34  50  76 107 136 177 214 259 315
#
# _framework density 18.922667000000001
#
# number of rings (size 3 to 8) (size 9 to 14) (size 15 to 20)
#    0.000    2.500    0.000    1.500    9.333    2.000 
#    0.000    3.750    0.000    0.000    0.000    0.583 
#    0.000    0.000    0.000    0.000    0.000    0.000 
#
# Total GULP energy -133665.443051 kJ/mol
# GULP energy per Si atom -5569.393460 kJ/mol
# Density = 1.887960 g / cm^3
# Si number density = 18.922667 Si / 1000 Ang^3
#
#
#
# Elastic Constant Matrix: (Units=GPa)
#
#
# Indices 1 2 3 4 5 6 
#
# 1 38.9580 38.9343 27.8348 0.0000 19.9283 0.0000
# 2 38.9343 158.8225 55.5300 0.0000 20.2904 0.0000
# 3 27.8348 55.5300 79.7632 0.0000 24.1946 0.0000
# 4 0.0000 0.0000 0.0000 24.8215 0.0000 3.2173
# 5 19.9283 20.2904 24.1946 0.0000 21.2959 0.0000
# 6 0.0000 0.0000 0.0000 3.2173 0.0000 20.2448
#
#
#
# Elastic Compliance Matrix: (Units=1/GPa)
#
#
# Indices 1 2 3 4 5 6 
#
# 1 0.057306 -0.008031 -0.000704 0.000000 -0.045174 0.000000
# 2 -0.008031 0.009507 -0.005108 0.000000 0.004261 0.000000
# 3 -0.000704 -0.005108 0.022373 0.000000 -0.019892 0.000000
# 4 0.000000 0.000000 0.000000 0.041135 0.000000 -0.006537
# 5 -0.045174 0.004261 -0.019892 0.000000 0.107771 0.000000
# 6 0.000000 0.000000 0.000000 -0.006537 0.000000 0.050434
#
#
# Mechanical properties :
#
#
# Convention : Reuss Voigt Hill
#
# Bulk Modulus (GPa) = 16.26049 58.01578 37.13813
# Shear Modulus (GPa) = 14.84946 23.62208 19.23577
#
# Velocity S-wave (km/s) = 2.80437 3.53703 3.19179
# Velocity P-wave (km/s) = 4.37010 6.88526 5.76648
#
# Compressibility (1/GPa) = 0.06149876
#
# Stress axis : x y z
#
# Youngs Moduli (GPa) = 17.45022 105.18832 44.69616
#
# Poissons Ratio (x) = 0.84473 0.03148
# Poissons Ratio (y) = 0.14014 0.22833
# Poissons Ratio (z) = 0.01229 0.53735
#
# Static dielectric constant tensor:
#      x y z
#    x 1.733490 0.000000 0.023840 
#    y 0.000000 1.651210 0.000000 
#    z 0.023840 0.000000 1.715290 
# 
# From -- ./inp_files/135217.got.cif
#   From: 2010.05.17/outbox.cif.g08.bks.cpg/sg12_68_cif.got.tgz:135217.got - 2010.06.03 13:09:07.
