data_PCOD9183166
_publ_section_title
;
Structure prediction by ZEFSAII (Michael W. Deem and Ramdas Pophale) SiO2 
 PCOD9183166
Probable space group: C 2/M
;
_chemical_formula_sum "Si O2"
_cell_formula_units_Z 44
_cell_length_a 17.612173
_cell_length_b 17.105959
_cell_length_c 17.708331
_cell_angle_alpha 90.000000
_cell_angle_beta 23.878156
_cell_angle_gamma 90.000000
_cell_volume 2159.588432
_symmetry_space_group_name_H-M "C 2/M"
_symmetry_group_IT_number 12
_symmetry_cell_setting 'monoclinic'
loop_
_space_group_symop_operation_xyz
x,y,z
-x,y,-z
-x,-y,-z
x,-y,z
1/2+x,1/2+y,z
1/2-x,1/2+y,-z
1/2-x,1/2-y,-z
1/2+x,1/2-y,z
loop_
_atom_site_type_symbol
_atom_site_label
_atom_site_fract_x
_atom_site_fract_y
_atom_site_fract_z
Si Si1 0.611182 0.909919 0.109024
Si Si2 0.023372 0.911835 0.671378
Si Si3 0.640680 0.089763 0.261719
Si Si4 0.281495 0.788804 0.388650
Si Si5 0.500000 0.618404 0.000000
Si Si6 0.794303 0.119338 0.330836
O O1 0.645747 0.901209 0.166997
O O2 0.459281 0.845660 0.225310
O O3 0.547619 0.000000 0.154641
O O4 0.807303 0.898523 0.888388
O O5 0.104411 0.846171 0.542321
O O6 0.137289 0.905934 0.647797
O O7 0.047563 0.000000 0.620918
O O8 0.423776 0.099537 0.481267
O O9 0.694619 0.000000 0.231849
O O10 0.793350 0.147261 0.159995
O O11 0.250000 0.750000 0.500000
O O12 0.309055 0.713557 0.311984
O O13 0.571751 0.584289 0.854660
#
# Coordination Sequence:
#
# PCOD9183166 Si02
#       6
#     8   8   8   8   4   8
#     4  10  19  33  55  81 109 139 173 218 270 321
#     4  10  19  33  54  79 106 136 173 218 268 316
#     4  11  22  36  53  75 108 147 186 221 254 305
#     4  10  20  33  53  78 106 140 175 221 272 318
#     4  12  25  38  50  72 109 152 192 218 247 304
#     4  11  23  36  52  77 107 146 183 219 261 313
#
# _framework density 20.374251999999998
#
# number of rings (size 3 to 8) (size 9 to 14) (size 15 to 20)
#    0.000    1.455    5.455    1.909    0.000    7.273 
#    0.000    0.000    0.000    0.000    0.000    2.545 
#    0.000   14.545    0.000    0.727    0.000    0.000 
#
# Total GULP energy -122591.128125 kJ/mol
# GULP energy per Si atom -5572.324006 kJ/mol
# Density = 2.032788 g / cm^3
# Si number density = 20.374252 Si / 1000 Ang^3
#
#
#
# Elastic Constant Matrix: (Units=GPa)
#
#
# Indices 1 2 3 4 5 6 
#
# 1 24.9755 22.9272 15.9293 -0.0005 -3.8456 0.0137
# 2 22.9272 145.9513 58.8277 0.0925 -6.0975 -0.0480
# 3 15.9293 58.8277 123.8995 0.0514 -25.9265 -0.0186
# 4 -0.0005 0.0925 0.0514 -55.3650 -0.0185 59.9818
# 5 -3.8456 -6.0975 -25.9265 -0.0185 24.2282 0.0020
# 6 0.0137 -0.0480 -0.0186 59.9818 0.0020 -43.2268
#
#
#
# Elastic Compliance Matrix: (Units=1/GPa)
#
#
# Indices 1 2 3 4 5 6 
#
# 1 0.048001 -0.006429 -0.002400 -0.000022 0.003432 -0.000007
# 2 -0.006429 0.009484 -0.004369 -0.000002 -0.003309 -0.000014
# 3 -0.002400 -0.004369 0.013071 0.000001 0.012507 0.000000
# 4 -0.000022 -0.000002 0.000001 0.035886 0.000020 0.049796
# 5 0.003432 -0.003309 0.012507 0.000020 0.054370 0.000030
# 6 -0.000007 -0.000014 0.000000 0.049796 0.000030 0.045963
#
#
# Mechanical properties :
#
#
# Convention : Reuss Voigt Hill
#
# Bulk Modulus (GPa) = 22.64557 54.46610 38.55583
# Shear Modulus (GPa) = 20.17006 -1.72992 9.22007
#
# Velocity S-wave (km/s) = 3.14980 -0.92245 2.12960
# Velocity P-wave (km/s) = 4.93632 5.06520 5.00118
#
# Compressibility (1/GPa) = 0.04415874
#
# Stress axis : x y z
#
# Youngs Moduli (GPa) = 20.83302 105.43727 76.50424
#
# Poissons Ratio (x) = 0.67790 0.18364
# Poissons Ratio (y) = 0.13394 0.33424
# Poissons Ratio (z) = 0.05001 0.46065
#
# Static dielectric constant tensor:
#      x y z
#    x 1.718970 0.000000 -0.016230 
#    y 0.000000 1.785250 0.000000 
#    z -0.016230 0.000000 1.744350 
# 
# From -- ./inp_files/322393.got.cif
#   From: 2010.05.17/outbox.cif.g08.bks.cpg/sg12_162_cif.got.tgz:322393.got - 2010.06.03 13:09:07.
