data_PCOD9183714
_publ_section_title
;
Structure prediction by ZEFSAII (Michael W. Deem and Ramdas Pophale) SiO2 
 PCOD9183714
Probable space group: C 2/M
;
_chemical_formula_sum "Si O2"
_cell_formula_units_Z 64
_cell_length_a 30.214758
_cell_length_b 8.702560
_cell_length_c 18.823079
_cell_angle_alpha 90.000000
_cell_angle_beta 139.585150
_cell_angle_gamma 90.000000
_cell_volume 3208.812882
_symmetry_space_group_name_H-M "C 2/M"
_symmetry_group_IT_number 12
_symmetry_cell_setting 'monoclinic'
loop_
_space_group_symop_operation_xyz
x,y,z
-x,y,-z
-x,-y,-z
x,-y,z
1/2+x,1/2+y,z
1/2-x,1/2+y,-z
1/2-x,1/2-y,-z
1/2+x,1/2-y,z
loop_
_atom_site_type_symbol
_atom_site_label
_atom_site_fract_x
_atom_site_fract_y
_atom_site_fract_z
Si Si1 0.347545 0.184245 0.483546
Si Si2 0.441331 0.814664 0.872593
Si Si3 0.291090 0.814363 0.747310
Si Si4 0.062077 0.818519 0.288922
Si Si5 0.926054 0.687013 0.438311
Si Si6 0.924038 0.685156 0.169322
Si Si7 0.802817 0.315611 0.923686
Si Si8 0.832271 0.315671 0.192460
O O1 0.272257 0.242285 0.371608
O O2 0.374270 0.247092 0.590980
O O3 0.399136 0.235903 0.482782
O O4 0.348283 0.000000 0.485736
O O5 0.365597 0.775838 0.807844
O O6 0.448380 0.747079 0.802747
O O7 0.446312 0.000000 0.873744
O O8 0.500000 0.764554 0.000000
O O9 0.290102 0.761536 0.828148
O O10 0.284379 0.000000 0.737744
O O11 0.995399 0.768744 0.251531
O O12 0.069167 0.000000 0.294692
O O13 0.929055 0.500000 0.443690
O O14 0.870068 0.731456 0.311248
O O15 0.000000 0.739511 0.500000
O O16 0.935245 0.500000 0.183116
O O17 0.880743 0.724924 0.186174
O O18 0.876331 0.727783 0.044313
O O19 0.801127 0.500000 0.921732
O O20 0.742243 0.256597 0.899272
O O21 0.825410 0.500000 0.183911
#
# Coordination Sequence:
#
# PCOD9183714 Si02
#       8
#     8   8   8   8   8   8   8   8
#     4  11  22  39  63  87 120 164 206 251 304 366
#     4  10  22  44  72  96 122 161 204 243 297 369
#     4  10  21  38  62  91 124 159 200 253 303 360
#     4  12  26  42  62  91 125 156 197 257 312 359
#     4   9  17  31  53  81 113 155 207 254 293 344
#     4  10  21  38  60  85 119 166 210 248 301 369
#     4  10  20  35  57  87 124 161 198 246 304 364
#     4  10  19  33  55  85 119 159 208 254 298 357
#
# _framework density 19.945070999999999
#
# number of rings (size 3 to 8) (size 9 to 14) (size 15 to 20)
#    0.000    1.750    1.250    3.375    0.000    6.250 
#    0.000    1.250    0.000    1.875    0.000    0.000 
#    0.000    0.000    0.000    0.000    0.000    0.000 
#
# Total GULP energy -178808.499577 kJ/mol
# GULP energy per Si atom -5587.765612 kJ/mol
# Density = 1.989968 g / cm^3
# Si number density = 19.945071 Si / 1000 Ang^3
#
#
#
# Elastic Constant Matrix: (Units=GPa)
#
#
# Indices 1 2 3 4 5 6 
#
# 1 81.4749 31.3163 50.4645 0.0000 4.7447 0.0000
# 2 31.3163 20.8172 37.1929 0.0000 1.4413 0.0000
# 3 50.4645 37.1929 149.2344 0.0000 -5.1295 0.0000
# 4 0.0000 0.0000 0.0000 24.4359 0.0000 5.7363
# 5 4.7447 1.4413 -5.1295 0.0000 32.8213 0.0000
# 6 0.0000 0.0000 0.0000 5.7363 0.0000 26.0650
#
#
#
# Elastic Compliance Matrix: (Units=1/GPa)
#
#
# Indices 1 2 3 4 5 6 
#
# 1 0.029527 -0.047466 0.001780 0.000000 -0.001906 0.000000
# 2 -0.047466 0.164634 -0.025127 0.000000 -0.004295 0.000000
# 3 0.001780 -0.025127 0.012457 0.000000 0.002793 0.000000
# 4 0.000000 0.000000 0.000000 0.043153 0.000000 -0.009497
# 5 -0.001906 -0.004295 0.002793 0.000000 0.031369 0.000000
# 6 0.000000 0.000000 0.000000 -0.009497 0.000000 0.040456
#
#
# Mechanical properties :
#
#
# Convention : Reuss Voigt Hill
#
# Bulk Modulus (GPa) = 15.38699 54.38601 34.88650
# Shear Modulus (GPa) = 10.31168 25.50129 17.90649
#
# Velocity S-wave (km/s) = 2.27624 3.57960 2.99957
# Velocity P-wave (km/s) = 3.82620 6.66422 5.43376
#
# Compressibility (1/GPa) = 0.06498998
#
# Stress axis : x y z
#
# Youngs Moduli (GPa) = 33.86734 6.07409 80.27293
#
# Poissons Ratio (x) = 0.28831 -0.14285
# Poissons Ratio (y) = 1.60755 2.01705
# Poissons Ratio (z) = -0.06027 0.15263
#
# Static dielectric constant tensor:
#      x y z
#    x 1.704950 0.000000 -0.010690 
#    y 0.000000 1.669950 0.000000 
#    z -0.010690 0.000000 1.701430 
# 
# From -- ./inp_files/295716.got.cif
#   From: 2010.05.17/outbox.cif.g08.bks.cpg/sg12_148_cif.got.tgz:295716.got - 2010.06.03 13:09:07.
