data_PCOD9183400
_publ_section_title
;
Structure prediction by ZEFSAII (Michael W. Deem and Ramdas Pophale) SiO2 
 PCOD9183400
Probable space group: C 2/M
;
_chemical_formula_sum "Si O2"
_cell_formula_units_Z 48
_cell_length_a 9.414650
_cell_length_b 17.657982
_cell_length_c 30.120917
_cell_angle_alpha 90.000000
_cell_angle_beta 147.031407
_cell_angle_gamma 90.000000
_cell_volume 2724.930320
_symmetry_space_group_name_H-M "C 2/M"
_symmetry_group_IT_number 12
_symmetry_cell_setting 'monoclinic'
loop_
_space_group_symop_operation_xyz
x,y,z
-x,y,-z
-x,-y,-z
x,-y,z
1/2+x,1/2+y,z
1/2-x,1/2+y,-z
1/2-x,1/2-y,-z
1/2+x,1/2-y,z
loop_
_atom_site_type_symbol
_atom_site_label
_atom_site_fract_x
_atom_site_fract_y
_atom_site_fract_z
Si Si1 0.470770 0.913229 0.143444
Si Si2 0.307338 0.842612 0.713250
Si Si3 0.250604 0.696254 0.760712
Si Si4 0.225584 0.744202 0.941644
Si Si5 0.276023 0.591485 0.592277
Si Si6 0.563321 0.411563 0.267361
O O1 0.534280 0.898726 0.212115
O O2 0.298971 0.843036 0.081444
O O3 0.751228 0.903946 0.192281
O O4 0.380137 0.000000 0.112921
O O5 0.247669 0.769667 0.728255
O O6 0.486410 0.820457 0.718540
O O7 0.025884 0.879209 0.630493
O O8 0.477384 0.713162 0.856085
O O9 0.334441 0.630634 0.748968
O O10 0.500000 0.779302 0.000000
O O11 0.250000 0.750000 0.000000
O O12 0.284819 0.500000 0.594462
O O13 0.313282 0.615894 0.653509
O O14 0.000000 0.616153 0.500000
O O15 0.622577 0.500000 0.279030
#
# Coordination Sequence:
#
# PCOD9183400 Si02
#       6
#     8   8   8   8   8   8
#     4   9  18  34  53  74 102 138 178 218 265 321
#     4  10  19  33  55  77 104 141 179 216 256 314
#     4  11  21  36  54  77 106 139 184 222 259 318
#     4  11  21  34  52  74 102 138 177 224 275 316
#     4   9  18  35  58  83 111 140 171 212 264 316
#     4   9  18  34  55  76 104 141 177 216 264 318
#
# _framework density 17.615127999999999
#
# number of rings (size 3 to 8) (size 9 to 14) (size 15 to 20)
#    0.000    2.167    0.000    7.500    0.000    1.667 
#    0.000    5.000    0.000    6.000    0.000    0.000 
#    0.000    0.000    0.000    0.000    0.000    0.000 
#
# Total GULP energy -133767.850029 kJ/mol
# GULP energy per Si atom -5573.660418 kJ/mol
# Density = 1.757504 g / cm^3
# Si number density = 17.615128 Si / 1000 Ang^3
#
#
#
# Elastic Constant Matrix: (Units=GPa)
#
#
# Indices 1 2 3 4 5 6 
#
# 1 123.7502 23.4020 27.3699 -0.0001 10.0799 0.0001
# 2 23.4020 50.9734 21.6136 -0.0001 2.6575 0.0000
# 3 27.3699 21.6136 90.3241 0.0001 9.9733 0.0001
# 4 -0.0001 -0.0001 0.0001 13.0148 0.0001 4.6140
# 5 10.0799 2.6575 9.9733 0.0001 16.3540 0.0000
# 6 0.0001 0.0000 0.0001 4.6140 0.0000 29.5123
#
#
#
# Elastic Compliance Matrix: (Units=1/GPa)
#
#
# Indices 1 2 3 4 5 6 
#
# 1 0.009427 -0.003443 -0.001558 0.000000 -0.004301 0.000000
# 2 -0.003443 0.023093 -0.004613 0.000000 0.001183 0.000000
# 3 -0.001558 -0.004613 0.013358 0.000000 -0.006436 0.000000
# 4 0.000000 0.000000 0.000000 0.081345 -0.000001 -0.012718
# 5 -0.004301 0.001183 -0.006436 -0.000001 0.067531 0.000000
# 6 0.000000 0.000000 0.000000 -0.012718 0.000000 0.035873
#
#
# Mechanical properties :
#
#
# Convention : Reuss Voigt Hill
#
# Bulk Modulus (GPa) = 37.52390 45.53543 41.52966
# Shear Modulus (GPa) = 19.32463 24.62035 21.97249
#
# Velocity S-wave (km/s) = 3.31576 3.74261 3.53564
# Velocity P-wave (km/s) = 6.00062 6.67701 6.34783
#
# Compressibility (1/GPa) = 0.02664968
#
# Stress axis : x y z
#
# Youngs Moduli (GPa) = 106.08117 43.30270 74.86235
#
# Poissons Ratio (x) = 0.14910 0.11661
# Poissons Ratio (y) = 0.36525 0.34536
# Poissons Ratio (z) = 0.16524 0.19977
#
# Static dielectric constant tensor:
#      x y z
#    x 1.574710 0.000000 0.017540 
#    y 0.000000 1.636080 0.000000 
#    z 0.017540 0.000000 1.632030 
# 
# From -- ./inp_files/195925.got.cif
#   From: 2010.05.17/outbox.cif.g08.bks.cpg/sg12_98_cif.got.tgz:195925.got - 2010.06.03 13:09:07.
