data_PCOD9183674
_publ_section_title
;
Structure prediction by ZEFSAII (Michael W. Deem and Ramdas Pophale) SiO2 
 PCOD9183674
Probable space group: C 2/M
;
_chemical_formula_sum "Si O2"
_cell_formula_units_Z 44
_cell_length_a 12.407644
_cell_length_b 20.431358
_cell_length_c 10.970017
_cell_angle_alpha 90.000000
_cell_angle_beta 119.607397
_cell_angle_gamma 90.000000
_cell_volume 2417.848340
_symmetry_space_group_name_H-M "C 2/M"
_symmetry_group_IT_number 12
_symmetry_cell_setting 'monoclinic'
loop_
_space_group_symop_operation_xyz
x,y,z
-x,y,-z
-x,-y,-z
x,-y,z
1/2+x,1/2+y,z
1/2-x,1/2+y,-z
1/2-x,1/2-y,-z
1/2+x,1/2-y,z
loop_
_atom_site_type_symbol
_atom_site_label
_atom_site_fract_x
_atom_site_fract_y
_atom_site_fract_z
Si Si1 0.660987 0.076014 0.744945
Si Si2 0.844735 0.298928 0.114799
Si Si3 0.270918 0.154360 0.451949
Si Si4 0.456657 0.727883 0.600545
Si Si5 0.615174 0.927619 0.295122
Si Si6 0.500000 0.127191 0.000000
O O1 0.714524 0.136426 0.854762
O O2 0.690412 0.099685 0.624659
O O3 0.515008 0.078064 0.701871
O O4 0.699406 0.000000 0.786130
O O5 0.926304 0.327784 0.051555
O O6 0.933183 0.260817 0.260171
O O7 0.750000 0.250000 0.000000
O O8 0.367558 0.214113 0.500287
O O9 0.132408 0.182570 0.366933
O O10 0.292665 0.124932 0.598143
O O11 0.500000 0.693537 0.500000
O O12 0.584411 0.915863 0.136725
O O13 0.663945 0.000000 0.341380
#
# Coordination Sequence:
#
# PCOD9183674 Si02
#       6
#     8   8   8   8   8   4
#     4  10  20  37  60  90 116 146 196 247 294 341
#     4  11  24  37  59  84 118 154 195 237 291 345
#     4  11  20  34  60  84 117 143 188 242 295 344
#     4  11  22  37  57  85 115 149 194 240 291 344
#     4  10  19  33  55  84 116 148 186 238 293 348
#     4  10  21  34  50  86 111 146 186 234 294 342
#
# _framework density 18.197997999999998
#
# number of rings (size 3 to 8) (size 9 to 14) (size 15 to 20)
#    0.000    1.455    5.455    1.364    5.091    2.182 
#    0.000    0.000    0.000    5.455    0.000    0.000 
#    0.000    0.000    0.000    0.000    0.000    0.000 
#
# Total GULP energy -122583.870304 kJ/mol
# GULP energy per Si atom -5571.994105 kJ/mol
# Density = 1.815658 g / cm^3
# Si number density = 18.197998 Si / 1000 Ang^3
#
#
#
# Elastic Constant Matrix: (Units=GPa)
#
#
# Indices 1 2 3 4 5 6 
#
# 1 38.5778 12.4056 37.4600 0.0000 -8.6882 0.0000
# 2 12.4056 84.6856 40.8460 0.0000 7.6347 0.0000
# 3 37.4600 40.8460 82.1552 0.0000 -13.1735 0.0000
# 4 0.0000 0.0000 0.0000 28.3360 0.0000 -7.7839
# 5 -8.6882 7.6347 -13.1735 0.0000 25.2498 0.0000
# 6 0.0000 0.0000 0.0000 -7.7839 0.0000 12.5097
#
#
#
# Elastic Compliance Matrix: (Units=1/GPa)
#
#
# Indices 1 2 3 4 5 6 
#
# 1 0.048052 0.003948 -0.023368 0.000000 0.003149 0.000000
# 2 0.003948 0.018283 -0.012614 0.000000 -0.010751 0.000000
# 3 -0.023368 -0.012614 0.031016 0.000000 0.011955 0.000000
# 4 0.000000 0.000000 0.000000 0.042566 0.000000 0.026486
# 5 0.003149 -0.010751 0.011955 0.000000 0.050176 0.000000
# 6 0.000000 0.000000 0.000000 0.026486 0.000000 0.096418
#
#
# Mechanical properties :
#
#
# Convention : Reuss Voigt Hill
#
# Bulk Modulus (GPa) = 30.04574 42.98242 36.51408
# Shear Modulus (GPa) = 13.82457 20.86625 17.34541
#
# Velocity S-wave (km/s) = 2.75921 3.38986 3.09066
# Velocity P-wave (km/s) = 5.16694 6.24436 5.73103
#
# Compressibility (1/GPa) = 0.03328259
#
# Stress axis : x y z
#
# Youngs Moduli (GPa) = 20.81069 54.69427 32.24169
#
# Poissons Ratio (x) = -0.21593 0.75343
# Poissons Ratio (y) = -0.08216 0.40671
# Poissons Ratio (z) = 0.48631 0.68993
#
# Static dielectric constant tensor:
#      x y z
#    x 1.724110 0.000000 0.030960 
#    y 0.000000 1.653450 0.000000 
#    z 0.030960 0.000000 1.689970 
# 
# From -- ./inp_files/131861.got.cif
#   From: 2010.05.17/outbox.cif.g08.bks.cpg/sg12_66_cif.got.tgz:131861.got - 2010.06.03 13:09:07.
