data_PCOD9183129
_publ_section_title
;
Structure prediction by ZEFSAII (Michael W. Deem and Ramdas Pophale) SiO2 
 PCOD9183129
Probable space group: C 2/M
;
_chemical_formula_sum "Si O2"
_cell_formula_units_Z 64
_cell_length_a 19.046655
_cell_length_b 22.946242
_cell_length_c 18.546607
_cell_angle_alpha 90.000000
_cell_angle_beta 152.585462
_cell_angle_gamma 90.000000
_cell_volume 3732.103587
_symmetry_space_group_name_H-M "C 2/M"
_symmetry_group_IT_number 12
_symmetry_cell_setting 'monoclinic'
loop_
_space_group_symop_operation_xyz
x,y,z
-x,y,-z
-x,-y,-z
x,-y,z
1/2+x,1/2+y,z
1/2-x,1/2+y,-z
1/2-x,1/2-y,-z
1/2+x,1/2-y,z
loop_
_atom_site_type_symbol
_atom_site_label
_atom_site_fract_x
_atom_site_fract_y
_atom_site_fract_z
Si Si1 0.131329 0.334742 0.403234
Si Si2 0.070193 0.567779 0.233075
Si Si3 0.604791 0.144801 0.029930
Si Si4 0.466894 0.710991 0.745934
Si Si5 0.940026 0.170805 0.315384
Si Si6 0.899578 0.064992 0.481158
Si Si7 0.094245 0.782326 0.016060
Si Si8 0.547231 0.203914 0.623434
O O1 0.112953 0.393994 0.341986
O O2 0.305550 0.319865 0.582507
O O3 0.068459 0.279859 0.298325
O O4 0.035944 0.332524 0.390354
O O5 0.038155 0.500000 0.219082
O O6 0.216397 0.569041 0.311972
O O7 0.932916 0.602006 0.069726
O O8 0.783886 0.148626 0.207844
O O9 0.566324 0.212749 0.982377
O O10 0.500000 0.125158 0.000000
O O11 0.581051 0.691467 0.786097
O O12 0.534062 0.694816 0.884699
O O13 0.003471 0.228185 0.412837
O O14 0.052333 0.117168 0.423553
O O15 0.000000 0.071247 0.500000
O O16 0.933931 0.000000 0.540716
O O17 0.271868 0.794162 0.194898
O O18 0.000000 0.802345 0.000000
O O19 0.500000 0.185758 0.500000
#
# Coordination Sequence:
#
# PCOD9183129 Si02
#       8
#     8   8   8   8   8   8   8   8
#     4  10  20  34  54  77 108 137 180 218 267 318
#     4  11  22  36  53  74 105 142 185 224 262 306
#     4  10  21  33  49  75 106 143 175 218 258 307
#     4  10  19  33  54  78 105 144 173 216 268 316
#     4  10  20  32  53  76 108 141 176 217 256 317
#     4  10  20  34  51  71 101 142 185 221 252 302
#     4  10  20  33  52  79 113 140 171 211 264 321
#     4  10  21  33  54  83 109 139 170 218 269 325
#
# _framework density 17.148506000000001
#
# number of rings (size 3 to 8) (size 9 to 14) (size 15 to 20)
#    0.000    1.875    2.500    1.875    1.750    4.250 
#    0.000    0.000    0.000    0.375    0.000    0.000 
#    0.000    2.500    0.000    0.000    0.000    0.000 
#
# Total GULP energy -178344.417733 kJ/mol
# GULP energy per Si atom -5573.263054 kJ/mol
# Density = 1.710948 g / cm^3
# Si number density = 17.148506 Si / 1000 Ang^3
#
#
#
# Elastic Constant Matrix: (Units=GPa)
#
#
# Indices 1 2 3 4 5 6 
#
# 1 90.3509 17.0299 23.6172 0.0001 -3.3923 0.0002
# 2 17.0299 61.5304 16.6183 0.0001 3.1438 0.0001
# 3 23.6172 16.6183 41.3029 -0.0005 -11.8531 -0.0005
# 4 0.0001 0.0001 -0.0005 17.4249 -0.0002 0.0251
# 5 -3.3923 3.1438 -11.8531 -0.0002 24.6205 -0.0002
# 6 0.0002 0.0001 -0.0005 0.0251 -0.0002 15.7390
#
#
#
# Elastic Compliance Matrix: (Units=1/GPa)
#
#
# Indices 1 2 3 4 5 6 
#
# 1 0.013236 -0.001598 -0.007361 0.000000 -0.001516 0.000000
# 2 -0.001598 0.019463 -0.008927 0.000000 -0.007003 -0.000001
# 3 -0.007361 -0.008927 0.037186 0.000001 0.018028 0.000002
# 4 0.000000 0.000000 0.000001 0.057389 0.000001 -0.000092
# 5 -0.001516 -0.007003 0.018028 0.000001 0.049981 0.000001
# 6 0.000000 -0.000001 0.000002 -0.000092 0.000001 0.063537
#
#
# Mechanical properties :
#
#
# Convention : Reuss Voigt Hill
#
# Bulk Modulus (GPa) = 29.31362 34.19055 31.75208
# Shear Modulus (GPa) = 17.36501 20.61815 18.99158
#
# Velocity S-wave (km/s) = 3.18563 3.47122 3.33149
# Velocity P-wave (km/s) = 5.53733 6.00392 5.77534
#
# Compressibility (1/GPa) = 0.03411384
#
# Stress axis : x y z
#
# Youngs Moduli (GPa) = 75.55006 51.37867 26.89194
#
# Poissons Ratio (x) = 0.08210 0.19794
# Poissons Ratio (y) = 0.12073 0.24007
# Poissons Ratio (z) = 0.55609 0.45867
#
# Static dielectric constant tensor:
#      x y z
#    x 1.616390 0.000000 0.012480 
#    y 0.000000 1.559110 0.000000 
#    z 0.012480 0.000000 1.607580 
# 
# From -- ./inp_files/89567.got.cif
#   From: 2010.05.17/outbox.cif.g08.bks.cpg/sg12_45_cif.got.tgz:89567.got - 2010.06.03 13:09:07.
