data_PCOD9183419
_publ_section_title
;
Structure prediction by ZEFSAII (Michael W. Deem and Ramdas Pophale) SiO2 
 PCOD9183419
Probable space group: C 2/M
;
_chemical_formula_sum "Si O2"
_cell_formula_units_Z 58
_cell_length_a 14.697506
_cell_length_b 9.336343
_cell_length_c 19.517613
_cell_angle_alpha 90.000000
_cell_angle_beta 77.300112
_cell_angle_gamma 90.000000
_cell_volume 2612.702681
_symmetry_space_group_name_H-M "C 2/M"
_symmetry_group_IT_number 12
_symmetry_cell_setting 'monoclinic'
loop_
_space_group_symop_operation_xyz
x,y,z
-x,y,-z
-x,-y,-z
x,-y,z
1/2+x,1/2+y,z
1/2-x,1/2+y,-z
1/2-x,1/2-y,-z
1/2+x,1/2-y,z
loop_
_atom_site_type_symbol
_atom_site_label
_atom_site_fract_x
_atom_site_fract_y
_atom_site_fract_z
Si Si1 0.607128 0.674125 0.984537
Si Si2 0.944977 0.832132 0.237828
Si Si3 0.715543 0.326877 0.827563
Si Si4 0.231821 0.163373 0.396112
Si Si5 0.130486 0.834057 0.130481
Si Si6 0.000000 0.500000 0.500000
Si Si7 0.106687 0.227586 0.544735
Si Si8 0.436845 0.662593 0.659586
O O1 0.606734 0.500000 0.987341
O O2 0.647622 0.722702 0.050996
O O3 0.500000 0.722118 0.000000
O O4 0.661599 0.713269 0.906968
O O5 0.847895 0.774410 0.225192
O O6 0.003248 0.764504 0.290321
O O7 0.019917 0.831401 0.163518
O O8 0.928197 0.000000 0.258724
O O9 0.721723 0.500000 0.823203
O O10 0.814949 0.254728 0.821454
O O11 0.168986 0.157241 0.475613
O O12 0.323102 0.250415 0.402487
O O13 0.159229 0.227663 0.352626
O O14 0.256671 0.000000 0.373281
O O15 0.159840 0.000000 0.129900
O O16 0.930354 0.376331 0.479642
O O17 0.012416 0.154163 0.586177
O O18 0.413467 0.500000 0.685766
#
# Coordination Sequence:
#
# PCOD9183419 Si02
#       8
#     8   8   8   8   8   2   8   8
#     4   9  15  28  53  80 102 137 180 219 264 321
#     4   9  19  35  55  74 100 142 179 214 255 316
#     4  10  19  33  55  78 106 138 177 222 269 318
#     4  10  20  34  54  78 101 132 170 209 255 303
#     4  10  19  33  55  79 106 138 181 224 266 316
#     4  12  20  36  54  80 110 140 164 208 268 318
#     4  11  21  34  55  79 109 136 163 212 261 314
#     4  10  20  36  55  77 103 135 179 218 255 303
#
# _framework density 22.199237
#
# number of rings (size 3 to 8) (size 9 to 14) (size 15 to 20)
#    0.000    2.069    3.448    0.828    0.000    2.207 
#    0.000    0.690    3.034    0.828    0.000    0.000 
#    0.000    0.000    0.000    0.000    0.000    0.000 
#
# Total GULP energy -161475.400929 kJ/mol
# GULP energy per Si atom -5568.117273 kJ/mol
# Density = 2.214871 g / cm^3
# Si number density = 22.199237 Si / 1000 Ang^3
#
#
#
# Elastic Constant Matrix: (Units=GPa)
#
#
# Indices 1 2 3 4 5 6 
#
# 1 143.8716 12.6070 25.9627 0.0000 41.7255 0.0000
# 2 12.6070 35.9197 -1.8157 0.0000 11.4569 0.0000
# 3 25.9627 -1.8157 62.8256 0.0000 26.8947 0.0000
# 4 0.0000 0.0000 0.0000 8.0802 0.0000 8.4745
# 5 41.7255 11.4569 26.8947 0.0000 54.6251 0.0000
# 6 0.0000 0.0000 0.0000 8.4745 0.0000 21.3308
#
#
#
# Elastic Compliance Matrix: (Units=1/GPa)
#
#
# Indices 1 2 3 4 5 6 
#
# 1 0.009031 -0.001302 -0.001183 0.000000 -0.006043 0.000000
# 2 -0.001302 0.031056 0.004813 0.000000 -0.007889 0.000000
# 3 -0.001183 0.004813 0.021021 0.000000 -0.010456 0.000000
# 4 0.000000 0.000000 0.000000 0.212162 0.000000 -0.084290
# 5 -0.006043 -0.007889 -0.010456 0.000000 0.029725 0.000000
# 6 0.000000 0.000000 0.000000 -0.084290 0.000000 0.080368
#
#
# Mechanical properties :
#
#
# Convention : Reuss Voigt Hill
#
# Bulk Modulus (GPa) = 15.20605 35.12500 25.16552
# Shear Modulus (GPa) = 12.48041 30.53142 21.50591
#
# Velocity S-wave (km/s) = 2.37365 3.71258 3.11588
# Velocity P-wave (km/s) = 3.79169 5.85103 4.93009
#
# Compressibility (1/GPa) = 0.06576331
#
# Stress axis : x y z
#
# Youngs Moduli (GPa) = 110.73382 32.19968 47.57195
#
# Poissons Ratio (x) = 0.04192 0.05627
# Poissons Ratio (y) = 0.14417 -0.22894
# Poissons Ratio (z) = 0.13097 -0.15496
#
# Static dielectric constant tensor:
#      x y z
#    x 1.823920 0.000000 0.025180 
#    y 0.000000 1.776500 0.000000 
#    z 0.025180 0.000000 1.915080 
# 
# From -- ./inp_files/268733.got.cif
#   From: 2010.05.17/outbox.cif.g08.bks.cpg/sg12_135_cif.got.tgz:268733.got - 2010.06.03 13:09:07.
