data_PCOD9183664
_publ_section_title
;
Structure prediction by ZEFSAII (Michael W. Deem and Ramdas Pophale) SiO2 
 PCOD9183664
Probable space group: C 2/M
;
_chemical_formula_sum "Si O2"
_cell_formula_units_Z 64
_cell_length_a 13.089675
_cell_length_b 13.295753
_cell_length_c 34.977876
_cell_angle_alpha 90.000000
_cell_angle_beta 154.806797
_cell_angle_gamma 90.000000
_cell_volume 2591.255684
_symmetry_space_group_name_H-M "C 2/M"
_symmetry_group_IT_number 12
_symmetry_cell_setting 'monoclinic'
loop_
_space_group_symop_operation_xyz
x,y,z
-x,y,-z
-x,-y,-z
x,-y,z
1/2+x,1/2+y,z
1/2-x,1/2+y,-z
1/2-x,1/2-y,-z
1/2+x,1/2-y,z
loop_
_atom_site_type_symbol
_atom_site_label
_atom_site_fract_x
_atom_site_fract_y
_atom_site_fract_z
Si Si1 0.723063 0.115379 0.170402
Si Si2 0.052149 0.379410 0.397481
Si Si3 0.353053 0.382701 0.033152
Si Si4 0.513348 0.219102 0.463478
Si Si5 0.700143 0.614890 0.211739
Si Si6 0.383181 0.882058 0.784517
Si Si7 0.820962 0.250778 0.910762
Si Si8 0.829438 0.388096 0.677816
O O1 0.770752 0.148694 0.230298
O O2 0.814400 0.181065 0.166281
O O3 0.797468 0.000000 0.191145
O O4 0.432793 0.123500 0.067159
O O5 0.103435 0.500000 0.408160
O O6 0.263090 0.297831 0.461794
O O7 0.003281 0.359253 0.425493
O O8 0.835564 0.348372 0.295523
O O9 0.414348 0.500000 0.050079
O O10 0.460506 0.345780 0.110259
O O11 0.498380 0.322113 0.050873
O O12 0.500000 0.168337 0.500000
O O13 0.295927 0.296394 0.384805
O O14 0.641645 0.500000 0.202074
O O15 0.896023 0.614601 0.243538
O O16 0.623667 0.818168 0.863717
O O17 0.283813 0.878065 0.707746
O O18 0.440587 0.000000 0.811050
O O19 0.000000 0.308594 0.000000
O O20 0.740123 0.500000 0.636250
#
# Coordination Sequence:
#
# PCOD9183664 Si02
#       8
#     8   8   8   8   8   8   8   8
#     4  10  23  40  56  78 113 154 194 236 282 339
#     4  10  22  39  59  87 120 152 187 231 281 336
#     4  10  19  33  55  84 114 143 184 238 287 331
#     4  11  22  37  61  89 117 150 191 230 281 337
#     4   9  17  32  56  85 114 144 183 234 285 330
#     4  10  21  38  60  85 115 148 188 239 290 336
#     4  12  22  33  56  81 110 143 193 238 284 333
#     4  10  19  34  58  89 116 146 186 234 287 335
#
# _framework density 24.698450000000001
#
# number of rings (size 3 to 8) (size 9 to 14) (size 15 to 20)
#    0.000    1.750    3.750    1.125    0.000    2.500 
#    0.000    0.000    0.000    0.750    0.000    0.000 
#    0.000    0.000    0.000    0.000    0.000    0.000 
#
# Total GULP energy -178930.745690 kJ/mol
# GULP energy per Si atom -5591.585803 kJ/mol
# Density = 2.464223 g / cm^3
# Si number density = 24.698450 Si / 1000 Ang^3
#
#
#
# Elastic Constant Matrix: (Units=GPa)
#
#
# Indices 1 2 3 4 5 6 
#
# 1 62.0715 24.8016 29.0010 0.0000 -31.8670 0.0000
# 2 24.8016 88.3875 8.1587 0.0000 -19.5883 0.0000
# 3 29.0010 8.1587 84.1356 -0.0001 -35.7072 0.0000
# 4 0.0000 0.0000 -0.0001 29.5362 0.0000 -12.6517
# 5 -31.8670 -19.5883 -35.7072 0.0000 47.4503 0.0000
# 6 0.0000 0.0000 0.0000 -12.6517 0.0000 25.9535
#
#
#
# Elastic Compliance Matrix: (Units=1/GPa)
#
#
# Indices 1 2 3 4 5 6 
#
# 1 0.026075 -0.004007 -0.002747 0.000000 0.013790 0.000000
# 2 -0.004007 0.013187 0.001867 0.000000 0.004158 0.000000
# 3 -0.002747 0.001867 0.017918 0.000000 0.012410 0.000000
# 4 0.000000 0.000000 0.000000 0.042792 0.000000 0.020860
# 5 0.013790 0.004158 0.012410 0.000000 0.041391 0.000000
# 6 0.000000 0.000000 0.000000 0.020860 0.000000 0.048699
#
#
# Mechanical properties :
#
#
# Convention : Reuss Voigt Hill
#
# Bulk Modulus (GPa) = 21.09384 39.83524 30.46454
# Shear Modulus (GPa) = 23.18710 32.09690 27.64200
#
# Velocity S-wave (km/s) = 3.06732 3.60884 3.34904
# Velocity P-wave (km/s) = 4.59388 5.79039 5.22649
#
# Compressibility (1/GPa) = 0.04740721
#
# Stress axis : x y z
#
# Youngs Moduli (GPa) = 38.35156 75.83069 55.80987
#
# Poissons Ratio (x) = 0.30384 0.15328
# Poissons Ratio (y) = 0.15367 -0.10420
# Poissons Ratio (z) = 0.10533 -0.14158
#
# Static dielectric constant tensor:
#      x y z
#    x 2.000810 0.000000 -0.040100 
#    y 0.000000 1.979280 0.000000 
#    z -0.040100 0.000000 2.003170 
# 
# From -- ./inp_files/358482.got.cif
#   From: 2010.05.17/outbox.cif.g08.bks.cpg/sg12_180_cif.got.tgz:358482.got - 2010.06.03 13:09:07.
