data_PCOD9183224
_publ_section_title
;
Structure prediction by ZEFSAII (Michael W. Deem and Ramdas Pophale) SiO2 
 PCOD9183224
Probable space group: C 2/M
;
_chemical_formula_sum "Si O2"
_cell_formula_units_Z 48
_cell_length_a 27.173745
_cell_length_b 22.334521
_cell_length_c 12.497223
_cell_angle_alpha 90.000000
_cell_angle_beta 158.657588
_cell_angle_gamma 90.000000
_cell_volume 2760.389700
_symmetry_space_group_name_H-M "C 2/M"
_symmetry_group_IT_number 12
_symmetry_cell_setting 'monoclinic'
loop_
_space_group_symop_operation_xyz
x,y,z
-x,y,-z
-x,-y,-z
x,-y,z
1/2+x,1/2+y,z
1/2-x,1/2+y,-z
1/2-x,1/2-y,-z
1/2+x,1/2-y,z
loop_
_atom_site_type_symbol
_atom_site_label
_atom_site_fract_x
_atom_site_fract_y
_atom_site_fract_z
Si Si1 0.645165 0.432363 0.507378
Si Si2 0.132385 0.364330 0.913642
Si Si3 0.461243 0.308756 0.798631
Si Si4 0.425160 0.432854 0.247907
Si Si5 0.219585 0.241395 0.196153
Si Si6 0.174866 0.644222 0.747543
O O1 0.657206 0.500000 0.485434
O O2 0.598880 0.376035 0.340915
O O3 0.529335 0.434708 0.362786
O O4 0.780338 0.413107 0.845439
O O5 0.179266 0.355579 0.885559
O O6 0.973512 0.376761 0.586769
O O7 0.154816 0.301842 0.019049
O O8 0.342454 0.262922 0.521580
O O9 0.500000 0.300120 0.000000
O O10 0.597727 0.295666 0.005556
O O11 0.500000 0.402293 0.500000
O O12 0.388736 0.500000 0.209134
O O13 0.289892 0.400458 0.942447
O O14 0.287017 0.205829 0.233856
#
# Coordination Sequence:
#
# PCOD9183224 Si02
#       6
#     8   8   8   8   8   8
#     4  10  21  38  58  81 114 146 185 236 279 325
#     4  10  22  34  53  84 116 151 186 214 277 331
#     4  11  23  39  62  83 106 146 191 238 287 330
#     4  10  19  33  54  80 110 149 188 224 271 326
#     4  11  21  39  54  83 116 143 182 235 280 330
#     4  11  20  34  54  82 117 152 184 218 268 342
#
# _framework density 17.388847999999999
#
# number of rings (size 3 to 8) (size 9 to 14) (size 15 to 20)
#    0.000    1.500    5.000    1.000    0.000    1.000 
#    3.000    1.667    0.000    0.000    0.000    1.167 
#    0.000    0.000    0.000    0.000    0.000    0.000 
#
# Total GULP energy -133756.631498 kJ/mol
# GULP energy per Si atom -5573.192979 kJ/mol
# Density = 1.734927 g / cm^3
# Si number density = 17.388848 Si / 1000 Ang^3
#
#
#
# Elastic Constant Matrix: (Units=GPa)
#
#
# Indices 1 2 3 4 5 6 
#
# 1 20.1302 -1.5022 16.5730 0.0000 7.7841 0.0000
# 2 -1.5022 80.2309 36.1391 0.0000 4.2887 0.0000
# 3 16.5730 36.1391 112.7015 0.0000 6.7965 0.0000
# 4 0.0000 0.0000 0.0000 39.5028 0.0000 25.9695
# 5 7.7841 4.2887 6.7965 0.0000 26.2438 0.0000
# 6 0.0000 0.0000 0.0000 25.9695 0.0000 41.8903
#
#
#
# Elastic Compliance Matrix: (Units=1/GPa)
#
#
# Indices 1 2 3 4 5 6 
#
# 1 0.066147 0.007120 -0.010928 0.000000 -0.017953 0.000000
# 2 0.007120 0.015371 -0.005788 0.000000 -0.003125 0.000000
# 3 -0.010928 -0.005788 0.012275 0.000000 0.001008 0.000000
# 4 0.000000 0.000000 0.000000 0.042729 0.000000 -0.026489
# 5 -0.017953 -0.003125 0.001008 0.000000 0.043679 0.000000
# 6 0.000000 0.000000 0.000000 -0.026489 0.000000 0.040294
#
#
# Mechanical properties :
#
#
# Convention : Reuss Voigt Hill
#
# Bulk Modulus (GPa) = 13.40416 35.05361 24.22889
# Shear Modulus (GPa) = 18.89981 32.31757 25.60869
#
# Velocity S-wave (km/s) = 3.30038 4.31574 3.84175
# Velocity P-wave (km/s) = 4.71684 6.71093 5.80022
#
# Compressibility (1/GPa) = 0.07460373
#
# Stress axis : x y z
#
# Youngs Moduli (GPa) = 15.11783 65.05605 81.46630
#
# Poissons Ratio (x) = -0.46323 0.89024
# Poissons Ratio (y) = -0.10765 0.47150
# Poissons Ratio (z) = 0.16520 0.37652
#
# Static dielectric constant tensor:
#      x y z
#    x 1.581580 0.000000 -0.002190 
#    y 0.000000 1.626770 0.000000 
#    z -0.002190 0.000000 1.597600 
# 
# From -- ./inp_files/121833.got.cif
#   From: 2010.05.17/outbox.cif.g08.bks.cpg/sg12_61_cif.got.tgz:121833.got - 2010.06.03 13:09:07.
