data_PCOD9183139
_publ_section_title
;
Structure prediction by ZEFSAII (Michael W. Deem and Ramdas Pophale) SiO2 
 PCOD9183139
Probable space group: C 2/M
;
_chemical_formula_sum "Si O2"
_cell_formula_units_Z 56
_cell_length_a 8.049850
_cell_length_b 18.001615
_cell_length_c 22.751401
_cell_angle_alpha 90.000000
_cell_angle_beta 52.920529
_cell_angle_gamma 90.000000
_cell_volume 2630.276698
_symmetry_space_group_name_H-M "C 2/M"
_symmetry_group_IT_number 12
_symmetry_cell_setting 'monoclinic'
loop_
_space_group_symop_operation_xyz
x,y,z
-x,y,-z
-x,-y,-z
x,-y,z
1/2+x,1/2+y,z
1/2-x,1/2+y,-z
1/2-x,1/2-y,-z
1/2+x,1/2-y,z
loop_
_atom_site_type_symbol
_atom_site_label
_atom_site_fract_x
_atom_site_fract_y
_atom_site_fract_z
Si Si1 0.057613 0.852419 0.144758
Si Si2 0.301411 0.918500 0.266612
Si Si3 0.210835 0.917659 0.992400
Si Si4 0.149116 0.082960 0.703523
Si Si5 0.545383 0.185698 0.860997
Si Si6 0.899439 0.143555 0.580602
Si Si7 0.712824 0.191300 0.421311
O O1 0.145574 0.900759 0.072850
O O2 0.248490 0.832709 0.146632
O O3 0.890582 0.894509 0.220786
O O4 0.976556 0.773681 0.138664
O O5 0.431486 0.853522 0.207643
O O6 0.077604 0.919196 0.280561
O O7 0.249201 0.904122 0.345867
O O8 0.397383 0.000000 0.237474
O O9 0.308865 0.000000 0.966878
O O10 0.358590 0.853954 0.935411
O O11 0.000000 0.917399 0.000000
O O12 0.273954 0.145930 0.642062
O O13 0.238291 0.000000 0.679377
O O14 0.094025 0.167635 0.579746
O O15 0.000000 0.109877 0.500000
O O16 0.785216 0.220274 0.588119
O O17 0.500000 0.173125 0.500000
#
# Coordination Sequence:
#
# PCOD9183139 Si02
#       7
#     8   8   8   8   8   8   8
#     4  11  22  38  61  85 112 147 188 229 272 327
#     4   9  19  35  55  80 109 142 181 226 275 325
#     4  11  24  41  60  85 117 147 180 227 278 327
#     4   9  19  35  55  80 109 142 181 226 275 325
#     4  11  22  38  61  85 112 147 188 229 272 327
#     4  10  19  33  54  78 107 141 179 223 269 322
#     4  10  19  33  54  78 107 141 179 223 269 322
#
# _framework density 21.290537
#
# number of rings (size 3 to 8) (size 9 to 14) (size 15 to 20)
#    0.000    1.857    0.000    5.143    0.000    2.857 
#    0.000    4.286    0.000    9.429    0.000    0.000 
#    0.000    0.000    0.000    0.000    0.000    0.000 
#
# Total GULP energy -156507.598686 kJ/mol
# GULP energy per Si atom -5589.557096 kJ/mol
# Density = 2.124208 g / cm^3
# Si number density = 21.290537 Si / 1000 Ang^3
#
#
#
# Elastic Constant Matrix: (Units=GPa)
#
#
# Indices 1 2 3 4 5 6 
#
# 1 25.5760 -10.3653 -9.4388 0.0003 8.3117 0.0003
# 2 -10.3653 54.4943 12.9605 0.0000 3.3935 0.0001
# 3 -9.4388 12.9605 112.2572 0.0003 19.2061 0.0001
# 4 0.0003 0.0000 0.0003 9.1560 -0.0002 -3.0436
# 5 8.3117 3.3935 19.2061 -0.0002 22.8505 -0.0001
# 6 0.0003 0.0001 0.0001 -3.0436 -0.0001 -2.4407
#
#
#
# Elastic Compliance Matrix: (Units=1/GPa)
#
#
# Indices 1 2 3 4 5 6 
#
# 1 0.055852 0.010418 0.008449 0.000000 -0.028964 0.000008
# 2 0.010418 0.020837 -0.000411 0.000000 -0.006538 0.000002
# 3 0.008449 -0.000411 0.011891 0.000000 -0.013007 0.000002
# 4 0.000000 0.000000 0.000000 0.077212 0.000000 -0.096285
# 5 -0.028964 -0.006538 -0.013007 0.000000 0.066202 -0.000008
# 6 0.000008 0.000002 0.000002 -0.096285 -0.000008 -0.289655
#
#
# Mechanical properties :
#
#
# Convention : Reuss Voigt Hill
#
# Bulk Modulus (GPa) = 7.96863 19.84892 13.90878
# Shear Modulus (GPa) = -94.80205 19.19123 -37.80541
#
# Velocity S-wave (km/s) = -6.68015 3.00558 -4.21847
# Velocity P-wave (km/s) = 7.46648 4.62470 4.14491
#
# Compressibility (1/GPa) = 0.12549204
#
# Stress axis : x y z
#
# Youngs Moduli (GPa) = 17.90439 47.99141 84.09477
#
# Poissons Ratio (x) = -0.49997 -0.71051
# Poissons Ratio (y) = -0.18653 0.03457
# Poissons Ratio (z) = -0.15127 0.01973
#
# Static dielectric constant tensor:
#      x y z
#    x 1.772140 0.000000 0.010780 
#    y 0.000000 1.750760 0.000000 
#    z 0.010780 0.000000 1.770450 
# 
# From -- ./inp_files/300661.got.cif
#   From: 2010.05.17/outbox.cif.g08.bks.cpg/sg12_151_cif.got.tgz:300661.got - 2010.06.03 13:09:07.
