data_PCOD9183385
_publ_section_title
;
Structure prediction by ZEFSAII (Michael W. Deem and Ramdas Pophale) SiO2 
 PCOD9183385
Probable space group: C 2/M
;
_chemical_formula_sum "Si O2"
_cell_formula_units_Z 56
_cell_length_a 14.804785
_cell_length_b 15.012695
_cell_length_c 18.149095
_cell_angle_alpha 90.000000
_cell_angle_beta 43.753107
_cell_angle_gamma 90.000000
_cell_volume 2789.592227
_symmetry_space_group_name_H-M "C 2/M"
_symmetry_group_IT_number 12
_symmetry_cell_setting 'monoclinic'
loop_
_space_group_symop_operation_xyz
x,y,z
-x,y,-z
-x,-y,-z
x,-y,z
1/2+x,1/2+y,z
1/2-x,1/2+y,-z
1/2-x,1/2-y,-z
1/2+x,1/2-y,z
loop_
_atom_site_type_symbol
_atom_site_label
_atom_site_fract_x
_atom_site_fract_y
_atom_site_fract_z
Si Si1 0.115978 0.716851 0.115688
Si Si2 0.841586 0.771053 0.276018
Si Si3 0.126359 0.401317 0.977215
Si Si4 0.374156 0.106484 0.525209
Si Si5 0.320416 0.102342 0.394011
Si Si6 0.315137 0.270769 0.776871
Si Si7 0.013829 0.101542 0.579473
O O1 0.138303 0.700471 0.188988
O O2 0.996801 0.787163 0.179494
O O3 0.250000 0.750000 0.000000
O O4 0.083223 0.634458 0.082400
O O5 0.752853 0.840140 0.373087
O O6 0.836401 0.675997 0.321714
O O7 0.775737 0.764730 0.234801
O O8 0.180260 0.500000 0.952506
O O9 0.230728 0.339725 0.874928
O O10 0.000000 0.401554 0.000000
O O11 0.500000 0.132823 0.500000
O O12 0.394881 0.123657 0.426174
O O13 0.355004 0.000000 0.544892
O O14 0.167021 0.105025 0.505910
O O15 0.348768 0.000000 0.354181
O O16 0.433208 0.325294 0.670848
O O17 0.000000 0.117384 0.500000
O O18 0.966497 0.000000 0.621706
#
# Coordination Sequence:
#
# PCOD9183385 Si02
#       7
#     8   8   8   8   8   8   8
#     4  10  24  42  59  90 122 157 208 257 315 371
#     4  12  23  37  65  91 122 167 213 259 316 377
#     4  10  20  39  63  88 121 156 198 257 320 369
#     4  10  24  43  61  87 126 174 223 261 303 371
#     4  10  22  38  59  90 130 163 204 259 309 375
#     4  11  22  36  61  90 123 163 202 251 307 377
#     4  10  19  33  54  91 130 160 195 243 303 374
#
# _framework density 20.074618000000001
#
# number of rings (size 3 to 8) (size 9 to 14) (size 15 to 20)
#    0.000    1.571    2.857    1.714    4.000    1.143 
#    0.000    3.571    0.000    0.000    0.000    6.000 
#    0.000    0.000    0.000    0.000    0.000    0.000 
#
# Total GULP energy -156358.622730 kJ/mol
# GULP energy per Si atom -5584.236526 kJ/mol
# Density = 2.002893 g / cm^3
# Si number density = 20.074618 Si / 1000 Ang^3
#
#
#
# Elastic Constant Matrix: (Units=GPa)
#
#
# Indices 1 2 3 4 5 6 
#
# 1 127.8400 23.6911 35.7530 0.0000 28.4081 0.0000
# 2 23.6911 53.5762 36.0132 0.0000 12.0300 0.0000
# 3 35.7530 36.0132 92.4542 0.0000 3.0077 0.0000
# 4 0.0000 0.0000 0.0000 10.7778 0.0000 -7.4829
# 5 28.4081 12.0300 3.0077 0.0000 46.0862 0.0000
# 6 0.0000 0.0000 0.0000 -7.4829 0.0000 -14.7128
#
#
#
# Elastic Compliance Matrix: (Units=1/GPa)
#
#
# Indices 1 2 3 4 5 6 
#
# 1 0.010249 -0.000923 -0.003413 0.000000 -0.005854 0.000000
# 2 -0.000923 0.027122 -0.010017 0.000000 -0.005857 0.000000
# 3 -0.003413 -0.010017 0.015918 0.000000 0.003680 0.000000
# 4 0.000000 0.000000 0.000000 0.068571 0.000000 -0.034875
# 5 -0.005854 -0.005857 0.003680 0.000000 0.026595 0.000000
# 6 0.000000 0.000000 0.000000 -0.034875 0.000000 -0.050231
#
#
# Mechanical properties :
#
#
# Convention : Reuss Voigt Hill
#
# Bulk Modulus (GPa) = 40.68066 51.64279 46.16173
# Shear Modulus (GPa) = 37.00285 20.32444 28.66365
#
# Velocity S-wave (km/s) = 4.29798 3.18535 3.78280
# Velocity P-wave (km/s) = 6.70365 6.26976 6.49033
#
# Compressibility (1/GPa) = 0.02458170
#
# Stress axis : x y z
#
# Youngs Moduli (GPa) = 97.57304 36.87095 62.82090
#
# Poissons Ratio (x) = 0.03404 0.21442
# Poissons Ratio (y) = 0.09008 0.62928
# Poissons Ratio (z) = 0.33304 0.36934
#
# Static dielectric constant tensor:
#      x y z
#    x 1.790500 0.000000 -0.019450 
#    y 0.000000 1.717710 0.000000 
#    z -0.019450 0.000000 1.715860 
# 
# From -- ./inp_files/270216.got.cif
#   From: 2010.05.17/outbox.cif.g08.bks.cpg/sg12_136_cif.got.tgz:270216.got - 2010.06.03 13:09:07.
