data_PCOD9183859
_publ_section_title
;
Structure prediction by ZEFSAII (Michael W. Deem and Ramdas Pophale) SiO2 
 PCOD9183859
Probable space group: C 2/M
;
_chemical_formula_sum "Si O2"
_cell_formula_units_Z 64
_cell_length_a 22.876366
_cell_length_b 10.590180
_cell_length_c 26.087111
_cell_angle_alpha 90.000000
_cell_angle_beta 148.369007
_cell_angle_gamma 90.000000
_cell_volume 3314.496770
_symmetry_space_group_name_H-M "C 2/M"
_symmetry_group_IT_number 12
_symmetry_cell_setting 'monoclinic'
loop_
_space_group_symop_operation_xyz
x,y,z
-x,y,-z
-x,-y,-z
x,-y,z
1/2+x,1/2+y,z
1/2-x,1/2+y,-z
1/2-x,1/2-y,-z
1/2+x,1/2-y,z
loop_
_atom_site_type_symbol
_atom_site_label
_atom_site_fract_x
_atom_site_fract_y
_atom_site_fract_z
Si Si1 0.396705 0.642033 0.182810
Si Si2 0.728993 0.648904 0.196878
Si Si3 0.116045 0.861239 0.278617
Si Si4 0.458794 0.153135 0.412565
Si Si5 0.226351 0.851380 0.074875
Si Si6 0.566191 0.736262 0.391374
Si Si7 0.976324 0.146164 0.901815
Si Si8 0.297978 0.863800 0.592516
O O1 0.348766 0.500000 0.147821
O O2 0.493033 0.644805 0.211796
O O3 0.308148 0.753422 0.108512
O O4 0.464822 0.668930 0.286262
O O5 0.718915 0.500000 0.201715
O O6 0.831823 0.696832 0.307122
O O7 0.757654 0.655024 0.158540
O O8 0.606389 0.702946 0.117481
O O9 0.098425 0.852021 0.205100
O O10 0.185342 0.750068 0.355543
O O11 0.163821 0.000000 0.326699
O O12 0.500000 0.188452 0.500000
O O13 0.530178 0.209182 0.419077
O O14 0.462106 0.000000 0.411465
O O15 0.234150 0.000000 0.064295
O O16 0.098242 0.804572 0.978631
O O17 0.614087 0.841518 0.387851
O O18 0.673267 0.646426 0.477642
O O19 0.002500 0.000000 0.935982
O O20 0.317289 0.000000 0.630705
#
# Coordination Sequence:
#
# PCOD9183859 Si02
#       8
#     8   8   8   8   8   8   8   8
#     4  10  20  35  54  77 108 144 177 213 263 321
#     4   9  17  31  52  79 107 135 174 221 268 313
#     4   9  20  36  54  79 109 142 178 216 266 320
#     4  10  20  31  50  84 114 135 171 225 272 310
#     4  10  19  33  56  83 105 134 179 226 267 313
#     4  10  20  35  55  76 107 143 179 215 260 320
#     4   9  18  33  54  79 107 139 176 223 272 315
#     4  10  21  35  56  82 108 142 180 218 260 313
#
# _framework density 19.309116
#
# number of rings (size 3 to 8) (size 9 to 14) (size 15 to 20)
#    0.000    2.375    1.250    1.125    1.750    7.500 
#    0.000    0.625    0.000    5.250    0.000    0.000 
#    0.000    0.000    0.000    0.000    0.000    0.000 
#
# Total GULP energy -178374.233305 kJ/mol
# GULP energy per Si atom -5574.194791 kJ/mol
# Density = 1.926517 g / cm^3
# Si number density = 19.309116 Si / 1000 Ang^3
#
#
#
# Elastic Constant Matrix: (Units=GPa)
#
#
# Indices 1 2 3 4 5 6 
#
# 1 38.8101 9.6975 0.5059 0.0000 -2.4827 0.0000
# 2 9.6975 86.1388 17.1231 0.0000 10.3964 0.0000
# 3 0.5059 17.1231 54.9189 0.0001 7.6125 0.0000
# 4 0.0000 0.0000 0.0001 9.1429 0.0000 1.7113
# 5 -2.4827 10.3964 7.6125 0.0000 28.0421 0.0000
# 6 0.0000 0.0000 0.0000 1.7113 0.0000 0.4640
#
#
#
# Elastic Compliance Matrix: (Units=1/GPa)
#
#
# Indices 1 2 3 4 5 6 
#
# 1 0.026874 -0.003529 0.000355 0.000000 0.003591 -0.000002
# 2 -0.003529 0.013216 -0.003497 0.000000 -0.004263 0.000000
# 3 0.000355 -0.003497 0.019859 0.000001 -0.004063 -0.000004
# 4 0.000000 0.000000 0.000001 0.353220 0.000000 -1.302787
# 5 0.003591 -0.004263 -0.004063 0.000000 0.038662 -0.000002
# 6 -0.000002 0.000000 -0.000004 -1.302787 -0.000002 6.960372
#
#
# Mechanical properties :
#
#
# Convention : Reuss Voigt Hill
#
# Bulk Modulus (GPa) = 21.45671 26.05788 23.75729
# Shear Modulus (GPa) = 0.67195 17.69921 9.18558
#
# Velocity S-wave (km/s) = 0.59055 3.03087 2.18345
# Velocity P-wave (km/s) = 3.40607 5.07667 4.32284
#
# Compressibility (1/GPa) = 0.04660546
#
# Stress axis : x y z
#
# Youngs Moduli (GPa) = 37.21133 75.66458 50.35503
#
# Poissons Ratio (x) = 0.26706 -0.01788
# Poissons Ratio (y) = 0.13134 0.17611
# Poissons Ratio (z) = -0.01321 0.26462
#
# Static dielectric constant tensor:
#      x y z
#    x 1.703130 0.000000 0.010480 
#    y 0.000000 1.667180 0.000000 
#    z 0.010480 0.000000 1.717280 
# 
# From -- ./inp_files/367845.got.cif
#   From: 2010.05.17/outbox.cif.g08.bks.cpg/sg12_184_cif.got.tgz:367845.got - 2010.06.03 13:09:07.
