data_PCOD9183257
_publ_section_title
;
Structure prediction by ZEFSAII (Michael W. Deem and Ramdas Pophale) SiO2 
 PCOD9183257
Probable space group: C 2/M
;
_chemical_formula_sum "Si O2"
_cell_formula_units_Z 64
_cell_length_a 20.432280
_cell_length_b 18.224043
_cell_length_c 15.339587
_cell_angle_alpha 90.000000
_cell_angle_beta 146.037576
_cell_angle_gamma 90.000000
_cell_volume 3190.908255
_symmetry_space_group_name_H-M "C 2/M"
_symmetry_group_IT_number 12
_symmetry_cell_setting 'monoclinic'
loop_
_space_group_symop_operation_xyz
x,y,z
-x,y,-z
-x,-y,-z
x,-y,z
1/2+x,1/2+y,z
1/2-x,1/2+y,-z
1/2-x,1/2-y,-z
1/2+x,1/2-y,z
loop_
_atom_site_type_symbol
_atom_site_label
_atom_site_fract_x
_atom_site_fract_y
_atom_site_fract_z
Si Si1 0.493871 0.682690 0.295242
Si Si2 0.909270 0.274787 0.835261
Si Si3 0.594861 0.913619 0.450663
Si Si4 0.288814 0.920969 0.735418
Si Si5 0.661464 0.773913 0.608849
Si Si6 0.176077 0.917515 0.418638
Si Si7 0.188431 0.149882 0.778737
Si Si8 0.570823 0.176925 0.856778
O O1 0.581653 0.726600 0.455355
O O2 0.570432 0.640678 0.307353
O O3 0.414921 0.632049 0.268956
O O4 0.406112 0.745180 0.163706
O O5 0.874097 0.352632 0.839200
O O6 0.789590 0.230320 0.706170
O O7 0.968839 0.298150 0.811593
O O8 0.000000 0.236655 0.000000
O O9 0.614452 0.856925 0.552377
O O10 0.713695 0.906007 0.523468
O O11 0.488079 0.881596 0.273876
O O12 0.579830 0.000000 0.454185
O O13 0.230216 0.915614 0.576055
O O14 0.195259 0.907748 0.707710
O O15 0.346140 0.000000 0.806905
O O16 0.666990 0.729165 0.706143
O O17 0.131285 0.000000 0.352725
O O18 0.313140 0.150610 0.966066
#
# Coordination Sequence:
#
# PCOD9183257 Si02
#       8
#     8   8   8   8   8   8   8   8
#     4  11  21  36  56  77 109 149 191 226 262 326
#     4  11  18  33  54  84 115 138 179 230 284 332
#     4  10  21  37  59  86 112 140 185 239 288 333
#     4  10  20  32  51  80 111 144 174 210 270 332
#     4  10  20  35  58  79 107 147 188 230 277 324
#     4  10  19  33  54  81 109 140 176 220 271 330
#     4  11  22  37  52  81 114 148 186 225 270 327
#     4  11  21  34  56  83 108 143 182 231 286 325
#
# _framework density 20.056985999999998
#
# number of rings (size 3 to 8) (size 9 to 14) (size 15 to 20)
#    0.000    1.500    6.250    1.500    0.000    3.250 
#    0.000    1.250    0.000    7.125    0.000    0.000 
#    0.000    0.000    0.000    0.000    0.000    0.000 
#
# Total GULP energy -178399.148626 kJ/mol
# GULP energy per Si atom -5574.973395 kJ/mol
# Density = 2.001134 g / cm^3
# Si number density = 20.056986 Si / 1000 Ang^3
#
#
#
# Elastic Constant Matrix: (Units=GPa)
#
#
# Indices 1 2 3 4 5 6 
#
# 1 29.9955 -7.7799 -7.2938 0.0000 6.0050 0.0000
# 2 -7.7799 100.7514 27.0722 0.0000 -2.1969 0.0000
# 3 -7.2938 27.0722 64.8377 0.0000 2.9986 0.0000
# 4 0.0000 0.0000 0.0000 12.1304 0.0000 -2.6495
# 5 6.0050 -2.1969 2.9986 0.0000 10.9003 0.0000
# 6 0.0000 0.0000 0.0000 -2.6495 0.0000 6.7161
#
#
#
# Elastic Compliance Matrix: (Units=1/GPa)
#
#
# Indices 1 2 3 4 5 6 
#
# 1 0.039441 0.001206 0.004990 0.000000 -0.022857 0.000000
# 2 0.001206 0.011356 -0.004742 0.000000 0.002929 0.000000
# 3 0.004990 -0.004742 0.018369 0.000000 -0.008758 0.000000
# 4 0.000000 0.000000 0.000000 0.090210 0.000000 0.035588
# 5 -0.022857 0.002929 -0.008758 0.000000 0.107332 0.000000
# 6 0.000000 0.000000 0.000000 0.035588 0.000000 0.162935
#
#
# Mechanical properties :
#
#
# Convention : Reuss Voigt Hill
#
# Bulk Modulus (GPa) = 13.87421 24.39796 19.13609
# Shear Modulus (GPa) = 11.09240 18.18845 14.64042
#
# Velocity S-wave (km/s) = 2.35424 3.01464 2.70467
# Velocity P-wave (km/s) = 3.78449 4.93033 4.39491
#
# Compressibility (1/GPa) = 0.07207617
#
# Stress axis : x y z
#
# Youngs Moduli (GPa) = 25.35465 88.05544 54.43877
#
# Poissons Ratio (x) = -0.10622 -0.27166
# Poissons Ratio (y) = -0.03058 0.25812
# Poissons Ratio (z) = -0.12652 0.41751
#
# Static dielectric constant tensor:
#      x y z
#    x 1.776140 0.000000 0.000100 
#    y 0.000000 1.745650 0.000000 
#    z 0.000100 0.000000 1.719120 
# 
# From -- ./inp_files/290453.got.cif
#   From: 2010.05.17/outbox.cif.g08.bks.cpg/sg12_146_cif.got.tgz:290453.got - 2010.06.03 13:09:07.
