data_PCOD9183428
_publ_section_title
;
Structure prediction by ZEFSAII (Michael W. Deem and Ramdas Pophale) SiO2 
 PCOD9183428
Probable space group: C 2/M
;
_chemical_formula_sum "Si O2"
_cell_formula_units_Z 56
_cell_length_a 17.458029
_cell_length_b 13.597466
_cell_length_c 18.436212
_cell_angle_alpha 90.000000
_cell_angle_beta 135.850383
_cell_angle_gamma 90.000000
_cell_volume 3048.368513
_symmetry_space_group_name_H-M "C 2/M"
_symmetry_group_IT_number 12
_symmetry_cell_setting 'monoclinic'
loop_
_space_group_symop_operation_xyz
x,y,z
-x,y,-z
-x,-y,-z
x,-y,z
1/2+x,1/2+y,z
1/2-x,1/2+y,-z
1/2-x,1/2-y,-z
1/2+x,1/2-y,z
loop_
_atom_site_type_symbol
_atom_site_label
_atom_site_fract_x
_atom_site_fract_y
_atom_site_fract_z
Si Si1 0.513532 0.239809 0.194822
Si Si2 0.785372 0.117437 0.141587
Si Si3 0.694968 0.882371 0.920817
Si Si4 0.889440 0.118727 0.461977
Si Si5 0.951107 0.883325 0.666677
Si Si6 0.684544 0.118958 0.223233
Si Si7 0.420677 0.617106 0.012958
O O1 0.416972 0.176643 0.166454
O O2 0.586023 0.301305 0.301143
O O3 0.577952 0.167557 0.185159
O O4 0.462906 0.324809 0.110800
O O5 0.714160 0.152570 0.161839
O O6 0.915519 0.131304 0.244994
O O7 0.772086 0.000000 0.132045
O O8 0.742050 0.147824 0.032791
O O9 0.789316 0.864096 0.924574
O O10 0.675157 0.000000 0.909051
O O11 0.896693 0.137930 0.552204
O O12 0.784097 0.148831 0.344355
O O13 0.000000 0.157851 0.500000
O O14 0.892089 0.000000 0.457271
O O15 0.933520 0.000000 0.672488
O O16 0.675132 0.000000 0.216785
O O17 0.432306 0.500000 0.032317
O O18 0.500000 0.643591 0.000000
#
# Coordination Sequence:
#
# PCOD9183428 Si02
#       7
#     8   8   8   8   8   8   8
#     4  12  23  32  52  78 112 144 168 213 264 318
#     4   9  17  32  54  75 102 132 170 219 259 306
#     4  10  21  37  54  75 107 144 176 212 263 317
#     4   9  16  32  57  79 102 133 169 219 274 312
#     4  10  19  33  55  79 100 134 180 220 261 307
#     4  10  21  34  51  82 112 135 169 214 267 326
#     4  10  22  38  53  71 100 140 188 224 243 291
#
# _framework density 18.370481999999999
#
# number of rings (size 3 to 8) (size 9 to 14) (size 15 to 20)
#    0.000    2.000    2.857    1.286    2.000    0.571 
#    0.000    2.143    0.000    0.000    0.000    0.000 
#    0.000    2.286    0.000    0.000    0.000    0.000 
#
# Total GULP energy -156105.226881 kJ/mol
# GULP energy per Si atom -5575.186674 kJ/mol
# Density = 1.832867 g / cm^3
# Si number density = 18.370482 Si / 1000 Ang^3
#
#
#
# Elastic Constant Matrix: (Units=GPa)
#
#
# Indices 1 2 3 4 5 6 
#
# 1 99.4839 41.0875 13.4992 0.0000 -5.2181 0.0000
# 2 41.0875 53.5436 18.5463 0.0000 -13.5104 0.0000
# 3 13.4992 18.5463 38.2839 0.0000 -9.5425 0.0000
# 4 0.0000 0.0000 0.0000 3.8207 0.0000 -7.7877
# 5 -5.2181 -13.5104 -9.5425 0.0000 18.5203 0.0000
# 6 0.0000 0.0000 0.0000 -7.7877 0.0000 21.9633
#
#
#
# Elastic Compliance Matrix: (Units=1/GPa)
#
#
# Indices 1 2 3 4 5 6 
#
# 1 0.015112 -0.012774 -0.000461 0.000000 -0.005298 0.000000
# 2 -0.012774 0.036008 -0.008363 0.000000 0.018359 0.000000
# 3 -0.000461 -0.008363 0.033023 0.000000 0.010784 0.000000
# 4 0.000000 0.000000 0.000000 0.944010 0.000000 0.334726
# 5 -0.005298 0.018359 0.010784 0.000000 0.071451 0.000000
# 6 0.000000 0.000000 0.000000 0.334726 0.000000 0.164217
#
#
# Mechanical properties :
#
#
# Convention : Reuss Voigt Hill
#
# Bulk Modulus (GPa) = 24.42224 37.50861 30.96543
# Shear Modulus (GPa) = 3.78597 16.73941 10.26269
#
# Velocity S-wave (km/s) = 1.43714 3.02190 2.36614
# Velocity P-wave (km/s) = 4.00961 5.71297 4.93533
#
# Compressibility (1/GPa) = 0.04094628
#
# Stress axis : x y z
#
# Youngs Moduli (GPa) = 66.17196 27.77180 30.28212
#
# Poissons Ratio (x) = 0.35475 0.01396
# Poissons Ratio (y) = 0.84525 0.25326
# Poissons Ratio (z) = 0.03051 0.23227
#
# Static dielectric constant tensor:
#      x y z
#    x 1.687380 0.000000 0.000600 
#    y 0.000000 1.645500 0.000000 
#    z 0.000600 0.000000 1.629270 
# 
# From -- ./inp_files/183452.got.cif
#   From: 2010.05.17/outbox.cif.g08.bks.cpg/sg12_92_cif.got.tgz:183452.got - 2010.06.03 13:09:07.
