data_PCOD9183371
_publ_section_title
;
Structure prediction by ZEFSAII (Michael W. Deem and Ramdas Pophale) SiO2 
 PCOD9183371
Probable space group: C 2/M
;
_chemical_formula_sum "Si O2"
_cell_formula_units_Z 64
_cell_length_a 24.451563
_cell_length_b 13.967139
_cell_length_c 15.406048
_cell_angle_alpha 90.000000
_cell_angle_beta 36.322715
_cell_angle_gamma 90.000000
_cell_volume 3116.527725
_symmetry_space_group_name_H-M "C 2/M"
_symmetry_group_IT_number 12
_symmetry_cell_setting 'monoclinic'
loop_
_space_group_symop_operation_xyz
x,y,z
-x,y,-z
-x,-y,-z
x,-y,z
1/2+x,1/2+y,z
1/2-x,1/2+y,-z
1/2-x,1/2-y,-z
1/2+x,1/2-y,z
loop_
_atom_site_type_symbol
_atom_site_label
_atom_site_fract_x
_atom_site_fract_y
_atom_site_fract_z
Si Si1 0.454870 0.747377 0.645727
Si Si2 0.822635 0.168312 0.393476
Si Si3 0.856477 0.817400 0.540945
Si Si4 0.579760 0.397685 0.974845
Si Si5 0.083640 0.610908 0.145377
Si Si6 0.778290 0.601402 0.633084
Si Si7 0.005881 0.287179 0.891177
Si Si8 0.287185 0.612011 0.803527
O O1 0.500000 0.792311 0.500000
O O2 0.537210 0.676093 0.567734
O O3 0.436372 0.821503 0.746863
O O4 0.362899 0.686538 0.743413
O O5 0.750000 0.250000 0.500000
O O6 0.850084 0.137291 0.453946
O O7 0.769629 0.097136 0.399727
O O8 0.902134 0.225923 0.241770
O O9 0.832144 0.702288 0.570436
O O10 0.789998 0.865653 0.696585
O O11 0.562760 0.500000 0.042286
O O12 0.685793 0.396686 0.809702
O O13 0.500000 0.396847 0.000000
O O14 0.567731 0.296649 0.035837
O O15 0.076147 0.500000 0.179796
O O16 0.011958 0.633860 0.158591
O O17 0.186689 0.626422 0.974565
O O18 0.828732 0.500000 0.585214
O O19 0.000000 0.317634 0.000000
O O20 0.312341 0.500000 0.784546
#
# Coordination Sequence:
#
# PCOD9183371 Si02
#       8
#     8   8   8   8   8   8   8   8
#     4  10  22  43  69  94 121 160 203 270 327 375
#     4  10  20  34  52  84 123 167 211 245 296 358
#     4  10  21  38  60  90 125 162 208 255 315 374
#     4   9  16  28  50  79 110 151 202 242 286 341
#     4  11  24  42  65  95 127 166 213 254 311 385
#     4  10  19  33  54  84 123 166 205 248 296 355
#     4  11  20  36  62  87 128 172 206 258 302 359
#     4  10  23  43  69  94 122 158 206 265 323 384
#
# _framework density 20.535674
#
# number of rings (size 3 to 8) (size 9 to 14) (size 15 to 20)
#    0.000    1.875    3.750    1.125    1.750    3.750 
#    0.000    2.500    0.000    7.500    0.000    0.000 
#    0.000    0.000    0.000    0.000    0.000    0.000 
#
# Total GULP energy -178137.238604 kJ/mol
# GULP energy per Si atom -5566.788706 kJ/mol
# Density = 2.048893 g / cm^3
# Si number density = 20.535674 Si / 1000 Ang^3
#
#
#
# Elastic Constant Matrix: (Units=GPa)
#
#
# Indices 1 2 3 4 5 6 
#
# 1 58.3151 4.0340 17.0364 0.0000 16.7518 0.0000
# 2 4.0340 79.6847 24.2878 0.0000 4.0980 0.0000
# 3 17.0364 24.2878 83.3649 0.0000 21.6451 0.0000
# 4 0.0000 0.0000 0.0000 24.7957 0.0000 0.9359
# 5 16.7518 4.0980 21.6451 0.0000 29.4727 0.0000
# 6 0.0000 0.0000 0.0000 0.9359 0.0000 22.0061
#
#
#
# Elastic Compliance Matrix: (Units=1/GPa)
#
#
# Indices 1 2 3 4 5 6 
#
# 1 0.020635 -0.000060 -0.001429 0.000000 -0.010671 0.000000
# 2 -0.000060 0.013812 -0.004352 0.000000 0.001310 0.000000
# 3 -0.001429 -0.004352 0.016294 0.000000 -0.010550 0.000000
# 4 0.000000 0.000000 0.000000 0.040394 0.000000 -0.001718
# 5 -0.010671 0.001310 -0.010550 0.000000 0.047561 0.000000
# 6 0.000000 0.000000 0.000000 -0.001718 0.000000 0.045515
#
#
# Mechanical properties :
#
#
# Convention : Reuss Voigt Hill
#
# Bulk Modulus (GPa) = 25.60189 34.67568 30.13878
# Shear Modulus (GPa) = 23.93347 26.98868 25.46107
#
# Velocity S-wave (km/s) = 3.41758 3.62917 3.52496
# Velocity P-wave (km/s) = 5.29786 5.87226 5.59244
#
# Compressibility (1/GPa) = 0.03905962
#
# Stress axis : x y z
#
# Youngs Moduli (GPa) = 48.46090 72.40326 61.37077
#
# Poissons Ratio (x) = 0.00437 0.08768
# Poissons Ratio (y) = 0.00293 0.26706
# Poissons Ratio (z) = 0.06924 0.31507
#
# Static dielectric constant tensor:
#      x y z
#    x 1.880440 0.000000 0.112020 
#    y 0.000000 1.758050 0.000000 
#    z 0.112020 0.000000 1.793160 
# 
# From -- ./inp_files/240667.got.cif
#   From: 2010.05.17/outbox.cif.g08.bks.cpg/sg12_121_cif.got.tgz:240667.got - 2010.06.03 13:09:07.
