data_PCOD9183028
_publ_section_title
;
Structure prediction by ZEFSAII (Michael W. Deem and Ramdas Pophale) SiO2 
 PCOD9183028
Probable space group: C 2/M
;
_chemical_formula_sum "Si O2"
_cell_formula_units_Z 48
_cell_length_a 30.566823
_cell_length_b 10.521379
_cell_length_c 7.071492
_cell_angle_alpha 90.000000
_cell_angle_beta 108.961924
_cell_angle_gamma 90.000000
_cell_volume 2150.816485
_symmetry_space_group_name_H-M "C 2/M"
_symmetry_group_IT_number 12
_symmetry_cell_setting 'monoclinic'
loop_
_space_group_symop_operation_xyz
x,y,z
-x,y,-z
-x,-y,-z
x,-y,z
1/2+x,1/2+y,z
1/2-x,1/2+y,-z
1/2-x,1/2-y,-z
1/2+x,1/2-y,z
loop_
_atom_site_type_symbol
_atom_site_label
_atom_site_fract_x
_atom_site_fract_y
_atom_site_fract_z
Si Si1 0.037810 0.646262 0.279842
Si Si2 0.600874 0.199257 0.709952
Si Si3 0.798048 0.353677 0.258115
Si Si4 0.377066 0.142915 0.836056
Si Si5 0.224589 0.648078 0.224096
Si Si6 0.528740 0.635482 0.734362
O O1 0.026723 0.500000 0.215714
O O2 0.059951 0.645051 0.521989
O O3 0.080046 0.702759 0.213847
O O4 0.994569 0.740725 0.205436
O O5 0.648481 0.189282 0.662732
O O6 0.581289 0.335634 0.746881
O O7 0.610214 0.135329 0.924611
O O8 0.793495 0.500000 0.316982
O O9 0.764554 0.251613 0.308324
O O10 0.784806 0.354386 0.016087
O O11 0.324494 0.190848 0.754563
O O12 0.375198 0.000000 0.755356
O O13 0.234751 0.500000 0.289715
O O14 0.500000 0.625277 0.500000
O O15 0.525251 0.500000 0.830209
#
# Coordination Sequence:
#
# PCOD9183028 Si02
#       6
#     8   8   8   8   8   8
#     4  10  20  34  55  78 100 132 172 211 252 298
#     4  10  19  33  54  75 101 135 170 208 252 300
#     4   9  16  27  47  73  98 126 164 207 246 289
#     4   9  18  33  52  77 105 132 168 212 251 294
#     4   8  15  29  47  68  99 133 162 199 248 296
#     4   9  20  37  54  75 106 137 166 208 257 303
#
# _framework density 22.317105999999999
#
# number of rings (size 3 to 8) (size 9 to 14) (size 15 to 20)
#    0.000    2.833    0.000    2.500    0.000    5.667 
#    0.000    7.500    0.000    0.000    0.000    0.000 
#    0.000    0.000    0.000    0.000    0.000    0.000 
#
# Total GULP energy -133841.197979 kJ/mol
# GULP energy per Si atom -5576.716582 kJ/mol
# Density = 2.226631 g / cm^3
# Si number density = 22.317106 Si / 1000 Ang^3
#
#
#
# Elastic Constant Matrix: (Units=GPa)
#
#
# Indices 1 2 3 4 5 6 
#
# 1 152.5424 103.3576 21.2597 0.0000 0.2603 0.0000
# 2 103.3576 150.5892 10.1663 0.0000 8.1666 0.0000
# 3 21.2597 10.1663 77.8856 0.0000 3.4028 0.0000
# 4 0.0000 0.0000 0.0000 6.9441 0.0000 2.3565
# 5 0.2603 8.1666 3.4028 0.0000 38.4476 0.0000
# 6 0.0000 0.0000 0.0000 2.3565 0.0000 20.3231
#
#
#
# Elastic Compliance Matrix: (Units=1/GPa)
#
#
# Indices 1 2 3 4 5 6 
#
# 1 0.012812 -0.008736 -0.002444 0.000000 0.001985 0.000000
# 2 -0.008736 0.012727 0.000842 0.000000 -0.002719 0.000000
# 3 -0.002444 0.000842 0.013456 0.000000 -0.001353 0.000000
# 4 0.000000 0.000000 0.000000 0.149905 0.000000 -0.017382
# 5 0.001985 -0.002719 -0.001353 0.000000 0.026693 0.000000
# 6 0.000000 0.000000 0.000000 -0.017382 0.000000 0.051220
#
#
# Mechanical properties :
#
#
# Convention : Reuss Voigt Hill
#
# Bulk Modulus (GPa) = 54.58655 72.28715 63.43685
# Shear Modulus (GPa) = 17.03016 29.55854 23.29435
#
# Velocity S-wave (km/s) = 2.76542 3.64329 3.23428
# Velocity P-wave (km/s) = 5.89146 7.08232 6.51416
#
# Compressibility (1/GPa) = 0.01831953
#
# Stress axis : x y z
#
# Youngs Moduli (GPa) = 78.05024 78.57017 74.31880
#
# Poissons Ratio (x) = 0.68642 0.18161
# Poissons Ratio (y) = 0.68188 -0.06259
# Poissons Ratio (z) = 0.19072 -0.06617
#
# Static dielectric constant tensor:
#      x y z
#    x 1.855450 0.000000 -0.026490 
#    y 0.000000 1.814920 0.000000 
#    z -0.026490 0.000000 1.892800 
# 
# From -- ./inp_files/102047.got.cif
#   From: 2010.05.17/outbox.cif.g08.bks.cpg/sg12_52_cif.got.tgz:102047.got - 2010.06.03 13:09:07.
