data_PCOD9183115
_publ_section_title
;
Structure prediction by ZEFSAII (Michael W. Deem and Ramdas Pophale) SiO2 
 PCOD9183115
Probable space group: C 2/M
;
_chemical_formula_sum "Si O2"
_cell_formula_units_Z 56
_cell_length_a 29.948766
_cell_length_b 13.222896
_cell_length_c 7.517331
_cell_angle_alpha 90.000000
_cell_angle_beta 62.484507
_cell_angle_gamma 90.000000
_cell_volume 2640.200805
_symmetry_space_group_name_H-M "C 2/M"
_symmetry_group_IT_number 12
_symmetry_cell_setting 'monoclinic'
loop_
_space_group_symop_operation_xyz
x,y,z
-x,y,-z
-x,-y,-z
x,-y,z
1/2+x,1/2+y,z
1/2-x,1/2+y,-z
1/2-x,1/2-y,-z
1/2+x,1/2-y,z
loop_
_atom_site_type_symbol
_atom_site_label
_atom_site_fract_x
_atom_site_fract_y
_atom_site_fract_z
Si Si1 0.555840 0.816666 0.677088
Si Si2 0.103330 0.890629 0.022513
Si Si3 0.703439 0.720332 0.264621
Si Si4 0.892083 0.886316 0.408272
Si Si5 0.131895 0.391505 0.253297
Si Si6 0.721859 0.615892 0.881105
Si Si7 0.559980 0.180178 0.094426
O O1 0.568789 0.699835 0.601892
O O2 0.592293 0.881931 0.487956
O O3 0.497753 0.843931 0.757139
O O4 0.566758 0.827594 0.868537
O O5 0.099099 0.894653 0.817682
O O6 0.162274 0.874772 0.954200
O O7 0.088008 0.000000 0.124015
O O8 0.070680 0.795230 0.137116
O O9 0.663639 0.660109 0.457789
O O10 0.669459 0.799076 0.213497
O O11 0.745166 0.795422 0.271324
O O12 0.727109 0.641610 0.081606
O O13 0.895636 0.000000 0.477807
O O14 0.157806 0.500000 0.213146
O O15 0.100344 0.382352 0.130636
O O16 0.735477 0.500000 0.811548
#
# Coordination Sequence:
#
# PCOD9183115 Si02
#       7
#     8   8   8   8   8   8   8
#     4   9  21  35  55  80 110 141 177 226 265 316
#     4   9  18  33  55  79 106 138 175 216 265 319
#     4  10  20  34  53  77 106 138 173 221 262 318
#     4   9  18  34  54  78 107 142 174 213 266 317
#     4  11  22  37  56  78 106 142 183 224 268 320
#     4  10  19  33  54  78 103 136 174 216 266 318
#     4  10  19  37  55  79 110 142 179 220 271 314
#
# _framework density 21.210508000000001
#
# number of rings (size 3 to 8) (size 9 to 14) (size 15 to 20)
#    0.000    2.286    1.429    1.286    0.000    2.857 
#    0.000    4.286    0.000    2.571    0.000    0.000 
#    0.000    0.000    0.000    0.000    0.000    0.000 
#
# Total GULP energy -156154.671719 kJ/mol
# GULP energy per Si atom -5576.952561 kJ/mol
# Density = 2.116223 g / cm^3
# Si number density = 21.210508 Si / 1000 Ang^3
#
#
#
# Elastic Constant Matrix: (Units=GPa)
#
#
# Indices 1 2 3 4 5 6 
#
# 1 47.9012 -9.3710 -6.3786 0.0000 1.3570 0.0000
# 2 -9.3710 80.3639 -4.5192 0.0000 11.5719 0.0000
# 3 -6.3786 -4.5192 41.5749 0.0000 -2.1710 0.0000
# 4 0.0000 0.0000 0.0000 14.9281 0.0000 2.0721
# 5 1.3570 11.5719 -2.1710 0.0000 19.4467 0.0000
# 6 0.0000 0.0000 0.0000 2.0721 0.0000 11.5731
#
#
#
# Elastic Compliance Matrix: (Units=1/GPa)
#
#
# Indices 1 2 3 4 5 6 
#
# 1 0.022068 0.003214 0.003576 0.000000 -0.003053 0.000000
# 2 0.003214 0.014124 0.001587 0.000000 -0.008452 0.000000
# 3 0.003576 0.001587 0.024857 0.000000 0.001581 0.000000
# 4 0.000000 0.000000 0.000000 0.068695 0.000000 -0.012300
# 5 -0.003053 -0.008452 0.001581 0.000000 0.056842 0.000000
# 6 0.000000 0.000000 0.000000 -0.012300 0.000000 0.088609
#
#
# Mechanical properties :
#
#
# Convention : Reuss Voigt Hill
#
# Bulk Modulus (GPa) = 12.85311 14.36693 13.61002
# Shear Modulus (GPa) = 17.58239 21.86350 19.72295
#
# Velocity S-wave (km/s) = 2.88227 3.21407 3.05268
# Velocity P-wave (km/s) = 4.14120 4.53452 4.34232
#
# Compressibility (1/GPa) = 0.07780221
#
# Stress axis : x y z
#
# Youngs Moduli (GPa) = 45.31510 70.79920 40.23068
#
# Poissons Ratio (x) = -0.22755 -0.14385
# Poissons Ratio (y) = -0.14564 -0.06385
# Poissons Ratio (z) = -0.16203 -0.11236
#
# Static dielectric constant tensor:
#      x y z
#    x 1.765210 0.000000 0.006850 
#    y 0.000000 1.812720 0.000000 
#    z 0.006850 0.000000 1.747200 
# 
# From -- ./inp_files/110359.got.cif
#   From: 2010.05.17/outbox.cif.g08.bks.cpg/sg12_56_cif.got.tgz:110359.got - 2010.06.03 13:09:07.
