data_PCOD9183852
_publ_section_title
;
Structure prediction by ZEFSAII (Michael W. Deem and Ramdas Pophale) SiO2 
 PCOD9183852
Probable space group: C 2/M
;
_chemical_formula_sum "Si O2"
_cell_formula_units_Z 40
_cell_length_a 20.167415
_cell_length_b 16.348072
_cell_length_c 6.881883
_cell_angle_alpha 90.000000
_cell_angle_beta 131.142082
_cell_angle_gamma 90.000000
_cell_volume 1708.698300
_symmetry_space_group_name_H-M "C 2/M"
_symmetry_group_IT_number 12
_symmetry_cell_setting 'monoclinic'
loop_
_space_group_symop_operation_xyz
x,y,z
-x,y,-z
-x,-y,-z
x,-y,z
1/2+x,1/2+y,z
1/2-x,1/2+y,-z
1/2-x,1/2-y,-z
1/2+x,1/2-y,z
loop_
_atom_site_type_symbol
_atom_site_label
_atom_site_fract_x
_atom_site_fract_y
_atom_site_fract_z
Si Si1 0.694447 0.864179 0.018627
Si Si2 0.143494 0.908116 0.410864
Si Si3 0.003302 0.587281 0.769900
Si Si4 0.264293 0.314168 0.750642
Si Si5 0.926126 0.254326 0.689999
O O1 0.767631 0.905994 0.293544
O O2 0.691618 0.767456 0.073462
O O3 0.602592 0.905164 0.891167
O O4 0.728211 0.865736 0.863371
O O5 0.171402 0.868311 0.257489
O O6 0.082654 0.838978 0.394243
O O7 0.109204 0.000000 0.329108
O O8 0.963833 0.500000 0.633925
O O9 0.957237 0.670995 0.616960
O O10 0.000000 0.587200 0.000000
O O11 0.175315 0.283489 0.465380
O O12 0.000000 0.250885 0.000000
#
# Coordination Sequence:
#
# PCOD9183852 Si02
#       5
#     8   8   8   8   8
#     4  10  21  39  61  86 115 153 204 253 299 352
#     4  11  22  37  60  87 119 160 202 245 289 345
#     4  10  19  33  56  82 112 148 185 237 297 347
#     4  10  21  38  62  85 114 158 199 247 304 351
#     4  10  20  37  58  84 121 156 192 237 293 358
#
# _framework density 23.409631999999998
#
# number of rings (size 3 to 8) (size 9 to 14) (size 15 to 20)
#    0.000    1.800    0.000    7.800    0.000    5.200 
#    0.000    3.000    0.000    0.000    0.000    9.800 
#    0.000    0.000    0.000    0.000    0.000    0.000 
#
# Total GULP energy -111646.712649 kJ/mol
# GULP energy per Si atom -5582.335632 kJ/mol
# Density = 2.335635 g / cm^3
# Si number density = 23.409632 Si / 1000 Ang^3
#
#
#
# Elastic Constant Matrix: (Units=GPa)
#
#
# Indices 1 2 3 4 5 6 
#
# 1 84.7238 38.9965 12.4975 0.0000 -19.5289 0.0000
# 2 38.9965 226.2228 19.9932 0.0000 17.3052 0.0000
# 3 12.4975 19.9932 43.9562 0.0000 5.7234 0.0000
# 4 0.0000 0.0000 0.0000 8.2673 0.0000 4.1263
# 5 -19.5289 17.3052 5.7234 0.0000 40.1851 0.0000
# 6 0.0000 0.0000 0.0000 4.1263 0.0000 -8.1958
#
#
#
# Elastic Compliance Matrix: (Units=1/GPa)
#
#
# Indices 1 2 3 4 5 6 
#
# 1 0.016181 -0.003150 -0.004451 0.000000 0.009854 0.000000
# 2 -0.003150 0.005338 -0.001053 0.000000 -0.003679 0.000000
# 3 -0.004451 -0.001053 0.025184 0.000000 -0.005296 0.000000
# 4 0.000000 0.000000 0.000000 0.096667 0.000000 0.048669
# 5 0.009854 -0.003679 -0.005296 0.000000 0.032012 0.000000
# 6 0.000000 0.000000 0.000000 0.048669 0.000000 -0.097510
#
#
# Mechanical properties :
#
#
# Convention : Reuss Voigt Hill
#
# Bulk Modulus (GPa) = 34.01943 55.31967 44.66955
# Shear Modulus (GPa) = 47.62908 26.94568 37.28738
#
# Velocity S-wave (km/s) = 4.51554 3.39639 3.99535
# Velocity P-wave (km/s) = 6.46147 6.25005 6.35664
#
# Compressibility (1/GPa) = 0.02939497
#
# Stress axis : x y z
#
# Youngs Moduli (GPa) = 61.80258 187.33944 39.70762
#
# Poissons Ratio (x) = 0.59005 0.17673
# Poissons Ratio (y) = 0.19465 0.04183
# Poissons Ratio (z) = 0.27507 0.19734
#
# Static dielectric constant tensor:
#      x y z
#    x 1.902260 0.000000 -0.017150 
#    y 0.000000 1.950740 0.000000 
#    z -0.017150 0.000000 1.935620 
# 
# From -- ./inp_files/96640.got.cif
#   From: 2010.05.17/outbox.cif.g08.bks.cpg/sg12_49_cif.got.tgz:96640.got - 2010.06.03 13:09:07.
