data_PCOD9183777
_publ_section_title
;
Structure prediction by ZEFSAII (Michael W. Deem and Ramdas Pophale) SiO2 
 PCOD9183777
Probable space group: C 2/M
;
_chemical_formula_sum "Si O2"
_cell_formula_units_Z 64
_cell_length_a 17.731269
_cell_length_b 19.582085
_cell_length_c 12.109194
_cell_angle_alpha 90.000000
_cell_angle_beta 52.563545
_cell_angle_gamma 90.000000
_cell_volume 3338.487929
_symmetry_space_group_name_H-M "C 2/M"
_symmetry_group_IT_number 12
_symmetry_cell_setting 'monoclinic'
loop_
_space_group_symop_operation_xyz
x,y,z
-x,y,-z
-x,-y,-z
x,-y,z
1/2+x,1/2+y,z
1/2-x,1/2+y,-z
1/2-x,1/2-y,-z
1/2+x,1/2-y,z
loop_
_atom_site_type_symbol
_atom_site_label
_atom_site_fract_x
_atom_site_fract_y
_atom_site_fract_z
Si Si1 0.219314 0.708614 0.855531
Si Si2 0.035671 0.078588 0.696018
Si Si3 0.112321 0.709661 0.170995
Si Si4 0.704288 0.075979 0.146657
Si Si5 0.551871 0.711223 0.565131
Si Si6 0.181598 0.077966 0.738982
Si Si7 0.182093 0.923597 0.183524
Si Si8 0.738795 0.783719 0.391177
O O1 0.301258 0.748877 0.849561
O O2 0.269493 0.635510 0.787410
O O3 0.198383 0.748360 0.760992
O O4 0.133849 0.704891 0.020493
O O5 0.086839 0.140614 0.587804
O O6 0.073746 0.084203 0.788567
O O7 0.924850 0.090136 0.765322
O O8 0.056186 0.000000 0.643443
O O9 0.125247 0.634570 0.212721
O O10 0.017443 0.749362 0.288653
O O11 0.788820 0.088671 0.159977
O O12 0.666294 0.000000 0.202054
O O13 0.753970 0.076641 0.983498
O O14 0.500000 0.690106 0.500000
O O15 0.631975 0.763748 0.456150
O O16 0.241255 0.136470 0.625968
O O17 0.209413 0.000000 0.687930
O O18 0.182833 0.000000 0.231635
O O19 0.750000 0.750000 0.500000
#
# Coordination Sequence:
#
# PCOD9183777 Si02
#       8
#     8   8   8   8   8   8   8   8
#     4  10  19  35  55  78 106 144 182 223 270 320
#     4  10  20  32  47  73 110 146 179 219 270 327
#     4  10  19  33  56  80 106 138 183 229 269 318
#     4   9  17  31  53  78 108 145 180 223 276 327
#     4  12  21  35  56  83 109 142 183 231 276 319
#     4  10  20  35  51  73 108 145 180 221 274 332
#     4   9  17  31  52  81 112 141 179 223 272 329
#     4  12  23  38  57  79 110 148 187 226 273 330
#
# _framework density 19.170355000000001
#
# number of rings (size 3 to 8) (size 9 to 14) (size 15 to 20)
#    0.000    1.750    5.000    0.000    0.000    0.750 
#    0.000    5.000    0.000    2.250    0.000    0.000 
#    0.000    5.000    0.000    0.000    0.000    0.000 
#
# Total GULP energy -178173.637657 kJ/mol
# GULP energy per Si atom -5567.926177 kJ/mol
# Density = 1.912672 g / cm^3
# Si number density = 19.170355 Si / 1000 Ang^3
#
#
#
# Elastic Constant Matrix: (Units=GPa)
#
#
# Indices 1 2 3 4 5 6 
#
# 1 32.6283 19.6503 13.2979 0.0000 13.6509 0.0000
# 2 19.6503 112.8561 23.1813 0.0000 -2.1322 0.0000
# 3 13.2979 23.1813 63.2615 0.0000 8.4324 0.0000
# 4 0.0000 0.0000 0.0000 17.2405 0.0000 0.4366
# 5 13.6509 -2.1322 8.4324 0.0000 19.8429 0.0000
# 6 0.0000 0.0000 0.0000 0.4366 0.0000 13.9676
#
#
#
# Elastic Compliance Matrix: (Units=1/GPa)
#
#
# Indices 1 2 3 4 5 6 
#
# 1 0.052316 -0.009197 -0.002860 0.000000 -0.035764 0.000000
# 2 -0.009197 0.011335 -0.003420 0.000000 0.008999 0.000000
# 3 -0.002860 -0.003420 0.018496 0.000000 -0.006260 0.000000
# 4 0.000000 0.000000 0.000000 0.058049 0.000000 -0.001815
# 5 -0.035764 0.008999 -0.006260 0.000000 0.078627 0.000000
# 6 0.000000 0.000000 0.000000 -0.001815 0.000000 0.071651
#
#
# Mechanical properties :
#
#
# Convention : Reuss Voigt Hill
#
# Bulk Modulus (GPa) = 19.53388 35.66723 27.60056
# Shear Modulus (GPa) = 14.77145 20.38462 17.57804
#
# Velocity S-wave (km/s) = 2.77886 3.26443 3.03138
# Velocity P-wave (km/s) = 4.52856 5.73188 5.16538
#
# Compressibility (1/GPa) = 0.05119310
#
# Stress axis : x y z
#
# Youngs Moduli (GPa) = 19.11476 88.22473 54.06573
#
# Poissons Ratio (x) = 0.81144 0.15461
# Poissons Ratio (y) = 0.17581 0.18488
# Poissons Ratio (z) = 0.05466 0.30169
#
# Static dielectric constant tensor:
#      x y z
#    x 1.735840 0.000000 0.028860 
#    y 0.000000 1.735950 0.000000 
#    z 0.028860 0.000000 1.692890 
# 
# From -- ./inp_files/168770.got.cif
#   From: 2010.05.17/outbox.cif.g08.bks.cpg/sg12_85_cif.got.tgz:168770.got - 2010.06.03 13:09:07.
