data_PCOD9183678
_publ_section_title
;
Structure prediction by ZEFSAII (Michael W. Deem and Ramdas Pophale) SiO2 
 PCOD9183678
Probable space group: C 2/M
;
_chemical_formula_sum "Si O2"
_cell_formula_units_Z 64
_cell_length_a 26.950016
_cell_length_b 21.413561
_cell_length_c 16.931763
_cell_angle_alpha 90.000000
_cell_angle_beta 159.670242
_cell_angle_gamma 90.000000
_cell_volume 3394.754091
_symmetry_space_group_name_H-M "C 2/M"
_symmetry_group_IT_number 12
_symmetry_cell_setting 'monoclinic'
loop_
_space_group_symop_operation_xyz
x,y,z
-x,y,-z
-x,-y,-z
x,-y,z
1/2+x,1/2+y,z
1/2-x,1/2+y,-z
1/2-x,1/2-y,-z
1/2+x,1/2-y,z
loop_
_atom_site_type_symbol
_atom_site_label
_atom_site_fract_x
_atom_site_fract_y
_atom_site_fract_z
Si Si1 0.764307 0.240606 0.232497
Si Si2 0.116082 0.148102 0.909165
Si Si3 0.642579 0.933150 0.662970
Si Si4 0.655505 0.428053 0.450186
Si Si5 0.629257 0.072332 0.371256
Si Si6 0.104324 0.369318 0.085345
Si Si7 0.942531 0.337766 0.597559
Si Si8 0.721296 0.312014 0.907013
O O1 0.668690 0.190011 0.135449
O O2 0.872277 0.274131 0.456208
O O3 0.668653 0.292391 0.041158
O O4 0.836041 0.204679 0.265286
O O5 0.970836 0.121070 0.726876
O O6 0.236808 0.096793 0.104186
O O7 0.118655 0.154652 0.817498
O O8 0.500000 0.938624 0.500000
O O9 0.603398 0.886951 0.536025
O O10 0.689110 0.000000 0.701476
O O11 0.608217 0.500000 0.389244
O O12 0.735136 0.423085 0.484692
O O13 0.772039 0.409619 0.689584
O O14 0.624830 0.130837 0.424998
O O15 0.624561 0.000000 0.395085
O O16 0.489199 0.085700 0.109538
O O17 0.000000 0.346902 0.000000
O O18 0.115500 0.337301 0.861097
O O19 0.750000 0.250000 0.000000
#
# Coordination Sequence:
#
# PCOD9183678 Si02
#       8
#     8   8   8   8   8   8   8   8
#     4  10  23  36  58  89 121 148 195 245 298 342
#     4  10  21  38  59  86 120 158 199 236 294 361
#     4  10  19  33  55  84 116 152 194 245 289 340
#     4  10  22  40  62  87 118 159 197 244 299 349
#     4  10  21  40  64  87 116 155 203 247 292 351
#     4  10  21  38  61  87 116 154 199 244 289 350
#     4  11  21  38  59  88 117 155 198 245 291 357
#     4  10  21  37  56  83 118 160 196 230 296 354
#
# _framework density 18.852618
#
# number of rings (size 3 to 8) (size 9 to 14) (size 15 to 20)
#    0.000    1.875    2.500    1.125    3.500    2.500 
#    0.000    4.375    0.000    7.500    0.000    0.000 
#    0.000    0.000    0.000    0.000    0.000    0.000 
#
# Total GULP energy -178167.396727 kJ/mol
# GULP energy per Si atom -5567.731148 kJ/mol
# Density = 1.880971 g / cm^3
# Si number density = 18.852618 Si / 1000 Ang^3
#
#
#
# Elastic Constant Matrix: (Units=GPa)
#
#
# Indices 1 2 3 4 5 6 
#
# 1 88.8855 32.0698 53.7945 0.0000 6.7261 0.0000
# 2 32.0698 74.4823 26.3889 0.0000 11.1093 0.0000
# 3 53.7945 26.3889 -35.1582 0.0000 -27.2697 0.0000
# 4 0.0000 0.0000 0.0000 21.3876 0.0000 15.9995
# 5 6.7261 11.1093 -27.2697 0.0000 12.1913 0.0000
# 6 0.0000 0.0000 0.0000 15.9995 0.0000 27.7623
#
#
#
# Elastic Compliance Matrix: (Units=1/GPa)
#
#
# Indices 1 2 3 4 5 6 
#
# 1 0.010908 -0.007452 0.003838 0.000000 0.009358 0.000000
# 2 -0.007452 0.016001 0.003191 0.000000 -0.003331 0.000000
# 3 0.003838 0.003191 -0.005952 0.000000 -0.018338 0.000000
# 4 0.000000 0.000000 0.000000 0.082190 0.000000 -0.047366
# 5 0.009358 -0.003331 -0.018338 0.000000 0.038880 0.000000
# 6 0.000000 0.000000 0.000000 -0.047366 0.000000 0.063318
#
#
# Mechanical properties :
#
#
# Convention : Reuss Voigt Hill
#
# Bulk Modulus (GPa) = 49.72243 39.19065 44.45654
# Shear Modulus (GPa) = 23.48578 13.33199 18.40889
#
# Velocity S-wave (km/s) = 3.53336 2.66215 3.12823
# Velocity P-wave (km/s) = 6.56336 5.50295 6.05641
#
# Compressibility (1/GPa) = 0.02011165
#
# Stress axis : x y z
#
# Youngs Moduli (GPa) = 91.67429 62.49596 -168.02459
#
# Poissons Ratio (x) = 0.46574 0.64491
# Poissons Ratio (y) = 0.68319 0.53619
# Poissons Ratio (z) = -0.35186 -0.19944
#
# Static dielectric constant tensor:
#      x y z
#    x 1.687160 0.000000 -0.004500 
#    y 0.000000 1.714480 0.000000 
#    z -0.004500 0.000000 1.682160 
# 
# From -- ./inp_files/294307.got.cif
#   From: 2010.05.17/outbox.cif.g08.bks.cpg/sg12_148_cif.got.tgz:294307.got - 2010.06.03 13:09:07.
