data_PCOD9183843
_publ_section_title
;
Structure prediction by ZEFSAII (Michael W. Deem and Ramdas Pophale) SiO2 
 PCOD9183843
Probable space group: C 2/M
;
_chemical_formula_sum "Si O2"
_cell_formula_units_Z 40
_cell_length_a 20.580442
_cell_length_b 7.482182
_cell_length_c 14.055903
_cell_angle_alpha 90.000000
_cell_angle_beta 129.125097
_cell_angle_gamma 90.000000
_cell_volume 1679.092969
_symmetry_space_group_name_H-M "C 2/M"
_symmetry_group_IT_number 12
_symmetry_cell_setting 'monoclinic'
loop_
_space_group_symop_operation_xyz
x,y,z
-x,y,-z
-x,-y,-z
x,-y,z
1/2+x,1/2+y,z
1/2-x,1/2+y,-z
1/2-x,1/2-y,-z
1/2+x,1/2-y,z
loop_
_atom_site_type_symbol
_atom_site_label
_atom_site_fract_x
_atom_site_fract_y
_atom_site_fract_z
Si Si1 0.158953 0.285901 0.459749
Si Si2 0.534589 0.783222 0.183062
Si Si3 0.403894 0.219498 0.397608
Si Si4 0.372808 0.216412 0.927928
Si Si5 0.794368 0.304984 0.137463
O O1 0.149584 0.500000 0.454217
O O2 0.250000 0.250000 0.500000
O O3 0.084764 0.219173 0.321514
O O4 0.147224 0.220526 0.556563
O O5 0.587815 0.738115 0.137676
O O6 0.531811 0.000000 0.184462
O O7 0.439669 0.727307 0.071121
O O8 0.500000 0.267030 0.500000
O O9 0.366772 0.289134 0.263912
O O10 0.399141 0.000000 0.390169
O O11 0.283365 0.302559 0.861249
O O12 0.363832 0.000000 0.923686
O O13 0.828360 0.500000 0.146159
O O14 0.750000 0.250000 0.000000
#
# Coordination Sequence:
#
# PCOD9183843 Si02
#       5
#     8   8   8   8   8
#     4  10  19  33  56  82 110 144 185 229 277 330
#     4   8  16  30  54  83 108 142 182 220 268 329
#     4   9  20  37  58  83 110 146 192 233 271 329
#     4   9  17  33  55  81 111 142 182 226 269 325
#     4  11  23  37  56  81 109 145 187 231 280 329
#
# _framework density 23.822384
#
# number of rings (size 3 to 8) (size 9 to 14) (size 15 to 20)
#    0.000    2.600    0.000    3.000    2.800    0.000 
#    0.000    4.000    0.000    3.000    0.000    0.000 
#    0.000    0.000    0.000    0.000    0.000    0.000 
#
# Total GULP energy -111691.402669 kJ/mol
# GULP energy per Si atom -5584.570133 kJ/mol
# Density = 2.376816 g / cm^3
# Si number density = 23.822384 Si / 1000 Ang^3
#
#
#
# Elastic Constant Matrix: (Units=GPa)
#
#
# Indices 1 2 3 4 5 6 
#
# 1 61.1053 -6.3958 35.7309 0.0000 -0.9856 0.0000
# 2 -6.3958 63.0957 12.8985 0.0000 -8.2363 0.0000
# 3 35.7309 12.8985 227.7874 0.0000 -13.1058 0.0000
# 4 0.0000 0.0000 0.0000 0.2216 0.0000 1.1872
# 5 -0.9856 -8.2363 -13.1058 0.0000 33.7742 0.0000
# 6 0.0000 0.0000 0.0000 1.1872 0.0000 17.6607
#
#
#
# Elastic Compliance Matrix: (Units=1/GPa)
#
#
# Indices 1 2 3 4 5 6 
#
# 1 0.018395 0.002479 -0.003028 0.000000 -0.000034 0.000000
# 2 0.002479 0.016818 -0.001126 0.000000 0.003737 0.000000
# 3 -0.003028 -0.001126 0.005020 0.000000 0.001585 0.000000
# 4 0.000000 0.000000 0.000000 7.050312 0.000000 -0.473937
# 5 -0.000034 0.003737 0.001585 0.000000 0.031134 0.000000
# 6 0.000000 0.000000 0.000000 -0.473937 0.000000 0.088482
#
#
# Mechanical properties :
#
#
# Convention : Reuss Voigt Hill
#
# Bulk Modulus (GPa) = 27.11260 48.49508 37.80384
# Shear Modulus (GPa) = 0.69196 30.98162 15.83679
#
# Velocity S-wave (km/s) = 0.53954 3.61019 2.58114
# Velocity P-wave (km/s) = 3.43424 6.14647 4.97861
#
# Compressibility (1/GPa) = 0.03688323
#
# Stress axis : x y z
#
# Youngs Moduli (GPa) = 54.36391 59.45924 199.20519
#
# Poissons Ratio (x) = -0.14741 0.60313
# Poissons Ratio (y) = -0.13478 0.22435
# Poissons Ratio (z) = 0.16460 0.06696
#
# Static dielectric constant tensor:
#      x y z
#    x 1.872100 0.000000 -0.025660 
#    y 0.000000 1.982290 0.000000 
#    z -0.025660 0.000000 1.929770 
# 
# From -- ./inp_files/229659.got.cif
#   From: 2010.05.17/outbox.cif.g08.bks.cpg/sg12_115_cif.got.tgz:229659.got - 2010.06.03 13:09:07.
