data_PCOD9183042
_publ_section_title
;
Structure prediction by ZEFSAII (Michael W. Deem and Ramdas Pophale) SiO2 
 PCOD9183042
Probable space group: C 2/M
;
_chemical_formula_sum "Si O2"
_cell_formula_units_Z 64
_cell_length_a 9.770681
_cell_length_b 15.559298
_cell_length_c 23.750580
_cell_angle_alpha 90.000000
_cell_angle_beta 121.238272
_cell_angle_gamma 90.000000
_cell_volume 3087.196916
_symmetry_space_group_name_H-M "C 2/M"
_symmetry_group_IT_number 12
_symmetry_cell_setting 'monoclinic'
loop_
_space_group_symop_operation_xyz
x,y,z
-x,y,-z
-x,-y,-z
x,-y,z
1/2+x,1/2+y,z
1/2-x,1/2+y,-z
1/2-x,1/2-y,-z
1/2+x,1/2-y,z
loop_
_atom_site_type_symbol
_atom_site_label
_atom_site_fract_x
_atom_site_fract_y
_atom_site_fract_z
Si Si1 0.855865 0.598944 0.932505
Si Si2 0.584105 0.329190 0.730923
Si Si3 0.159326 0.371473 0.772493
Si Si4 0.483239 0.902448 0.377641
Si Si5 0.295111 0.602823 0.601641
Si Si6 0.822569 0.102042 0.474548
Si Si7 0.929384 0.636077 0.819698
Si Si8 0.509113 0.337970 0.839909
O O1 0.835741 0.500000 0.945404
O O2 0.682631 0.642333 0.902229
O O3 0.907811 0.601669 0.878072
O O4 0.000000 0.637660 0.000000
O O5 0.620690 0.229781 0.752739
O O6 0.450979 0.347736 0.656928
O O7 0.522491 0.365296 0.777328
O O8 0.755402 0.369553 0.753589
O O9 0.104048 0.407780 0.700924
O O10 0.056972 0.401196 0.803816
O O11 0.346432 0.381577 0.826146
O O12 0.359545 0.864237 0.396656
O O13 0.661196 0.862761 0.410379
O O14 0.510758 0.000000 0.404374
O O15 0.314311 0.500000 0.618028
O O16 0.284523 0.611092 0.532559
O O17 0.000000 0.138604 0.500000
O O18 0.834392 0.000000 0.462020
O O19 0.976404 0.736341 0.836747
#
# Coordination Sequence:
#
# PCOD9183042 Si02
#       8
#     8   8   8   8   8   8   8   8
#     4  10  22  40  61  87 120 154 189 234 283 330
#     4   9  18  33  53  80 109 144 181 221 280 333
#     4  10  19  34  55  81 113 142 179 234 278 324
#     4  10  20  33  51  76 103 139 183 226 276 335
#     4  10  19  33  54  76 101 138 185 227 279 342
#     4   9  19  34  49  70 105 141 179 231 281 332
#     4   9  20  35  57  83 114 151 188 229 275 335
#     4   9  18  37  58  82 114 152 190 221 274 346
#
# _framework density 20.730779999999999
#
# number of rings (size 3 to 8) (size 9 to 14) (size 15 to 20)
#    0.000    2.500    1.250    1.125    1.750    5.000 
#    0.000    1.250    0.000    1.500    0.000    0.000 
#    0.000    0.000    0.000    0.000    0.000    0.000 
#
# Total GULP energy -178392.679878 kJ/mol
# GULP energy per Si atom -5574.771246 kJ/mol
# Density = 2.068360 g / cm^3
# Si number density = 20.730780 Si / 1000 Ang^3
#
#
#
# Elastic Constant Matrix: (Units=GPa)
#
#
# Indices 1 2 3 4 5 6 
#
# 1 148.8108 23.6272 40.3938 0.0000 33.3925 0.0000
# 2 23.6272 19.4125 12.9494 0.0000 11.4314 0.0000
# 3 40.3938 12.9494 94.1386 0.0000 36.7608 0.0000
# 4 0.0000 0.0000 0.0000 21.9322 0.0000 2.3871
# 5 33.3925 11.4314 36.7608 0.0000 34.8260 0.0000
# 6 0.0000 0.0000 0.0000 2.3871 0.0000 12.4662
#
#
#
# Elastic Compliance Matrix: (Units=1/GPa)
#
#
# Indices 1 2 3 4 5 6 
#
# 1 0.009417 -0.007574 -0.000755 0.000000 -0.005746 0.000000
# 2 -0.007574 0.070005 -0.000413 0.000000 -0.015281 0.000000
# 3 -0.000755 -0.000413 0.018148 0.000000 -0.018297 0.000000
# 4 0.000000 0.000000 0.000000 0.046565 0.000000 -0.008917
# 5 -0.005746 -0.015281 -0.018297 0.000000 0.058554 0.000000
# 6 0.000000 0.000000 0.000000 -0.008917 0.000000 0.081924
#
#
# Mechanical properties :
#
#
# Convention : Reuss Voigt Hill
#
# Bulk Modulus (GPa) = 12.48632 46.25584 29.37108
# Shear Modulus (GPa) = 15.20714 26.20432 20.70573
#
# Velocity S-wave (km/s) = 2.71136 3.55918 3.16380
# Velocity P-wave (km/s) = 3.97971 6.26509 5.24831
#
# Compressibility (1/GPa) = 0.08008762
#
# Stress axis : x y z
#
# Youngs Moduli (GPa) = 106.19275 14.28466 55.10134
#
# Poissons Ratio (x) = 0.10819 0.04160
# Poissons Ratio (y) = 0.80430 0.02273
# Poissons Ratio (z) = 0.08017 0.00589
#
# Static dielectric constant tensor:
#      x y z
#    x 1.766190 0.000000 0.037680 
#    y 0.000000 1.808400 0.000000 
#    z 0.037680 0.000000 1.724190 
# 
# From -- ./inp_files/333764.got.cif
#   From: 2010.05.17/outbox.cif.g08.bks.cpg/sg12_167_cif.got.tgz:333764.got - 2010.06.03 13:09:07.
