data_PCOD9183243
_publ_section_title
;
Structure prediction by ZEFSAII (Michael W. Deem and Ramdas Pophale) SiO2 
 PCOD9183243
Probable space group: C 2/M
;
_chemical_formula_sum "Si O2"
_cell_formula_units_Z 64
_cell_length_a 23.994681
_cell_length_b 7.452880
_cell_length_c 15.146258
_cell_angle_alpha 90.000000
_cell_angle_beta 64.837681
_cell_angle_gamma 90.000000
_cell_volume 2451.570137
_symmetry_space_group_name_H-M "C 2/M"
_symmetry_group_IT_number 12
_symmetry_cell_setting 'monoclinic'
loop_
_space_group_symop_operation_xyz
x,y,z
-x,y,-z
-x,-y,-z
x,-y,z
1/2+x,1/2+y,z
1/2-x,1/2+y,-z
1/2-x,1/2-y,-z
1/2+x,1/2-y,z
loop_
_atom_site_type_symbol
_atom_site_label
_atom_site_fract_x
_atom_site_fract_y
_atom_site_fract_z
Si Si1 0.352231 0.290689 0.021011
Si Si2 0.138280 0.214387 0.479527
Si Si3 0.898206 0.784351 0.310248
Si Si4 0.948974 0.780656 0.606232
Si Si5 0.089115 0.204757 0.186654
Si Si6 0.723984 0.780650 0.167109
Si Si7 0.766246 0.213335 0.332171
Si Si8 0.554203 0.211450 0.902254
O O1 0.347029 0.500000 0.001763
O O2 0.283061 0.219644 0.069807
O O3 0.382691 0.281248 0.096815
O O4 0.399238 0.210325 0.917242
O O5 0.099916 0.279903 0.590019
O O6 0.112400 0.281122 0.403636
O O7 0.210300 0.252750 0.436961
O O8 0.130731 0.000000 0.482165
O O9 0.832129 0.716210 0.318562
O O10 0.947589 0.744201 0.201056
O O11 0.896545 0.000000 0.316434
O O12 0.949988 0.715039 0.706137
O O13 0.000000 0.731804 0.500000
O O14 0.950249 0.000000 0.612219
O O15 0.159049 0.206398 0.178582
O O16 0.066934 0.000000 0.189301
O O17 0.742439 0.720982 0.253382
O O18 0.720532 0.000000 0.167142
O O19 0.773651 0.000000 0.318966
O O20 0.555340 0.000000 0.913786
O O21 0.500000 0.288261 0.000000
#
# Coordination Sequence:
#
# PCOD9183243 Si02
#       8
#     8   8   8   8   8   8   8   8
#     4  10  21  38  59  84 112 146 188 231 277 336
#     4  10  20  34  57  85 111 145 187 229 279 332
#     4  10  21  38  59  84 112 146 188 231 277 336
#     4   9  18  33  51  76 110 141 178 229 272 315
#     4  10  20  34  57  85 111 145 187 229 279 332
#     4  10  19  33  54  80 115 150 180 224 282 335
#     4  10  19  33  54  80 115 150 180 224 282 335
#     4  11  25  42  59  82 112 147 188 237 288 333
#
# _framework density 26.105719000000001
#
# number of rings (size 3 to 8) (size 9 to 14) (size 15 to 20)
#    0.000    2.000    2.500    1.125    0.000    4.000 
#    0.000    2.500    0.000    1.500    0.000    0.000 
#    0.000    0.000    0.000    0.000    0.000    0.000 
#
# Total GULP energy -178920.903009 kJ/mol
# GULP energy per Si atom -5591.278219 kJ/mol
# Density = 2.604630 g / cm^3
# Si number density = 26.105719 Si / 1000 Ang^3
#
#
#
# Elastic Constant Matrix: (Units=GPa)
#
#
# Indices 1 2 3 4 5 6 
#
# 1 47.2423 -6.5271 11.0708 0.0000 -4.7117 0.0000
# 2 -6.5271 87.4668 -0.3723 -0.0001 2.7820 -0.0001
# 3 11.0708 -0.3723 191.6174 0.0000 -5.8404 0.0000
# 4 0.0000 -0.0001 0.0000 8.2187 0.0000 -3.6305
# 5 -4.7117 2.7820 -5.8404 0.0000 48.6207 0.0000
# 6 0.0000 -0.0001 0.0000 -3.6305 0.0000 8.6986
#
#
#
# Elastic Compliance Matrix: (Units=1/GPa)
#
#
# Indices 1 2 3 4 5 6 
#
# 1 0.021853 0.001566 -0.001202 0.000000 0.001884 0.000000
# 2 0.001566 0.011566 -0.000084 0.000000 -0.000520 0.000000
# 3 -0.001202 -0.000084 0.005304 0.000000 0.000525 0.000000
# 4 0.000000 0.000000 0.000000 0.149177 0.000000 0.062261
# 5 0.001884 -0.000520 0.000525 0.000000 0.020843 0.000000
# 6 0.000000 0.000000 0.000000 0.062261 0.000000 0.140947
#
#
# Mechanical properties :
#
#
# Convention : Reuss Voigt Hill
#
# Bulk Modulus (GPa) = 25.45638 37.18549 31.32094
# Shear Modulus (GPa) = 13.80359 34.58460 24.19410
#
# Velocity S-wave (km/s) = 2.30197 3.64372 3.04760
# Velocity P-wave (km/s) = 4.10339 5.65485 4.94040
#
# Compressibility (1/GPa) = 0.03928288
#
# Stress axis : x y z
#
# Youngs Moduli (GPa) = 45.75954 86.46082 188.53563
#
# Poissons Ratio (x) = -0.13538 0.22664
# Poissons Ratio (y) = -0.07165 0.01581
# Poissons Ratio (z) = 0.05501 0.00725
#
# Static dielectric constant tensor:
#      x y z
#    x 2.046750 0.000000 -0.027930 
#    y 0.000000 1.986710 0.000000 
#    z -0.027930 0.000000 2.103140 
# 
# From -- ./inp_files/249091.got.cif
#   From: 2010.05.17/outbox.cif.g08.bks.cpg/sg12_125_cif.got.tgz:249091.got - 2010.06.03 13:09:07.
