data_PCOD9183892
_publ_section_title
;
Structure prediction by ZEFSAII (Michael W. Deem and Ramdas Pophale) SiO2 
 PCOD9183892
Probable space group: C 2/M
;
_chemical_formula_sum "Si O2"
_cell_formula_units_Z 64
_cell_length_a 16.711796
_cell_length_b 33.125092
_cell_length_c 8.443262
_cell_angle_alpha 90.000000
_cell_angle_beta 136.262229
_cell_angle_gamma 90.000000
_cell_volume 3231.424537
_symmetry_space_group_name_H-M "C 2/M"
_symmetry_group_IT_number 12
_symmetry_cell_setting 'monoclinic'
loop_
_space_group_symop_operation_xyz
x,y,z
-x,y,-z
-x,-y,-z
x,-y,z
1/2+x,1/2+y,z
1/2-x,1/2+y,-z
1/2-x,1/2-y,-z
1/2+x,1/2-y,z
loop_
_atom_site_type_symbol
_atom_site_label
_atom_site_fract_x
_atom_site_fract_y
_atom_site_fract_z
Si Si1 0.911907 0.776117 0.023767
Si Si2 0.220843 0.705264 0.528003
Si Si3 0.193443 0.877448 0.502402
Si Si4 0.963086 0.302360 0.268222
Si Si5 0.710917 0.877182 0.999725
Si Si6 0.169119 0.454544 0.369331
Si Si7 0.914141 0.455314 0.118974
Si Si8 0.542317 0.355708 0.740640
O O1 0.896220 0.734013 0.088712
O O2 0.964047 0.809402 0.214232
O O3 0.788555 0.792413 0.789997
O O4 0.000000 0.772520 0.000000
O O5 0.250000 0.750000 0.500000
O O6 0.273014 0.666743 0.513431
O O7 0.085194 0.696477 0.349578
O O8 0.242697 0.877837 0.752501
O O9 0.249641 0.915729 0.495325
O O10 0.054465 0.879951 0.301405
O O11 0.000000 0.292937 0.500000
O O12 0.884663 0.342136 0.152000
O O13 0.825757 0.870205 0.060672
O O14 0.649380 0.919708 0.881210
O O15 0.215202 0.500000 0.467354
O O16 0.051560 0.448980 0.300818
O O17 0.130758 0.454767 0.128338
O O18 0.891364 0.500000 0.150840
O O19 0.500000 0.358362 0.500000
#
# Coordination Sequence:
#
# PCOD9183892 Si02
#       8
#     8   8   8   8   8   8   8   8
#     4  12  23  40  59  79 109 151 186 231 283 330
#     4  12  23  37  57  84 109 140 192 232 276 338
#     4  10  19  33  56  83 112 149 191 237 276 333
#     4  12  26  40  57  84 114 145 188 239 283 333
#     4  10  21  35  56  81 115 152 186 233 289 329
#     4   8  14  26  48  80 115 146 182 230 284 333
#     4   8  14  28  50  79 112 148 184 225 282 339
#     4  10  21  38  56  80 112 151 193 228 281 339
#
# _framework density 19.805506000000001
#
# number of rings (size 3 to 8) (size 9 to 14) (size 15 to 20)
#    0.000    1.750    2.500    3.375    0.000    5.000 
#    0.000    0.625    0.000    4.125    0.000    4.375 
#    0.000    0.000    0.000    0.000    0.000    0.125 
#
# Total GULP energy -178573.993634 kJ/mol
# GULP energy per Si atom -5580.437301 kJ/mol
# Density = 1.976043 g / cm^3
# Si number density = 19.805506 Si / 1000 Ang^3
#
#
#
# Elastic Constant Matrix: (Units=GPa)
#
#
# Indices 1 2 3 4 5 6 
#
# 1 85.1901 78.6311 23.5395 0.0000 31.8538 0.0000
# 2 78.6311 181.4685 33.7908 0.0000 31.4739 0.0000
# 3 23.5395 33.7908 43.8498 0.0000 26.3219 0.0000
# 4 0.0000 0.0000 0.0000 21.9783 0.0000 7.0000
# 5 31.8538 31.4739 26.3219 0.0000 26.4742 0.0000
# 6 0.0000 0.0000 0.0000 7.0000 0.0000 20.4391
#
#
#
# Elastic Compliance Matrix: (Units=1/GPa)
#
#
# Indices 1 2 3 4 5 6 
#
# 1 0.032362 -0.009439 0.016217 0.000000 -0.043841 0.000000
# 2 -0.009439 0.009712 -0.005713 0.000000 0.005491 0.000000
# 3 0.016217 -0.005713 0.064829 0.000000 -0.077177 0.000000
# 4 0.000000 0.000000 0.000000 0.051070 0.000000 -0.017490
# 5 -0.043841 0.005491 -0.077177 0.000000 0.160727 0.000000
# 6 0.000000 0.000000 0.000000 -0.017490 0.000000 0.054916
#
#
# Mechanical properties :
#
#
# Convention : Reuss Voigt Hill
#
# Bulk Modulus (GPa) = 9.17143 64.71455 36.94299
# Shear Modulus (GPa) = 12.26003 25.41479 18.83741
#
# Velocity S-wave (km/s) = 2.49071 3.58609 3.08737
# Velocity P-wave (km/s) = 3.59337 7.06348 5.60379
#
# Compressibility (1/GPa) = 0.10903422
#
# Stress axis : x y z
#
# Youngs Moduli (GPa) = 30.90041 102.96653 15.42519
#
# Poissons Ratio (x) = 0.97186 -0.25016
# Poissons Ratio (y) = 0.29166 0.08813
# Poissons Ratio (z) = -0.50113 0.58827
#
# Static dielectric constant tensor:
#      x y z
#    x 1.736520 0.000000 -0.000800 
#    y 0.000000 1.681940 0.000000 
#    z -0.000800 0.000000 1.725910 
# 
# From -- ./inp_files/80750.got.cif
#   From: 2010.05.17/outbox.cif.g08.bks.cpg/sg12_41_cif.got.tgz:80750.got - 2010.06.03 13:09:07.
