data_PCOD9183630
_publ_section_title
;
Structure prediction by ZEFSAII (Michael W. Deem and Ramdas Pophale) SiO2 
 PCOD9183630
Probable space group: C 2/M
;
_chemical_formula_sum "Si O2"
_cell_formula_units_Z 56
_cell_length_a 27.430497
_cell_length_b 13.734926
_cell_length_c 13.194144
_cell_angle_alpha 90.000000
_cell_angle_beta 149.473706
_cell_angle_gamma 90.000000
_cell_volume 2524.923765
_symmetry_space_group_name_H-M "C 2/M"
_symmetry_group_IT_number 12
_symmetry_cell_setting 'monoclinic'
loop_
_space_group_symop_operation_xyz
x,y,z
-x,y,-z
-x,-y,-z
x,-y,z
1/2+x,1/2+y,z
1/2-x,1/2+y,-z
1/2-x,1/2-y,-z
1/2+x,1/2-y,z
loop_
_atom_site_type_symbol
_atom_site_label
_atom_site_fract_x
_atom_site_fract_y
_atom_site_fract_z
Si Si1 0.804897 0.385146 0.601116
Si Si2 0.728552 0.103041 0.127977
Si Si3 0.889071 0.195942 0.832145
Si Si4 0.809397 0.830872 0.902715
Si Si5 0.889964 0.388989 0.530918
Si Si6 0.948336 0.351859 0.315055
Si Si7 0.396247 0.641785 0.274458
O O1 0.814127 0.500000 0.639284
O O2 0.857255 0.310026 0.769810
O O3 0.692665 0.356013 0.384527
O O4 0.857538 0.365564 0.586959
O O5 0.716260 0.214308 0.145468
O O6 0.818662 0.106548 0.214681
O O7 0.734860 0.000000 0.200470
O O8 0.634852 0.095974 0.891487
O O9 0.871716 0.154333 0.913331
O O10 0.000000 0.185138 0.000000
O O11 0.706991 0.882018 0.707119
O O12 0.862808 0.871217 0.098091
O O13 0.926487 0.500000 0.594583
O O14 0.972539 0.324257 0.628440
O O15 0.901202 0.258810 0.284139
O O16 0.000000 0.403039 0.500000
O O17 0.500000 0.608509 0.500000
#
# Coordination Sequence:
#
# PCOD9183630 Si02
#       7
#     8   8   8   8   8   8   8
#     4   9  21  41  62  91 130 165 209 267 318 374
#     4  11  23  37  55  84 120 156 201 246 297 366
#     4  10  22  39  64  96 126 170 215 257 319 383
#     4  10  21  39  61  86 123 158 203 251 306 362
#     4  10  20  36  62  89 116 155 203 254 310 367
#     4  10  19  33  55  83 111 143 191 247 308 355
#     4  10  21  38  57  80 114 162 201 244 300 353
#
# _framework density 22.178887
#
# number of rings (size 3 to 8) (size 9 to 14) (size 15 to 20)
#    0.000    2.000    0.000    4.714    4.000    4.286 
#    2.571    0.000    0.000    0.000    0.000    0.000 
#    0.000    0.000    0.000    0.000    0.000    0.000 
#
# Total GULP energy -156112.958209 kJ/mol
# GULP energy per Si atom -5575.462793 kJ/mol
# Density = 2.212841 g / cm^3
# Si number density = 22.178887 Si / 1000 Ang^3
#
#
#
# Elastic Constant Matrix: (Units=GPa)
#
#
# Indices 1 2 3 4 5 6 
#
# 1 80.3050 -6.3009 56.1136 0.0000 20.3758 0.0000
# 2 -6.3009 85.1545 -19.3282 0.0000 10.7637 0.0000
# 3 56.1136 -19.3282 99.2377 0.0000 27.9431 0.0000
# 4 0.0000 0.0000 0.0000 -13.5679 0.0000 4.8723
# 5 20.3758 10.7637 27.9431 0.0000 40.6189 0.0000
# 6 0.0000 0.0000 0.0000 4.8723 0.0000 24.4634
#
#
#
# Elastic Compliance Matrix: (Units=1/GPa)
#
#
# Indices 1 2 3 4 5 6 
#
# 1 0.020894 -0.000673 -0.011218 0.000000 -0.002586 0.000000
# 2 -0.000673 0.013651 0.004915 0.000000 -0.006661 0.000000
# 3 -0.011218 0.004915 0.020041 0.000000 -0.009463 0.000000
# 4 0.000000 0.000000 0.000000 -0.068784 0.000000 0.013700
# 5 -0.002586 -0.006661 -0.009463 0.000000 0.034191 0.000000
# 6 0.000000 0.000000 0.000000 0.013700 0.000000 0.038149
#
#
# Mechanical properties :
#
#
# Convention : Reuss Voigt Hill
#
# Bulk Modulus (GPa) = 24.60915 36.18513 30.39714
# Shear Modulus (GPa) = 58.38450 25.91706 42.15078
#
# Velocity S-wave (km/s) = 5.13629 3.42211 4.36419
# Velocity P-wave (km/s) = 6.80406 5.65376 6.25540
#
# Compressibility (1/GPa) = 0.04063529
#
# Stress axis : x y z
#
# Youngs Moduli (GPa) = 47.86032 73.25410 49.89653
#
# Poissons Ratio (x) = 0.04932 0.55972
# Poissons Ratio (y) = 0.03222 -0.24524
# Poissons Ratio (z) = 0.53687 -0.36005
#
# Static dielectric constant tensor:
#      x y z
#    x 1.818180 0.000000 -0.002470 
#    y 0.000000 1.829120 0.000000 
#    z -0.002470 0.000000 1.812730 
# 
# From -- ./inp_files/246620.got.cif
#   From: 2010.05.17/outbox.cif.g08.bks.cpg/sg12_124_cif.got.tgz:246620.got - 2010.06.03 13:09:07.
