data_PCOD9183530
_publ_section_title
;
Structure prediction by ZEFSAII (Michael W. Deem and Ramdas Pophale) SiO2 
 PCOD9183530
Probable space group: C 2/M
;
_chemical_formula_sum "Si O2"
_cell_formula_units_Z 64
_cell_length_a 20.770248
_cell_length_b 7.903612
_cell_length_c 24.093714
_cell_angle_alpha 90.000000
_cell_angle_beta 135.889046
_cell_angle_gamma 90.000000
_cell_volume 2753.033722
_symmetry_space_group_name_H-M "C 2/M"
_symmetry_group_IT_number 12
_symmetry_cell_setting 'monoclinic'
loop_
_space_group_symop_operation_xyz
x,y,z
-x,y,-z
-x,-y,-z
x,-y,z
1/2+x,1/2+y,z
1/2-x,1/2+y,-z
1/2-x,1/2-y,-z
1/2+x,1/2-y,z
loop_
_atom_site_type_symbol
_atom_site_label
_atom_site_fract_x
_atom_site_fract_y
_atom_site_fract_z
Si Si1 0.516731 0.804460 0.342055
Si Si2 0.766675 0.204727 0.677944
Si Si3 0.542082 0.701408 0.147359
Si Si4 0.174789 0.200225 0.729201
Si Si5 0.431025 0.201689 0.182089
Si Si6 0.131783 0.703781 0.092909
Si Si7 0.229895 0.305023 0.049885
Si Si8 0.312754 0.203553 0.487070
O O1 0.413832 0.793418 0.302097
O O2 0.507858 0.733348 0.273810
O O3 0.587058 0.730548 0.430763
O O4 0.544622 0.000000 0.352222
O O5 0.865077 0.266836 0.763312
O O6 0.689197 0.259834 0.673700
O O7 0.735681 0.268538 0.598658
O O8 0.772605 0.000000 0.681079
O O9 0.540271 0.500000 0.148367
O O10 0.459957 0.763630 0.136514
O O11 0.553119 0.748125 0.089015
O O12 0.272047 0.252539 0.817037
O O13 0.163559 0.000000 0.731302
O O14 0.333339 0.283383 0.138387
O O15 0.421024 0.000000 0.182085
O O16 0.126362 0.500000 0.086100
O O17 0.153496 0.773370 0.044208
O O18 0.205626 0.500000 0.031361
O O19 0.250000 0.250000 0.000000
O O20 0.250000 0.250000 0.500000
O O21 0.318262 0.000000 0.482942
#
# Coordination Sequence:
#
# PCOD9183530 Si02
#       8
#     8   8   8   8   8   8   8   8
#     4  10  21  35  54  79 109 147 190 235 284 338
#     4   9  19  35  53  76 110 150 190 234 289 343
#     4  10  20  34  58  87 115 152 196 241 285 336
#     4  10  19  33  55  81 107 142 187 235 283 333
#     4  11  22  37  59  87 118 152 193 238 285 340
#     4   9  19  37  59  84 116 151 187 230 281 338
#     4  11  23  41  64  91 121 151 186 230 283 342
#     4  10  21  36  52  73 105 146 189 236 289 340
#
# _framework density 23.24708
#
# number of rings (size 3 to 8) (size 9 to 14) (size 15 to 20)
#    0.000    2.000    1.250    2.250    0.000    4.000 
#    0.000    3.125    0.000    3.750    0.000    0.000 
#    0.000    0.000    0.000    0.000    0.000    0.000 
#
# Total GULP energy -178628.919417 kJ/mol
# GULP energy per Si atom -5582.153732 kJ/mol
# Density = 2.319417 g / cm^3
# Si number density = 23.247080 Si / 1000 Ang^3
#
#
#
# Elastic Constant Matrix: (Units=GPa)
#
#
# Indices 1 2 3 4 5 6 
#
# 1 147.8262 -3.0239 46.9349 0.0000 -24.6299 0.0000
# 2 -3.0239 23.3572 4.9444 0.0000 -7.8234 0.0000
# 3 46.9349 4.9444 107.5841 0.0000 -29.6843 0.0000
# 4 0.0000 0.0000 0.0000 14.5475 0.0000 -3.8583
# 5 -24.6299 -7.8234 -29.6843 0.0000 47.2735 0.0000
# 6 0.0000 0.0000 0.0000 -3.8583 0.0000 28.2717
#
#
#
# Elastic Compliance Matrix: (Units=1/GPa)
#
#
# Indices 1 2 3 4 5 6 
#
# 1 0.008226 0.002651 -0.002911 0.000000 0.002896 0.000000
# 2 0.002651 0.046180 -0.000955 0.000000 0.008424 0.000000
# 3 -0.002911 -0.000955 0.012273 0.000000 0.006032 0.000000
# 4 0.000000 0.000000 0.000000 0.071322 0.000000 0.009734
# 5 0.002896 0.008424 0.006032 0.000000 0.027844 0.000000
# 6 0.000000 0.000000 0.000000 0.009734 0.000000 0.036699
#
#
# Mechanical properties :
#
#
# Convention : Reuss Voigt Hill
#
# Bulk Modulus (GPa) = 15.56409 41.83094 28.69752
# Shear Modulus (GPa) = 22.08568 33.34602 27.71585
#
# Velocity S-wave (km/s) = 3.08562 3.79148 3.45661
# Velocity P-wave (km/s) = 4.40503 6.09920 5.31999
#
# Compressibility (1/GPa) = 0.06425047
#
# Stress axis : x y z
#
# Youngs Moduli (GPa) = 121.56772 21.65422 81.47739
#
# Poissons Ratio (x) = -0.05741 0.23721
# Poissons Ratio (y) = -0.32232 0.07778
# Poissons Ratio (z) = 0.35392 0.02067
#
# Static dielectric constant tensor:
#      x y z
#    x 1.925260 0.000000 0.003060 
#    y 0.000000 1.825580 0.000000 
#    z 0.003060 0.000000 1.989270 
# 
# From -- ./inp_files/320166.got.cif
#   From: 2010.05.17/outbox.cif.g08.bks.cpg/sg12_161_cif.got.tgz:320166.got - 2010.06.03 13:09:07.
