data_PCOD9183539
_publ_section_title
;
Structure prediction by ZEFSAII (Michael W. Deem and Ramdas Pophale) SiO2 
 PCOD9183539
Probable space group: C 2/M
;
_chemical_formula_sum "Si O2"
_cell_formula_units_Z 64
_cell_length_a 29.902671
_cell_length_b 7.494601
_cell_length_c 15.637839
_cell_angle_alpha 90.000000
_cell_angle_beta 126.196425
_cell_angle_gamma 90.000000
_cell_volume 2828.181285
_symmetry_space_group_name_H-M "C 2/M"
_symmetry_group_IT_number 12
_symmetry_cell_setting 'monoclinic'
loop_
_space_group_symop_operation_xyz
x,y,z
-x,y,-z
-x,-y,-z
x,-y,z
1/2+x,1/2+y,z
1/2-x,1/2+y,-z
1/2-x,1/2-y,-z
1/2+x,1/2-y,z
loop_
_atom_site_type_symbol
_atom_site_label
_atom_site_fract_x
_atom_site_fract_y
_atom_site_fract_z
Si Si1 0.627957 0.707542 0.001366
Si Si2 0.006926 0.218390 0.909676
Si Si3 0.812321 0.786810 0.600368
Si Si4 0.049073 0.710546 0.495140
Si Si5 0.669662 0.218463 0.685021
Si Si6 0.312203 0.211432 0.100556
Si Si7 0.427848 0.284553 0.667720
Si Si8 0.211622 0.218416 0.239619
O O1 0.623727 0.500000 0.020707
O O2 0.675597 0.780382 0.117932
O O3 0.567074 0.781953 0.946653
O O4 0.647075 0.717525 0.925636
O O5 0.960354 0.274825 0.789400
O O6 0.005186 0.000000 0.906910
O O7 0.000000 0.273397 0.000000
O O8 0.750000 0.750000 0.500000
O O9 0.863927 0.719721 0.602273
O O10 0.815649 0.724254 0.702342
O O11 0.818035 0.000000 0.608376
O O12 0.051842 0.500000 0.517550
O O13 0.110496 0.782922 0.584707
O O14 0.041846 0.730065 0.385375
O O15 0.000000 0.783740 0.500000
O O16 0.677540 0.276212 0.792117
O O17 0.724450 0.276151 0.695762
O O18 0.669807 0.000000 0.682954
O O19 0.319394 0.000000 0.110835
O O20 0.250000 0.250000 0.000000
O O21 0.427643 0.500000 0.666797
O O22 0.212785 0.000000 0.240116
#
# Coordination Sequence:
#
# PCOD9183539 Si02
#       8
#     8   8   8   8   8   8   8   8
#     4  10  19  33  55  81 108 142 186 225 270 330
#     4   9  18  34  58  86 115 149 189 227 270 336
#     4  10  20  34  56  81 108 141 179 223 274 327
#     4  10  22  39  59  80 105 149 201 234 269 332
#     4   9  18  33  53  76 105 140 184 229 268 322
#     4  11  21  35  55  81 113 144 181 229 281 333
#     4  10  21  37  56  85 118 145 181 235 289 327
#     4   9  16  30  53  77 102 137 177 217 264 324
#
# _framework density 22.629384000000002
#
# number of rings (size 3 to 8) (size 9 to 14) (size 15 to 20)
#    0.000    2.250    1.250    1.875    1.750    4.750 
#    0.000    1.875    0.000    3.000    0.000    0.000 
#    0.000    0.000    0.000    0.000    0.000    0.000 
#
# Total GULP energy -178776.855501 kJ/mol
# GULP energy per Si atom -5586.776734 kJ/mol
# Density = 2.257788 g / cm^3
# Si number density = 22.629384 Si / 1000 Ang^3
#
#
#
# Elastic Constant Matrix: (Units=GPa)
#
#
# Indices 1 2 3 4 5 6 
#
# 1 175.3011 -2.4189 42.1400 0.0000 -1.9686 0.0000
# 2 -2.4189 55.9950 -6.6185 0.0000 7.7966 0.0000
# 3 42.1400 -6.6185 88.2890 0.0000 -2.9569 0.0000
# 4 0.0000 0.0000 0.0000 7.2717 0.0000 -4.9879
# 5 -1.9686 7.7966 -2.9569 0.0000 38.3320 0.0000
# 6 0.0000 0.0000 0.0000 -4.9879 0.0000 6.3069
#
#
#
# Elastic Compliance Matrix: (Units=1/GPa)
#
#
# Indices 1 2 3 4 5 6 
#
# 1 0.006445 -0.000102 -0.003080 0.000000 0.000114 0.000000
# 2 -0.000102 0.018521 0.001314 0.000000 -0.003671 0.000000
# 3 -0.003080 0.001314 0.012914 0.000000 0.000571 0.000000
# 4 0.000000 0.000000 0.000000 0.300571 0.000000 0.237711
# 5 0.000114 -0.003671 0.000571 0.000000 0.026884 0.000000
# 6 0.000000 0.000000 0.000000 0.237711 0.000000 0.346555
#
#
# Mechanical properties :
#
#
# Convention : Reuss Voigt Hill
#
# Bulk Modulus (GPa) = 29.28715 42.86558 36.07637
# Shear Modulus (GPa) = 6.87752 29.48094 18.17923
#
# Velocity S-wave (km/s) = 1.74522 3.61331 2.83741
# Velocity P-wave (km/s) = 4.12689 6.03254 5.16831
#
# Compressibility (1/GPa) = 0.03414467
#
# Stress axis : x y z
#
# Youngs Moduli (GPa) = 155.16627 53.99342 77.43509
#
# Poissons Ratio (x) = 0.00548 0.23849
# Poissons Ratio (y) = 0.01575 -0.10174
# Poissons Ratio (z) = 0.47788 -0.07094
#
# Static dielectric constant tensor:
#      x y z
#    x 1.823190 0.000000 0.013760 
#    y 0.000000 1.873520 0.000000 
#    z 0.013760 0.000000 1.822550 
# 
# From -- ./inp_files/249138.got.cif
#   From: 2010.05.17/outbox.cif.g08.bks.cpg/sg12_125_cif.got.tgz:249138.got - 2010.06.03 13:09:07.
