data_PCOD9183635
_publ_section_title
;
Structure prediction by ZEFSAII (Michael W. Deem and Ramdas Pophale) SiO2 
 PCOD9183635
Probable space group: C 2/M
;
_chemical_formula_sum "Si O2"
_cell_formula_units_Z 56
_cell_length_a 23.150238
_cell_length_b 8.870513
_cell_length_c 30.561876
_cell_angle_alpha 90.000000
_cell_angle_beta 28.414474
_cell_angle_gamma 90.000000
_cell_volume 2986.420810
_symmetry_space_group_name_H-M "C 2/M"
_symmetry_group_IT_number 12
_symmetry_cell_setting 'monoclinic'
loop_
_space_group_symop_operation_xyz
x,y,z
-x,y,-z
-x,-y,-z
x,-y,z
1/2+x,1/2+y,z
1/2-x,1/2+y,-z
1/2-x,1/2-y,-z
1/2+x,1/2-y,z
loop_
_atom_site_type_symbol
_atom_site_label
_atom_site_fract_x
_atom_site_fract_y
_atom_site_fract_z
Si Si1 0.737052 0.320498 0.229365
Si Si2 0.739963 0.318950 0.614919
Si Si3 0.435045 0.179963 0.341604
Si Si4 0.278296 0.820178 0.853330
Si Si5 0.882126 0.181606 0.212431
Si Si6 0.661732 0.317924 0.022589
Si Si7 0.546611 0.680429 0.576535
O O1 0.748141 0.500000 0.222521
O O2 0.763267 0.259674 0.163330
O O3 0.821743 0.249010 0.209554
O O4 0.595711 0.281877 0.333273
O O5 0.743204 0.500000 0.609995
O O6 0.647774 0.254645 0.640010
O O7 0.691712 0.274728 0.694906
O O8 0.870637 0.250895 0.516175
O O9 0.577604 0.208646 0.236813
O O10 0.411004 0.250735 0.405268
O O11 0.415147 0.000000 0.356144
O O12 0.206794 0.772385 0.944252
O O13 0.263553 0.000000 0.857631
O O14 0.879553 0.000000 0.211025
O O15 0.022622 0.228016 0.122844
O O16 0.668445 0.500000 0.020385
O O17 0.750000 0.250000 0.000000
O O18 0.559812 0.500000 0.568797
#
# Coordination Sequence:
#
# PCOD9183635 Si02
#       7
#     8   8   8   8   8   8   8
#     4  10  22  39  59  82 108 141 185 231 274 319
#     4  11  22  35  53  79 110 147 185 224 273 326
#     4  10  19  33  55  83 112 143 180 225 273 324
#     4   9  19  36  59  83 111 147 183 221 271 325
#     4  10  23  40  57  79 112 149 183 222 271 326
#     4  10  21  38  60  87 115 146 181 220 269 324
#     4  10  21  37  56  79 108 143 182 228 276 325
#
# _framework density 18.751545
#
# number of rings (size 3 to 8) (size 9 to 14) (size 15 to 20)
#    0.000    2.000    0.000    3.000    0.000    5.714 
#    0.000    5.714    0.000    0.000    0.000    0.000 
#    0.000    0.000    0.000    0.000    0.000    0.000 
#
# Total GULP energy -156467.782399 kJ/mol
# GULP energy per Si atom -5588.135086 kJ/mol
# Density = 1.870887 g / cm^3
# Si number density = 18.751545 Si / 1000 Ang^3
#
#
#
# Elastic Constant Matrix: (Units=GPa)
#
#
# Indices 1 2 3 4 5 6 
#
# 1 139.0048 35.7642 72.7428 0.0001 5.1215 0.0003
# 2 35.7642 31.5281 34.4466 0.0001 5.6674 0.0017
# 3 72.7428 34.4466 111.7992 0.0003 33.9320 0.0001
# 4 0.0001 0.0001 0.0003 22.2020 -0.0003 -3.1663
# 5 5.1215 5.6674 33.9320 -0.0003 25.8086 -0.0002
# 6 0.0003 0.0017 0.0001 -3.1663 -0.0002 31.4678
#
#
#
# Elastic Compliance Matrix: (Units=1/GPa)
#
#
# Indices 1 2 3 4 5 6 
#
# 1 0.014338 -0.005988 -0.011681 0.000000 0.013827 0.000000
# 2 -0.005988 0.053949 -0.015794 0.000000 0.010106 -0.000003
# 3 -0.011681 -0.015794 0.032706 -0.000001 -0.037214 0.000001
# 4 0.000000 0.000000 -0.000001 0.045697 0.000002 0.004598
# 5 0.013827 0.010106 -0.037214 0.000002 0.082711 0.000000
# 6 0.000000 -0.000003 0.000001 0.004598 0.000000 0.032241
#
#
# Mechanical properties :
#
#
# Convention : Reuss Voigt Hill
#
# Bulk Modulus (GPa) = 29.35284 63.13770 46.24527
# Shear Modulus (GPa) = 14.70930 25.18757 19.94843
#
# Velocity S-wave (km/s) = 2.80381 3.66898 3.26518
# Velocity P-wave (km/s) = 5.11560 7.18974 6.23946
#
# Compressibility (1/GPa) = 0.03406825
#
# Stress axis : x y z
#
# Youngs Moduli (GPa) = 69.74624 18.53606 30.57588
#
# Poissons Ratio (x) = 0.11099 0.35714
# Poissons Ratio (y) = 0.41762 0.48290
# Poissons Ratio (z) = 0.81467 0.29275
#
# Static dielectric constant tensor:
#      x y z
#    x 1.601060 0.000000 -0.000790 
#    y 0.000000 1.624410 0.000000 
#    z -0.000790 0.000000 1.661620 
# 
# From -- ./inp_files/231002.got.cif
#   From: 2010.05.17/outbox.cif.g08.bks.cpg/sg12_116_cif.got.tgz:231002.got - 2010.06.03 13:09:07.
