data_PCOD9183098
_publ_section_title
;
Structure prediction by ZEFSAII (Michael W. Deem and Ramdas Pophale) SiO2 
 PCOD9183098
Probable space group: C 2/M
;
_chemical_formula_sum "Si O2"
_cell_formula_units_Z 56
_cell_length_a 15.778624
_cell_length_b 7.479444
_cell_length_c 22.466830
_cell_angle_alpha 90.000000
_cell_angle_beta 81.252327
_cell_angle_gamma 90.000000
_cell_volume 2620.588194
_symmetry_space_group_name_H-M "C 2/M"
_symmetry_group_IT_number 12
_symmetry_cell_setting 'monoclinic'
loop_
_space_group_symop_operation_xyz
x,y,z
-x,y,-z
-x,-y,-z
x,-y,z
1/2+x,1/2+y,z
1/2-x,1/2+y,-z
1/2-x,1/2-y,-z
1/2+x,1/2-y,z
loop_
_atom_site_type_symbol
_atom_site_label
_atom_site_fract_x
_atom_site_fract_y
_atom_site_fract_z
Si Si1 0.628292 0.213988 0.633291
Si Si2 0.909113 0.286280 0.848545
Si Si3 0.180519 0.287193 0.373330
Si Si4 0.546866 0.714697 0.935091
Si Si5 0.453434 0.780519 0.711775
Si Si6 0.761758 0.785670 0.068766
Si Si7 0.098665 0.717664 0.502989
O O1 0.720530 0.254128 0.650563
O O2 0.547173 0.277907 0.679702
O O3 0.624629 0.282319 0.565600
O O4 0.619840 0.000000 0.630700
O O5 0.899478 0.500000 0.844748
O O6 0.929737 0.219155 0.780343
O O7 0.820635 0.215664 0.886547
O O8 0.987342 0.253891 0.885239
O O9 0.167289 0.500000 0.377252
O O10 0.116032 0.221068 0.329681
O O11 0.156074 0.217948 0.441739
O O12 0.551936 0.500000 0.940003
O O13 0.644618 0.781772 0.921402
O O14 0.500000 0.781919 0.000000
O O15 0.453269 0.000000 0.712411
O O16 0.762240 0.000000 0.076264
O O17 0.750000 0.750000 0.000000
O O18 0.103101 0.500000 0.503786
O O19 0.000000 0.763860 0.500000
#
# Coordination Sequence:
#
# PCOD9183098 Si02
#       7
#     8   8   8   8   8   8   8
#     4  10  19  33  54  77 105 138 175 219 264 308
#     4  10  21  36  55  79 104 135 179 218 249 301
#     4  10  19  33  55  79 104 137 179 220 259 308
#     4  10  20  35  55  80 109 136 163 206 266 316
#     4   9  19  36  54  73 103 143 179 211 252 312
#     4  10  20  34  54  78 104 133 166 207 255 306
#     4   9  15  28  53  79 100 135 181 217 256 309
#
# _framework density 21.369249
#
# number of rings (size 3 to 8) (size 9 to 14) (size 15 to 20)
#    0.000    2.286    2.857    0.429    0.000    2.000 
#    0.000    3.571    0.000    0.857    0.000    0.000 
#    0.000    0.000    0.000    0.000    0.000    0.000 
#
# Total GULP energy -156427.235587 kJ/mol
# GULP energy per Si atom -5586.686985 kJ/mol
# Density = 2.132061 g / cm^3
# Si number density = 21.369249 Si / 1000 Ang^3
#
#
#
# Elastic Constant Matrix: (Units=GPa)
#
#
# Indices 1 2 3 4 5 6 
#
# 1 209.4935 1.8481 102.3733 0.0000 -27.5891 0.0000
# 2 1.8481 59.4404 5.9876 0.0000 -2.3243 0.0000
# 3 102.3733 5.9876 169.8131 0.0000 -31.8699 0.0000
# 4 0.0000 0.0000 0.0000 -10.9153 0.0000 2.0523
# 5 -27.5891 -2.3243 -31.8699 0.0000 14.4564 0.0000
# 6 0.0000 0.0000 0.0000 2.0523 0.0000 13.7889
#
#
#
# Elastic Compliance Matrix: (Units=1/GPa)
#
#
# Indices 1 2 3 4 5 6 
#
# 1 0.007176 0.000358 -0.002998 0.000000 0.007143 0.000000
# 2 0.000358 0.016950 -0.000297 0.000000 0.002755 0.000000
# 3 -0.002998 -0.000297 0.011299 0.000000 0.019139 0.000000
# 4 0.000000 0.000000 0.000000 -0.089120 0.000000 0.013265
# 5 0.007143 0.002755 0.019139 0.000000 0.125441 0.000000
# 6 0.000000 0.000000 0.000000 0.013265 0.000000 0.070548
#
#
# Mechanical properties :
#
#
# Convention : Reuss Voigt Hill
#
# Bulk Modulus (GPa) = 33.83898 73.24058 53.53978
# Shear Modulus (GPa) = 31.64218 25.36854 28.50536
#
# Velocity S-wave (km/s) = 3.85221 3.44924 3.65628
# Velocity P-wave (km/s) = 5.97124 7.08599 6.55237
#
# Compressibility (1/GPa) = 0.02955172
#
# Stress axis : x y z
#
# Youngs Moduli (GPa) = 139.35160 58.99694 88.50541
#
# Poissons Ratio (x) = -0.02113 0.26536
# Poissons Ratio (y) = -0.04992 0.02625
# Poissons Ratio (z) = 0.41781 0.01750
#
# Static dielectric constant tensor:
#      x y z
#    x 1.801800 0.000000 -0.002220 
#    y 0.000000 1.835430 0.000000 
#    z -0.002220 0.000000 1.742020 
# 
# From -- ./inp_files/308938.got.cif
#   From: 2010.05.17/outbox.cif.g08.bks.cpg/sg12_155_cif.got.tgz:308938.got - 2010.06.03 13:09:07.
