data_PCOD9183148
_publ_section_title
;
Structure prediction by ZEFSAII (Michael W. Deem and Ramdas Pophale) SiO2 
 PCOD9183148
Probable space group: C 2/M
;
_chemical_formula_sum "Si O2"
_cell_formula_units_Z 64
_cell_length_a 18.236241
_cell_length_b 21.278022
_cell_length_c 10.935958
_cell_angle_alpha 90.000000
_cell_angle_beta 125.327321
_cell_angle_gamma 90.000000
_cell_volume 3462.103840
_symmetry_space_group_name_H-M "C 2/M"
_symmetry_group_IT_number 12
_symmetry_cell_setting 'monoclinic'
loop_
_space_group_symop_operation_xyz
x,y,z
-x,y,-z
-x,-y,-z
x,-y,z
1/2+x,1/2+y,z
1/2-x,1/2+y,-z
1/2-x,1/2-y,-z
1/2+x,1/2-y,z
loop_
_atom_site_type_symbol
_atom_site_label
_atom_site_fract_x
_atom_site_fract_y
_atom_site_fract_z
Si Si1 0.380865 0.423968 0.505130
Si Si2 0.796238 0.256511 0.243662
Si Si3 0.068946 0.660101 0.469001
Si Si4 0.915701 0.075037 0.261035
Si Si5 0.356404 0.834774 0.841887
Si Si6 0.149063 0.819027 0.947822
Si Si7 0.977345 0.714254 0.148366
Si Si8 0.311771 0.075148 0.596521
O O1 0.382339 0.500000 0.507949
O O2 0.479876 0.403623 0.642739
O O3 0.376700 0.406985 0.357080
O O4 0.294106 0.405949 0.500435
O O5 0.867923 0.290152 0.398942
O O6 0.734190 0.205358 0.251735
O O7 0.833099 0.220128 0.160190
O O8 0.727805 0.307357 0.119615
O O9 0.131023 0.612167 0.450707
O O10 0.000000 0.629805 0.500000
O O11 0.005472 0.696779 0.311910
O O12 0.863587 0.110086 0.104611
O O13 0.912543 0.000000 0.248744
O O14 0.432853 0.798610 0.840224
O O15 0.345752 0.900830 0.762984
O O16 0.397446 0.831051 0.018314
O O17 0.059632 0.784031 0.907070
O O18 0.319581 0.000000 0.591731
#
# Coordination Sequence:
#
# PCOD9183148 Si02
#       8
#     8   8   8   8   8   8   8   8
#     4   8  16  31  49  78 112 140 175 220 272 325
#     4  10  21  35  53  81 108 145 182 230 278 323
#     4  11  22  38  56  80 111 147 192 235 276 337
#     4   9  17  30  53  83 115 144 175 221 275 341
#     4   9  19  36  56  82 109 138 185 234 275 334
#     4  10  19  33  54  78 110 146 182 219 276 334
#     4   9  19  35  54  79 110 143 175 236 284 321
#     4  10  21  37  59  82 113 152 184 232 284 331
#
# _framework density 18.485869000000001
#
# number of rings (size 3 to 8) (size 9 to 14) (size 15 to 20)
#    0.000    2.500    1.250    1.500    0.000    6.250 
#    0.000    5.625    0.000    0.000    0.000    9.625 
#    0.000    0.000    0.000    0.000    0.000    0.000 
#
# Total GULP energy -178212.617606 kJ/mol
# GULP energy per Si atom -5569.144300 kJ/mol
# Density = 1.844379 g / cm^3
# Si number density = 18.485869 Si / 1000 Ang^3
#
#
#
# Elastic Constant Matrix: (Units=GPa)
#
#
# Indices 1 2 3 4 5 6 
#
# 1 98.5713 26.5492 22.2883 0.0000 10.9581 0.0000
# 2 26.5492 47.6370 36.0860 0.0000 3.7637 0.0000
# 3 22.2883 36.0860 97.6734 0.0000 -2.3589 0.0000
# 4 0.0000 0.0000 0.0000 26.0097 0.0000 -1.7273
# 5 10.9581 3.7637 -2.3589 0.0000 15.5725 0.0000
# 6 0.0000 0.0000 0.0000 -1.7273 0.0000 23.6385
#
#
#
# Elastic Compliance Matrix: (Units=1/GPa)
#
#
# Indices 1 2 3 4 5 6 
#
# 1 0.012781 -0.005777 -0.000969 0.000000 -0.007744 0.000000
# 2 -0.005777 0.032988 -0.011004 0.000000 -0.005574 0.000000
# 3 -0.000969 -0.011004 0.014659 0.000000 0.005562 0.000000
# 4 0.000000 0.000000 0.000000 0.038635 0.000000 0.002823
# 5 -0.007744 -0.005574 0.005562 0.000000 0.071855 0.000000
# 6 0.000000 0.000000 0.000000 0.002823 0.000000 0.042510
#
#
# Mechanical properties :
#
#
# Convention : Reuss Voigt Hill
#
# Bulk Modulus (GPa) = 40.11602 45.96985 43.04293
# Shear Modulus (GPa) = 19.43726 23.64135 21.53931
#
# Velocity S-wave (km/s) = 3.24615 3.58003 3.41717
# Velocity P-wave (km/s) = 5.98314 6.48154 6.23732
#
# Compressibility (1/GPa) = 0.02492770
#
# Stress axis : x y z
#
# Youngs Moduli (GPa) = 78.24095 30.31410 68.21679
#
# Poissons Ratio (x) = 0.17513 0.06611
# Poissons Ratio (y) = 0.45201 0.75065
# Poissons Ratio (z) = 0.07583 0.33357
#
# Static dielectric constant tensor:
#      x y z
#    x 1.697660 0.000000 -0.012610 
#    y 0.000000 1.623800 0.000000 
#    z -0.012610 0.000000 1.671590 
# 
# From -- ./inp_files/159263.got.cif
#   From: 2010.05.17/outbox.cif.g08.bks.cpg/sg12_80_cif.got.tgz:159263.got - 2010.06.03 13:09:07.
