data_PCOD9183054
_publ_section_title
;
Structure prediction by ZEFSAII (Michael W. Deem and Ramdas Pophale) SiO2 
 PCOD9183054
Probable space group: C 2/M
;
_chemical_formula_sum "Si O2"
_cell_formula_units_Z 56
_cell_length_a 7.903226
_cell_length_b 21.775839
_cell_length_c 18.804456
_cell_angle_alpha 90.000000
_cell_angle_beta 121.725225
_cell_angle_gamma 90.000000
_cell_volume 2752.675878
_symmetry_space_group_name_H-M "C 2/M"
_symmetry_group_IT_number 12
_symmetry_cell_setting 'monoclinic'
loop_
_space_group_symop_operation_xyz
x,y,z
-x,y,-z
-x,-y,-z
x,-y,z
1/2+x,1/2+y,z
1/2-x,1/2+y,-z
1/2-x,1/2-y,-z
1/2+x,1/2-y,z
loop_
_atom_site_type_symbol
_atom_site_label
_atom_site_fract_x
_atom_site_fract_y
_atom_site_fract_z
Si Si1 0.471923 0.813023 0.076704
Si Si2 0.188875 0.570444 0.767852
Si Si3 0.363442 0.567043 0.648242
Si Si4 0.208908 0.622954 0.250037
Si Si5 0.706833 0.809436 0.582388
Si Si6 0.692200 0.310859 0.134395
Si Si7 0.592924 0.245950 0.692002
O O1 0.611571 0.858847 0.152938
O O2 0.527828 0.741528 0.103001
O O3 0.260577 0.820351 0.068587
O O4 0.500000 0.824455 0.000000
O O5 0.210408 0.500000 0.799441
O O6 0.964964 0.593970 0.739127
O O7 0.246277 0.567566 0.697463
O O8 0.329610 0.622396 0.835300
O O9 0.337974 0.500000 0.609930
O O10 0.597094 0.580413 0.713225
O O11 0.282331 0.622603 0.582244
O O12 0.297474 0.688876 0.294272
O O13 0.500000 0.796433 0.500000
O O14 0.686447 0.805640 0.663319
O O15 0.875892 0.758375 0.611816
O O16 0.871377 0.277380 0.220023
#
# Coordination Sequence:
#
# PCOD9183054 Si02
#       7
#     8   8   8   8   8   8   8
#     4  10  20  32  53  87 109 137 168 219 286 314
#     4  10  19  33  55  79 101 137 186 225 255 303
#     4  10  21  36  57  79 104 144 187 220 260 318
#     4   9  20  35  58  79 107 139 182 227 258 319
#     4  11  21  33  52  79 112 138 171 226 277 320
#     4  10  19  33  54  76 107 140 178 223 254 323
#     4  10  19  34  53  79 103 140 182 213 272 321
#
# _framework density 20.34384
#
# number of rings (size 3 to 8) (size 9 to 14) (size 15 to 20)
#    0.000    2.000    1.429    3.857    4.000    0.286 
#    0.000    0.000    0.000   11.143    0.000    5.000 
#    0.000    0.000    0.000    0.000    0.000    0.000 
#
# Total GULP energy -155951.097671 kJ/mol
# GULP energy per Si atom -5569.682060 kJ/mol
# Density = 2.029754 g / cm^3
# Si number density = 20.343840 Si / 1000 Ang^3
#
#
#
# Elastic Constant Matrix: (Units=GPa)
#
#
# Indices 1 2 3 4 5 6 
#
# 1 46.6164 -0.3258 0.8650 0.0000 -6.2503 0.0000
# 2 -0.3258 92.2716 -9.1094 0.0000 2.8282 0.0000
# 3 0.8650 -9.1094 32.6935 0.0000 0.5840 0.0000
# 4 0.0000 0.0000 0.0000 9.0781 0.0000 -7.9969
# 5 -6.2503 2.8282 0.5840 0.0000 25.2607 0.0000
# 6 0.0000 0.0000 0.0000 -7.9969 0.0000 18.6258
#
#
#
# Elastic Compliance Matrix: (Units=1/GPa)
#
#
# Indices 1 2 3 4 5 6 
#
# 1 0.022206 -0.000163 -0.000732 0.000000 0.005530 0.000000
# 2 -0.000163 0.011189 0.003146 0.000000 -0.001366 0.000000
# 3 -0.000732 0.003146 0.031506 0.000000 -0.001262 0.000000
# 4 0.000000 0.000000 0.000000 0.177159 0.000000 0.076062
# 5 0.005530 -0.001366 -0.001262 0.000000 0.041137 0.000000
# 6 0.000000 0.000000 0.000000 0.076062 0.000000 0.086346
#
#
# Mechanical properties :
#
#
# Convention : Reuss Voigt Hill
#
# Bulk Modulus (GPa) = 14.40852 17.16013 15.78433
# Shear Modulus (GPa) = 12.88081 22.60303 17.74192
#
# Velocity S-wave (km/s) = 2.51899 3.33686 2.95634
# Velocity P-wave (km/s) = 3.94440 4.82696 4.40782
#
# Compressibility (1/GPa) = 0.06940336
#
# Stress axis : x y z
#
# Youngs Moduli (GPa) = 45.03385 89.36963 31.74030
#
# Poissons Ratio (x) = 0.01460 0.02323
# Poissons Ratio (y) = 0.00735 -0.09987
# Poissons Ratio (z) = 0.03296 -0.28120
#
# Static dielectric constant tensor:
#      x y z
#    x 1.815670 0.000000 0.003310 
#    y 0.000000 1.735150 0.000000 
#    z 0.003310 0.000000 1.753350 
# 
# From -- ./inp_files/257643.got.cif
#   From: 2010.05.17/outbox.cif.g08.bks.cpg/sg12_129_cif.got.tgz:257643.got - 2010.06.03 13:09:07.
