data_PCOD9183646
_publ_section_title
;
Structure prediction by ZEFSAII (Michael W. Deem and Ramdas Pophale) SiO2 
 PCOD9183646
Probable space group: C 2/M
;
_chemical_formula_sum "Si O2"
_cell_formula_units_Z 64
_cell_length_a 22.541509
_cell_length_b 11.570370
_cell_length_c 13.487038
_cell_angle_alpha 90.000000
_cell_angle_beta 66.688431
_cell_angle_gamma 90.000000
_cell_volume 3230.448672
_symmetry_space_group_name_H-M "C 2/M"
_symmetry_group_IT_number 12
_symmetry_cell_setting 'monoclinic'
loop_
_space_group_symop_operation_xyz
x,y,z
-x,y,-z
-x,-y,-z
x,-y,z
1/2+x,1/2+y,z
1/2-x,1/2+y,-z
1/2-x,1/2-y,-z
1/2+x,1/2-y,z
loop_
_atom_site_type_symbol
_atom_site_label
_atom_site_fract_x
_atom_site_fract_y
_atom_site_fract_z
Si Si1 0.443886 0.370383 0.731771
Si Si2 0.847325 0.792289 0.949367
Si Si3 0.011340 0.625432 0.712731
Si Si4 0.271393 0.868423 0.847464
Si Si5 0.262960 0.632168 0.357745
Si Si6 0.555190 0.870556 0.029476
Si Si7 0.077949 0.871113 0.463854
Si Si8 0.352306 0.205010 0.427242
O O1 0.474827 0.500000 0.707189
O O2 0.403620 0.363643 0.859214
O O3 0.485620 0.252160 0.695857
O O4 0.398226 0.364018 0.665232
O O5 0.816491 0.718176 0.879495
O O6 0.880639 0.702355 0.001997
O O7 0.794688 0.862434 0.045249
O O8 0.994605 0.500000 0.673318
O O9 0.088862 0.634357 0.659969
O O10 0.977751 0.619070 0.841497
O O11 0.258614 0.837923 0.740690
O O12 0.297428 0.000000 0.832477
O O13 0.286968 0.500000 0.338573
O O14 0.316117 0.717890 0.368693
O O15 0.202458 0.638603 0.473903
O O16 0.568451 0.000000 0.982360
O O17 0.500000 0.813204 0.000000
O O18 0.112256 0.783261 0.513135
O O19 0.000000 0.858694 0.500000
O O20 0.090771 0.000000 0.492296
#
# Coordination Sequence:
#
# PCOD9183646 Si02
#       8
#     8   8   8   8   8   8   8   8
#     4  10  20  36  58  86 119 152 190 239 288 345
#     4  10  20  35  60  84 115 148 194 238 287 345
#     4  10  21  36  57  85 118 152 190 238 289 346
#     4  10  21  38  58  82 114 153 195 243 294 344
#     4  10  23  39  57  80 111 152 195 245 295 342
#     4   9  19  35  56  83 114 149 187 234 288 345
#     4  10  19  33  55  83 114 151 193 235 284 345
#     4  11  21  37  59  80 113 151 197 239 290 347
#
# _framework density 19.811491
#
# number of rings (size 3 to 8) (size 9 to 14) (size 15 to 20)
#    0.000    2.000    1.250    2.250    1.750    1.000 
#    0.000    1.875    0.000    6.375    0.000    0.000 
#    0.000    0.000    0.000    0.000    0.000    0.000 
#
# Total GULP energy -178144.446155 kJ/mol
# GULP energy per Si atom -5567.013942 kJ/mol
# Density = 1.976640 g / cm^3
# Si number density = 19.811491 Si / 1000 Ang^3
#
#
#
# Elastic Constant Matrix: (Units=GPa)
#
#
# Indices 1 2 3 4 5 6 
#
# 1 52.0189 39.8313 0.2839 0.0000 7.0344 0.0000
# 2 39.8313 118.7391 15.6337 0.0000 7.1331 0.0000
# 3 0.2839 15.6337 31.6039 0.0000 0.2019 0.0000
# 4 0.0000 0.0000 0.0000 2.2070 0.0000 1.8184
# 5 7.0344 7.1331 0.2019 0.0000 33.7204 0.0000
# 6 0.0000 0.0000 0.0000 1.8184 0.0000 15.6285
#
#
#
# Elastic Compliance Matrix: (Units=1/GPa)
#
#
# Indices 1 2 3 4 5 6 
#
# 1 0.026874 -0.009378 0.004421 0.000000 -0.003649 0.000000
# 2 -0.009378 0.012402 -0.006047 0.000000 -0.000631 0.000000
# 3 0.004421 -0.006047 0.034592 0.000000 0.000150 0.000000
# 4 0.000000 0.000000 0.000000 0.501143 0.000000 -0.058310
# 5 -0.003649 -0.000631 0.000150 0.000000 0.030549 0.000000
# 6 0.000000 0.000000 0.000000 -0.058310 0.000000 0.070770
#
#
# Mechanical properties :
#
#
# Convention : Reuss Voigt Hill
#
# Bulk Modulus (GPa) = 19.28245 34.87330 27.07787
# Shear Modulus (GPa) = 6.98691 20.08538 13.53615
#
# Velocity S-wave (km/s) = 1.87999 3.18752 2.61674
# Velocity P-wave (km/s) = 3.80349 5.58460 4.77778
#
# Compressibility (1/GPa) = 0.05186063
#
# Stress axis : x y z
#
# Youngs Moduli (GPa) = 37.21117 80.63468 28.90833
#
# Poissons Ratio (x) = 0.75617 -0.12780
# Poissons Ratio (y) = 0.34896 0.17480
# Poissons Ratio (z) = -0.16451 0.48756
#
# Static dielectric constant tensor:
#      x y z
#    x 1.690760 0.000000 -0.018460 
#    y 0.000000 1.777610 0.000000 
#    z -0.018460 0.000000 1.732790 
# 
# From -- ./inp_files/232437.got.cif
#   From: 2010.05.17/outbox.cif.g08.bks.cpg/sg12_117_cif.got.tgz:232437.got - 2010.06.03 13:09:07.
