data_PCOD9183522
_publ_section_title
;
Structure prediction by ZEFSAII (Michael W. Deem and Ramdas Pophale) SiO2 
 PCOD9183522
Probable space group: C 2/M
;
_chemical_formula_sum "Si O2"
_cell_formula_units_Z 64
_cell_length_a 33.162423
_cell_length_b 9.095784
_cell_length_c 12.449763
_cell_angle_alpha 90.000000
_cell_angle_beta 91.057121
_cell_angle_gamma 90.000000
_cell_volume 3754.685397
_symmetry_space_group_name_H-M "C 2/M"
_symmetry_group_IT_number 12
_symmetry_cell_setting 'monoclinic'
loop_
_space_group_symop_operation_xyz
x,y,z
-x,y,-z
-x,-y,-z
x,-y,z
1/2+x,1/2+y,z
1/2-x,1/2+y,-z
1/2-x,1/2-y,-z
1/2+x,1/2-y,z
loop_
_atom_site_type_symbol
_atom_site_label
_atom_site_fract_x
_atom_site_fract_y
_atom_site_fract_z
Si Si1 0.012389 0.676568 0.878452
Si Si2 0.114167 0.325262 0.413236
Si Si3 0.850504 0.323348 0.357560
Si Si4 0.687069 0.825621 0.252339
Si Si5 0.264699 0.676612 0.390101
Si Si6 0.060458 0.175260 0.240751
Si Si7 0.394039 0.823801 0.135931
Si Si8 0.366665 0.675133 0.919418
O O1 0.008742 0.500000 0.867129
O O2 0.058791 0.718327 0.861894
O O3 0.981445 0.753540 0.796599
O O4 0.000000 0.714951 0.000000
O O5 0.106175 0.500000 0.406674
O O6 0.122867 0.284972 0.536522
O O7 0.155193 0.297018 0.347402
O O8 0.078774 0.239400 0.351397
O O9 0.843310 0.500000 0.362757
O O10 0.808200 0.240043 0.362898
O O11 0.873377 0.290116 0.248343
O O12 0.731245 0.788098 0.297940
O O13 0.670987 0.738343 0.149029
O O14 0.685439 0.000000 0.229809
O O15 0.265731 0.500000 0.402512
O O16 0.250000 0.750000 0.500000
O O17 0.093676 0.212966 0.150253
O O18 0.057318 0.000000 0.246206
O O19 0.392308 0.000000 0.119394
O O20 0.372155 0.745958 0.035790
O O21 0.364123 0.500000 0.926692
#
# Coordination Sequence:
#
# PCOD9183522 Si02
#       8
#     8   8   8   8   8   8   8   8
#     4  10  19  33  55  81 105 139 185 226 268 322
#     4   9  17  33  54  76 106 141 176 218 265 320
#     4  10  21  38  57  81 111 145 183 224 273 325
#     4   9  18  33  54  79 106 138 178 221 265 313
#     4  11  21  35  57  85 113 143 182 227 271 320
#     4  10  20  32  51  81 110 138 175 226 275 317
#     4  10  21  37  57  79 109 146 183 223 271 331
#     4  10  20  33  52  80 111 140 177 223 274 324
#
# _framework density 17.045370999999999
#
# number of rings (size 3 to 8) (size 9 to 14) (size 15 to 20)
#    0.000    2.125    2.500    1.125    0.000    3.750 
#    0.000    1.250    0.000    3.750    0.000    0.000 
#    0.000    0.000    0.000    0.000    0.000    0.000 
#
# Total GULP energy -178596.271238 kJ/mol
# GULP energy per Si atom -5581.133476 kJ/mol
# Density = 1.700657 g / cm^3
# Si number density = 17.045371 Si / 1000 Ang^3
#
#
#
# Elastic Constant Matrix: (Units=GPa)
#
#
# Indices 1 2 3 4 5 6 
#
# 1 119.4687 53.5035 86.5118 0.0000 17.7166 0.0000
# 2 53.5035 38.3555 63.8165 0.0000 10.3121 0.0000
# 3 86.5118 63.8165 154.1612 0.0000 23.4230 0.0000
# 4 0.0000 0.0000 0.0000 20.4659 0.0000 4.2903
# 5 17.7166 10.3121 23.4230 0.0000 30.5781 0.0000
# 6 0.0000 0.0000 0.0000 4.2903 0.0000 28.4543
#
#
#
# Elastic Compliance Matrix: (Units=1/GPa)
#
#
# Indices 1 2 3 4 5 6 
#
# 1 0.022621 -0.033364 0.001583 0.000000 -0.003067 0.000000
# 2 -0.033364 0.133073 -0.036761 0.000000 0.002612 0.000000
# 3 0.001583 -0.036761 0.021584 0.000000 -0.005053 0.000000
# 4 0.000000 0.000000 0.000000 0.050457 0.000000 -0.007608
# 5 -0.003067 0.002612 -0.005053 0.000000 0.037470 0.000000
# 6 0.000000 0.000000 0.000000 -0.007608 0.000000 0.036291
#
#
# Mechanical properties :
#
#
# Convention : Reuss Voigt Hill
#
# Bulk Modulus (GPa) = 24.87903 79.96100 52.42001
# Shear Modulus (GPa) = 11.06252 23.10990 17.08621
#
# Velocity S-wave (km/s) = 2.55032 3.68610 3.16950
# Velocity P-wave (km/s) = 4.82697 8.07025 6.64938
#
# Compressibility (1/GPa) = 0.04019449
#
# Stress axis : x y z
#
# Youngs Moduli (GPa) = 44.20730 7.51466 46.33140
#
# Poissons Ratio (x) = 0.25072 -0.07334
# Poissons Ratio (y) = 1.47492 1.70318
# Poissons Ratio (z) = -0.06998 0.27625
#
# Static dielectric constant tensor:
#      x y z
#    x 1.559610 0.000000 0.000470 
#    y 0.000000 1.566300 0.000000 
#    z 0.000470 0.000000 1.559610 
# 
# From -- ./inp_files/187541.got.cif
#   From: 2010.05.17/outbox.cif.g08.bks.cpg/sg12_94_cif.got.tgz:187541.got - 2010.06.03 13:09:07.
