data_PCOD9183834
_publ_section_title
;
Structure prediction by ZEFSAII (Michael W. Deem and Ramdas Pophale) SiO2 
 PCOD9183834
Probable space group: C 2/M
;
_chemical_formula_sum "Si O2"
_cell_formula_units_Z 48
_cell_length_a 19.346502
_cell_length_b 9.162315
_cell_length_c 15.750968
_cell_angle_alpha 90.000000
_cell_angle_beta 100.562995
_cell_angle_gamma 90.000000
_cell_volume 2744.683512
_symmetry_space_group_name_H-M "C 2/M"
_symmetry_group_IT_number 12
_symmetry_cell_setting 'monoclinic'
loop_
_space_group_symop_operation_xyz
x,y,z
-x,y,-z
-x,-y,-z
x,-y,z
1/2+x,1/2+y,z
1/2-x,1/2+y,-z
1/2-x,1/2-y,-z
1/2+x,1/2-y,z
loop_
_atom_site_type_symbol
_atom_site_label
_atom_site_fract_x
_atom_site_fract_y
_atom_site_fract_z
Si Si1 0.554295 0.172444 0.254012
Si Si2 0.339436 0.328187 0.285536
Si Si3 0.691984 0.325736 0.227451
Si Si4 0.535807 0.173225 0.596685
Si Si5 0.817827 0.174911 0.974080
Si Si6 0.069561 0.172263 0.865532
O O1 0.627707 0.254995 0.263337
O O2 0.517969 0.195860 0.337389
O O3 0.499504 0.237504 0.173174
O O4 0.563564 0.000000 0.243330
O O5 0.328446 0.500000 0.296336
O O6 0.266310 0.243235 0.269652
O O7 0.394496 0.262703 0.365008
O O8 0.376449 0.309877 0.201429
O O9 0.693327 0.500000 0.238014
O O10 0.679508 0.292539 0.124839
O O11 0.500000 0.214371 0.500000
O O12 0.552408 0.000000 0.597765
O O13 0.810805 0.000000 0.982988
O O14 0.750000 0.250000 0.000000
O O15 0.888004 0.217953 0.041119
O O16 0.051610 0.000000 0.867347
#
# Coordination Sequence:
#
# PCOD9183834 Si02
#       6
#     8   8   8   8   8   8
#     4  10  21  36  55  79 108 140 176 220 270 320
#     4  10  19  33  56  82 109 140 178 221 265 318
#     4  11  22  35  53  78 111 148 181 219 267 314
#     4   9  19  38  62  84 106 135 174 219 268 326
#     4  10  20  33  52  77 106 143 186 226 261 306
#     4   9  18  34  53  75 105 142 181 222 265 310
#
# _framework density 17.488354000000001
#
# number of rings (size 3 to 8) (size 9 to 14) (size 15 to 20)
#    0.000    2.167    1.667    1.500    0.000    3.667 
#    0.000    4.167    0.000    0.000    0.000    0.000 
#    0.000    0.000    0.000    0.000    0.000    0.000 
#
# Total GULP energy -133989.247250 kJ/mol
# GULP energy per Si atom -5582.885302 kJ/mol
# Density = 1.744855 g / cm^3
# Si number density = 17.488354 Si / 1000 Ang^3
#
#
#
# Elastic Constant Matrix: (Units=GPa)
#
#
# Indices 1 2 3 4 5 6 
#
# 1 128.3934 81.1809 51.8618 0.0000 22.5708 0.0000
# 2 81.1809 78.5932 51.2774 0.0000 12.1873 0.0000
# 3 51.8618 51.2774 88.2965 0.0000 33.1571 0.0000
# 4 0.0000 0.0000 0.0000 20.0177 0.0000 4.4531
# 5 22.5708 12.1873 33.1571 0.0000 23.4959 0.0000
# 6 0.0000 0.0000 0.0000 4.4531 0.0000 39.2759
#
#
#
# Elastic Compliance Matrix: (Units=1/GPa)
#
#
# Indices 1 2 3 4 5 6 
#
# 1 0.029817 -0.035710 0.014945 0.000000 -0.031211 0.000000
# 2 -0.035710 0.065346 -0.036437 0.000000 0.051829 0.000000
# 3 0.014945 -0.036437 0.046805 0.000000 -0.061508 0.000000
# 4 0.000000 0.000000 0.000000 0.051248 0.000000 -0.005811
# 5 -0.031211 0.051829 -0.061508 0.000000 0.132459 0.000000
# 6 0.000000 0.000000 0.000000 -0.005811 0.000000 0.026120
#
#
# Mechanical properties :
#
#
# Convention : Reuss Voigt Hill
#
# Bulk Modulus (GPa) = 36.27878 73.76927 55.02402
# Shear Modulus (GPa) = 10.51772 23.95544 17.23658
#
# Velocity S-wave (km/s) = 2.45503 3.70509 3.14284
# Velocity P-wave (km/s) = 5.36897 7.78313 6.68591
#
# Compressibility (1/GPa) = 0.02756433
#
# Stress axis : x y z
#
# Youngs Moduli (GPa) = 33.53737 15.30316 21.36509
#
# Poissons Ratio (x) = 0.54648 -0.31931
# Poissons Ratio (y) = 1.19763 0.77848
# Poissons Ratio (z) = -0.50123 0.55760
#
# Static dielectric constant tensor:
#      x y z
#    x 1.567370 0.000000 -0.001100 
#    y 0.000000 1.579600 0.000000 
#    z -0.001100 0.000000 1.587380 
# 
# From -- ./inp_files/221594.got.cif
#   From: 2010.05.17/outbox.cif.g08.bks.cpg/sg12_111_cif.got.tgz:221594.got - 2010.06.03 13:09:07.
