data_PCOD9183784
_publ_section_title
;
Structure prediction by ZEFSAII (Michael W. Deem and Ramdas Pophale) SiO2 
 PCOD9183784
Probable space group: C 2/M
;
_chemical_formula_sum "Si O2"
_cell_formula_units_Z 64
_cell_length_a 14.948823
_cell_length_b 7.628773
_cell_length_c 31.390926
_cell_angle_alpha 90.000000
_cell_angle_beta 55.400998
_cell_angle_gamma 90.000000
_cell_volume 2946.746851
_symmetry_space_group_name_H-M "C 2/M"
_symmetry_group_IT_number 12
_symmetry_cell_setting 'monoclinic'
loop_
_space_group_symop_operation_xyz
x,y,z
-x,y,-z
-x,-y,-z
x,-y,z
1/2+x,1/2+y,z
1/2-x,1/2+y,-z
1/2-x,1/2-y,-z
1/2+x,1/2-y,z
loop_
_atom_site_type_symbol
_atom_site_label
_atom_site_fract_x
_atom_site_fract_y
_atom_site_fract_z
Si Si1 0.316627 0.800731 0.367676
Si Si2 0.935330 0.295070 0.412654
Si Si3 0.876917 0.288318 0.518570
Si Si4 0.014197 0.790152 0.860548
Si Si5 0.564811 0.285555 0.940990
Si Si6 0.309106 0.789989 0.856628
Si Si7 0.757815 0.288118 0.777014
Si Si8 0.325334 0.293607 0.665172
O O1 0.403746 0.715043 0.375623
O O2 0.209784 0.797343 0.426772
O O3 0.277260 0.721639 0.333836
O O4 0.353678 0.000000 0.348446
O O5 0.904841 0.500000 0.419359
O O6 0.875164 0.222024 0.470268
O O7 0.064086 0.286699 0.382313
O O8 0.859988 0.500000 0.524331
O O9 0.000000 0.255975 0.500000
O O10 0.911620 0.749857 0.858640
O O11 0.009973 0.730152 0.911050
O O12 0.131624 0.728115 0.811587
O O13 0.021233 0.000000 0.860320
O O14 0.564296 0.500000 0.941725
O O15 0.691432 0.229843 0.906102
O O16 0.500000 0.225512 0.000000
O O17 0.313547 0.728285 0.806141
O O18 0.302650 0.000000 0.856428
O O19 0.758533 0.500000 0.777086
O O20 0.813233 0.232389 0.718467
O O21 0.331139 0.500000 0.654520
#
# Coordination Sequence:
#
# PCOD9183784 Si02
#       8
#     8   8   8   8   8   8   8   8
#     4  10  22  37  54  77 105 135 166 206 257 307
#     4  10  21  38  56  76 106 140 169 202 252 312
#     4  10  19  33  56  81 103 134 173 206 243 300
#     4   9  18  33  54  79 105 138 180 219 259 307
#     4   8  15  30  51  76 110 149 182 211 252 312
#     4   9  18  33  54  78 103 137 179 217 259 309
#     4   9  20  38  55  71  99 139 174 209 260 318
#     4  11  23  37  54  79 104 129 169 218 262 304
#
# _framework density 21.718865999999998
#
# number of rings (size 3 to 8) (size 9 to 14) (size 15 to 20)
#    0.000    2.500    1.250    2.250    0.000    4.250 
#    0.000    5.625    0.000    0.750    0.000    0.000 
#    0.000    0.000    0.000    0.000    0.000    0.000 
#
# Total GULP energy -178530.247691 kJ/mol
# GULP energy per Si atom -5579.070240 kJ/mol
# Density = 2.166943 g / cm^3
# Si number density = 21.718866 Si / 1000 Ang^3
#
#
#
# Elastic Constant Matrix: (Units=GPa)
#
#
# Indices 1 2 3 4 5 6 
#
# 1 134.1425 -0.6212 27.6010 0.0001 23.8207 0.0003
# 2 -0.6212 42.7485 -8.0588 0.0004 0.9836 0.0004
# 3 27.6010 -8.0588 100.3424 0.0001 19.5257 0.0001
# 4 0.0001 0.0004 0.0001 8.2821 0.0001 0.2267
# 5 23.8207 0.9836 19.5257 0.0001 19.7646 0.0001
# 6 0.0003 0.0004 0.0001 0.2267 0.0001 20.0874
#
#
#
# Elastic Compliance Matrix: (Units=1/GPa)
#
#
# Indices 1 2 3 4 5 6 
#
# 1 0.009507 0.000309 -0.000443 0.000000 -0.011036 0.000000
# 2 0.000309 0.023995 0.002658 -0.000001 -0.004192 0.000000
# 3 -0.000443 0.002658 0.012656 0.000000 -0.012102 0.000000
# 4 0.000000 -0.000001 0.000000 0.120780 0.000000 -0.001363
# 5 -0.011036 -0.004192 -0.012102 0.000000 0.076060 0.000000
# 6 0.000000 0.000000 0.000000 -0.001363 0.000000 0.049798
#
#
# Mechanical properties :
#
#
# Convention : Reuss Voigt Hill
#
# Bulk Modulus (GPa) = 19.52928 35.00836 27.26882
# Shear Modulus (GPa) = 16.40330 26.84766 21.62548
#
# Velocity S-wave (km/s) = 2.75117 3.51970 3.15889
# Velocity P-wave (km/s) = 4.37073 5.71591 5.08797
#
# Compressibility (1/GPa) = 0.05120516
#
# Stress axis : x y z
#
# Youngs Moduli (GPa) = 105.18522 41.67597 79.01379
#
# Poissons Ratio (x) = -0.01286 0.03499
# Poissons Ratio (y) = -0.03246 -0.21001
# Poissons Ratio (z) = 0.04657 -0.11077
#
# Static dielectric constant tensor:
#      x y z
#    x 1.843080 0.000000 0.046620 
#    y 0.000000 1.816880 0.000000 
#    z 0.046620 0.000000 1.770460 
# 
# From -- ./inp_files/359720.got.cif
#   From: 2010.05.17/outbox.cif.g08.bks.cpg/sg12_180_cif.got.tgz:359720.got - 2010.06.03 13:09:07.
