data_PCOD9183128
_publ_section_title
;
Structure prediction by ZEFSAII (Michael W. Deem and Ramdas Pophale) SiO2 
 PCOD9183128
Probable space group: C 2/M
;
_chemical_formula_sum "Si O2"
_cell_formula_units_Z 64
_cell_length_a 23.175320
_cell_length_b 18.461346
_cell_length_c 13.001524
_cell_angle_alpha 90.000000
_cell_angle_beta 40.481653
_cell_angle_gamma 90.000000
_cell_volume 3611.311069
_symmetry_space_group_name_H-M "C 2/M"
_symmetry_group_IT_number 12
_symmetry_cell_setting 'monoclinic'
loop_
_space_group_symop_operation_xyz
x,y,z
-x,y,-z
-x,-y,-z
x,-y,z
1/2+x,1/2+y,z
1/2-x,1/2+y,-z
1/2-x,1/2-y,-z
1/2+x,1/2-y,z
loop_
_atom_site_type_symbol
_atom_site_label
_atom_site_fract_x
_atom_site_fract_y
_atom_site_fract_z
Si Si1 0.522979 0.162234 0.286149
Si Si2 0.724070 0.083647 0.535283
Si Si3 0.486536 0.916577 0.133476
Si Si4 0.184591 0.085314 0.180069
Si Si5 0.019063 0.182644 0.356488
Si Si6 0.183359 0.839273 0.398364
Si Si7 0.311848 0.168499 0.616879
Si Si8 0.823892 0.414633 0.806815
O O1 0.532684 0.129393 0.159519
O O2 0.550823 0.246050 0.254306
O O3 0.418611 0.160069 0.456116
O O4 0.581040 0.115727 0.286030
O O5 0.618460 0.083174 0.701435
O O6 0.771226 0.122480 0.566724
O O7 0.734786 0.127731 0.414815
O O8 0.752677 0.000000 0.486421
O O9 0.518956 0.000000 0.093926
O O10 0.500000 0.888958 0.000000
O O11 0.093850 0.121943 0.262749
O O12 0.207315 0.122757 0.257911
O O13 0.171985 0.000000 0.214297
O O14 0.259210 0.095308 0.992166
O O15 0.000000 0.207281 0.500000
O O16 0.923961 0.156290 0.444646
O O17 0.206728 0.754131 0.360320
O O18 0.291163 0.130744 0.753125
O O19 0.828592 0.500000 0.775556
#
# Coordination Sequence:
#
# PCOD9183128 Si02
#       8
#     8   8   8   8   8   8   8   8
#     4  10  19  33  54  78 105 140 179 211 255 320
#     4  10  20  34  55  79 106 141 181 218 258 314
#     4   9  19  33  48  73 112 144 167 212 264 305
#     4  10  22  36  52  80 110 137 174 223 276 314
#     4   9  19  36  56  77 105 135 170 225 271 310
#     4  10  20  35  58  80 103 138 181 224 262 316
#     4  10  21  37  53  78 111 143 175 217 267 307
#     4  11  22  34  53  79 110 143 177 216 259 321
#
# _framework density 17.722096000000001
#
# number of rings (size 3 to 8) (size 9 to 14) (size 15 to 20)
#    0.000    2.125    0.000    4.125    1.750    6.750 
#    0.000    0.000    0.000    0.000    0.000    2.625 
#    0.000    0.000    0.000    0.000    0.000    0.000 
#
# Total GULP energy -178627.471225 kJ/mol
# GULP energy per Si atom -5582.108476 kJ/mol
# Density = 1.768176 g / cm^3
# Si number density = 17.722096 Si / 1000 Ang^3
#
#
#
# Elastic Constant Matrix: (Units=GPa)
#
#
# Indices 1 2 3 4 5 6 
#
# 1 104.5552 80.2318 30.6923 0.0000 31.4079 0.0000
# 2 80.2318 156.8990 60.8323 0.0000 27.3967 0.0000
# 3 30.6923 60.8323 52.2481 0.0000 25.8823 0.0000
# 4 0.0000 0.0000 0.0000 17.1782 0.0000 16.9710
# 5 31.4079 27.3967 25.8823 0.0000 25.5892 0.0000
# 6 0.0000 0.0000 0.0000 16.9710 0.0000 22.1836
#
#
#
# Elastic Compliance Matrix: (Units=1/GPa)
#
#
# Indices 1 2 3 4 5 6 
#
# 1 0.025614 -0.014374 0.019319 0.000000 -0.035590 0.000000
# 2 -0.014374 0.019764 -0.025704 0.000000 0.022481 0.000000
# 3 0.019319 -0.025704 0.071814 0.000000 -0.068829 0.000000
# 4 0.000000 0.000000 0.000000 0.238382 0.000000 -0.182369
# 5 -0.035590 0.022481 -0.068829 0.000000 0.128311 0.000000
# 6 0.000000 0.000000 0.000000 -0.182369 0.000000 0.184595
#
#
# Mechanical properties :
#
#
# Convention : Reuss Voigt Hill
#
# Bulk Modulus (GPa) = 13.21440 73.02389 43.11915
# Shear Modulus (GPa) = 6.80065 22.45326 14.62696
#
# Velocity S-wave (km/s) = 1.96105 3.56331 2.87601
# Velocity P-wave (km/s) = 3.54969 7.63046 5.95081
#
# Compressibility (1/GPa) = 0.07567500
#
# Stress axis : x y z
#
# Youngs Moduli (GPa) = 39.04075 50.59645 13.92485
#
# Poissons Ratio (x) = 0.72727 -0.26902
# Poissons Ratio (y) = 0.56117 0.35792
# Poissons Ratio (z) = -0.75424 1.30053
#
# Static dielectric constant tensor:
#      x y z
#    x 1.597550 0.000000 -0.005660 
#    y 0.000000 1.600530 0.000000 
#    z -0.005660 0.000000 1.598130 
# 
# From -- ./inp_files/177121.got.cif
#   From: 2010.05.17/outbox.cif.g08.bks.cpg/sg12_89_cif.got.tgz:177121.got - 2010.06.03 13:09:07.
