data_PCOD9183656
_publ_section_title
;
Structure prediction by ZEFSAII (Michael W. Deem and Ramdas Pophale) SiO2 
 PCOD9183656
Probable space group: C 2/M
;
_chemical_formula_sum "Si O2"
_cell_formula_units_Z 64
_cell_length_a 29.357983
_cell_length_b 8.859372
_cell_length_c 19.448465
_cell_angle_alpha 90.000000
_cell_angle_beta 40.795996
_cell_angle_gamma 90.000000
_cell_volume 3305.005175
_symmetry_space_group_name_H-M "C 2/M"
_symmetry_group_IT_number 12
_symmetry_cell_setting 'monoclinic'
loop_
_space_group_symop_operation_xyz
x,y,z
-x,y,-z
-x,-y,-z
x,-y,z
1/2+x,1/2+y,z
1/2-x,1/2+y,-z
1/2-x,1/2-y,-z
1/2+x,1/2-y,z
loop_
_atom_site_type_symbol
_atom_site_label
_atom_site_fract_x
_atom_site_fract_y
_atom_site_fract_z
Si Si1 0.328758 0.178249 0.832227
Si Si2 0.896433 0.819939 0.882387
Si Si3 0.821846 0.317978 0.388227
Si Si4 0.697697 0.681688 0.887179
Si Si5 0.072584 0.174075 0.381743
Si Si6 0.715085 0.181918 0.717625
Si Si7 0.955590 0.679903 0.326369
Si Si8 0.870747 0.174359 0.535774
O O1 0.339877 0.261892 0.891429
O O2 0.264851 0.228684 0.856525
O O3 0.398228 0.218192 0.709604
O O4 0.322256 0.000000 0.851374
O O5 0.971581 0.751780 0.779139
O O6 0.899606 0.000000 0.873800
O O7 0.868737 0.778947 0.989817
O O8 0.815839 0.500000 0.399489
O O9 0.750000 0.250000 0.500000
O O10 0.829637 0.278306 0.298501
O O11 0.890379 0.272398 0.352497
O O12 0.701778 0.500000 0.876096
O O13 0.696165 0.750387 0.812974
O O14 0.123982 0.176800 0.388102
O O15 0.000000 0.215227 0.500000
O O16 0.066994 0.000000 0.362590
O O17 0.793660 0.231479 0.607706
O O18 0.716654 0.000000 0.722683
O O19 0.962118 0.500000 0.316465
O O20 0.930729 0.732774 0.430018
O O21 0.878125 0.000000 0.505215
#
# Coordination Sequence:
#
# PCOD9183656 Si02
#       8
#     8   8   8   8   8   8   8   8
#     4  11  22  37  59  87 116 147 193 245 291 343
#     4  11  24  42  61  82 115 157 199 242 292 351
#     4  10  21  37  59  89 122 155 193 236 289 351
#     4  10  23  41  61  87 117 153 197 245 293 341
#     4  10  20  33  50  77 115 157 193 227 278 344
#     4  10  20  36  60  88 117 152 193 235 285 347
#     4  11  23  38  59  88 120 154 195 245 296 343
#     4  10  19  33  55  83 117 156 193 230 283 350
#
# _framework density 19.364567999999998
#
# number of rings (size 3 to 8) (size 9 to 14) (size 15 to 20)
#    0.000    1.625    2.500    2.250    0.000    4.750 
#    0.000    0.625    0.000    3.750    0.000    0.000 
#    0.000    0.000    0.000    0.000    0.000    0.000 
#
# Total GULP energy -178683.001138 kJ/mol
# GULP energy per Si atom -5583.843786 kJ/mol
# Density = 1.932049 g / cm^3
# Si number density = 19.364568 Si / 1000 Ang^3
#
#
#
# Elastic Constant Matrix: (Units=GPa)
#
#
# Indices 1 2 3 4 5 6 
#
# 1 77.8073 20.7834 38.9172 0.0143 14.3144 -0.0073
# 2 20.7834 37.4538 40.1069 0.0326 4.7914 -0.0226
# 3 38.9172 40.1069 117.2939 0.0183 16.0895 -0.0104
# 4 0.0143 0.0326 0.0183 27.6144 -0.0136 3.7720
# 5 14.3144 4.7914 16.0895 -0.0136 28.1048 0.0079
# 6 -0.0073 -0.0226 -0.0104 3.7720 0.0079 22.4463
#
#
#
# Elastic Compliance Matrix: (Units=1/GPa)
#
#
# Indices 1 2 3 4 5 6 
#
# 1 0.016872 -0.005493 -0.002897 -0.000003 -0.005998 0.000001
# 2 -0.005493 0.043946 -0.013631 -0.000044 0.003109 0.000042
# 3 -0.002897 -0.013631 0.014788 0.000006 -0.004666 -0.000007
# 4 -0.000003 -0.000044 0.000006 0.037064 0.000025 -0.006229
# 5 -0.005998 0.003109 -0.004666 0.000025 0.040778 -0.000020
# 6 0.000001 0.000042 -0.000007 -0.006229 -0.000020 0.045597
#
#
# Mechanical properties :
#
#
# Convention : Reuss Voigt Hill
#
# Bulk Modulus (GPa) = 31.68080 48.01888 39.84984
# Shear Modulus (GPa) = 19.71548 24.48292 22.09920
#
# Velocity S-wave (km/s) = 3.19426 3.55958 3.38186
# Velocity P-wave (km/s) = 5.47724 6.46106 5.98938
#
# Compressibility (1/GPa) = 0.03156485
#
# Stress axis : x y z
#
# Youngs Moduli (GPa) = 59.26970 22.75510 67.62366
#
# Poissons Ratio (x) = 0.12499 0.19591
# Poissons Ratio (y) = 0.32556 0.92176
# Poissons Ratio (z) = 0.17170 0.31017
#
# Static dielectric constant tensor:
#      x y z
#    x 1.723280 0.000000 -0.005570 
#    y 0.000000 1.661120 0.000000 
#    z -0.005570 0.000000 1.665870 
# 
# From -- ./inp_files/295514.got.cif
#   From: 2010.05.17/outbox.cif.g08.bks.cpg/sg12_148_cif.got.tgz:295514.got - 2010.06.03 13:09:07.
