data_PCOD9183724
_publ_section_title
;
Structure prediction by ZEFSAII (Michael W. Deem and Ramdas Pophale) SiO2 
 PCOD9183724
Probable space group: C 2/M
;
_chemical_formula_sum "Si O2"
_cell_formula_units_Z 48
_cell_length_a 24.948737
_cell_length_b 13.616417
_cell_length_c 11.626267
_cell_angle_alpha 90.000000
_cell_angle_beta 32.857255
_cell_angle_gamma 90.000000
_cell_volume 2142.840242
_symmetry_space_group_name_H-M "C 2/M"
_symmetry_group_IT_number 12
_symmetry_cell_setting 'monoclinic'
loop_
_space_group_symop_operation_xyz
x,y,z
-x,y,-z
-x,-y,-z
x,-y,z
1/2+x,1/2+y,z
1/2-x,1/2+y,-z
1/2-x,1/2-y,-z
1/2+x,1/2-y,z
loop_
_atom_site_type_symbol
_atom_site_label
_atom_site_fract_x
_atom_site_fract_y
_atom_site_fract_z
Si Si1 0.712428 0.193242 0.872766
Si Si2 0.756589 0.118259 0.550163
Si Si3 0.935630 0.811835 0.501063
Si Si4 0.514784 0.109569 0.336444
Si Si5 0.305401 0.617274 0.213714
Si Si6 0.475079 0.611541 0.198530
O O1 0.698134 0.159078 0.765201
O O2 0.820591 0.162189 0.721924
O O3 0.714683 0.311450 0.856923
O O4 0.624319 0.147396 0.105491
O O5 0.739117 0.137872 0.446590
O O6 0.868435 0.157109 0.368704
O O7 0.753441 0.000000 0.567729
O O8 0.984372 0.881739 0.319180
O O9 0.000000 0.814422 0.500000
O O10 0.945437 0.701485 0.429924
O O11 0.500000 0.101403 0.500000
O O12 0.496543 0.000000 0.320457
O O13 0.300956 0.500000 0.198155
O O14 0.419924 0.643109 0.039370
O O15 0.462937 0.500000 0.183782
#
# Coordination Sequence:
#
# PCOD9183724 Si02
#       6
#     8   8   8   8   8   8
#     4  11  21  37  62  86 116 156 201 242 287 350
#     4   9  18  32  56  87 117 150 190 237 289 348
#     4  10  22  38  59  83 115 153 196 246 292 348
#     4  10  22  41  61  82 113 155 200 244 297 354
#     4  10  19  33  55  86 119 150 189 238 292 345
#     4   9  17  33  54  83 116 148 183 232 294 346
#
# _framework density 22.400176999999999
#
# number of rings (size 3 to 8) (size 9 to 14) (size 15 to 20)
#    0.000    2.167    1.667    1.500    0.000    6.333 
#    0.000    0.000    0.000    0.500    0.000    5.833 
#    0.000    0.000    0.000    0.000    0.000    0.000 
#
# Total GULP energy -133712.049693 kJ/mol
# GULP energy per Si atom -5571.335404 kJ/mol
# Density = 2.234919 g / cm^3
# Si number density = 22.400177 Si / 1000 Ang^3
#
#
#
# Elastic Constant Matrix: (Units=GPa)
#
#
# Indices 1 2 3 4 5 6 
#
# 1 26.4304 22.3836 19.6484 0.0000 17.7874 0.0000
# 2 22.3836 91.4261 35.5957 0.0000 12.3158 0.0000
# 3 19.6484 35.5957 151.2269 0.0000 15.3776 0.0000
# 4 0.0000 0.0000 0.0000 31.3365 0.0000 3.6010
# 5 17.7874 12.3158 15.3776 0.0000 26.0970 0.0000
# 6 0.0000 0.0000 0.0000 3.6010 0.0000 20.3596
#
#
#
# Elastic Compliance Matrix: (Units=1/GPa)
#
#
# Indices 1 2 3 4 5 6 
#
# 1 0.084276 -0.012817 -0.002879 0.000000 -0.049696 0.000000
# 2 -0.012817 0.014455 -0.002055 0.000000 0.003125 0.000000
# 3 -0.002879 -0.002055 0.007629 0.000000 -0.001563 0.000000
# 4 0.000000 0.000000 0.000000 0.032574 0.000000 -0.005761
# 5 -0.049696 0.003125 -0.001563 0.000000 0.071637 0.000000
# 6 0.000000 0.000000 0.000000 -0.005761 0.000000 0.050136
#
#
# Mechanical properties :
#
#
# Convention : Reuss Voigt Hill
#
# Bulk Modulus (GPa) = 14.11303 47.14875 30.63089
# Shear Modulus (GPa) = 15.63336 28.32231 21.97783
#
# Velocity S-wave (km/s) = 2.64467 3.55967 3.13572
# Velocity P-wave (km/s) = 3.95472 6.16353 5.17826
#
# Compressibility (1/GPa) = 0.07085652
#
# Stress axis : x y z
#
# Youngs Moduli (GPa) = 11.86582 69.18084 131.07329
#
# Poissons Ratio (x) = 0.88672 0.37740
# Poissons Ratio (y) = 0.15209 0.26934
# Poissons Ratio (z) = 0.03417 0.14216
#
# Static dielectric constant tensor:
#      x y z
#    x 1.889040 0.000000 0.001910 
#    y 0.000000 1.900180 0.000000 
#    z 0.001910 0.000000 1.847790 
# 
# From -- ./inp_files/143095.got.cif
#   From: 2010.05.17/outbox.cif.g08.bks.cpg/sg12_72_cif.got.tgz:143095.got - 2010.06.03 13:09:07.
