data_PCOD9183543
_publ_section_title
;
Structure prediction by ZEFSAII (Michael W. Deem and Ramdas Pophale) SiO2 
 PCOD9183543
Probable space group: C 2/M
;
_chemical_formula_sum "Si O2"
_cell_formula_units_Z 64
_cell_length_a 18.855092
_cell_length_b 10.135835
_cell_length_c 18.603583
_cell_angle_alpha 90.000000
_cell_angle_beta 81.141067
_cell_angle_gamma 90.000000
_cell_volume 3512.956061
_symmetry_space_group_name_H-M "C 2/M"
_symmetry_group_IT_number 12
_symmetry_cell_setting 'monoclinic'
loop_
_space_group_symop_operation_xyz
x,y,z
-x,y,-z
-x,-y,-z
x,-y,z
1/2+x,1/2+y,z
1/2-x,1/2+y,-z
1/2-x,1/2-y,-z
1/2+x,1/2-y,z
loop_
_atom_site_type_symbol
_atom_site_label
_atom_site_fract_x
_atom_site_fract_y
_atom_site_fract_z
Si Si1 0.437930 0.155835 0.376067
Si Si2 0.282698 0.783204 0.612153
Si Si3 0.590703 0.851056 0.310335
Si Si4 0.659007 0.641711 0.525719
Si Si5 0.796090 0.658498 0.110464
Si Si6 0.844142 0.339513 0.851089
Si Si7 0.171727 0.348126 0.731729
Si Si8 0.576815 0.158880 0.016617
O O1 0.518383 0.208857 0.354107
O O2 0.391157 0.240011 0.439141
O O3 0.399639 0.169454 0.304282
O O4 0.436760 0.000000 0.396422
O O5 0.349124 0.854542 0.638055
O O6 0.315223 0.665492 0.559286
O O7 0.230400 0.855194 0.564224
O O8 0.232092 0.739054 0.685001
O O9 0.624684 0.797275 0.231474
O O10 0.568567 0.000000 0.293957
O O11 0.623320 0.500000 0.539956
O O12 0.779381 0.500000 0.104638
O O13 0.726235 0.752182 0.120548
O O14 0.832567 0.675413 0.183150
O O15 0.854798 0.699092 0.042161
O O16 0.828961 0.500000 0.852422
O O17 0.903012 0.314328 0.903926
O O18 0.193690 0.500000 0.718619
O O19 0.573899 0.000000 0.009910
O O20 0.500000 0.210079 0.000000
#
# Coordination Sequence:
#
# PCOD9183543 Si02
#       8
#     8   8   8   8   8   8   8   8
#     4   9  20  36  53  75 106 141 177 219 268 320
#     4  10  19  34  54  77 107 137 174 220 268 320
#     4  10  20  34  54  79 106 141 180 222 267 313
#     4  10  21  36  56  79 105 139 177 220 268 322
#     4  10  19  33  55  81 109 142 178 217 264 315
#     4  10  20  35  55  81 111 142 180 223 265 310
#     4   9  17  31  52  77 104 138 176 215 261 315
#     4   9  19  33  54  84 113 143 179 220 262 309
#
# _framework density 18.218274999999998
#
# number of rings (size 3 to 8) (size 9 to 14) (size 15 to 20)
#    0.000    2.375    1.250    1.125    1.750    4.000 
#    0.000    3.750    0.000    1.500    0.000    0.000 
#    0.000    0.000    0.000    0.000    0.000    0.000 
#
# Total GULP energy -178208.578595 kJ/mol
# GULP energy per Si atom -5569.018081 kJ/mol
# Density = 1.817681 g / cm^3
# Si number density = 18.218275 Si / 1000 Ang^3
#
#
#
# Elastic Constant Matrix: (Units=GPa)
#
#
# Indices 1 2 3 4 5 6 
#
# 1 85.7639 25.1550 19.1038 0.0000 -19.5316 0.0000
# 2 25.1550 51.3498 17.7468 0.0000 -6.9485 0.0000
# 3 19.1038 17.7468 70.5281 0.0000 -4.2967 0.0000
# 4 0.0000 0.0000 0.0000 5.2262 0.0000 0.4966
# 5 -19.5316 -6.9485 -4.2967 0.0000 14.5512 0.0000
# 6 0.0000 0.0000 0.0000 0.4966 0.0000 17.5749
#
#
#
# Elastic Compliance Matrix: (Units=1/GPa)
#
#
# Indices 1 2 3 4 5 6 
#
# 1 0.018765 -0.005403 -0.002389 0.000000 0.021902 0.000000
# 2 -0.005403 0.024040 -0.004407 0.000000 0.002926 0.000000
# 3 -0.002389 -0.004407 0.015897 0.000000 -0.000617 0.000000
# 4 0.000000 0.000000 0.000000 0.191857 0.000000 -0.005421
# 5 0.021902 0.002926 -0.000617 0.000000 0.099336 0.000000
# 6 0.000000 0.000000 0.000000 -0.005421 0.000000 0.057053
#
#
# Mechanical properties :
#
#
# Convention : Reuss Voigt Hill
#
# Bulk Modulus (GPa) = 29.15161 36.85035 33.00098
# Shear Modulus (GPa) = 11.29227 17.17954 14.23591
#
# Velocity S-wave (km/s) = 2.49234 3.07414 2.79840
# Velocity P-wave (km/s) = 4.93137 5.73336 5.34742
#
# Compressibility (1/GPa) = 0.03430342
#
# Stress axis : x y z
#
# Youngs Moduli (GPa) = 53.29181 41.59686 62.90398
#
# Poissons Ratio (x) = 0.22475 0.15027
# Poissons Ratio (y) = 0.28794 0.27724
# Poissons Ratio (z) = 0.12731 0.18334
#
# Static dielectric constant tensor:
#      x y z
#    x 1.633590 0.000000 0.003180 
#    y 0.000000 1.651030 0.000000 
#    z 0.003180 0.000000 1.630550 
# 
# From -- ./inp_files/276462.got.cif
#   From: 2010.05.17/outbox.cif.g08.bks.cpg/sg12_139_cif.got.tgz:276462.got - 2010.06.03 13:09:07.
