data_PCOD9183405
_publ_section_title
;
Structure prediction by ZEFSAII (Michael W. Deem and Ramdas Pophale) SiO2 
 PCOD9183405
Probable space group: C 2/M
;
_chemical_formula_sum "Si O2"
_cell_formula_units_Z 48
_cell_length_a 31.560409
_cell_length_b 13.025484
_cell_length_c 14.239810
_cell_angle_alpha 90.000000
_cell_angle_beta 154.482690
_cell_angle_gamma 90.000000
_cell_volume 2521.738290
_symmetry_space_group_name_H-M "C 2/M"
_symmetry_group_IT_number 12
_symmetry_cell_setting 'monoclinic'
loop_
_space_group_symop_operation_xyz
x,y,z
-x,y,-z
-x,-y,-z
x,-y,z
1/2+x,1/2+y,z
1/2-x,1/2+y,-z
1/2-x,1/2-y,-z
1/2+x,1/2-y,z
loop_
_atom_site_type_symbol
_atom_site_label
_atom_site_fract_x
_atom_site_fract_y
_atom_site_fract_z
Si Si1 0.614463 0.624344 0.831828
Si Si2 0.885693 0.875650 0.374461
Si Si3 0.389072 0.181310 0.667375
Si Si4 0.389519 0.181315 0.890137
Si Si5 0.188372 0.117414 0.572282
Si Si6 0.811980 0.117384 0.819579
O O1 0.615805 0.500000 0.831272
O O2 0.648541 0.660836 0.796982
O O3 0.500088 0.655152 0.614672
O O4 0.672837 0.651706 0.042152
O O5 0.827375 0.848243 0.351400
O O6 0.884336 0.000000 0.368570
O O7 0.378185 0.162150 0.756550
O O8 0.370363 0.301841 0.608971
O O9 0.301617 0.125555 0.437639
O O10 0.499731 0.152934 0.860477
O O11 0.302129 0.125629 0.770323
O O12 0.371002 0.301859 0.874128
O O13 0.154419 0.000000 0.494379
O O14 0.846066 0.000000 0.877927
#
# Coordination Sequence:
#
# PCOD9183405 Si02
#       6
#     8   8   8   8   8   8
#     4   8  14  26  47  76 105 130 160 201 248 296
#     4   8  14  26  47  76 105 130 160 201 248 296
#     4  10  22  37  50  71 105 136 165 209 258 299
#     4  10  22  37  50  71 105 136 165 209 258 299
#     4  10  19  33  55  77  98 130 171 209 246 295
#     4  10  19  33  55  77  98 130 171 209 246 295
#
# _framework density 19.034488
#
# number of rings (size 3 to 8) (size 9 to 14) (size 15 to 20)
#    0.000    2.667    0.000    4.000    0.000    5.333 
#    0.000    6.667    0.000    3.000    0.000    4.667 
#    0.000    0.000    0.000    0.000    0.000    0.000 
#
# Total GULP energy -133776.358575 kJ/mol
# GULP energy per Si atom -5574.014941 kJ/mol
# Density = 1.899117 g / cm^3
# Si number density = 19.034488 Si / 1000 Ang^3
#
#
#
# Elastic Constant Matrix: (Units=GPa)
#
#
# Indices 1 2 3 4 5 6 
#
# 1 113.3439 -10.9069 58.0740 0.0000 -0.9154 0.0000
# 2 -10.9069 32.1042 -16.3044 0.0000 -4.5239 0.0000
# 3 58.0740 -16.3044 98.8343 0.0000 -6.4301 0.0000
# 4 0.0000 0.0000 0.0000 13.6549 0.0000 -8.0227
# 5 -0.9154 -4.5239 -6.4301 0.0000 21.6269 0.0000
# 6 0.0000 0.0000 0.0000 -8.0227 0.0000 24.1861
#
#
#
# Elastic Compliance Matrix: (Units=1/GPa)
#
#
# Indices 1 2 3 4 5 6 
#
# 1 0.012687 0.000260 -0.007519 0.000000 -0.001644 0.000000
# 2 0.000260 0.035791 0.006362 0.000000 0.009390 0.000000
# 3 -0.007519 0.006362 0.015960 0.000000 0.005758 0.000000
# 4 0.000000 0.000000 0.000000 0.090962 0.000000 0.030173
# 5 -0.001644 0.009390 0.005758 0.000000 0.049845 0.000000
# 6 0.000000 0.000000 0.000000 0.030173 0.000000 0.051355
#
#
# Mechanical properties :
#
#
# Convention : Reuss Voigt Hill
#
# Bulk Modulus (GPa) = 15.96275 34.00085 24.98180
# Shear Modulus (GPa) = 17.90356 26.12154 22.01255
#
# Velocity S-wave (km/s) = 3.07022 3.70851 3.40436
# Velocity P-wave (km/s) = 4.57961 6.01988 5.34845
#
# Compressibility (1/GPa) = 0.06264584
#
# Stress axis : x y z
#
# Youngs Moduli (GPa) = 78.82207 27.93973 62.65636
#
# Poissons Ratio (x) = -0.00727 0.47109
# Poissons Ratio (y) = -0.02050 -0.39865
# Poissons Ratio (z) = 0.59264 -0.17777
#
# Static dielectric constant tensor:
#      x y z
#    x 1.676220 0.000000 -0.008900 
#    y 0.000000 1.687000 0.000000 
#    z -0.008900 0.000000 1.664640 
# 
# From -- ./inp_files/183880.got.cif
#   From: 2010.05.17/outbox.cif.g08.bks.cpg/sg12_92_cif.got.tgz:183880.got - 2010.06.03 13:09:07.
