data_PCOD9183878
_publ_section_title
;
Structure prediction by ZEFSAII (Michael W. Deem and Ramdas Pophale) SiO2 
 PCOD9183878
Probable space group: C 2/M
;
_chemical_formula_sum "Si O2"
_cell_formula_units_Z 48
_cell_length_a 20.907707
_cell_length_b 8.630044
_cell_length_c 32.439245
_cell_angle_alpha 90.000000
_cell_angle_beta 152.461386
_cell_angle_gamma 90.000000
_cell_volume 2706.185365
_symmetry_space_group_name_H-M "C 2/M"
_symmetry_group_IT_number 12
_symmetry_cell_setting 'monoclinic'
loop_
_space_group_symop_operation_xyz
x,y,z
-x,y,-z
-x,-y,-z
x,-y,z
1/2+x,1/2+y,z
1/2-x,1/2+y,-z
1/2-x,1/2-y,-z
1/2+x,1/2-y,z
loop_
_atom_site_type_symbol
_atom_site_label
_atom_site_fract_x
_atom_site_fract_y
_atom_site_fract_z
Si Si1 0.929514 0.314069 0.272338
Si Si2 0.148131 0.188285 0.068910
Si Si3 0.115618 0.185507 0.446374
Si Si4 0.934132 0.815368 0.731968
Si Si5 0.638347 0.313008 0.554877
Si Si6 0.299141 0.186446 0.071853
O O1 0.940030 0.500000 0.278058
O O2 0.773287 0.268953 0.171045
O O3 0.984142 0.249064 0.346452
O O4 0.024672 0.249715 0.289670
O O5 0.196292 0.235440 0.050531
O O6 0.142825 0.000000 0.065342
O O7 0.000000 0.245432 0.000000
O O8 0.250000 0.250000 0.500000
O O9 0.121215 0.232097 0.497242
O O10 0.116880 0.000000 0.445026
O O11 0.778907 0.760513 0.652371
O O12 0.049574 0.747865 0.828786
O O13 0.942429 0.000000 0.736334
O O14 0.500000 0.268550 0.500000
O O15 0.652250 0.500000 0.564733
O O16 0.302362 0.000000 0.072951
O O17 0.250000 0.250000 0.000000
#
# Coordination Sequence:
#
# PCOD9183878 Si02
#       6
#     8   8   8   8   8   8
#     4  10  19  33  56  83 111 145 184 228 277 328
#     4   8  16  33  56  80 108 142 178 223 274 320
#     4  11  21  34  57  83 110 143 185 229 273 330
#     4  11  21  35  58  83 110 145 189 232 275 331
#     4  10  22  40  58  78 112 152 184 225 284 335
#     4  10  20  36  59  83 112 145 185 229 276 333
#
# _framework density 17.737144000000001
#
# number of rings (size 3 to 8) (size 9 to 14) (size 15 to 20)
#    0.000    2.000    1.667    4.000    0.000    1.000 
#    3.000    0.000    0.000   17.000    0.000    0.000 
#    0.000    0.000    0.000    0.000    0.000    0.000 
#
# Total GULP energy -133969.387711 kJ/mol
# GULP energy per Si atom -5582.057821 kJ/mol
# Density = 1.769677 g / cm^3
# Si number density = 17.737144 Si / 1000 Ang^3
#
#
#
# Elastic Constant Matrix: (Units=GPa)
#
#
# Indices 1 2 3 4 5 6 
#
# 1 119.1354 39.2851 97.9363 -0.0002 3.3702 0.0002
# 2 39.2851 58.8278 44.5061 0.0001 -0.5758 0.0001
# 3 97.9363 44.5061 161.8245 -0.0002 3.4260 0.0001
# 4 -0.0002 0.0001 -0.0002 30.8365 0.0000 -8.3123
# 5 3.3702 -0.5758 3.4260 0.0000 37.2139 0.0000
# 6 0.0002 0.0001 0.0001 -8.3123 0.0000 16.8084
#
#
#
# Elastic Compliance Matrix: (Units=1/GPa)
#
#
# Indices 1 2 3 4 5 6 
#
# 1 0.017695 -0.004717 -0.009395 0.000000 -0.000811 0.000000
# 2 -0.004717 0.022751 -0.003425 0.000000 0.001095 0.000000
# 3 -0.009395 -0.003425 0.012815 0.000000 -0.000382 0.000000
# 4 0.000000 0.000000 0.000000 0.037417 0.000000 0.018504
# 5 -0.000811 0.001095 -0.000382 0.000000 0.026997 0.000000
# 6 0.000000 0.000000 0.000000 0.018504 0.000000 0.068645
#
#
# Mechanical properties :
#
#
# Convention : Reuss Voigt Hill
#
# Bulk Modulus (GPa) = 54.98424 78.13807 66.56115
# Shear Modulus (GPa) = 21.98211 27.50912 24.74562
#
# Velocity S-wave (km/s) = 3.52423 3.94246 3.73920
# Velocity P-wave (km/s) = 6.90123 8.05438 7.50000
#
# Compressibility (1/GPa) = 0.01818703
#
# Stress axis : x y z
#
# Youngs Moduli (GPa) = 56.51255 43.95376 78.03154
#
# Poissons Ratio (x) = 0.20734 0.73307
# Poissons Ratio (y) = 0.26659 0.26729
# Poissons Ratio (z) = 0.53091 0.15056
#
# Static dielectric constant tensor:
#      x y z
#    x 1.593010 0.000000 -0.002990 
#    y 0.000000 1.597000 0.000000 
#    z -0.002990 0.000000 1.625370 
# 
# From -- ./inp_files/280811.got.cif
#   From: 2010.05.17/outbox.cif.g08.bks.cpg/sg12_141_cif.got.tgz:280811.got - 2010.06.03 13:09:07.
