data_PCOD9183934
_publ_section_title
;
Structure prediction by ZEFSAII (Michael W. Deem and Ramdas Pophale) SiO2 
 PCOD9183934
Probable space group: C 2/M
;
_chemical_formula_sum "Si O2"
_cell_formula_units_Z 56
_cell_length_a 26.959519
_cell_length_b 14.313805
_cell_length_c 9.357193
_cell_angle_alpha 90.000000
_cell_angle_beta 57.049955
_cell_angle_gamma 90.000000
_cell_volume 3030.050666
_symmetry_space_group_name_H-M "C 2/M"
_symmetry_group_IT_number 12
_symmetry_cell_setting 'monoclinic'
loop_
_space_group_symop_operation_xyz
x,y,z
-x,y,-z
-x,-y,-z
x,-y,z
1/2+x,1/2+y,z
1/2-x,1/2+y,-z
1/2-x,1/2-y,-z
1/2+x,1/2-y,z
loop_
_atom_site_type_symbol
_atom_site_label
_atom_site_fract_x
_atom_site_fract_y
_atom_site_fract_z
Si Si1 0.291523 0.610207 0.175293
Si Si2 0.497071 0.712844 0.833073
Si Si3 0.893684 0.111547 0.487831
Si Si4 0.681783 0.723062 0.600766
Si Si5 0.159798 0.607584 0.474896
Si Si6 0.529199 0.891452 0.606253
Si Si7 0.605377 0.388282 0.181280
O O1 0.296673 0.500000 0.198817
O O2 0.327102 0.666588 0.240671
O O3 0.221308 0.631508 0.297093
O O4 0.326774 0.627293 0.974269
O O5 0.551314 0.651475 0.686819
O O6 0.506366 0.817218 0.757172
O O7 0.438795 0.668065 0.852027
O O8 0.500000 0.710610 0.000000
O O9 0.836921 0.159070 0.503222
O O10 0.901675 0.136944 0.641537
O O11 0.890101 0.000000 0.483270
O O12 0.750000 0.750000 0.500000
O O13 0.651077 0.822100 0.620905
O O14 0.164821 0.500000 0.512989
O O15 0.100167 0.617746 0.478698
O O16 0.500000 0.871376 0.500000
O O17 0.517242 0.000000 0.663578
O O18 0.593066 0.500000 0.186672
#
# Coordination Sequence:
#
# PCOD9183934 Si02
#       7
#     8   8   8   8   8   8   8
#     4   9  18  35  59  87 120 151 190 236 289 355
#     4  12  24  37  61  89 123 156 196 244 295 353
#     4  11  22  38  60  86 120 158 197 243 297 357
#     4  10  19  33  56  84 114 152 192 236 286 346
#     4   9  18  34  59  86 113 151 194 238 290 344
#     4  10  21  39  64  87 115 156 200 245 294 345
#     4  10  22  38  59  90 124 157 192 239 297 358
#
# _framework density 18.481539000000001
#
# number of rings (size 3 to 8) (size 9 to 14) (size 15 to 20)
#    0.000    1.857    1.429    3.000    0.000    4.286 
#    0.000    2.857    3.143    0.000    0.000    0.000 
#    0.000    0.000    0.000    0.000    0.000    0.000 
#
# Total GULP energy -156067.184845 kJ/mol
# GULP energy per Si atom -5573.828030 kJ/mol
# Density = 1.843947 g / cm^3
# Si number density = 18.481539 Si / 1000 Ang^3
#
#
#
# Elastic Constant Matrix: (Units=GPa)
#
#
# Indices 1 2 3 4 5 6 
#
# 1 108.0493 45.1128 57.0999 0.0000 10.3658 0.0000
# 2 45.1128 83.2461 54.9969 0.0000 8.1189 0.0000
# 3 57.0999 54.9969 126.0632 0.0000 16.2176 0.0000
# 4 0.0000 0.0000 0.0000 22.9438 0.0000 -0.0518
# 5 10.3658 8.1189 16.2176 0.0000 24.5577 0.0000
# 6 0.0000 0.0000 0.0000 -0.0518 0.0000 34.5895
#
#
#
# Elastic Compliance Matrix: (Units=1/GPa)
#
#
# Indices 1 2 3 4 5 6 
#
# 1 0.013337 -0.004519 -0.003866 0.000000 -0.001582 0.000000
# 2 -0.004519 0.018422 -0.005958 0.000000 -0.000248 0.000000
# 3 -0.003866 -0.005958 0.012917 0.000000 -0.004929 0.000000
# 4 0.000000 0.000000 0.000000 0.043585 0.000000 0.000065
# 5 -0.001582 -0.000248 -0.004929 0.000000 0.044725 0.000000
# 6 0.000000 0.000000 0.000000 0.000065 0.000000 0.028911
#
#
# Mechanical properties :
#
#
# Convention : Reuss Voigt Hill
#
# Bulk Modulus (GPa) = 62.54004 70.19753 66.36879
# Shear Modulus (GPa) = 25.52174 27.09481 26.30828
#
# Velocity S-wave (km/s) = 3.72012 3.83305 3.77701
# Velocity P-wave (km/s) = 7.23637 7.59307 7.41686
#
# Compressibility (1/GPa) = 0.01598976
#
# Stress axis : x y z
#
# Youngs Moduli (GPa) = 74.98214 54.28294 77.41879
#
# Poissons Ratio (x) = 0.24531 0.29927
# Poissons Ratio (y) = 0.33886 0.46126
# Poissons Ratio (z) = 0.28985 0.32342
#
# Static dielectric constant tensor:
#      x y z
#    x 1.831100 0.000000 0.005340 
#    y 0.000000 1.662080 0.000000 
#    z 0.005340 0.000000 1.636130 
# 
# From -- ./inp_files/96744.got.cif
#   From: 2010.05.17/outbox.cif.g08.bks.cpg/sg12_49_cif.got.tgz:96744.got - 2010.06.03 13:09:07.
