data_PCOD9183523
_publ_section_title
;
Structure prediction by ZEFSAII (Michael W. Deem and Ramdas Pophale) SiO2 
 PCOD9183523
Probable space group: C 2/M
;
_chemical_formula_sum "Si O2"
_cell_formula_units_Z 64
_cell_length_a 20.692867
_cell_length_b 9.071044
_cell_length_c 23.792191
_cell_angle_alpha 90.000000
_cell_angle_beta 128.650783
_cell_angle_gamma 90.000000
_cell_volume 3487.748599
_symmetry_space_group_name_H-M "C 2/M"
_symmetry_group_IT_number 12
_symmetry_cell_setting 'monoclinic'
loop_
_space_group_symop_operation_xyz
x,y,z
-x,y,-z
-x,-y,-z
x,-y,z
1/2+x,1/2+y,z
1/2-x,1/2+y,-z
1/2-x,1/2-y,-z
1/2+x,1/2-y,z
loop_
_atom_site_type_symbol
_atom_site_label
_atom_site_fract_x
_atom_site_fract_y
_atom_site_fract_z
Si Si1 0.204404 0.322933 0.557781
Si Si2 0.559117 0.676326 0.692942
Si Si3 0.870754 0.176651 0.593728
Si Si4 0.079021 0.676121 0.583414
Si Si5 0.924689 0.169092 0.913617
Si Si6 0.641157 0.176687 0.841126
Si Si7 0.038437 0.673741 0.891549
Si Si8 0.687718 0.172958 0.061743
O O1 0.196650 0.500000 0.548891
O O2 0.156098 0.251893 0.479151
O O3 0.300606 0.283399 0.601225
O O4 0.159965 0.281284 0.591377
O O5 0.568691 0.500000 0.700265
O O6 0.464597 0.715545 0.658608
O O7 0.571830 0.735320 0.636942
O O8 0.619520 0.754527 0.769413
O O9 0.867465 0.000000 0.584176
O O10 0.080887 0.500000 0.596147
O O11 0.000000 0.702688 0.500000
O O12 0.852501 0.264007 0.902853
O O13 0.963593 0.236308 0.878336
O O14 0.898807 0.000000 0.892137
O O15 0.000000 0.171512 0.000000
O O16 0.570727 0.219892 0.848027
O O17 0.729834 0.238573 0.907950
O O18 0.643966 0.000000 0.840560
O O19 0.017594 0.500000 0.879745
O O20 0.117686 0.690754 0.975930
O O21 0.705986 0.000000 0.077069
#
# Coordination Sequence:
#
# PCOD9183523 Si02
#       8
#     8   8   8   8   8   8   8   8
#     4   9  17  31  53  79 104 131 169 212 258 311
#     4  11  23  37  53  75 107 143 180 222 274 326
#     4   9  18  32  51  76 104 133 166 211 260 310
#     4  10  19  33  55  81 106 137 174 214 264 321
#     4   9  17  30  52  82 112 142 179 223 269 320
#     4  11  23  38  55  77 108 146 187 228 279 334
#     4   9  19  35  56  82 110 144 184 230 279 329
#     4  10  19  34  57  83 112 143 181 229 280 330
#
# _framework density 18.349945000000002
#
# number of rings (size 3 to 8) (size 9 to 14) (size 15 to 20)
#    0.000    2.250    1.250    1.875    0.000    4.250 
#    0.000    1.250    0.000    4.500    0.000    0.000 
#    0.000    0.000    0.000    0.000    0.000    0.000 
#
# Total GULP energy -178548.622176 kJ/mol
# GULP energy per Si atom -5579.644443 kJ/mol
# Density = 1.830818 g / cm^3
# Si number density = 18.349945 Si / 1000 Ang^3
#
#
#
# Elastic Constant Matrix: (Units=GPa)
#
#
# Indices 1 2 3 4 5 6 
#
# 1 95.6833 29.0081 9.7724 0.0000 -16.8228 0.0000
# 2 29.0081 43.8410 16.4766 0.0000 -11.0990 0.0000
# 3 9.7724 16.4766 20.1745 0.0000 -13.1176 0.0000
# 4 0.0000 0.0000 0.0000 20.0860 0.0000 -0.3461
# 5 -16.8228 -11.0990 -13.1176 0.0000 20.5314 0.0000
# 6 0.0000 0.0000 0.0000 -0.3461 0.0000 30.4588
#
#
#
# Elastic Compliance Matrix: (Units=1/GPa)
#
#
# Indices 1 2 3 4 5 6 
#
# 1 0.014766 -0.010059 0.009227 0.000000 0.012556 0.000000
# 2 -0.010059 0.039778 -0.032488 0.000000 -0.007495 0.000000
# 3 0.009227 -0.032488 0.111409 0.000000 0.061178 0.000000
# 4 0.000000 0.000000 0.000000 0.049796 0.000000 0.000566
# 5 0.012556 -0.007495 0.061178 0.000000 0.094029 0.000000
# 6 0.000000 0.000000 0.000000 0.000566 0.000000 0.032838
#
#
# Mechanical properties :
#
#
# Convention : Reuss Voigt Hill
#
# Bulk Modulus (GPa) = 10.06917 30.02367 20.04642
# Shear Modulus (GPa) = 11.30303 21.17803 16.24053
#
# Velocity S-wave (km/s) = 2.48457 3.40092 2.97820
# Velocity P-wave (km/s) = 3.70540 5.64083 4.77226
#
# Compressibility (1/GPa) = 0.09931307
#
# Stress axis : x y z
#
# Youngs Moduli (GPa) = 67.72331 25.13973 8.97591
#
# Poissons Ratio (x) = 0.25288 -0.08282
# Poissons Ratio (y) = 0.68124 0.29161
# Poissons Ratio (z) = -0.62488 0.81673
#
# Static dielectric constant tensor:
#      x y z
#    x 1.647190 0.000000 0.010720 
#    y 0.000000 1.606980 0.000000 
#    z 0.010720 0.000000 1.619040 
# 
# From -- ./inp_files/346284.got.cif
#   From: 2010.05.17/outbox.cif.g08.bks.cpg/sg12_174_cif.got.tgz:346284.got - 2010.06.03 13:09:07.
