data_PCOD9183691
_publ_section_title
;
Structure prediction by ZEFSAII (Michael W. Deem and Ramdas Pophale) SiO2 
 PCOD9183691
Probable space group: C 2/M
;
_chemical_formula_sum "Si O2"
_cell_formula_units_Z 56
_cell_length_a 24.215762
_cell_length_b 13.167688
_cell_length_c 8.656344
_cell_angle_alpha 90.000000
_cell_angle_beta 64.958272
_cell_angle_gamma 90.000000
_cell_volume 2500.749874
_symmetry_space_group_name_H-M "C 2/M"
_symmetry_group_IT_number 12
_symmetry_cell_setting 'monoclinic'
loop_
_space_group_symop_operation_xyz
x,y,z
-x,y,-z
-x,-y,-z
x,-y,z
1/2+x,1/2+y,z
1/2-x,1/2+y,-z
1/2-x,1/2-y,-z
1/2+x,1/2-y,z
loop_
_atom_site_type_symbol
_atom_site_label
_atom_site_fract_x
_atom_site_fract_y
_atom_site_fract_z
Si Si1 0.110028 0.220963 0.027959
Si Si2 0.729047 0.331769 0.743143
Si Si3 0.064532 0.679812 0.513354
Si Si4 0.165765 0.607939 0.170008
Si Si5 0.770140 0.389161 0.354920
Si Si6 0.928772 0.111571 0.621219
Si Si7 0.917471 0.615233 0.166667
O O1 0.151702 0.299145 0.076200
O O2 0.078860 0.151162 0.193687
O O3 0.157499 0.161478 0.864274
O O4 0.069156 0.296809 0.973836
O O5 0.769129 0.382268 0.827805
O O6 0.745253 0.377500 0.558028
O O7 0.748683 0.212579 0.712039
O O8 0.114668 0.614087 0.364270
O O9 0.090420 0.795145 0.466503
O O10 0.056805 0.643711 0.696333
O O11 0.000000 0.674886 0.500000
O O12 0.159752 0.500000 0.094377
O O13 0.752597 0.500000 0.313413
O O14 0.843774 0.383533 0.274247
O O15 0.000000 0.102068 0.500000
O O16 0.900390 0.000000 0.634138
O O17 0.933950 0.500000 0.102705
#
# Coordination Sequence:
#
# PCOD9183691 Si02
#       7
#     8   8   8   8   8   8   8
#     4  10  22  37  59  89 122 153 202 253 298 362
#     4  10  19  33  55  84 123 158 195 243 291 356
#     4  10  21  38  63  89 117 158 208 252 293 358
#     4  11  21  36  57  83 121 165 200 241 303 357
#     4   9  18  33  55  84 122 165 198 236 294 359
#     4   9  20  42  65  82 110 153 199 253 309 355
#     4  10  19  36  61  90 127 164 197 243 304 360
#
# _framework density 22.393283
#
# number of rings (size 3 to 8) (size 9 to 14) (size 15 to 20)
#    0.000    2.143    1.429    1.714    0.000    2.857 
#    0.000   10.000    0.000   14.143    0.000    0.000 
#    0.000    0.000    0.000    0.000    0.000    0.000 
#
# Total GULP energy -156429.353952 kJ/mol
# GULP energy per Si atom -5586.762641 kJ/mol
# Density = 2.234231 g / cm^3
# Si number density = 22.393283 Si / 1000 Ang^3
#
#
#
# Elastic Constant Matrix: (Units=GPa)
#
#
# Indices 1 2 3 4 5 6 
#
# 1 61.0718 18.3257 21.7873 0.0000 1.5140 0.0000
# 2 18.3257 133.1244 11.3612 0.0000 -8.1027 0.0000
# 3 21.7873 11.3612 95.8319 0.0000 -18.7497 0.0000
# 4 0.0000 0.0000 0.0000 24.0589 0.0000 -30.8024
# 5 1.5140 -8.1027 -18.7497 0.0000 33.5686 0.0000
# 6 0.0000 0.0000 0.0000 -30.8024 0.0000 64.9768
#
#
#
# Elastic Compliance Matrix: (Units=1/GPa)
#
#
# Indices 1 2 3 4 5 6 
#
# 1 0.018932 -0.002446 -0.004824 0.000000 -0.004139 0.000000
# 2 -0.002446 0.007972 0.000010 0.000000 0.002040 0.000000
# 3 -0.004824 0.000010 0.012993 0.000000 0.007477 0.000000
# 4 0.000000 0.000000 0.000000 0.105742 0.000000 0.050127
# 5 -0.004139 0.002040 0.007477 0.000000 0.034645 0.000000
# 6 0.000000 0.000000 0.000000 0.050127 0.000000 0.039153
#
#
# Mechanical properties :
#
#
# Convention : Reuss Voigt Hill
#
# Bulk Modulus (GPa) = 39.40550 43.66405 41.53478
# Shear Modulus (GPa) = 20.62567 40.42446 30.52506
#
# Velocity S-wave (km/s) = 3.03820 4.25338 3.69607
# Velocity P-wave (km/s) = 5.47200 6.60778 6.06653
#
# Compressibility (1/GPa) = 0.02537717
#
# Stress axis : x y z
#
# Youngs Moduli (GPa) = 52.82128 125.44153 76.96212
#
# Poissons Ratio (x) = 0.30687 0.37125
# Poissons Ratio (y) = 0.12922 -0.00079
# Poissons Ratio (z) = 0.25480 -0.00129
#
# Static dielectric constant tensor:
#      x y z
#    x 1.805370 0.000000 -0.019160 
#    y 0.000000 1.866090 0.000000 
#    z -0.019160 0.000000 1.836150 
# 
# From -- ./inp_files/96238.got.cif
#   From: 2010.05.17/outbox.cif.g08.bks.cpg/sg12_49_cif.got.tgz:96238.got - 2010.06.03 13:09:07.
