data_PCOD9183805
_publ_section_title
;
Structure prediction by ZEFSAII (Michael W. Deem and Ramdas Pophale) SiO2 
 PCOD9183805
Probable space group: C 2/M
;
_chemical_formula_sum "Si O2"
_cell_formula_units_Z 48
_cell_length_a 16.410066
_cell_length_b 7.709207
_cell_length_c 16.399308
_cell_angle_alpha 90.000000
_cell_angle_beta 77.949810
_cell_angle_gamma 90.000000
_cell_volume 2028.938642
_symmetry_space_group_name_H-M "C 2/M"
_symmetry_group_IT_number 12
_symmetry_cell_setting 'monoclinic'
loop_
_space_group_symop_operation_xyz
x,y,z
-x,y,-z
-x,-y,-z
x,-y,z
1/2+x,1/2+y,z
1/2-x,1/2+y,-z
1/2-x,1/2-y,-z
1/2+x,1/2-y,z
loop_
_atom_site_type_symbol
_atom_site_label
_atom_site_fract_x
_atom_site_fract_y
_atom_site_fract_z
Si Si1 0.474956 0.299227 0.735889
Si Si2 0.416158 0.200239 0.053147
Si Si3 0.130299 0.500000 0.532703
Si Si4 0.434565 0.000000 0.627772
Si Si5 0.360167 0.706979 0.898378
Si Si6 0.718909 0.789369 0.799091
Si Si7 0.333908 0.305212 0.360510
O O1 0.450390 0.500000 0.727472
O O2 0.428492 0.170340 0.684416
O O3 0.447374 0.255075 0.833511
O O4 0.572524 0.283226 0.696524
O O5 0.365415 0.275985 0.138977
O O6 0.435048 0.000000 0.069722
O O7 0.500000 0.285038 0.000000
O O8 0.356073 0.203818 0.986386
O O9 0.126581 0.500000 0.436209
O O10 0.171239 0.665990 0.566905
O O11 0.031504 0.500000 0.577213
O O12 0.353457 0.500000 0.912702
O O13 0.292049 0.759813 0.845784
O O14 0.724008 0.725341 0.705774
O O15 0.716339 0.000000 0.796772
O O16 0.326278 0.500000 0.393245
#
# Coordination Sequence:
#
# PCOD9183805 Si02
#       7
#     8   8   4   4   8   8   8
#     4   9  19  34  53  82 110 138 185 227 267 328
#     4  10  21  34  52  78 108 143 186 230 271 318
#     4   9  18  34  54  85 115 135 177 225 271 333
#     4   9  18  32  58  83 109 147 169 219 289 319
#     4  10  21  35  52  76 107 147 182 229 272 317
#     4  10  20  35  52  75 110 149 182 229 272 320
#     4  10  19  33  56  81 108 144 181 224 275 323
#
# _framework density 23.657688
#
# number of rings (size 3 to 8) (size 9 to 14) (size 15 to 20)
#    0.000    2.333    0.833    1.500    1.167    2.333 
#    0.000    3.333    0.000    1.000    0.000    0.000 
#    0.000    0.000    0.000    0.000    0.000    0.000 
#
# Total GULP energy -134204.625572 kJ/mol
# GULP energy per Si atom -5591.859399 kJ/mol
# Density = 2.360384 g / cm^3
# Si number density = 23.657688 Si / 1000 Ang^3
#
#
#
# Elastic Constant Matrix: (Units=GPa)
#
#
# Indices 1 2 3 4 5 6 
#
# 1 73.5623 11.3934 8.0357 0.0000 5.9072 0.0000
# 2 11.3934 82.6386 45.7934 0.0000 13.7739 0.0000
# 3 8.0357 45.7934 120.1787 0.0000 27.7078 0.0000
# 4 0.0000 0.0000 0.0000 25.6465 0.0000 5.1700
# 5 5.9072 13.7739 27.7078 0.0000 42.6983 0.0000
# 6 0.0000 0.0000 0.0000 5.1700 0.0000 7.4565
#
#
#
# Elastic Compliance Matrix: (Units=1/GPa)
#
#
# Indices 1 2 3 4 5 6 
#
# 1 0.013968 -0.001716 0.000044 0.000000 -0.001408 0.000000
# 2 -0.001716 0.015618 -0.005562 0.000000 -0.001192 0.000000
# 3 0.000044 -0.005562 0.011789 0.000000 -0.005862 0.000000
# 4 0.000000 0.000000 0.000000 0.045327 0.000000 -0.031428
# 5 -0.001408 -0.001192 -0.005862 0.000000 0.027803 0.000000
# 6 0.000000 0.000000 0.000000 -0.031428 0.000000 0.155901
#
#
# Mechanical properties :
#
#
# Convention : Reuss Voigt Hill
#
# Bulk Modulus (GPa) = 37.16290 45.20276 41.18283
# Shear Modulus (GPa) = 17.01595 29.23739 23.12667
#
# Velocity S-wave (km/s) = 2.68481 3.51928 3.12998
# Velocity P-wave (km/s) = 5.03524 5.97179 5.52340
#
# Compressibility (1/GPa) = 0.02690856
#
# Stress axis : x y z
#
# Youngs Moduli (GPa) = 71.59301 64.02867 84.82680
#
# Poissons Ratio (x) = 0.10985 -0.00376
# Poissons Ratio (y) = 0.12283 0.47178
# Poissons Ratio (z) = -0.00318 0.35611
#
# Static dielectric constant tensor:
#      x y z
#    x 1.999430 0.000000 -0.008480 
#    y 0.000000 1.837300 0.000000 
#    z -0.008480 0.000000 1.830420 
# 
# From -- ./inp_files/221761.got.cif
#   From: 2010.05.17/outbox.cif.g08.bks.cpg/sg12_111_cif.got.tgz:221761.got - 2010.06.03 13:09:07.
