data_PCOD9183461
_publ_section_title
;
Structure prediction by ZEFSAII (Michael W. Deem and Ramdas Pophale) SiO2 
 PCOD9183461
Probable space group: C 2/M
;
_chemical_formula_sum "Si O2"
_cell_formula_units_Z 64
_cell_length_a 17.728386
_cell_length_b 15.816513
_cell_length_c 24.668405
_cell_angle_alpha 90.000000
_cell_angle_beta 150.226335
_cell_angle_gamma 90.000000
_cell_volume 3434.835251
_symmetry_space_group_name_H-M "C 2/M"
_symmetry_group_IT_number 12
_symmetry_cell_setting 'monoclinic'
loop_
_space_group_symop_operation_xyz
x,y,z
-x,y,-z
-x,-y,-z
x,-y,z
1/2+x,1/2+y,z
1/2-x,1/2+y,-z
1/2-x,1/2-y,-z
1/2+x,1/2-y,z
loop_
_atom_site_type_symbol
_atom_site_label
_atom_site_fract_x
_atom_site_fract_y
_atom_site_fract_z
Si Si1 0.993454 0.597331 0.337454
Si Si2 0.663084 0.601061 0.435188
Si Si3 0.262369 0.901837 0.102435
Si Si4 0.597892 0.804716 0.897606
Si Si5 0.333977 0.706880 0.669648
Si Si6 0.544909 0.326364 0.470061
Si Si7 0.008628 0.766791 0.066094
Si Si8 0.809114 0.327030 0.311229
O O1 0.010650 0.500000 0.332814
O O2 0.876790 0.632260 0.220253
O O3 0.915529 0.606340 0.347301
O O4 0.163311 0.632020 0.444722
O O5 0.664511 0.500000 0.425915
O O6 0.620754 0.652450 0.354498
O O7 0.564407 0.620167 0.427307
O O8 0.352844 0.888627 0.102745
O O9 0.224771 0.000000 0.088785
O O10 0.114577 0.842945 0.008353
O O11 0.477808 0.753659 0.785866
O O12 0.527937 0.806331 0.913558
O O13 0.750000 0.750000 0.000000
O O14 0.204223 0.776028 0.575556
O O15 0.256728 0.652587 0.670429
O O16 0.500000 0.368957 0.500000
O O17 0.414158 0.256098 0.380965
O O18 0.167368 0.806223 0.184143
O O19 0.000000 0.734563 0.000000
#
# Coordination Sequence:
#
# PCOD9183461 Si02
#       8
#     8   8   8   8   8   8   8   8
#     4  10  20  32  52  82 114 148 180 222 279 332
#     4  11  23  36  55  83 113 147 184 227 278 329
#     4  10  20  34  54  81 113 145 180 226 279 329
#     4   9  20  35  54  81 106 143 182 222 270 320
#     4  10  20  35  57  80 110 144 187 226 273 328
#     4  10  21  36  57  80 107 147 190 232 271 320
#     4  10  19  33  55  79 109 139 185 230 272 324
#     4  10  20  34  52  81 108 146 186 225 271 327
#
# _framework density 18.632625999999998
#
# number of rings (size 3 to 8) (size 9 to 14) (size 15 to 20)
#    0.000    2.000    2.500    1.125    1.750    1.500 
#    0.000    6.250    0.000    4.875    0.000    0.000 
#    0.000    0.000    0.000    0.000    0.000    0.000 
#
# Total GULP energy -178272.531709 kJ/mol
# GULP energy per Si atom -5571.016616 kJ/mol
# Density = 1.859022 g / cm^3
# Si number density = 18.632626 Si / 1000 Ang^3
#
#
#
# Elastic Constant Matrix: (Units=GPa)
#
#
# Indices 1 2 3 4 5 6 
#
# 1 127.1195 14.5570 27.1633 -0.0001 -19.8249 0.0000
# 2 14.5570 14.4037 16.9581 0.0006 -3.3841 0.0002
# 3 27.1633 16.9581 105.0114 0.0011 -2.3484 0.0004
# 4 -0.0001 0.0006 0.0011 8.6168 0.0006 0.0601
# 5 -19.8249 -3.3841 -2.3484 0.0006 28.6959 0.0001
# 6 0.0000 0.0002 0.0004 0.0601 0.0001 20.2604
#
#
#
# Elastic Compliance Matrix: (Units=1/GPa)
#
#
# Indices 1 2 3 4 5 6 
#
# 1 0.009868 -0.007089 -0.001276 0.000000 0.005877 0.000000
# 2 -0.007089 0.093200 -0.013105 -0.000005 0.005021 -0.000001
# 3 -0.001276 -0.013105 0.011937 -0.000001 -0.001450 0.000000
# 4 0.000000 -0.000005 -0.000001 0.116055 -0.000003 -0.000344
# 5 0.005877 0.005021 -0.001450 -0.000003 0.039382 0.000000
# 6 0.000000 -0.000001 0.000000 -0.000344 0.000000 0.049358
#
#
# Mechanical properties :
#
#
# Convention : Reuss Voigt Hill
#
# Bulk Modulus (GPa) = 13.87662 40.43237 27.15450
# Shear Modulus (GPa) = 12.92790 24.03837 18.48314
#
# Velocity S-wave (km/s) = 2.63693 3.59572 3.15298
# Velocity P-wave (km/s) = 4.09082 6.24387 5.27829
#
# Compressibility (1/GPa) = 0.07206364
#
# Stress axis : x y z
#
# Youngs Moduli (GPa) = 101.34113 10.72965 83.77541
#
# Poissons Ratio (x) = 0.07607 0.10691
# Poissons Ratio (y) = 0.71846 1.09784
# Poissons Ratio (z) = 0.12933 0.14061
#
# Static dielectric constant tensor:
#      x y z
#    x 1.716580 0.000000 -0.009500 
#    y 0.000000 1.618980 0.000000 
#    z -0.009500 0.000000 1.658800 
# 
# From -- ./inp_files/344062.got.cif
#   From: 2010.05.17/outbox.cif.g08.bks.cpg/sg12_173_cif.got.tgz:344062.got - 2010.06.03 13:09:07.
