data_PCOD9183799
_publ_section_title
;
Structure prediction by ZEFSAII (Michael W. Deem and Ramdas Pophale) SiO2 
 PCOD9183799
Probable space group: C 2/M
;
_chemical_formula_sum "Si O2"
_cell_formula_units_Z 48
_cell_length_a 30.243861
_cell_length_b 8.916320
_cell_length_c 10.345935
_cell_angle_alpha 90.000000
_cell_angle_beta 80.513538
_cell_angle_gamma 90.000000
_cell_volume 2751.772196
_symmetry_space_group_name_H-M "C 2/M"
_symmetry_group_IT_number 12
_symmetry_cell_setting 'monoclinic'
loop_
_space_group_symop_operation_xyz
x,y,z
-x,y,-z
-x,-y,-z
x,-y,z
1/2+x,1/2+y,z
1/2-x,1/2+y,-z
1/2-x,1/2-y,-z
1/2+x,1/2-y,z
loop_
_atom_site_type_symbol
_atom_site_label
_atom_site_fract_x
_atom_site_fract_y
_atom_site_fract_z
Si Si1 0.882364 0.321900 0.337510
Si Si2 0.381024 0.177712 0.033720
Si Si3 0.972276 0.819740 0.385777
Si Si4 0.284822 0.679504 0.083292
Si Si5 0.214368 0.179993 0.615544
Si Si6 0.030813 0.179641 0.108394
O O1 0.877777 0.500000 0.357712
O O2 0.891596 0.293207 0.180405
O O3 0.924253 0.258295 0.396280
O O4 0.835329 0.242025 0.390378
O O5 0.334465 0.260353 0.028203
O O6 0.375462 0.000000 0.019809
O O7 0.421967 0.238909 0.930210
O O8 0.000000 0.780937 0.500000
O O9 0.003010 0.778837 0.248544
O O10 0.965484 0.000000 0.386404
O O11 0.283732 0.500000 0.074625
O O12 0.275665 0.720264 0.238602
O O13 0.250000 0.750000 0.000000
O O14 0.250000 0.250000 0.500000
O O15 0.214703 0.000000 0.605557
O O16 0.038233 0.000000 0.105734
O O17 0.000000 0.215970 0.000000
#
# Coordination Sequence:
#
# PCOD9183799 Si02
#       6
#     8   8   8   8   8   8
#     4  10  20  35  57  82 110 145 185 227 273 327
#     4  10  20  34  56  84 111 143 185 228 273 325
#     4  10  21  37  55  78 110 145 182 226 278 328
#     4  10  21  38  60  85 115 147 183 229 281 332
#     4  10  21  38  61  86 112 145 187 231 276 332
#     4  10  19  33  56  81 106 140 184 228 269 324
#
# _framework density 17.443304000000001
#
# number of rings (size 3 to 8) (size 9 to 14) (size 15 to 20)
#    0.000    2.000    1.667    2.000    0.000    4.667 
#    3.000    0.000    0.000    0.000    0.000    0.000 
#    0.000    0.000    0.000    0.000    0.000    0.000 
#
# Total GULP energy -133999.536367 kJ/mol
# GULP energy per Si atom -5583.314015 kJ/mol
# Density = 1.740360 g / cm^3
# Si number density = 17.443304 Si / 1000 Ang^3
#
#
#
# Elastic Constant Matrix: (Units=GPa)
#
#
# Indices 1 2 3 4 5 6 
#
# 1 165.1123 71.4490 89.0218 0.0000 0.6238 0.0000
# 2 71.4490 54.8043 49.5095 0.0000 0.6356 0.0000
# 3 89.0218 49.5095 112.6658 0.0000 -5.7384 0.0000
# 4 0.0000 0.0000 0.0000 21.0296 0.0000 -4.3302
# 5 0.6238 0.6356 -5.7384 0.0000 30.6553 0.0000
# 6 0.0000 0.0000 0.0000 -4.3302 0.0000 38.9287
#
#
#
# Elastic Compliance Matrix: (Units=1/GPa)
#
#
# Indices 1 2 3 4 5 6 
#
# 1 0.015872 -0.015423 -0.005820 0.000000 -0.001093 0.000000
# 2 -0.015423 0.045549 -0.007937 0.000000 -0.002116 0.000000
# 3 -0.005820 -0.007937 0.017140 0.000000 0.003491 0.000000
# 4 0.000000 0.000000 0.000000 0.048667 0.000000 0.005413
# 5 -0.001093 -0.002116 0.003491 0.000000 0.033340 0.000000
# 6 0.000000 0.000000 0.000000 0.005413 0.000000 0.026290
#
#
# Mechanical properties :
#
#
# Convention : Reuss Voigt Hill
#
# Bulk Modulus (GPa) = 49.50181 83.61589 66.55885
# Shear Modulus (GPa) = 19.84511 26.29619 23.07065
#
# Velocity S-wave (km/s) = 3.37663 3.88690 3.64071
# Velocity P-wave (km/s) = 6.60624 8.25735 7.47751
#
# Compressibility (1/GPa) = 0.02020128
#
# Stress axis : x y z
#
# Youngs Moduli (GPa) = 63.00348 21.95452 58.34327
#
# Poissons Ratio (x) = 0.33860 0.33953
# Poissons Ratio (y) = 0.97168 0.46310
# Poissons Ratio (z) = 0.36665 0.17426
#
# Static dielectric constant tensor:
#      x y z
#    x 1.557890 0.000000 0.005310 
#    y 0.000000 1.581870 0.000000 
#    z 0.005310 0.000000 1.583980 
# 
# From -- ./inp_files/172089.got.cif
#   From: 2010.05.17/outbox.cif.g08.bks.cpg/sg12_87_cif.got.tgz:172089.got - 2010.06.03 13:09:07.
