data_PCOD9183023
_publ_section_title
;
Structure prediction by ZEFSAII (Michael W. Deem and Ramdas Pophale) SiO2 
 PCOD9183023
Probable space group: C 2/M
;
_chemical_formula_sum "Si O2"
_cell_formula_units_Z 64
_cell_length_a 15.446378
_cell_length_b 15.908056
_cell_length_c 17.293713
_cell_angle_alpha 90.000000
_cell_angle_beta 49.539945
_cell_angle_gamma 90.000000
_cell_volume 3233.225137
_symmetry_space_group_name_H-M "C 2/M"
_symmetry_group_IT_number 12
_symmetry_cell_setting 'monoclinic'
loop_
_space_group_symop_operation_xyz
x,y,z
-x,y,-z
-x,-y,-z
x,-y,z
1/2+x,1/2+y,z
1/2-x,1/2+y,-z
1/2-x,1/2-y,-z
1/2+x,1/2-y,z
loop_
_atom_site_type_symbol
_atom_site_label
_atom_site_fract_x
_atom_site_fract_y
_atom_site_fract_z
Si Si1 0.681241 0.257845 0.791755
Si Si2 0.012620 0.909647 0.733081
Si Si3 0.483180 0.375256 0.923768
Si Si4 0.274451 0.847889 0.968863
Si Si5 0.856382 0.396871 0.760567
Si Si6 0.213654 0.794130 0.599283
Si Si7 0.244380 0.404302 0.854714
Si Si8 0.929773 0.407106 0.461757
O O1 0.551221 0.286585 0.883763
O O2 0.759512 0.336889 0.777113
O O3 0.703168 0.247085 0.687508
O O4 0.708680 0.172417 0.820965
O O5 0.029803 0.912250 0.816208
O O6 0.092563 0.837465 0.656160
O O7 0.880466 0.896105 0.791050
O O8 0.046616 0.000000 0.681042
O O9 0.500000 0.410139 0.000000
O O10 0.349059 0.378405 0.988086
O O11 0.355397 0.870426 0.851020
O O12 0.250000 0.750000 0.000000
O O13 0.308327 0.890515 0.029538
O O14 0.838642 0.500000 0.761712
O O15 0.978214 0.373252 0.652850
O O16 0.250000 0.750000 0.500000
O O17 0.314766 0.860749 0.549277
O O18 0.222164 0.500000 0.840660
O O19 0.899206 0.500000 0.451907
O O20 0.000000 0.411690 0.500000
#
# Coordination Sequence:
#
# PCOD9183023 Si02
#       8
#     8   8   8   8   8   8   8   8
#     4  11  22  39  60  87 119 157 196 249 295 356
#     4   9  21  37  57  85 116 152 195 247 298 348
#     4  10  19  33  53  91 119 152 187 232 299 355
#     4  11  20  36  61  88 123 160 193 244 291 353
#     4  11  22  35  58  91 119 149 196 242 298 356
#     4  11  24  38  59  86 116 154 195 247 308 359
#     4  10  21  40  63  87 120 164 204 240 290 352
#     4  10  21  37  59  85 115 153 196 245 302 360
#
# _framework density 19.794476
#
# number of rings (size 3 to 8) (size 9 to 14) (size 15 to 20)
#    0.000    1.625    3.750    0.750    1.750    3.750 
#    0.000    1.250    0.000    5.625    0.000    0.000 
#    0.000    0.000    0.000    0.000    0.000    0.000 
#
# Total GULP energy -178349.667237 kJ/mol
# GULP energy per Si atom -5573.427101 kJ/mol
# Density = 1.974942 g / cm^3
# Si number density = 19.794476 Si / 1000 Ang^3
#
#
#
# Elastic Constant Matrix: (Units=GPa)
#
#
# Indices 1 2 3 4 5 6 
#
# 1 29.9734 20.6795 11.9438 0.0000 19.7622 0.0000
# 2 20.6795 91.2116 25.3931 0.0000 17.7538 0.0000
# 3 11.9438 25.3931 133.4145 0.0000 26.0646 0.0000
# 4 0.0000 0.0000 0.0000 -3.8212 0.0000 -35.3855
# 5 19.7622 17.7538 26.0646 0.0000 25.2532 0.0000
# 6 0.0000 0.0000 0.0000 -35.3855 0.0000 -112.7781
#
#
#
# Elastic Compliance Matrix: (Units=1/GPa)
#
#
# Indices 1 2 3 4 5 6 
#
# 1 0.076059 -0.007140 0.006510 0.000000 -0.061221 0.000000
# 2 -0.007140 0.013448 -0.001459 0.000000 -0.002361 0.000000
# 3 0.006510 -0.001459 0.010002 0.000000 -0.014392 0.000000
# 4 0.000000 0.000000 0.000000 0.137335 0.000000 -0.043091
# 5 -0.061221 -0.002361 -0.014392 0.000000 0.104022 0.000000
# 6 0.000000 0.000000 0.000000 -0.043091 0.000000 0.004653
#
#
# Mechanical properties :
#
#
# Convention : Reuss Voigt Hill
#
# Bulk Modulus (GPa) = 10.48974 41.18134 25.83554
# Shear Modulus (GPa) = 13.10699 -5.16366 3.97166
#
# Velocity S-wave (km/s) = 2.57603 -1.61688 1.41803
# Velocity P-wave (km/s) = 3.76281 4.16700 3.97005
#
# Compressibility (1/GPa) = 0.09533121
#
# Stress axis : x y z
#
# Youngs Moduli (GPa) = 13.14761 74.35996 99.97898
#
# Poissons Ratio (x) = 0.53096 -0.65089
# Poissons Ratio (y) = 0.09388 0.14589
# Poissons Ratio (z) = -0.08560 0.10851
#
# Static dielectric constant tensor:
#      x y z
#    x 1.658410 0.000000 0.018270 
#    y 0.000000 1.780960 0.000000 
#    z 0.018270 0.000000 1.705950 
# 
# From -- ./inp_files/270680.got.cif
#   From: 2010.05.17/outbox.cif.g08.bks.cpg/sg12_136_cif.got.tgz:270680.got - 2010.06.03 13:09:07.
