data_PCOD9183813
_publ_section_title
;
Structure prediction by ZEFSAII (Michael W. Deem and Ramdas Pophale) SiO2 
 PCOD9183813
Probable space group: C 2/M
;
_chemical_formula_sum "Si O2"
_cell_formula_units_Z 64
_cell_length_a 26.627147
_cell_length_b 19.069373
_cell_length_c 19.515160
_cell_angle_alpha 90.000000
_cell_angle_beta 18.005590
_cell_angle_gamma 90.000000
_cell_volume 3062.992365
_symmetry_space_group_name_H-M "C 2/M"
_symmetry_group_IT_number 12
_symmetry_cell_setting 'monoclinic'
loop_
_space_group_symop_operation_xyz
x,y,z
-x,y,-z
-x,-y,-z
x,-y,z
1/2+x,1/2+y,z
1/2-x,1/2+y,-z
1/2-x,1/2-y,-z
1/2+x,1/2-y,z
loop_
_atom_site_type_symbol
_atom_site_label
_atom_site_fract_x
_atom_site_fract_y
_atom_site_fract_z
Si Si1 0.185968 0.081563 0.178231
Si Si2 0.873688 0.177135 0.227402
Si Si3 0.820135 0.195865 0.557072
Si Si4 0.468623 0.207221 0.619665
Si Si5 0.668485 0.349559 0.058506
Si Si6 0.790649 0.081783 0.698927
Si Si7 0.085264 0.077214 0.034753
Si Si8 0.651960 0.079147 0.429075
O O1 0.228272 0.124156 0.055267
O O2 0.249240 0.104835 0.171146
O O3 0.988463 0.083858 0.438235
O O4 0.231406 0.000000 0.111046
O O5 0.795277 0.253633 0.337001
O O6 0.738437 0.121090 0.378191
O O7 0.966641 0.140921 0.169141
O O8 0.000000 0.183142 0.000000
O O9 0.735727 0.133313 0.709437
O O10 0.903305 0.245866 0.506295
O O11 0.978551 0.169058 0.312140
O O12 0.500000 0.219737 0.500000
O O13 0.508569 0.127245 0.587517
O O14 0.282202 0.213743 0.884264
O O15 0.667303 0.408162 0.000867
O O16 0.743446 0.000000 0.751525
O O17 0.006372 0.000000 0.136378
O O18 0.218646 0.077101 0.801256
O O19 0.608020 0.000000 0.504135
#
# Coordination Sequence:
#
# PCOD9183813 Si02
#       8
#     8   8   8   8   8   8   8   8
#     4   8  15  28  48  76 108 137 176 219 267 327
#     4   9  19  37  56  81 105 144 198 236 280 332
#     4  10  22  36  57  80 110 146 186 240 286 332
#     4  11  22  35  50  78 117 154 183 220 278 347
#     4  11  21  33  50  83 115 152 186 228 275 337
#     4   8  15  31  54  78 101 138 181 227 280 334
#     4  10  19  33  56  81 112 151 193 237 273 321
#     4   9  18  34  55  78 106 149 191 227 267 324
#
# _framework density 20.894600000000001
#
# number of rings (size 3 to 8) (size 9 to 14) (size 15 to 20)
#    0.000    2.500    1.250    1.875    3.500    3.750 
#    0.000    0.000    0.000    0.375    0.000    3.500 
#    0.000    0.000    0.000    0.000    0.000    0.625 
#
# Total GULP energy -178469.328211 kJ/mol
# GULP energy per Si atom -5577.166507 kJ/mol
# Density = 2.084704 g / cm^3
# Si number density = 20.894600 Si / 1000 Ang^3
#
#
#
# Elastic Constant Matrix: (Units=GPa)
#
#
# Indices 1 2 3 4 5 6 
#
# 1 62.4570 31.3527 27.0738 0.0004 14.3345 -0.0028
# 2 31.3527 95.6583 11.2165 -0.0039 4.3169 -0.0024
# 3 27.0738 11.2165 35.3359 -0.0032 16.0320 -0.0028
# 4 0.0004 -0.0039 -0.0032 2.5845 0.0061 2.6067
# 5 14.3345 4.3169 16.0320 0.0061 22.2640 0.0013
# 6 -0.0028 -0.0024 -0.0028 2.6067 0.0013 10.4186
#
#
#
# Elastic Compliance Matrix: (Units=1/GPa)
#
#
# Indices 1 2 3 4 5 6 
#
# 1 0.027969 -0.006947 -0.017326 -0.000037 -0.004185 0.000011
# 2 -0.006947 0.012588 0.000601 0.000022 0.001599 -0.000004
# 3 -0.017326 0.000601 0.054026 0.000163 -0.027865 -0.000027
# 4 -0.000037 0.000022 0.000163 0.517525 -0.000233 -0.129483
# 5 -0.004185 0.001599 -0.027865 -0.000233 0.067365 0.000041
# 6 0.000011 -0.000004 -0.000027 -0.129483 0.000041 0.128379
#
#
# Mechanical properties :
#
#
# Convention : Reuss Voigt Hill
#
# Bulk Modulus (GPa) = 21.16810 36.97080 29.06945
# Shear Modulus (GPa) = 5.74092 15.30730 10.52411
#
# Velocity S-wave (km/s) = 1.65938 2.70959 2.24671
# Velocity P-wave (km/s) = 3.71810 5.24609 4.54674
#
# Compressibility (1/GPa) = 0.04724089
#
# Stress axis : x y z
#
# Youngs Moduli (GPa) = 35.75397 79.44063 18.50954
#
# Poissons Ratio (x) = 0.55184 0.32069
# Poissons Ratio (y) = 0.24837 -0.01113
# Poissons Ratio (z) = 0.61946 -0.04776
#
# Static dielectric constant tensor:
#      x y z
#    x 1.720950 0.000000 -0.000870 
#    y 0.000000 1.795780 0.000000 
#    z -0.000870 0.000000 1.795310 
# 
# From -- ./inp_files/294143.got.cif
#   From: 2010.05.17/outbox.cif.g08.bks.cpg/sg12_148_cif.got.tgz:294143.got - 2010.06.03 13:09:07.
