data_PCOD9183701
_publ_section_title
;
Structure prediction by ZEFSAII (Michael W. Deem and Ramdas Pophale) SiO2 
 PCOD9183701
Probable space group: C 2/M
;
_chemical_formula_sum "Si O2"
_cell_formula_units_Z 56
_cell_length_a 28.574068
_cell_length_b 10.892452
_cell_length_c 9.838948
_cell_angle_alpha 90.000000
_cell_angle_beta 66.460298
_cell_angle_gamma 90.000000
_cell_volume 2807.457597
_symmetry_space_group_name_H-M "C 2/M"
_symmetry_group_IT_number 12
_symmetry_cell_setting 'monoclinic'
loop_
_space_group_symop_operation_xyz
x,y,z
-x,y,-z
-x,-y,-z
x,-y,z
1/2+x,1/2+y,z
1/2-x,1/2+y,-z
1/2-x,1/2-y,-z
1/2+x,1/2-y,z
loop_
_atom_site_type_symbol
_atom_site_label
_atom_site_fract_x
_atom_site_fract_y
_atom_site_fract_z
Si Si1 0.589464 0.861780 0.355229
Si Si2 0.757069 0.138181 0.678733
Si Si3 0.384553 0.366562 0.031680
Si Si4 0.431322 0.857285 0.319117
Si Si5 0.458150 0.142578 0.886336
Si Si6 0.831907 0.205847 0.355186
Si Si7 0.334815 0.356335 0.804719
O O1 0.559069 0.845864 0.530367
O O2 0.556588 0.860341 0.256583
O O3 0.628303 0.748429 0.297807
O O4 0.613476 0.000000 0.334563
O O5 0.804159 0.146444 0.517018
O O6 0.712489 0.220600 0.671432
O O7 0.780036 0.169114 0.799973
O O8 0.737597 0.000000 0.705852
O O9 0.410181 0.500000 0.975511
O O10 0.421674 0.248422 0.987572
O O11 0.343905 0.348973 0.955913
O O12 0.356798 0.373060 0.207518
O O13 0.482210 0.821690 0.178075
O O14 0.379031 0.788054 0.350552
O O15 0.423147 0.000000 0.299517
O O16 0.451113 0.000000 0.942536
O O17 0.346682 0.500000 0.753802
#
# Coordination Sequence:
#
# PCOD9183701 Si02
#       7
#     8   8   8   8   8   8   8
#     4   9  16  31  55  85 114 145 187 235 278 326
#     4  10  21  38  58  81 110 147 191 235 280 334
#     4  10  22  40  59  83 117 151 186 232 283 336
#     4  10  19  33  55  85 116 150 189 233 282 332
#     4   9  19  35  58  84 115 151 190 231 277 334
#     4  11  22  36  56  83 114 148 187 232 284 337
#     4   9  18  36  59  82 112 149 188 231 278 330
#
# _framework density 19.946873
#
# number of rings (size 3 to 8) (size 9 to 14) (size 15 to 20)
#    0.000    2.286    1.429    1.286    0.000    4.000 
#    0.000    5.000    0.000    3.429    0.000    0.000 
#    0.000    0.000    0.000    0.000    0.000    0.000 
#
# Total GULP energy -156010.852599 kJ/mol
# GULP energy per Si atom -5571.816164 kJ/mol
# Density = 1.990147 g / cm^3
# Si number density = 19.946873 Si / 1000 Ang^3
#
#
#
# Elastic Constant Matrix: (Units=GPa)
#
#
# Indices 1 2 3 4 5 6 
#
# 1 84.4845 45.1307 17.6067 0.0000 5.7641 0.0000
# 2 45.1307 76.4301 21.5197 0.0000 -3.2309 0.0000
# 3 17.6067 21.5197 70.6248 0.0000 8.1822 0.0000
# 4 0.0000 0.0000 0.0000 7.2384 0.0000 -16.2473
# 5 5.7641 -3.2309 8.1822 0.0000 27.1250 0.0000
# 6 0.0000 0.0000 0.0000 -16.2473 0.0000 -21.4345
#
#
#
# Elastic Compliance Matrix: (Units=1/GPa)
#
#
# Indices 1 2 3 4 5 6 
#
# 1 0.017996 -0.010642 -0.000677 0.000000 -0.004887 0.000000
# 2 -0.010642 0.020866 -0.004409 0.000000 0.006077 0.000000
# 3 -0.000677 -0.004409 0.016285 0.000000 -0.005294 0.000000
# 4 0.000000 0.000000 0.000000 0.051141 0.000000 -0.038765
# 5 -0.004887 0.006077 -0.005294 0.000000 0.040226 0.000000
# 6 0.000000 0.000000 0.000000 -0.038765 0.000000 -0.017270
#
#
# Mechanical properties :
#
#
# Convention : Reuss Voigt Hill
#
# Bulk Modulus (GPa) = 42.21204 44.45041 43.33122
# Shear Modulus (GPa) = 29.65641 12.40460 21.03050
#
# Velocity S-wave (km/s) = 3.86005 2.49646 3.25056
# Velocity P-wave (km/s) = 6.40896 5.53557 5.98821
#
# Compressibility (1/GPa) = 0.02368992
#
# Stress axis : x y z
#
# Youngs Moduli (GPa) = 55.56751 47.92434 61.40650
#
# Poissons Ratio (x) = 0.51002 0.04160
# Poissons Ratio (y) = 0.59137 0.27074
# Poissons Ratio (z) = 0.03764 0.21130
#
# Static dielectric constant tensor:
#      x y z
#    x 1.705350 0.000000 0.029810 
#    y 0.000000 1.695000 0.000000 
#    z 0.029810 0.000000 1.718340 
# 
# From -- ./inp_files/110365.got.cif
#   From: 2010.05.17/outbox.cif.g08.bks.cpg/sg12_56_cif.got.tgz:110365.got - 2010.06.03 13:09:07.
