data_PCOD9183960
_publ_section_title
;
Structure prediction by ZEFSAII (Michael W. Deem and Ramdas Pophale) SiO2 
 PCOD9183960
Probable space group: C 2/M
;
_chemical_formula_sum "Si O2"
_cell_formula_units_Z 48
_cell_length_a 23.708654
_cell_length_b 8.684901
_cell_length_c 12.427172
_cell_angle_alpha 90.000000
_cell_angle_beta 68.769388
_cell_angle_gamma 90.000000
_cell_volume 2385.177918
_symmetry_space_group_name_H-M "C 2/M"
_symmetry_group_IT_number 12
_symmetry_cell_setting 'monoclinic'
loop_
_space_group_symop_operation_xyz
x,y,z
-x,y,-z
-x,-y,-z
x,-y,z
1/2+x,1/2+y,z
1/2-x,1/2+y,-z
1/2-x,1/2-y,-z
1/2+x,1/2-y,z
loop_
_atom_site_type_symbol
_atom_site_label
_atom_site_fract_x
_atom_site_fract_y
_atom_site_fract_z
Si Si1 0.572684 0.315899 0.259430
Si Si2 0.354321 0.685842 0.172501
Si Si3 0.548784 0.815597 0.731638
Si Si4 0.762006 0.314455 0.609836
Si Si5 0.317578 0.314318 0.960205
Si Si6 0.899243 0.314587 0.537938
O O1 0.570676 0.500000 0.260388
O O2 0.518475 0.251661 0.224341
O O3 0.565660 0.254722 0.385417
O O4 0.637266 0.264747 0.166010
O O5 0.358424 0.500000 0.175136
O O6 0.409928 0.755080 0.200153
O O7 0.291927 0.734202 0.274390
O O8 0.348252 0.730627 0.052377
O O9 0.578503 0.768150 0.596101
O O10 0.546978 0.000000 0.735675
O O11 0.761785 0.500000 0.605411
O O12 0.750000 0.250000 0.500000
O O13 0.829101 0.266691 0.598227
O O14 0.313620 0.500000 0.961205
O O15 0.250000 0.250000 0.000000
O O16 0.903607 0.500000 0.540869
#
# Coordination Sequence:
#
# PCOD9183960 Si02
#       6
#     8   8   8   8   8   8
#     4  11  24  40  60  87 118 156 200 244 292 349
#     4  10  21  38  61  87 119 157 195 241 296 349
#     4  11  23  39  60  87 120 157 198 245 296 350
#     4  10  19  33  56  85 116 149 186 234 289 343
#     4  10  23  43  65  89 118 154 196 243 293 349
#     4  10  21  38  59  86 121 158 197 244 295 348
#
# _framework density 20.124283999999999
#
# number of rings (size 3 to 8) (size 9 to 14) (size 15 to 20)
#    0.000    1.667    1.667    2.500    0.000    8.000 
#    0.000    3.333    0.000    0.000    0.000    0.000 
#    0.000    0.000    0.000    0.000    0.000    0.000 
#
# Total GULP energy -134142.972724 kJ/mol
# GULP energy per Si atom -5589.290530 kJ/mol
# Density = 2.007848 g / cm^3
# Si number density = 20.124284 Si / 1000 Ang^3
#
#
#
# Elastic Constant Matrix: (Units=GPa)
#
#
# Indices 1 2 3 4 5 6 
#
# 1 134.8344 23.7381 36.9344 0.0000 6.3042 0.0000
# 2 23.7381 13.2035 20.0040 0.0000 1.9448 0.0000
# 3 36.9344 20.0040 94.3665 0.0000 13.4951 0.0000
# 4 0.0000 0.0000 0.0000 22.9220 0.0000 4.0810
# 5 6.3042 1.9448 13.4951 0.0000 33.2795 0.0000
# 6 0.0000 0.0000 0.0000 4.0810 0.0000 33.8160
#
#
#
# Elastic Compliance Matrix: (Units=1/GPa)
#
#
# Indices 1 2 3 4 5 6 
#
# 1 0.010879 -0.019404 -0.000013 0.000000 -0.000922 0.000000
# 2 -0.019404 0.146512 -0.024166 0.000000 0.004913 0.000000
# 3 -0.000013 -0.024166 0.016478 0.000000 -0.005267 0.000000
# 4 0.000000 0.000000 0.000000 0.044584 0.000000 -0.005380
# 5 -0.000922 0.004913 -0.005267 0.000000 0.032072 0.000000
# 6 0.000000 0.000000 0.000000 -0.005380 0.000000 0.030221
#
#
# Mechanical properties :
#
#
# Convention : Reuss Voigt Hill
#
# Bulk Modulus (GPa) = 11.53355 44.86193 28.19774
# Shear Modulus (GPa) = 12.60037 28.78537 20.69287
#
# Velocity S-wave (km/s) = 2.50497 3.78614 3.21012
# Velocity P-wave (km/s) = 3.75634 6.43848 5.27087
#
# Compressibility (1/GPa) = 0.08670356
#
# Stress axis : x y z
#
# Youngs Moduli (GPa) = 91.91771 6.82538 60.68674
#
# Poissons Ratio (x) = 0.13244 0.00079
# Poissons Ratio (y) = 1.78357 1.46655
# Poissons Ratio (z) = 0.00119 0.16494
#
# Static dielectric constant tensor:
#      x y z
#    x 1.703890 0.000000 -0.023170 
#    y 0.000000 1.681910 0.000000 
#    z -0.023170 0.000000 1.711880 
# 
# From -- ./inp_files/172862.got.cif
#   From: 2010.05.17/outbox.cif.g08.bks.cpg/sg12_87_cif.got.tgz:172862.got - 2010.06.03 13:09:07.
