data_PCOD9183668
_publ_section_title
;
Structure prediction by ZEFSAII (Michael W. Deem and Ramdas Pophale) SiO2 
 PCOD9183668
Probable space group: C 2/M
;
_chemical_formula_sum "Si O2"
_cell_formula_units_Z 56
_cell_length_a 29.390738
_cell_length_b 8.758717
_cell_length_c 21.132247
_cell_angle_alpha 90.000000
_cell_angle_beta 148.693150
_cell_angle_gamma 90.000000
_cell_volume 2826.725118
_symmetry_space_group_name_H-M "C 2/M"
_symmetry_group_IT_number 12
_symmetry_cell_setting 'monoclinic'
loop_
_space_group_symop_operation_xyz
x,y,z
-x,y,-z
-x,-y,-z
x,-y,z
1/2+x,1/2+y,z
1/2-x,1/2+y,-z
1/2-x,1/2-y,-z
1/2+x,1/2-y,z
loop_
_atom_site_type_symbol
_atom_site_label
_atom_site_fract_x
_atom_site_fract_y
_atom_site_fract_z
Si Si1 0.480118 0.817090 0.688571
Si Si2 0.637465 0.182807 0.567126
Si Si3 0.337286 0.316737 0.771008
Si Si4 0.815703 0.183070 0.247789
Si Si5 0.839948 0.183361 0.133568
Si Si6 0.615981 0.182374 0.042892
Si Si7 0.444904 0.682091 0.775986
O O1 0.432646 0.764472 0.567763
O O2 0.577254 0.748799 0.805040
O O3 0.429529 0.760776 0.690503
O O4 0.484173 0.000000 0.693570
O O5 0.734731 0.219998 0.656711
O O6 0.631804 0.250408 0.630546
O O7 0.631513 0.000000 0.564711
O O8 0.347968 0.500000 0.792067
O O9 0.386284 0.232518 0.886484
O O10 0.376103 0.275542 0.749096
O O11 0.847707 0.229966 0.216630
O O12 0.713136 0.227074 0.133950
O O13 0.819156 0.000000 0.255668
O O14 0.838220 0.000000 0.127936
O O15 0.750000 0.250000 0.000000
O O16 0.606834 0.000000 0.025899
O O17 0.539387 0.264464 0.913927
O O18 0.443864 0.500000 0.767105
#
# Coordination Sequence:
#
# PCOD9183668 Si02
#       7
#     8   8   8   8   8   8   8
#     4  11  24  40  57  81 113 147 188 235 279 331
#     4   9  20  39  60  81 109 147 188 230 278 332
#     4   9  19  36  56  80 111 147 189 233 279 337
#     4   9  20  37  58  83 111 144 182 227 275 328
#     4  11  23  40  62  88 117 149 184 225 277 332
#     4  10  19  33  55  84 115 145 182 229 282 339
#     4  11  22  35  54  80 111 150 191 233 284 336
#
# _framework density 19.810911000000001
#
# number of rings (size 3 to 8) (size 9 to 14) (size 15 to 20)
#    0.000    2.000    0.000    3.000    0.000    8.000 
#    0.000    2.857    0.000    0.000    0.000    0.000 
#    0.000    0.000    0.000    0.000    0.000    0.000 
#
# Total GULP energy -156474.974789 kJ/mol
# GULP energy per Si atom -5588.391957 kJ/mol
# Density = 1.976582 g / cm^3
# Si number density = 19.810911 Si / 1000 Ang^3
#
#
#
# Elastic Constant Matrix: (Units=GPa)
#
#
# Indices 1 2 3 4 5 6 
#
# 1 98.4463 22.8681 6.0429 0.0000 -20.6446 0.0000
# 2 22.8681 32.6471 13.1071 0.0000 -6.3522 0.0000
# 3 6.0429 13.1071 63.6848 0.0000 -17.9508 0.0000
# 4 0.0000 0.0000 0.0000 26.4507 0.0000 -8.4266
# 5 -20.6446 -6.3522 -17.9508 0.0000 23.6230 0.0000
# 6 0.0000 0.0000 0.0000 -8.4266 0.0000 28.5207
#
#
#
# Elastic Compliance Matrix: (Units=1/GPa)
#
#
# Indices 1 2 3 4 5 6 
#
# 1 0.015049 -0.009625 0.004493 0.000000 0.013978 0.000000
# 2 -0.009625 0.039976 -0.008469 0.000000 -0.004098 0.000000
# 3 0.004493 -0.008469 0.022249 0.000000 0.018556 0.000000
# 4 0.000000 0.000000 0.000000 0.041734 0.000000 0.012331
# 5 0.013978 -0.004098 0.018556 0.000000 0.067545 0.000000
# 6 0.000000 0.000000 0.000000 0.012331 0.000000 0.038705
#
#
# Mechanical properties :
#
#
# Convention : Reuss Voigt Hill
#
# Bulk Modulus (GPa) = 19.97181 30.97937 25.47559
# Shear Modulus (GPa) = 18.57676 25.90289 22.23982
#
# Velocity S-wave (km/s) = 3.06552 3.61987 3.35416
# Velocity P-wave (km/s) = 4.75741 5.75697 5.28089
#
# Compressibility (1/GPa) = 0.05007057
#
# Stress axis : x y z
#
# Youngs Moduli (GPa) = 66.44928 25.01518 44.94484
#
# Poissons Ratio (x) = 0.24078 -0.20193
# Poissons Ratio (y) = 0.63961 0.38065
# Poissons Ratio (z) = -0.29855 0.21186
#
# Static dielectric constant tensor:
#      x y z
#    x 1.702120 0.000000 -0.003530 
#    y 0.000000 1.661560 0.000000 
#    z -0.003530 0.000000 1.680580 
# 
# From -- ./inp_files/281012.got.cif
#   From: 2010.05.17/outbox.cif.g08.bks.cpg/sg12_141_cif.got.tgz:281012.got - 2010.06.03 13:09:07.
