data_PCOD9183010
_publ_section_title
;
Structure prediction by ZEFSAII (Michael W. Deem and Ramdas Pophale) SiO2 
 PCOD9183010
Probable space group: C 2/M
;
_chemical_formula_sum "Si O2"
_cell_formula_units_Z 64
_cell_length_a 20.610246
_cell_length_b 8.757296
_cell_length_c 21.415708
_cell_angle_alpha 90.000000
_cell_angle_beta 115.359354
_cell_angle_gamma 90.000000
_cell_volume 3492.856780
_symmetry_space_group_name_H-M "C 2/M"
_symmetry_group_IT_number 12
_symmetry_cell_setting 'monoclinic'
loop_
_space_group_symop_operation_xyz
x,y,z
-x,y,-z
-x,-y,-z
x,-y,z
1/2+x,1/2+y,z
1/2-x,1/2+y,-z
1/2-x,1/2-y,-z
1/2+x,1/2-y,z
loop_
_atom_site_type_symbol
_atom_site_label
_atom_site_fract_x
_atom_site_fract_y
_atom_site_fract_z
Si Si1 0.143919 0.814951 0.293814
Si Si2 0.324160 0.182994 0.556195
Si Si3 0.771823 0.681594 0.909819
Si Si4 0.984027 0.814416 0.193295
Si Si5 0.083984 0.817082 0.703125
Si Si6 0.026109 0.316005 0.441932
Si Si7 0.740706 0.817354 0.763048
Si Si8 0.362300 0.316410 0.054238
O O1 0.158359 0.745549 0.367651
O O2 0.066226 0.765996 0.235148
O O3 0.205600 0.771787 0.270280
O O4 0.143104 0.000000 0.299332
O O5 0.250000 0.250000 0.500000
O O6 0.391564 0.224332 0.539527
O O7 0.319183 0.000000 0.556154
O O8 0.774383 0.500000 0.902869
O O9 0.768739 0.759957 0.841514
O O10 0.699000 0.717206 0.918923
O O11 0.836573 0.738632 0.980125
O O12 0.941290 0.768607 0.238117
O O13 0.938214 0.765281 0.114336
O O14 0.983959 0.000000 0.191819
O O15 0.161728 0.750032 0.720570
O O16 0.025173 0.759690 0.630159
O O17 0.087605 0.000000 0.703958
O O18 0.019695 0.500000 0.434225
O O19 0.000000 0.271171 0.500000
O O20 0.736628 0.000000 0.762121
O O21 0.362897 0.500000 0.045840
#
# Coordination Sequence:
#
# PCOD9183010 Si02
#       8
#     8   8   8   8   8   8   8   8
#     4  10  22  41  62  83 114 155 196 238 286 343
#     4  11  24  41  62  87 118 156 194 235 285 343
#     4  10  19  33  53  83 117 149 190 239 289 340
#     4   9  17  35  60  84 109 145 192 238 282 336
#     4  11  21  37  62  88 115 148 193 245 289 336
#     4  10  23  42  61  86 120 154 190 235 288 343
#     4  11  23  37  57  85 118 155 193 237 292 348
#     4   9  17  32  55  82 112 147 188 236 290 341
#
# _framework density 18.323111000000001
#
# number of rings (size 3 to 8) (size 9 to 14) (size 15 to 20)
#    0.000    1.875    2.500    1.500    1.750    2.250 
#    0.000    1.250    0.000    3.750    0.000    0.000 
#    0.000    0.000    0.000    0.000    0.000    0.000 
#
# Total GULP energy -178694.629956 kJ/mol
# GULP energy per Si atom -5584.207186 kJ/mol
# Density = 1.828141 g / cm^3
# Si number density = 18.323111 Si / 1000 Ang^3
#
#
#
# Elastic Constant Matrix: (Units=GPa)
#
#
# Indices 1 2 3 4 5 6 
#
# 1 147.4955 39.6025 66.9261 0.0000 18.1048 0.0000
# 2 39.6025 23.8614 30.7185 0.0000 2.3289 0.0000
# 3 66.9261 30.7185 113.7410 0.0000 25.9863 0.0000
# 4 0.0000 0.0000 0.0000 35.1546 0.0000 0.2275
# 5 18.1048 2.3289 25.9863 0.0000 34.5668 0.0000
# 6 0.0000 0.0000 0.0000 0.2275 0.0000 19.6269
#
#
#
# Elastic Compliance Matrix: (Units=1/GPa)
#
#
# Indices 1 2 3 4 5 6 
#
# 1 0.013304 -0.019770 -0.001450 0.000000 -0.004546 0.000000
# 2 -0.019770 0.096960 -0.018626 0.000000 0.017825 0.000000
# 3 -0.001450 -0.018626 0.017163 0.000000 -0.010888 0.000000
# 4 0.000000 0.000000 0.000000 0.028448 0.000000 -0.000330
# 5 -0.004546 0.017825 -0.010888 0.000000 0.038295 0.000000
# 6 0.000000 0.000000 0.000000 -0.000330 0.000000 0.050954
#
#
# Mechanical properties :
#
#
# Convention : Reuss Voigt Hill
#
# Bulk Modulus (GPa) = 20.94907 62.17691 41.56299
# Shear Modulus (GPa) = 14.67439 27.72638 21.20038
#
# Velocity S-wave (km/s) = 2.83303 3.89420 3.40520
# Velocity P-wave (km/s) = 4.70738 7.36390 6.18006
#
# Compressibility (1/GPa) = 0.04773481
#
# Stress axis : x y z
#
# Youngs Moduli (GPa) = 75.16399 10.31352 58.26385
#
# Poissons Ratio (x) = 0.20390 0.08450
# Poissons Ratio (y) = 1.48601 1.08522
# Poissons Ratio (z) = 0.10901 0.19210
#
# Static dielectric constant tensor:
#      x y z
#    x 1.623650 0.000000 0.007670 
#    y 0.000000 1.618170 0.000000 
#    z 0.007670 0.000000 1.607870 
# 
# From -- ./inp_files/320053.got.cif
#   From: 2010.05.17/outbox.cif.g08.bks.cpg/sg12_161_cif.got.tgz:320053.got - 2010.06.03 13:09:07.
