data_PCOD9183013
_publ_section_title
;
Structure prediction by ZEFSAII (Michael W. Deem and Ramdas Pophale) SiO2 
 PCOD9183013
Probable space group: C 2/M
;
_chemical_formula_sum "Si O2"
_cell_formula_units_Z 40
_cell_length_a 12.134020
_cell_length_b 26.901609
_cell_length_c 13.124205
_cell_angle_alpha 90.000000
_cell_angle_beta 157.352350
_cell_angle_gamma 90.000000
_cell_volume 1649.634505
_symmetry_space_group_name_H-M "C 2/M"
_symmetry_group_IT_number 12
_symmetry_cell_setting 'monoclinic'
loop_
_space_group_symop_operation_xyz
x,y,z
-x,y,-z
-x,-y,-z
x,-y,z
1/2+x,1/2+y,z
1/2-x,1/2+y,-z
1/2-x,1/2-y,-z
1/2+x,1/2-y,z
loop_
_atom_site_type_symbol
_atom_site_label
_atom_site_fract_x
_atom_site_fract_y
_atom_site_fract_z
Si Si1 0.896940 0.555651 0.718521
Si Si2 0.336162 0.074588 0.262730
Si Si3 0.618332 0.622309 0.799170
Si Si4 0.268019 0.674115 0.890862
Si Si5 0.331814 0.725516 0.256906
O O1 0.851947 0.500000 0.722317
O O2 0.608932 0.581204 0.430534
O O3 0.093051 0.550734 0.784499
O O4 0.073375 0.594337 0.939157
O O5 0.500000 0.054679 0.500000
O O6 0.435575 0.131885 0.329424
O O7 0.000000 0.072973 0.000000
O O8 0.565238 0.671354 0.687448
O O9 0.609615 0.646797 0.905216
O O10 0.138581 0.728648 0.797286
O O11 0.500000 0.681666 0.000000
O O12 0.500000 0.742545 0.500000
O O13 0.000000 0.717878 0.000000
#
# Coordination Sequence:
#
# PCOD9183013 Si02
#       5
#     8   8   8   8   8
#     4  11  23  39  60  85 116 160 207 254 306 351
#     4  10  19  33  53  83 123 159 194 235 283 354
#     4  11  23  40  63  89 123 160 201 253 302 357
#     4   9  19  36  59  91 127 161 191 229 292 368
#     4  11  23  40  63  91 123 158 201 250 303 363
#
# _framework density 24.247796999999998
#
# number of rings (size 3 to 8) (size 9 to 14) (size 15 to 20)
#    0.000    1.600    0.000    6.600    0.000    5.600 
#    0.000   10.000    0.000   12.600    0.000    0.000 
#    0.000    0.000    0.000    0.000    0.000    0.000 
#
# Total GULP energy -111676.877785 kJ/mol
# GULP energy per Si atom -5583.843889 kJ/mol
# Density = 2.419261 g / cm^3
# Si number density = 24.247797 Si / 1000 Ang^3
#
#
#
# Elastic Constant Matrix: (Units=GPa)
#
#
# Indices 1 2 3 4 5 6 
#
# 1 14.9031 6.7081 5.7020 -0.0059 -12.1787 -0.0028
# 2 6.7081 201.5496 28.1010 -0.0014 -8.8758 0.0007
# 3 5.7020 28.1010 133.3274 0.0008 -7.0233 0.0040
# 4 -0.0059 -0.0014 0.0008 -10.6051 -0.0032 28.0865
# 5 -12.1787 -8.8758 -7.0233 -0.0032 17.8176 -0.0007
# 6 -0.0028 0.0007 0.0040 28.0865 -0.0007 -4.9262
#
#
#
# Elastic Compliance Matrix: (Units=1/GPa)
#
#
# Indices 1 2 3 4 5 6 
#
# 1 0.152177 -0.000373 -0.000980 0.000027 0.103444 0.000054
# 2 -0.000373 0.005196 -0.000977 0.000000 0.001949 0.000000
# 3 -0.000980 -0.000977 0.007850 -0.000001 0.001938 -0.000001
# 4 0.000027 0.000000 -0.000001 0.006688 0.000021 0.038130
# 5 0.103444 0.001949 0.001938 0.000021 0.128565 0.000044
# 6 0.000054 0.000000 -0.000001 0.038130 0.000044 0.014397
#
#
# Mechanical properties :
#
#
# Convention : Reuss Voigt Hill
#
# Bulk Modulus (GPa) = 6.22806 47.86692 27.04749
# Shear Modulus (GPa) = 13.40289 21.07520 17.23905
#
# Velocity S-wave (km/s) = 2.35361 2.95135 2.66926
# Velocity P-wave (km/s) = 3.15595 5.60335 4.54739
#
# Compressibility (1/GPa) = 0.16056366
#
# Stress axis : x y z
#
# Youngs Moduli (GPa) = 6.57130 192.45834 127.38594
#
# Poissons Ratio (x) = 0.07173 0.12490
# Poissons Ratio (y) = 0.00245 0.12440
# Poissons Ratio (z) = 0.00644 0.18794
#
# Static dielectric constant tensor:
#      x y z
#    x 1.980580 0.000000 0.013780 
#    y 0.000000 2.027300 0.000000 
#    z 0.013780 0.000000 1.883230 
# 
# From -- ./inp_files/219181.got.cif
#   From: 2010.05.17/outbox.cif.g08.bks.cpg/sg12_110_cif.got.tgz:219181.got - 2010.06.03 13:09:07.
