data_PCOD9183511
_publ_section_title
;
Structure prediction by ZEFSAII (Michael W. Deem and Ramdas Pophale) SiO2 
 PCOD9183511
Probable space group: C 2/M
;
_chemical_formula_sum "Si O2"
_cell_formula_units_Z 56
_cell_length_a 14.105278
_cell_length_b 29.249554
_cell_length_c 8.545218
_cell_angle_alpha 90.000000
_cell_angle_beta 67.958272
_cell_angle_gamma 90.000000
_cell_volume 3267.849003
_symmetry_space_group_name_H-M "C 2/M"
_symmetry_group_IT_number 12
_symmetry_cell_setting 'monoclinic'
loop_
_space_group_symop_operation_xyz
x,y,z
-x,y,-z
-x,-y,-z
x,-y,z
1/2+x,1/2+y,z
1/2-x,1/2+y,-z
1/2-x,1/2-y,-z
1/2+x,1/2-y,z
loop_
_atom_site_type_symbol
_atom_site_label
_atom_site_fract_x
_atom_site_fract_y
_atom_site_fract_z
Si Si1 0.619023 0.822395 0.956466
Si Si2 0.384558 0.552411 0.130036
Si Si3 0.314920 0.268418 0.211676
Si Si4 0.890278 0.766923 0.505013
Si Si5 0.385373 0.448853 0.504413
Si Si6 0.786734 0.859618 0.051109
Si Si7 0.806584 0.857842 0.687151
O O1 0.651522 0.769006 0.937505
O O2 0.688255 0.842362 0.771257
O O3 0.500000 0.827881 0.000000
O O4 0.669199 0.847919 0.074651
O O5 0.358377 0.500000 0.100032
O O6 0.385785 0.554646 0.316991
O O7 0.310367 0.591007 0.106700
O O8 0.500000 0.561472 0.000000
O O9 0.199901 0.258687 0.344565
O O10 0.381670 0.259689 0.325284
O O11 0.323864 0.319231 0.140465
O O12 0.868316 0.820574 0.551128
O O13 0.000000 0.753623 0.500000
O O14 0.500000 0.443441 0.500000
O O15 0.350468 0.500000 0.569711
O O16 0.319381 0.408246 0.615598
O O17 0.841292 0.855913 0.847348
#
# Coordination Sequence:
#
# PCOD9183511 Si02
#       7
#     8   8   8   8   8   8   8
#     4   9  21  36  56  76 106 146 189 231 265 312
#     4  10  21  36  57  85 112 141 175 214 273 335
#     4  10  21  36  52  80 107 145 190 223 268 327
#     4  10  21  33  52  75 112 146 180 226 273 322
#     4  10  19  33  55  80 111 142 172 217 273 330
#     4  10  21  35  55  77 111 139 184 226 268 321
#     4   9  20  33  51  78 108 138 185 221 268 328
#
# _framework density 17.136654
#
# number of rings (size 3 to 8) (size 9 to 14) (size 15 to 20)
#    0.857    1.429    0.000    2.571    2.000    3.429 
#    0.000    0.000    0.000    1.714    0.000    2.000 
#    0.000    0.000    0.000    0.000    0.000    0.000 
#
# Total GULP energy -156027.504494 kJ/mol
# GULP energy per Si atom -5572.410875 kJ/mol
# Density = 1.709765 g / cm^3
# Si number density = 17.136654 Si / 1000 Ang^3
#
#
#
# Elastic Constant Matrix: (Units=GPa)
#
#
# Indices 1 2 3 4 5 6 
#
# 1 99.3581 37.6016 20.4611 0.0000 10.8231 0.0000
# 2 37.6016 120.8402 31.1173 0.0000 6.5508 0.0000
# 3 20.4611 31.1173 40.6818 0.0000 8.1894 0.0000
# 4 0.0000 0.0000 0.0000 24.4304 0.0000 10.5994
# 5 10.8231 6.5508 8.1894 0.0000 16.9226 0.0000
# 6 0.0000 0.0000 0.0000 10.5994 0.0000 14.7128
#
#
#
# Elastic Compliance Matrix: (Units=1/GPa)
#
#
# Indices 1 2 3 4 5 6 
#
# 1 0.012313 -0.002769 -0.002997 0.000000 -0.005353 0.000000
# 2 -0.002769 0.010929 -0.007170 0.000000 0.001010 0.000000
# 3 -0.002997 -0.007170 0.033934 0.000000 -0.011729 0.000000
# 4 0.000000 0.000000 0.000000 0.059544 0.000000 -0.042897
# 5 -0.005353 0.001010 -0.011729 0.000000 0.067801 0.000000
# 6 0.000000 0.000000 0.000000 -0.042897 0.000000 0.098872
#
#
# Mechanical properties :
#
#
# Convention : Reuss Voigt Hill
#
# Bulk Modulus (GPa) = 31.94609 48.80447 40.37528
# Shear Modulus (GPa) = 15.63974 22.65984 19.14979
#
# Velocity S-wave (km/s) = 3.02428 3.64029 3.34649
# Velocity P-wave (km/s) = 5.55675 6.79782 6.20838
#
# Compressibility (1/GPa) = 0.03130273
#
# Stress axis : x y z
#
# Youngs Moduli (GPa) = 81.21543 91.50257 29.46932
#
# Poissons Ratio (x) = 0.25341 0.08832
# Poissons Ratio (y) = 0.22492 0.21129
# Poissons Ratio (z) = 0.24340 0.65605
#
# Static dielectric constant tensor:
#      x y z
#    x 1.583100 0.000000 0.016540 
#    y 0.000000 1.579480 0.000000 
#    z 0.016540 0.000000 1.595490 
# 
# From -- ./inp_files/66486.got.cif
#   From: 2010.05.17/outbox.cif.g08.bks.cpg/sg12_34_cif.got.tgz:66486.got - 2010.06.03 13:09:07.
