data_PCOD9183204
_publ_section_title
;
Structure prediction by ZEFSAII (Michael W. Deem and Ramdas Pophale) SiO2 
 PCOD9183204
Probable space group: C 2/M
;
_chemical_formula_sum "Si O2"
_cell_formula_units_Z 64
_cell_length_a 13.169639
_cell_length_b 13.581170
_cell_length_c 20.256486
_cell_angle_alpha 90.000000
_cell_angle_beta 121.441612
_cell_angle_gamma 90.000000
_cell_volume 3091.091422
_symmetry_space_group_name_H-M "C 2/M"
_symmetry_group_IT_number 12
_symmetry_cell_setting 'monoclinic'
loop_
_space_group_symop_operation_xyz
x,y,z
-x,y,-z
-x,-y,-z
x,-y,z
1/2+x,1/2+y,z
1/2-x,1/2+y,-z
1/2-x,1/2-y,-z
1/2+x,1/2-y,z
loop_
_atom_site_type_symbol
_atom_site_label
_atom_site_fract_x
_atom_site_fract_y
_atom_site_fract_z
Si Si1 0.699785 0.113188 0.934858
Si Si2 0.486504 0.753273 0.809456
Si Si3 0.569851 0.814692 0.458031
Si Si4 0.737439 0.113582 0.306110
Si Si5 0.405311 0.760093 0.288575
Si Si6 0.806975 0.890660 0.482945
Si Si7 0.642323 0.888962 0.062312
Si Si8 0.177326 0.812845 0.143054
O O1 0.595355 0.187056 0.878210
O O2 0.810084 0.132839 0.922870
O O3 0.660856 0.000000 0.912984
O O4 0.713729 0.126544 0.018031
O O5 0.382374 0.830093 0.755154
O O6 0.529629 0.715083 0.753247
O O7 0.432537 0.676864 0.844217
O O8 0.500000 0.844231 0.500000
O O9 0.490649 0.821247 0.365453
O O10 0.692902 0.872482 0.490780
O O11 0.603868 0.698992 0.475297
O O12 0.843852 0.174241 0.309249
O O13 0.758497 0.117453 0.391800
O O14 0.733503 0.000000 0.284694
O O15 0.299237 0.828858 0.224351
O O16 0.857672 0.000000 0.509704
O O17 0.675174 0.802807 0.122742
O O18 0.664279 0.000000 0.093444
O O19 0.500000 0.881260 0.000000
#
# Coordination Sequence:
#
# PCOD9183204 Si02
#       8
#     8   8   8   8   8   8   8   8
#     4  10  20  35  57  85 112 146 186 228 273 324
#     4  10  19  35  55  79 112 147 182 226 272 333
#     4  11  21  38  60  78 112 150 180 234 281 327
#     4  10  19  33  54  80 107 137 180 230 273 327
#     4  10  21  35  53  84 109 144 183 224 280 333
#     4  10  22  36  56  84 108 140 185 229 277 331
#     4  10  19  34  58  86 112 142 186 232 274 319
#     4  10  21  34  56  84 116 146 183 229 276 330
#
# _framework density 20.704661000000002
#
# number of rings (size 3 to 8) (size 9 to 14) (size 15 to 20)
#    0.000    1.875    3.750    0.750    0.000    3.000 
#    0.000    0.625    0.000    4.125    0.000    0.000 
#    0.000    0.000    0.000    0.000    0.000    0.000 
#
# Total GULP energy -178668.856399 kJ/mol
# GULP energy per Si atom -5583.401762 kJ/mol
# Density = 2.065754 g / cm^3
# Si number density = 20.704661 Si / 1000 Ang^3
#
#
#
# Elastic Constant Matrix: (Units=GPa)
#
#
# Indices 1 2 3 4 5 6 
#
# 1 106.3166 -12.5969 7.9938 0.0000 -41.2789 0.0000
# 2 -12.5969 24.2559 -2.3207 0.0000 0.7092 0.0000
# 3 7.9938 -2.3207 50.1284 0.0000 -16.1173 0.0000
# 4 0.0000 0.0000 0.0000 9.5524 0.0000 0.5844
# 5 -41.2789 0.7092 -16.1173 0.0000 41.5469 0.0000
# 6 0.0000 0.0000 0.0000 0.5844 0.0000 5.6257
#
#
#
# Elastic Compliance Matrix: (Units=1/GPa)
#
#
# Indices 1 2 3 4 5 6 
#
# 1 0.017359 0.008817 0.003584 0.000000 0.018487 0.000000
# 2 0.008817 0.045889 0.003751 0.000000 0.009432 0.000000
# 3 0.003584 0.003751 0.023621 0.000000 0.012660 0.000000
# 4 0.000000 0.000000 0.000000 0.105356 0.000000 -0.010945
# 5 0.018487 0.009432 0.012660 0.000000 0.047187 0.000000
# 6 0.000000 0.000000 0.000000 -0.010945 0.000000 0.178893
#
#
# Mechanical properties :
#
#
# Convention : Reuss Voigt Hill
#
# Bulk Modulus (GPa) = 8.39108 18.53928 13.46518
# Shear Modulus (GPa) = 11.74465 23.85329 17.79897
#
# Velocity S-wave (km/s) = 2.38428 3.39790 2.93518
# Velocity P-wave (km/s) = 3.41193 4.93639 4.24318
#
# Compressibility (1/GPa) = 0.11917412
#
# Stress axis : x y z
#
# Youngs Moduli (GPa) = 57.60761 21.79154 42.33448
#
# Poissons Ratio (x) = -0.19214 -0.15172
# Poissons Ratio (y) = -0.50795 -0.15880
# Poissons Ratio (z) = -0.20646 -0.08174
#
# Static dielectric constant tensor:
#      x y z
#    x 1.792760 0.000000 -0.019080 
#    y 0.000000 1.707140 0.000000 
#    z -0.019080 0.000000 1.753680 
# 
# From -- ./inp_files/305457.got.cif
#   From: 2010.05.17/outbox.cif.g08.bks.cpg/sg12_153_cif.got.tgz:305457.got - 2010.06.03 13:09:07.
