data_PCOD9183297
_publ_section_title
;
Structure prediction by ZEFSAII (Michael W. Deem and Ramdas Pophale) SiO2 
 PCOD9183297
Probable space group: C 2/M
;
_chemical_formula_sum "Si O2"
_cell_formula_units_Z 64
_cell_length_a 24.958252
_cell_length_b 8.765037
_cell_length_c 21.086452
_cell_angle_alpha 90.000000
_cell_angle_beta 127.522121
_cell_angle_gamma 90.000000
_cell_volume 3658.553186
_symmetry_space_group_name_H-M "C 2/M"
_symmetry_group_IT_number 12
_symmetry_cell_setting 'monoclinic'
loop_
_space_group_symop_operation_xyz
x,y,z
-x,y,-z
-x,-y,-z
x,-y,z
1/2+x,1/2+y,z
1/2-x,1/2+y,-z
1/2-x,1/2-y,-z
1/2+x,1/2-y,z
loop_
_atom_site_type_symbol
_atom_site_label
_atom_site_fract_x
_atom_site_fract_y
_atom_site_fract_z
Si Si1 0.546080 0.316776 0.221477
Si Si2 0.814393 0.183253 0.124950
Si Si3 0.319802 0.182401 0.628286
Si Si4 0.043732 0.185527 0.722090
Si Si5 0.469019 0.182609 0.045453
Si Si6 0.675143 0.817662 0.517126
Si Si7 0.170680 0.181450 0.013923
Si Si8 0.463581 0.315521 0.539051
O O1 0.546382 0.500000 0.220152
O O2 0.621095 0.255059 0.287591
O O3 0.500558 0.267298 0.249083
O O4 0.512336 0.254102 0.133647
O O5 0.878851 0.233965 0.212266
O O6 0.831133 0.216360 0.063035
O O7 0.806741 0.000000 0.124740
O O8 0.743565 0.261320 0.089812
O O9 0.332714 0.223133 0.563384
O O10 0.245571 0.245290 0.590289
O O11 0.320905 0.000000 0.634612
O O12 0.008314 0.234612 0.631728
O O13 0.044381 0.000000 0.722738
O O14 0.392264 0.238844 0.998147
O O15 0.471095 0.000000 0.052066
O O16 0.500000 0.227367 0.000000
O O17 0.610535 0.754242 0.507053
O O18 0.678854 0.000000 0.524249
O O19 0.164894 0.000000 0.016688
O O20 0.500000 0.273324 0.500000
O O21 0.458028 0.500000 0.537180
#
# Coordination Sequence:
#
# PCOD9183297 Si02
#       8
#     8   8   8   8   8   8   8   8
#     4  11  20  35  59  85 112 142 183 236 281 328
#     4   9  17  32  53  79 109 142 178 224 277 326
#     4  10  20  34  55  84 113 144 186 234 282 334
#     4   9  17  32  54  81 110 140 181 227 273 324
#     4  11  24  40  57  80 113 151 187 226 275 334
#     4  10  20  34  54  81 112 149 189 234 282 327
#     4  10  19  33  54  82 109 140 182 227 276 325
#     4  10  20  35  56  81 112 151 188 226 278 338
#
# _framework density 17.493254
#
# number of rings (size 3 to 8) (size 9 to 14) (size 15 to 20)
#    0.000    2.000    2.500    1.875    0.000    2.750 
#    0.000    1.875    0.000    6.000    0.000    0.000 
#    0.000    0.000    0.000    0.000    0.000    0.000 
#
# Total GULP energy -178645.798786 kJ/mol
# GULP energy per Si atom -5582.681212 kJ/mol
# Density = 1.745344 g / cm^3
# Si number density = 17.493254 Si / 1000 Ang^3
#
#
#
# Elastic Constant Matrix: (Units=GPa)
#
#
# Indices 1 2 3 4 5 6 
#
# 1 150.8778 50.4778 91.1699 0.0000 17.4344 0.0000
# 2 50.4778 36.5428 37.3048 0.0000 3.3190 0.0000
# 3 91.1699 37.3048 130.3997 0.0000 17.0191 0.0000
# 4 0.0000 0.0000 0.0000 24.8440 0.0000 5.6366
# 5 17.4344 3.3190 17.0191 0.0000 31.7194 0.0000
# 6 0.0000 0.0000 0.0000 5.6366 0.0000 26.7950
#
#
#
# Elastic Compliance Matrix: (Units=1/GPa)
#
#
# Indices 1 2 3 4 5 6 
#
# 1 0.016009 -0.015324 -0.006311 0.000000 -0.003809 0.000000
# 2 -0.015324 0.053445 -0.005317 0.000000 0.005684 0.000000
# 3 -0.006311 -0.005317 0.014062 0.000000 -0.003520 0.000000
# 4 0.000000 0.000000 0.000000 0.042268 0.000000 -0.008892
# 5 -0.003809 0.005684 -0.003520 0.000000 0.034914 0.000000
# 6 0.000000 0.000000 0.000000 -0.008892 0.000000 0.039191
#
#
# Mechanical properties :
#
#
# Convention : Reuss Voigt Hill
#
# Bulk Modulus (GPa) = 33.77276 75.08059 54.42667
# Shear Modulus (GPa) = 18.96342 25.92955 22.44649
#
# Velocity S-wave (km/s) = 3.29605 3.85419 3.58600
# Velocity P-wave (km/s) = 5.81664 7.92586 6.95171
#
# Compressibility (1/GPa) = 0.02960966
#
# Stress axis : x y z
#
# Youngs Moduli (GPa) = 62.46570 18.71073 71.11381
#
# Poissons Ratio (x) = 0.28673 0.44883
# Poissons Ratio (y) = 0.95725 0.37813
# Poissons Ratio (z) = 0.39425 0.09949
#
# Static dielectric constant tensor:
#      x y z
#    x 1.574650 0.000000 0.001820 
#    y 0.000000 1.581210 0.000000 
#    z 0.001820 0.000000 1.585210 
# 
# From -- ./inp_files/324261.got.cif
#   From: 2010.05.17/outbox.cif.g08.bks.cpg/sg12_163_cif.got.tgz:324261.got - 2010.06.03 13:09:07.
