data_PCOD9183897
_publ_section_title
;
Structure prediction by ZEFSAII (Michael W. Deem and Ramdas Pophale) SiO2 
 PCOD9183897
Probable space group: C 2/M
;
_chemical_formula_sum "Si O2"
_cell_formula_units_Z 64
_cell_length_a 31.775995
_cell_length_b 7.746419
_cell_length_c 27.052606
_cell_angle_alpha 90.000000
_cell_angle_beta 152.972374
_cell_angle_gamma 90.000000
_cell_volume 3025.984809
_symmetry_space_group_name_H-M "C 2/M"
_symmetry_group_IT_number 12
_symmetry_cell_setting 'monoclinic'
loop_
_space_group_symop_operation_xyz
x,y,z
-x,y,-z
-x,-y,-z
x,-y,z
1/2+x,1/2+y,z
1/2-x,1/2+y,-z
1/2-x,1/2-y,-z
1/2+x,1/2-y,z
loop_
_atom_site_type_symbol
_atom_site_label
_atom_site_fract_x
_atom_site_fract_y
_atom_site_fract_z
Si Si1 0.516843 0.290953 0.246514
Si Si2 0.600152 0.293943 0.234049
Si Si3 0.448033 0.791500 0.995567
Si Si4 0.655972 0.204552 0.778227
Si Si5 0.192260 0.792518 0.988685
Si Si6 0.462563 0.206742 0.618690
Si Si7 0.215547 0.708333 0.627192
Si Si8 0.261203 0.294737 0.234693
O O1 0.515385 0.500000 0.243517
O O2 0.582939 0.228624 0.271479
O O3 0.544971 0.240006 0.330972
O O4 0.412313 0.227010 0.125993
O O5 0.612031 0.500000 0.249884
O O6 0.689819 0.224718 0.299049
O O7 0.508732 0.261751 0.105854
O O8 0.342647 0.726821 0.885221
O O9 0.445863 0.000000 0.991966
O O10 0.500000 0.732310 0.000000
O O11 0.746605 0.274691 0.901564
O O12 0.560607 0.276202 0.700785
O O13 0.668632 0.229161 0.733348
O O14 0.654865 0.000000 0.787181
O O15 0.184955 0.000000 0.985329
O O16 0.250000 0.750000 0.000000
O O17 0.374530 0.273318 0.496170
O O18 0.464003 0.000000 0.613091
O O19 0.216833 0.500000 0.624953
O O20 0.213716 0.751447 0.683002
O O21 0.258319 0.500000 0.227040
#
# Coordination Sequence:
#
# PCOD9183897 Si02
#       8
#     8   8   8   8   8   8   8   8
#     4  10  21  36  56  85 117 146 184 235 283 331
#     4  10  21  37  59  86 115 149 188 229 279 336
#     4  10  20  36  57  84 118 148 180 227 283 339
#     4  10  21  38  59  83 114 150 188 230 278 334
#     4  10  19  33  56  83 113 147 183 225 276 335
#     4  10  22  40  60  82 110 150 196 235 276 331
#     4  10  22  40  60  82 111 149 194 237 276 329
#     4  11  23  38  59  86 115 147 185 231 284 339
#
# _framework density 21.150137999999998
#
# number of rings (size 3 to 8) (size 9 to 14) (size 15 to 20)
#    0.000    1.875    2.500    1.125    0.000    5.250 
#    0.000    2.500    0.000    0.000    0.000    0.000 
#    0.000    0.000    0.000    0.000    0.000    0.000 
#
# Total GULP energy -178803.800589 kJ/mol
# GULP energy per Si atom -5587.618768 kJ/mol
# Density = 2.110200 g / cm^3
# Si number density = 21.150138 Si / 1000 Ang^3
#
#
#
# Elastic Constant Matrix: (Units=GPa)
#
#
# Indices 1 2 3 4 5 6 
#
# 1 121.8465 -19.6826 47.9047 0.0000 -36.4620 0.0000
# 2 -19.6826 23.2189 -6.7199 0.0000 7.0750 0.0000
# 3 47.9047 -6.7199 133.2611 0.0000 -26.4633 0.0000
# 4 0.0000 0.0000 0.0000 13.9354 0.0000 -7.7594
# 5 -36.4620 7.0750 -26.4633 0.0000 10.3577 0.0000
# 6 0.0000 0.0000 0.0000 -7.7594 0.0000 20.5088
#
#
#
# Elastic Compliance Matrix: (Units=1/GPa)
#
#
# Indices 1 2 3 4 5 6 
#
# 1 -0.020799 0.016531 -0.017197 0.000000 -0.128448 0.000000
# 2 0.016531 0.047756 0.003134 0.000000 0.033581 0.000000
# 3 -0.017197 0.003134 0.002836 0.000000 -0.055434 0.000000
# 4 0.000000 0.000000 0.000000 0.090912 0.000000 0.034396
# 5 -0.128448 0.033581 -0.055434 0.000000 -0.520198 0.000000
# 6 0.000000 0.000000 0.000000 0.034396 0.000000 0.061773
#
#
# Mechanical properties :
#
#
# Convention : Reuss Voigt Hill
#
# Bulk Modulus (GPa) = 28.79386 35.70345 32.24865
# Shear Modulus (GPa) = -15.10214 26.08198 5.48992
#
# Velocity S-wave (km/s) = -2.67506 3.51548 1.61286
# Velocity P-wave (km/s) = 2.02542 5.77890 4.33001
#
# Compressibility (1/GPa) = 0.03472963
#
# Stress axis : x y z
#
# Youngs Moduli (GPa) = -48.07919 20.93957 352.62044
#
# Poissons Ratio (x) = -0.34615 6.06404
# Poissons Ratio (y) = 0.79480 -1.10516
# Poissons Ratio (z) = -0.82682 -0.06563
#
# Static dielectric constant tensor:
#      x y z
#    x 1.752230 0.000000 0.022080 
#    y 0.000000 1.778870 0.000000 
#    z 0.022080 0.000000 1.748660 
# 
# From -- ./inp_files/250073.got.cif
#   From: 2010.05.17/outbox.cif.g08.bks.cpg/sg12_126_cif.got.tgz:250073.got - 2010.06.03 13:09:07.
