data_PCOD9183236
_publ_section_title
;
Structure prediction by ZEFSAII (Michael W. Deem and Ramdas Pophale) SiO2 
 PCOD9183236
Probable space group: C 2/M
;
_chemical_formula_sum "Si O2"
_cell_formula_units_Z 58
_cell_length_a 29.107696
_cell_length_b 7.341597
_cell_length_c 10.708870
_cell_angle_alpha 90.000000
_cell_angle_beta 87.823966
_cell_angle_gamma 90.000000
_cell_volume 2286.802875
_symmetry_space_group_name_H-M "C 2/M"
_symmetry_group_IT_number 12
_symmetry_cell_setting 'monoclinic'
loop_
_space_group_symop_operation_xyz
x,y,z
-x,y,-z
-x,-y,-z
x,-y,z
1/2+x,1/2+y,z
1/2-x,1/2+y,-z
1/2-x,1/2-y,-z
1/2+x,1/2-y,z
loop_
_atom_site_type_symbol
_atom_site_label
_atom_site_fract_x
_atom_site_fract_y
_atom_site_fract_z
Si Si1 0.055305 0.796923 0.096364
Si Si2 0.298243 0.208655 0.277741
Si Si3 0.802589 0.220581 0.771422
Si Si4 0.603108 0.791341 0.345481
Si Si5 0.500000 0.500000 0.500000
Si Si6 0.647498 0.278459 0.978358
Si Si7 0.613757 0.778771 0.611812
Si Si8 0.021368 0.288975 0.717871
O O1 0.082672 0.803174 0.226747
O O2 0.095236 0.710718 0.006878
O O3 0.006484 0.721985 0.148892
O O4 0.047683 0.000000 0.051106
O O5 0.248086 0.287732 0.257909
O O6 0.335364 0.292259 0.367883
O O7 0.290237 0.000000 0.318000
O O8 0.327153 0.210218 0.146618
O O9 0.841900 0.286561 0.674175
O O10 0.820755 0.274675 0.906608
O O11 0.802330 0.000000 0.770434
O O12 0.593694 0.711795 0.482269
O O13 0.586917 0.000000 0.341084
O O14 0.501123 0.658972 0.612758
O O15 0.646019 0.500000 0.974600
O O16 0.575267 0.735416 0.718361
O O17 0.617232 0.000000 0.603848
O O18 0.019811 0.500000 0.677863
#
# Coordination Sequence:
#
# PCOD9183236 Si02
#       8
#     8   8   8   8   2   8   8   8
#     4  10  20  37  58  85 118 148 190 246 300 351
#     4  10  20  37  58  78 109 155 197 239 293 353
#     4   9  19  35  55  81 113 145 187 246 300 347
#     4  10  19  33  54  80 113 149 187 236 293 355
#     4  12  22  36  60  90 118 156 202 244 296 344
#     4   9  19  35  55  84 115 142 187 252 301 342
#     4   9  21  38  54  79 117 154 194 238 286 352
#     4  11  22  38  59  87 123 159 199 247 295 352
#
# _framework density 25.362921
#
# number of rings (size 3 to 8) (size 9 to 14) (size 15 to 20)
#    0.000    2.207    0.690    3.103    0.000    4.966 
#    2.483    0.690    0.000    4.138    0.000    0.000 
#    0.000    0.000    0.000    0.000    0.000    0.000 
#
# Total GULP energy -161828.952154 kJ/mol
# GULP energy per Si atom -5580.308695 kJ/mol
# Density = 2.530519 g / cm^3
# Si number density = 25.362921 Si / 1000 Ang^3
#
#
#
# Elastic Constant Matrix: (Units=GPa)
#
#
# Indices 1 2 3 4 5 6 
#
# 1 114.9762 -18.7394 5.7812 0.0000 -2.3776 0.0000
# 2 -18.7394 128.5184 -20.4429 0.0000 7.4609 0.0000
# 3 5.7812 -20.4429 53.8333 0.0000 -1.2458 0.0000
# 4 0.0000 0.0000 0.0000 17.9810 0.0000 -14.0416
# 5 -2.3776 7.4609 -1.2458 0.0000 34.6474 0.0000
# 6 0.0000 0.0000 0.0000 -14.0416 0.0000 8.7804
#
#
#
# Elastic Compliance Matrix: (Units=1/GPa)
#
#
# Indices 1 2 3 4 5 6 
#
# 1 0.008925 0.001203 -0.000494 0.000000 0.000336 0.000000
# 2 0.001203 0.008541 0.003076 0.000000 -0.001646 0.000000
# 3 -0.000494 0.003076 0.019797 0.000000 0.000016 0.000000
# 4 0.000000 0.000000 0.000000 -0.223492 0.000000 -0.357410
# 5 0.000336 -0.001646 0.000016 0.000000 0.029240 0.000000
# 6 0.000000 0.000000 0.000000 -0.357410 0.000000 -0.457681
#
#
# Mechanical properties :
#
#
# Convention : Reuss Voigt Hill
#
# Bulk Modulus (GPa) = 22.30363 25.61397 23.95880
# Shear Modulus (GPa) = -8.23322 34.33036 13.04857
#
# Velocity S-wave (km/s) = -1.80367 3.68307 2.27066
# Velocity P-wave (km/s) = 2.11548 5.31108 4.04245
#
# Compressibility (1/GPa) = 0.04483576
#
# Stress axis : x y z
#
# Youngs Moduli (GPa) = 112.04036 117.07770 50.51169
#
# Poissons Ratio (x) = -0.14089 0.02494
# Poissons Ratio (y) = -0.13483 -0.15538
# Poissons Ratio (z) = 0.05532 -0.36015
#
# Static dielectric constant tensor:
#      x y z
#    x 2.059730 0.000000 0.007280 
#    y 0.000000 1.928600 0.000000 
#    z 0.007280 0.000000 1.970200 
# 
# From -- ./inp_files/186606.got.cif
#   From: 2010.05.17/outbox.cif.g08.bks.cpg/sg12_94_cif.got.tgz:186606.got - 2010.06.03 13:09:07.
