data_PCOD9183705
_publ_section_title
;
Structure prediction by ZEFSAII (Michael W. Deem and Ramdas Pophale) SiO2 
 PCOD9183705
Probable space group: C 2/M
;
_chemical_formula_sum "Si O2"
_cell_formula_units_Z 56
_cell_length_a 9.108031
_cell_length_b 27.391798
_cell_length_c 11.741676
_cell_angle_alpha 90.000000
_cell_angle_beta 109.653952
_cell_angle_gamma 90.000000
_cell_volume 2758.714040
_symmetry_space_group_name_H-M "C 2/M"
_symmetry_group_IT_number 12
_symmetry_cell_setting 'monoclinic'
loop_
_space_group_symop_operation_xyz
x,y,z
-x,y,-z
-x,-y,-z
x,-y,z
1/2+x,1/2+y,z
1/2-x,1/2+y,-z
1/2-x,1/2-y,-z
1/2+x,1/2-y,z
loop_
_atom_site_type_symbol
_atom_site_label
_atom_site_fract_x
_atom_site_fract_y
_atom_site_fract_z
Si Si1 0.643161 0.945663 0.124798
Si Si2 0.333386 0.556554 0.518571
Si Si3 0.981976 0.300587 0.125942
Si Si4 0.817888 0.943990 0.968694
Si Si5 0.373622 0.694501 0.876592
Si Si6 0.240306 0.892415 0.279038
Si Si7 0.582653 0.881205 0.324158
O O1 0.591654 0.919395 0.223287
O O2 0.694872 0.000000 0.170291
O O3 0.500000 0.947017 0.000000
O O4 0.776823 0.922353 0.081286
O O5 0.500000 0.558158 0.500000
O O6 0.274749 0.500000 0.492465
O O7 0.339159 0.571122 0.653168
O O8 0.225335 0.599434 0.437440
O O9 0.797871 0.299720 0.110392
O O10 0.056012 0.246701 0.139868
O O11 0.070484 0.331125 0.247652
O O12 0.000000 0.320689 0.000000
O O13 0.753588 0.914660 0.846236
O O14 0.757521 0.000000 0.949916
O O15 0.000000 0.946225 0.000000
O O16 0.349361 0.658325 0.763997
O O17 0.500000 0.673832 0.000000
O O18 0.422320 0.884243 0.352831
#
# Coordination Sequence:
#
# PCOD9183705 Si02
#       7
#     8   8   8   8   8   8   8
#     4  10  19  33  55  85 117 148 191 245 304 365
#     4  11  27  45  62  88 121 162 210 259 305 356
#     4  10  21  37  62  94 128 161 198 247 307 368
#     4  10  21  34  53  85 120 152 188 244 308 364
#     4  10  21  38  62  95 128 160 198 247 308 368
#     4  11  23  40  62  86 118 162 208 247 300 365
#     4  11  23  39  63  86 117 161 206 250 301 363
#
# _framework density 20.299313000000001
#
# number of rings (size 3 to 8) (size 9 to 14) (size 15 to 20)
#    0.000    1.571    1.429    3.857    4.000    4.571 
#    0.000    0.714    0.000    0.000    0.000    0.000 
#    0.000    0.000    0.000    0.000    0.000    0.000 
#
# Total GULP energy -156172.969013 kJ/mol
# GULP energy per Si atom -5577.606036 kJ/mol
# Density = 2.025311 g / cm^3
# Si number density = 20.299313 Si / 1000 Ang^3
#
#
#
# Elastic Constant Matrix: (Units=GPa)
#
#
# Indices 1 2 3 4 5 6 
#
# 1 103.0316 31.4522 26.2842 0.0000 -3.5738 0.0000
# 2 31.4522 83.9548 28.4490 0.0000 0.5165 0.0000
# 3 26.2842 28.4490 59.9971 0.0000 -3.9147 0.0000
# 4 0.0000 0.0000 0.0000 32.4896 0.0000 8.5339
# 5 -3.5738 0.5165 -3.9147 0.0000 35.7169 0.0000
# 6 0.0000 0.0000 0.0000 8.5339 0.0000 26.0243
#
#
#
# Elastic Compliance Matrix: (Units=1/GPa)
#
#
# Indices 1 2 3 4 5 6 
#
# 1 0.011598 -0.003153 -0.003532 0.000000 0.000819 0.000000
# 2 -0.003153 0.015081 -0.005846 0.000000 -0.001174 0.000000
# 3 -0.003532 -0.005846 0.021121 0.000000 0.002046 0.000000
# 4 0.000000 0.000000 0.000000 0.033680 0.000000 -0.011044
# 5 0.000819 -0.001174 0.002046 0.000000 0.028321 0.000000
# 6 0.000000 0.000000 0.000000 -0.011044 0.000000 0.042047
#
#
# Mechanical properties :
#
#
# Convention : Reuss Voigt Hill
#
# Bulk Modulus (GPa) = 43.98321 46.59492 45.28907
# Shear Modulus (GPa) = 27.10186 29.56604 28.33395
#
# Velocity S-wave (km/s) = 3.65788 3.82056 3.74010
# Velocity P-wave (km/s) = 6.28924 6.51659 6.40392
#
# Compressibility (1/GPa) = 0.02273595
#
# Stress axis : x y z
#
# Youngs Moduli (GPa) = 86.22319 66.31019 47.34713
#
# Poissons Ratio (x) = 0.20907 0.16725
# Poissons Ratio (y) = 0.27186 0.27680
# Poissons Ratio (z) = 0.30458 0.38766
#
# Static dielectric constant tensor:
#      x y z
#    x 1.776550 0.000000 0.017480 
#    y 0.000000 1.758740 0.000000 
#    z 0.017480 0.000000 1.809060 
# 
# From -- ./inp_files/124361.got.cif
#   From: 2010.05.17/outbox.cif.g08.bks.cpg/sg12_63_cif.got.tgz:124361.got - 2010.06.03 13:09:07.
