data_PCOD9183732
_publ_section_title
;
Structure prediction by ZEFSAII (Michael W. Deem and Ramdas Pophale) SiO2 
 PCOD9183732
Probable space group: C 2/M
;
_chemical_formula_sum "Si O2"
_cell_formula_units_Z 56
_cell_length_a 5.356702
_cell_length_b 19.113112
_cell_length_c 26.044151
_cell_angle_alpha 90.000000
_cell_angle_beta 102.033975
_cell_angle_gamma 90.000000
_cell_volume 2607.886411
_symmetry_space_group_name_H-M "C 2/M"
_symmetry_group_IT_number 12
_symmetry_cell_setting 'monoclinic'
loop_
_space_group_symop_operation_xyz
x,y,z
-x,y,-z
-x,-y,-z
x,-y,z
1/2+x,1/2+y,z
1/2-x,1/2+y,-z
1/2-x,1/2-y,-z
1/2+x,1/2-y,z
loop_
_atom_site_type_symbol
_atom_site_label
_atom_site_fract_x
_atom_site_fract_y
_atom_site_fract_z
Si Si1 0.008552 0.916779 0.893363
Si Si2 0.266628 0.778235 0.560141
Si Si3 0.059706 0.414146 0.287316
Si Si4 0.957600 0.423134 0.558679
Si Si5 0.169581 0.220420 0.941026
Si Si6 0.886082 0.915884 0.656289
Si Si7 0.445064 0.084154 0.830195
O O1 0.114872 0.862184 0.939599
O O2 0.191045 0.901483 0.852170
O O3 0.714041 0.898669 0.868920
O O4 0.028382 0.000000 0.906194
O O5 0.250000 0.750000 0.500000
O O6 0.549828 0.753874 0.585641
O O7 0.260478 0.861480 0.559842
O O8 0.054283 0.500000 0.287514
O O9 0.324487 0.390733 0.325268
O O10 0.061133 0.389828 0.228448
O O11 0.808683 0.391140 0.307519
O O12 0.873360 0.500000 0.573666
O O13 0.000000 0.425441 0.500000
O O14 0.225352 0.405573 0.597417
O O15 0.407405 0.240702 0.915562
O O16 0.250000 0.250000 0.000000
O O17 0.904802 0.000000 0.662858
O O18 0.451409 0.000000 0.826448
#
# Coordination Sequence:
#
# PCOD9183732 Si02
#       7
#     8   8   8   8   8   8   8
#     4  10  19  33  55  87 115 142 192 246 286 322
#     4  10  20  38  56  75 101 133 176 216 259 325
#     4   9  16  30  48  73 110 142 171 214 284 353
#     4  10  20  36  56  83 113 141 181 236 277 318
#     4  10  21  38  56  79 117 160 200 234 275 340
#     4   9  18  30  46  72 107 144 174 212 275 344
#     4   9  17  29  52  83 113 142 178 239 296 333
#
# _framework density 21.473327000000001
#
# number of rings (size 3 to 8) (size 9 to 14) (size 15 to 20)
#    0.000    2.429    1.429    1.714    0.000    4.571 
#    0.000    6.429    0.000    0.000    0.000   20.000 
#    0.000    0.000    0.000    0.000    0.000    0.000 
#
# Total GULP energy -156159.402931 kJ/mol
# GULP energy per Si atom -5577.121533 kJ/mol
# Density = 2.142445 g / cm^3
# Si number density = 21.473327 Si / 1000 Ang^3
#
#
#
# Elastic Constant Matrix: (Units=GPa)
#
#
# Indices 1 2 3 4 5 6 
#
# 1 117.0979 14.7796 -8.6074 0.0000 2.8472 0.0000
# 2 14.7796 92.5165 15.3800 0.0000 9.9169 0.0000
# 3 -8.6074 15.3800 55.2588 0.0000 -0.1771 0.0000
# 4 0.0000 0.0000 0.0000 1.8706 0.0000 5.4191
# 5 2.8472 9.9169 -0.1771 0.0000 16.8849 0.0000
# 6 0.0000 0.0000 0.0000 5.4191 0.0000 19.0504
#
#
#
# Elastic Compliance Matrix: (Units=1/GPa)
#
#
# Indices 1 2 3 4 5 6 
#
# 1 0.008900 -0.001676 0.001851 0.000000 -0.000497 0.000000
# 2 -0.001676 0.012459 -0.003751 0.000000 -0.007074 0.000000
# 3 0.001851 -0.003751 0.019436 0.000000 0.002095 0.000000
# 4 0.000000 0.000000 0.000000 3.038384 0.000000 -0.864296
# 5 -0.000497 -0.007074 0.002095 0.000000 0.063485 0.000000
# 6 0.000000 0.000000 0.000000 -0.864296 0.000000 0.298349
#
#
# Mechanical properties :
#
#
# Convention : Reuss Voigt Hill
#
# Bulk Modulus (GPa) = 29.72539 34.21974 31.97257
# Shear Modulus (GPa) = 1.44535 23.78259 12.61397
#
# Velocity S-wave (km/s) = 0.82131 3.33158 2.42631
# Velocity P-wave (km/s) = 3.84349 5.54705 4.77191
#
# Compressibility (1/GPa) = 0.03364127
#
# Stress axis : x y z
#
# Youngs Moduli (GPa) = 112.36488 80.26626 51.45142
#
# Poissons Ratio (x) = 0.13454 -0.09525
# Poissons Ratio (y) = 0.18835 0.19301
# Poissons Ratio (z) = -0.20801 0.30110
#
# Static dielectric constant tensor:
#      x y z
#    x 1.821330 0.000000 0.013790 
#    y 0.000000 1.813870 0.000000 
#    z 0.013790 0.000000 1.780580 
# 
# From -- ./inp_files/354954.got.cif
#   From: 2010.05.17/outbox.cif.g08.bks.cpg/sg12_178_cif.got.tgz:354954.got - 2010.06.03 13:09:07.
