data_PCOD9183427
_publ_section_title
;
Structure prediction by ZEFSAII (Michael W. Deem and Ramdas Pophale) SiO2 
 PCOD9183427
Probable space group: C 2/M
;
_chemical_formula_sum "Si O2"
_cell_formula_units_Z 56
_cell_length_a 32.263978
_cell_length_b 7.703249
_cell_length_c 12.315742
_cell_angle_alpha 90.000000
_cell_angle_beta 63.594916
_cell_angle_gamma 90.000000
_cell_volume 2741.584122
_symmetry_space_group_name_H-M "C 2/M"
_symmetry_group_IT_number 12
_symmetry_cell_setting 'monoclinic'
loop_
_space_group_symop_operation_xyz
x,y,z
-x,y,-z
-x,-y,-z
x,-y,z
1/2+x,1/2+y,z
1/2-x,1/2+y,-z
1/2-x,1/2-y,-z
1/2+x,1/2-y,z
loop_
_atom_site_type_symbol
_atom_site_label
_atom_site_fract_x
_atom_site_fract_y
_atom_site_fract_z
Si Si1 0.960482 0.295602 0.683987
Si Si2 0.616394 0.699699 0.062897
Si Si3 0.063358 0.287323 0.525173
Si Si4 0.833931 0.206766 0.205317
Si Si5 0.298642 0.792622 0.885980
Si Si6 0.728382 0.787798 0.321956
Si Si7 0.148981 0.709938 0.571023
O O1 0.965691 0.500000 0.659658
O O2 0.928223 0.273542 0.824999
O O3 0.936177 0.229841 0.601493
O O4 0.013159 0.230015 0.628697
O O5 0.605111 0.500000 0.055621
O O6 0.659485 0.712370 0.095586
O O7 0.634664 0.779144 0.928714
O O8 0.065758 0.500000 0.524264
O O9 0.106182 0.227982 0.547578
O O10 0.781215 0.274855 0.263673
O O11 0.853809 0.234877 0.301407
O O12 0.830160 0.000000 0.189894
O O13 0.294792 0.736713 0.765289
O O14 0.305506 0.000000 0.879336
O O15 0.250000 0.750000 0.000000
O O16 0.696755 0.730633 0.459012
O O17 0.729256 0.000000 0.322055
O O18 0.149130 0.500000 0.568954
#
# Coordination Sequence:
#
# PCOD9183427 Si02
#       7
#     8   8   8   8   8   8   8
#     4   9  17  34  60  83 104 136 172 212 270 329
#     4  11  22  36  52  76 111 145 177 217 263 312
#     4   8  16  33  57  84 109 130 166 222 275 319
#     4  10  21  37  50  68 107 148 176 214 264 310
#     4  11  20  34  55  79 108 141 174 214 264 315
#     4   9  18  34  54  75 104 139 172 215 267 308
#     4  10  19  33  55  79 100 132 180 223 259 309
#
# _framework density 20.426145999999999
#
# number of rings (size 3 to 8) (size 9 to 14) (size 15 to 20)
#    0.000    2.286    1.429    3.000    0.000    3.429 
#    0.000    6.429    0.000    4.286    0.000    0.000 
#    0.000    0.000    0.000    0.000    0.000    0.000 
#
# Total GULP energy -156319.049951 kJ/mol
# GULP energy per Si atom -5582.823213 kJ/mol
# Density = 2.037966 g / cm^3
# Si number density = 20.426146 Si / 1000 Ang^3
#
#
#
# Elastic Constant Matrix: (Units=GPa)
#
#
# Indices 1 2 3 4 5 6 
#
# 1 72.0801 -1.8671 72.2088 0.0000 0.1004 0.0000
# 2 -1.8671 25.8126 1.5632 0.0000 -0.9808 0.0000
# 3 72.2088 1.5632 169.8843 0.0000 -7.5680 0.0000
# 4 0.0000 0.0000 0.0000 13.9630 0.0000 0.3995
# 5 0.1004 -0.9808 -7.5680 0.0000 27.8925 0.0000
# 6 0.0000 0.0000 0.0000 0.3995 0.0000 15.7566
#
#
#
# Elastic Compliance Matrix: (Units=1/GPa)
#
#
# Indices 1 2 3 4 5 6 
#
# 1 0.024533 0.002306 -0.010577 0.000000 -0.002877 0.000000
# 2 0.002306 0.039024 -0.001294 0.000000 0.001013 0.000000
# 3 -0.010577 -0.001294 0.010521 0.000000 0.002847 0.000000
# 4 0.000000 0.000000 0.000000 0.071670 0.000000 -0.001817
# 5 -0.002877 0.001013 0.002847 0.000000 0.036670 0.000000
# 6 0.000000 0.000000 0.000000 -0.001817 0.000000 0.063511
#
#
# Mechanical properties :
#
#
# Convention : Reuss Voigt Hill
#
# Bulk Modulus (GPa) = 18.19914 45.73187 31.96550
# Shear Modulus (GPa) = 17.64436 24.58058 21.11247
#
# Velocity S-wave (km/s) = 2.94226 3.47275 3.21845
# Velocity P-wave (km/s) = 4.52455 6.20625 5.43089
#
# Compressibility (1/GPa) = 0.05494766
#
# Stress axis : x y z
#
# Youngs Moduli (GPa) = 40.76104 25.62504 95.04897
#
# Poissons Ratio (x) = -0.05909 1.00535
# Poissons Ratio (y) = -0.09399 0.12300
# Poissons Ratio (z) = 0.43114 0.03316
#
# Static dielectric constant tensor:
#      x y z
#    x 1.685970 0.000000 -0.003540 
#    y 0.000000 1.714980 0.000000 
#    z -0.003540 0.000000 1.729990 
# 
# From -- ./inp_files/186812.got.cif
#   From: 2010.05.17/outbox.cif.g08.bks.cpg/sg12_94_cif.got.tgz:186812.got - 2010.06.03 13:09:07.
