data_PCOD9183363
_publ_section_title
;
Structure prediction by ZEFSAII (Michael W. Deem and Ramdas Pophale) SiO2 
 PCOD9183363
Probable space group: C 2/M
;
_chemical_formula_sum "Si O2"
_cell_formula_units_Z 58
_cell_length_a 12.121910
_cell_length_b 14.555629
_cell_length_c 15.236208
_cell_angle_alpha 90.000000
_cell_angle_beta 96.189760
_cell_angle_gamma 90.000000
_cell_volume 2672.635229
_symmetry_space_group_name_H-M "C 2/M"
_symmetry_group_IT_number 12
_symmetry_cell_setting 'monoclinic'
loop_
_space_group_symop_operation_xyz
x,y,z
-x,y,-z
-x,-y,-z
x,-y,z
1/2+x,1/2+y,z
1/2-x,1/2+y,-z
1/2-x,1/2-y,-z
1/2+x,1/2-y,z
loop_
_atom_site_type_symbol
_atom_site_label
_atom_site_fract_x
_atom_site_fract_y
_atom_site_fract_z
Si Si1 0.421539 0.391277 0.769999
Si Si2 0.750819 0.887094 0.611224
Si Si3 0.491428 0.104792 0.392980
Si Si4 0.624142 0.354470 0.038790
Si Si5 0.832460 0.111721 0.237496
Si Si6 0.322341 0.854311 0.931003
Si Si7 0.500000 0.000000 0.000000
Si Si8 0.733301 0.888105 0.410054
O O1 0.434077 0.500000 0.754846
O O2 0.346665 0.355786 0.684269
O O3 0.363469 0.379690 0.858479
O O4 0.546922 0.354289 0.783222
O O5 0.629744 0.854853 0.634310
O O6 0.766417 0.859162 0.511086
O O7 0.747416 0.000000 0.611499
O O8 0.500000 0.099817 0.500000
O O9 0.609103 0.145929 0.376069
O O10 0.488894 0.000000 0.358260
O O11 0.636987 0.244869 0.033902
O O12 0.500000 0.383491 0.000000
O O13 0.723452 0.390479 0.986508
O O14 0.735672 0.151755 0.168687
O O15 0.814751 0.134099 0.338065
O O16 0.825795 0.000000 0.227684
O O17 0.425283 0.921172 0.944134
O O18 0.726021 0.000000 0.413304
#
# Coordination Sequence:
#
# PCOD9183363 Si02
#       8
#     8   8   8   8   8   8   2   8
#     4  10  21  34  56  86 115 154 206 241 284 354
#     4   8  14  27  44  75 114 147 194 243 276 342
#     4   7  10  20  38  61  98 145 183 225 281 333
#     4  11  23  43  65  86 119 166 198 246 320 376
#     4  10  19  33  54  84 116 152 190 240 296 357
#     4  11  24  42  64  90 123 153 199 258 313 373
#     4  12  24  44  66  96 122 156 200 268 302 364
#     4   8  14  25  45  74 112 153 185 230 299 342
#
# _framework density 21.701429000000001
#
# number of rings (size 3 to 8) (size 9 to 14) (size 15 to 20)
#    0.000    2.621    2.759    1.655    0.966    0.828 
#    2.483    2.759    0.000    0.828    0.000    0.000 
#    0.000    0.000    0.000    0.000    0.000    0.276 
#
# Total GULP energy -161549.378196 kJ/mol
# GULP energy per Si atom -5570.668214 kJ/mol
# Density = 2.165204 g / cm^3
# Si number density = 21.701429 Si / 1000 Ang^3
#
#
#
# Elastic Constant Matrix: (Units=GPa)
#
#
# Indices 1 2 3 4 5 6 
#
# 1 48.2156 -7.0619 29.9432 0.0000 27.2848 0.0000
# 2 -7.0619 54.6580 -10.7422 0.0000 10.1769 0.0000
# 3 29.9432 -10.7422 100.6467 0.0000 10.4864 0.0000
# 4 0.0000 0.0000 0.0000 178.3677 0.0000 37.8576
# 5 27.2848 10.1769 10.4864 0.0000 35.2413 0.0000
# 6 0.0000 0.0000 0.0000 37.8576 0.0000 -0.3297
#
#
#
# Elastic Compliance Matrix: (Units=1/GPa)
#
#
# Indices 1 2 3 4 5 6 
#
# 1 0.051596 0.012294 -0.009810 0.000000 -0.040578 0.000000
# 2 0.012294 0.023020 0.000499 0.000000 -0.016314 0.000000
# 3 -0.009810 0.000499 0.012519 0.000000 0.003726 0.000000
# 4 0.000000 0.000000 0.000000 0.000221 0.000000 0.025374
# 5 -0.040578 -0.016314 0.003726 0.000000 0.063395 0.000000
# 6 0.000000 0.000000 0.000000 0.025374 0.000000 -0.119549
#
#
# Mechanical properties :
#
#
# Convention : Reuss Voigt Hill
#
# Bulk Modulus (GPa) = 10.74112 25.31096 18.02604
# Shear Modulus (GPa) = 88.85660 55.41459 72.13559
#
# Velocity S-wave (km/s) = 6.40577 5.05870 5.77167
# Velocity P-wave (km/s) = 7.72478 6.76825 7.26228
#
# Compressibility (1/GPa) = 0.09310016
#
# Stress axis : x y z
#
# Youngs Moduli (GPa) = 19.38135 43.44119 79.87565
#
# Poissons Ratio (x) = -0.53405 0.78360
# Poissons Ratio (y) = -0.23827 -0.03988
# Poissons Ratio (z) = 0.19014 -0.02169
#
# Static dielectric constant tensor:
#      x y z
#    x 1.816560 0.000000 -0.021120 
#    y 0.000000 1.785590 0.000000 
#    z -0.021120 0.000000 1.750370 
# 
# From -- ./inp_files/206176.got.cif
#   From: 2010.05.17/outbox.cif.g08.bks.cpg/sg12_104_cif.got.tgz:206176.got - 2010.06.03 13:09:07.
