data_PCOD9183375
_publ_section_title
;
Structure prediction by ZEFSAII (Michael W. Deem and Ramdas Pophale) SiO2 
 PCOD9183375
Probable space group: C 2/M
;
_chemical_formula_sum "Si O2"
_cell_formula_units_Z 36
_cell_length_a 14.080502
_cell_length_b 24.999024
_cell_length_c 5.084539
_cell_angle_alpha 90.000000
_cell_angle_beta 103.468098
_cell_angle_gamma 90.000000
_cell_volume 1740.533048
_symmetry_space_group_name_H-M "C 2/M"
_symmetry_group_IT_number 12
_symmetry_cell_setting 'monoclinic'
loop_
_space_group_symop_operation_xyz
x,y,z
-x,y,-z
-x,-y,-z
x,-y,z
1/2+x,1/2+y,z
1/2-x,1/2+y,-z
1/2-x,1/2-y,-z
1/2+x,1/2-y,z
loop_
_atom_site_type_symbol
_atom_site_label
_atom_site_fract_x
_atom_site_fract_y
_atom_site_fract_z
Si Si1 0.318869 0.611397 0.138464
Si Si2 0.627833 0.789494 0.524217
Si Si3 0.570089 0.500000 0.795523
Si Si4 0.154584 0.181169 0.325490
Si Si5 0.101075 0.639823 0.992727
O O1 0.364435 0.553055 0.162607
O O2 0.332710 0.638381 0.432530
O O3 0.371314 0.649292 0.955093
O O4 0.202237 0.609477 0.996650
O O5 0.742230 0.790234 0.682669
O O6 0.595939 0.730777 0.410655
O O7 0.579434 0.818922 0.740877
O O8 0.624953 0.826128 0.265906
O O9 0.500000 0.500000 0.500000
O O10 0.500000 0.500000 0.000000
O O11 0.000000 0.609697 0.000000
#
# Coordination Sequence:
#
# PCOD9183375 Si02
#       5
#     8   8   4   8   8
#     4  10  21  38  60  81 109 147 188 237 289 331
#     4   9  17  30  52  81 117 155 184 213 259 324
#     4  12  26  46  65  82 105 140 194 254 302 334
#     4   9  17  33  56  81 111 149 187 224 269 326
#     4  10  19  33  54  85 120 152 181 216 272 344
#
# _framework density 20.683318
#
# number of rings (size 3 to 8) (size 9 to 14) (size 15 to 20)
#    0.000    2.222    0.000    3.333    0.000    5.333 
#    0.000   11.667    0.000    0.000    0.000   10.889 
#    0.000    0.000    0.000    0.000    0.000    0.000 
#
# Total GULP energy -100390.235516 kJ/mol
# GULP energy per Si atom -5577.235306 kJ/mol
# Density = 2.063624 g / cm^3
# Si number density = 20.683318 Si / 1000 Ang^3
#
#
#
# Elastic Constant Matrix: (Units=GPa)
#
#
# Indices 1 2 3 4 5 6 
#
# 1 124.0931 53.3552 20.8810 0.0000 -8.3639 0.0000
# 2 53.3552 105.3785 7.4923 0.0000 2.7434 0.0000
# 3 20.8810 7.4923 81.0985 0.0000 -18.6534 0.0000
# 4 0.0000 0.0000 0.0000 30.8308 0.0000 -2.9922
# 5 -8.3639 2.7434 -18.6534 0.0000 28.1109 0.0000
# 6 0.0000 0.0000 0.0000 -2.9922 0.0000 22.0417
#
#
#
# Elastic Compliance Matrix: (Units=1/GPa)
#
#
# Indices 1 2 3 4 5 6 
#
# 1 0.010863 -0.005449 -0.001685 0.000000 0.002646 0.000000
# 2 -0.005449 0.012363 -0.000460 0.000000 -0.003133 0.000000
# 3 -0.001685 -0.000460 0.014990 0.000000 0.009490 0.000000
# 4 0.000000 0.000000 0.000000 0.032868 0.000000 0.004462
# 5 0.002646 -0.003133 0.009490 0.000000 0.042964 0.000000
# 6 0.000000 0.000000 0.000000 0.004462 0.000000 0.045974
#
#
# Mechanical properties :
#
#
# Convention : Reuss Voigt Hill
#
# Bulk Modulus (GPa) = 43.42545 52.66969 48.04757
# Shear Modulus (GPa) = 27.33936 31.45281 29.39608
#
# Velocity S-wave (km/s) = 3.63961 3.90383 3.77403
# Velocity P-wave (km/s) = 6.22120 6.77052 6.50166
#
# Compressibility (1/GPa) = 0.02302797
#
# Stress axis : x y z
#
# Youngs Moduli (GPa) = 92.05238 80.88654 66.71179
#
# Poissons Ratio (x) = 0.44078 0.11241
# Poissons Ratio (y) = 0.50163 0.03066
# Poissons Ratio (z) = 0.15511 0.03718
#
# Static dielectric constant tensor:
#      x y z
#    x 1.919400 0.000000 0.035890 
#    y 0.000000 1.701900 0.000000 
#    z 0.035890 0.000000 1.732560 
# 
# From -- ./inp_files/11444.got.cif
#   From: 2010.05.17/outbox.cif.g08.bks.cpg/sg12_6_cif.got.tgz:11444.got - 2010.06.03 13:09:07.
