data_PCOD9183940
_publ_section_title
;
Structure prediction by ZEFSAII (Michael W. Deem and Ramdas Pophale) SiO2 
 PCOD9183940
Probable space group: C 2/M
;
_chemical_formula_sum "Si O2"
_cell_formula_units_Z 64
_cell_length_a 15.494100
_cell_length_b 16.934615
_cell_length_c 17.759475
_cell_angle_alpha 90.000000
_cell_angle_beta 136.821367
_cell_angle_gamma 90.000000
_cell_volume 3188.618862
_symmetry_space_group_name_H-M "C 2/M"
_symmetry_group_IT_number 12
_symmetry_cell_setting 'monoclinic'
loop_
_space_group_symop_operation_xyz
x,y,z
-x,y,-z
-x,-y,-z
x,-y,z
1/2+x,1/2+y,z
1/2-x,1/2+y,-z
1/2-x,1/2-y,-z
1/2+x,1/2-y,z
loop_
_atom_site_type_symbol
_atom_site_label
_atom_site_fract_x
_atom_site_fract_y
_atom_site_fract_z
Si Si1 0.590560 0.330256 0.760734
Si Si2 0.588728 0.138721 0.769022
Si Si3 0.209203 0.339069 0.989214
Si Si4 0.188297 0.833727 0.371448
Si Si5 0.627446 0.092521 0.622775
Si Si6 0.525843 0.087271 0.104315
Si Si7 0.818497 0.909146 0.328204
Si Si8 0.200015 0.354916 0.398891
O O1 0.592936 0.234571 0.764106
O O2 0.700286 0.365386 0.884947
O O3 0.457292 0.355264 0.710817
O O4 0.605504 0.357498 0.683718
O O5 0.614835 0.104579 0.703657
O O6 0.445082 0.116069 0.702251
O O7 0.694249 0.117905 0.898946
O O8 0.250000 0.250000 0.000000
O O9 0.064779 0.344646 0.923834
O O10 0.254680 0.862550 0.338295
O O11 0.198195 0.738995 0.383271
O O12 0.261664 0.868354 0.490465
O O13 0.500000 0.121761 0.500000
O O14 0.640239 0.000000 0.613836
O O15 0.672289 0.100152 0.210724
O O16 0.491006 0.000000 0.113252
O O17 0.500000 0.083842 0.000000
O O18 0.803978 0.888431 0.407119
O O19 0.857173 0.000000 0.344694
#
# Coordination Sequence:
#
# PCOD9183940 Si02
#       8
#     8   8   8   8   8   8   8   8
#     4  10  22  38  58  85 119 159 189 229 293 356
#     4  10  20  38  60  87 114 147 200 249 282 328
#     4  10  20  36  57  86 119 151 195 238 284 335
#     4  10  22  40  59  82 116 156 194 237 292 348
#     4  11  23  39  62  88 115 151 198 248 294 341
#     4  10  19  33  56  84 116 152 189 232 284 341
#     4  11  22  35  57  90 121 150 189 237 292 350
#     4  10  20  37  61  86 114 149 194 243 288 343
#
# _framework density 20.071384999999999
#
# number of rings (size 3 to 8) (size 9 to 14) (size 15 to 20)
#    0.000    1.750    3.750    0.750    0.000    2.500 
#    0.000    1.250    0.000    0.750    0.000    0.000 
#    0.000    0.000    0.000    0.000    0.000    0.000 
#
# Total GULP energy -178476.932062 kJ/mol
# GULP energy per Si atom -5577.404127 kJ/mol
# Density = 2.002570 g / cm^3
# Si number density = 20.071385 Si / 1000 Ang^3
#
#
#
# Elastic Constant Matrix: (Units=GPa)
#
#
# Indices 1 2 3 4 5 6 
#
# 1 105.6852 16.3802 -5.8453 0.0000 -3.6818 0.0000
# 2 16.3802 25.0344 -7.7314 0.0000 7.6928 0.0000
# 3 -5.8453 -7.7314 44.4166 0.0000 -3.8688 0.0000
# 4 0.0000 0.0000 0.0000 5.8423 0.0000 7.7142
# 5 -3.6818 7.6928 -3.8688 0.0000 30.0345 0.0000
# 6 0.0000 0.0000 0.0000 7.7142 0.0000 -0.3327
#
#
#
# Elastic Compliance Matrix: (Units=1/GPa)
#
#
# Indices 1 2 3 4 5 6 
#
# 1 0.010848 -0.008053 0.000325 0.000000 0.003434 0.000000
# 2 -0.008053 0.051371 0.006726 0.000000 -0.013279 0.000000
# 3 0.000325 0.006726 0.023849 0.000000 0.001389 0.000000
# 4 0.000000 0.000000 0.000000 0.005413 0.000000 0.125531
# 5 0.003434 -0.013279 0.001389 0.000000 0.037296 0.000000
# 6 0.000000 0.000000 0.000000 0.125531 0.000000 -0.095070
#
#
# Mechanical properties :
#
#
# Convention : Reuss Voigt Hill
#
# Bulk Modulus (GPa) = 11.89574 20.08259 15.98917
# Shear Modulus (GPa) = 78.45213 18.59765 48.52489
#
# Velocity S-wave (km/s) = 6.25871 3.04727 4.92226
# Velocity P-wave (km/s) = 7.62680 4.73376 6.34731
#
# Compressibility (1/GPa) = 0.08406368
#
# Stress axis : x y z
#
# Youngs Moduli (GPa) = 92.18485 19.46606 41.93119
#
# Poissons Ratio (x) = 0.15675 -0.01363
# Poissons Ratio (y) = 0.74234 -0.28201
# Poissons Ratio (z) = -0.02996 -0.13092
#
# Static dielectric constant tensor:
#      x y z
#    x 1.706560 0.000000 -0.025460 
#    y 0.000000 1.730880 0.000000 
#    z -0.025460 0.000000 1.758090 
# 
# From -- ./inp_files/271769.got.cif
#   From: 2010.05.17/outbox.cif.g08.bks.cpg/sg12_136_cif.got.tgz:271769.got - 2010.06.03 13:09:07.
