data_PCOD9183431
_publ_section_title
;
Structure prediction by ZEFSAII (Michael W. Deem and Ramdas Pophale) SiO2 
 PCOD9183431
Probable space group: C 2/M
;
_chemical_formula_sum "Si O2"
_cell_formula_units_Z 56
_cell_length_a 32.277830
_cell_length_b 7.514882
_cell_length_c 19.012370
_cell_angle_alpha 90.000000
_cell_angle_beta 145.497685
_cell_angle_gamma 90.000000
_cell_volume 2612.259459
_symmetry_space_group_name_H-M "C 2/M"
_symmetry_group_IT_number 12
_symmetry_cell_setting 'monoclinic'
loop_
_space_group_symop_operation_xyz
x,y,z
-x,y,-z
-x,-y,-z
x,-y,z
1/2+x,1/2+y,z
1/2-x,1/2+y,-z
1/2-x,1/2-y,-z
1/2+x,1/2-y,z
loop_
_atom_site_type_symbol
_atom_site_label
_atom_site_fract_x
_atom_site_fract_y
_atom_site_fract_z
Si Si1 0.369281 0.791576 0.188281
Si Si2 0.021455 0.202313 0.454487
Si Si3 0.663358 0.286024 0.387619
Si Si4 0.730667 0.715104 0.081480
Si Si5 0.365096 0.707782 0.497942
Si Si6 0.788019 0.215779 0.785382
Si Si7 0.418132 0.717496 0.867494
O O1 0.446536 0.699790 0.305916
O O2 0.308163 0.723583 0.157817
O O3 0.381099 0.000000 0.218331
O O4 0.332393 0.770313 0.060716
O O5 0.000000 0.284673 0.500000
O O6 0.083074 0.286158 0.490615
O O7 0.046487 0.000000 0.505813
O O8 0.656891 0.500000 0.380195
O O9 0.750000 0.250000 0.500000
O O10 0.634381 0.216914 0.422296
O O11 0.616295 0.223000 0.255033
O O12 0.732634 0.500000 0.083731
O O13 0.717528 0.776160 0.142008
O O14 0.386752 0.500000 0.533902
O O15 0.282205 0.720143 0.355573
O O16 0.861585 0.271065 0.849116
O O17 0.785812 0.000000 0.782007
O O18 0.419129 0.500000 0.867128
O O19 0.500000 0.776290 0.000000
#
# Coordination Sequence:
#
# PCOD9183431 Si02
#       7
#     8   8   8   8   8   8   8
#     4  10  20  34  52  76 105 139 178 223 272 318
#     4  10  21  36  53  76 109 145 180 221 271 322
#     4  10  19  34  56  80 107 140 179 225 273 324
#     4   9  19  34  53  76 103 138 179 220 267 325
#     4  10  21  34  53  80 107 142 182 222 272 327
#     4  10  19  33  55  79 102 136 180 222 266 320
#     4   9  18  32  52  79 107 136 174 221 270 320
#
# _framework density 21.437379
#
# number of rings (size 3 to 8) (size 9 to 14) (size 15 to 20)
#    0.000    2.286    1.429    1.286    0.000    3.143 
#    0.000    4.286    0.000    1.714    0.000    0.000 
#    0.000    0.000    0.000    0.000    0.000    0.000 
#
# Total GULP energy -156378.459776 kJ/mol
# GULP energy per Si atom -5584.944992 kJ/mol
# Density = 2.138859 g / cm^3
# Si number density = 21.437379 Si / 1000 Ang^3
#
#
#
# Elastic Constant Matrix: (Units=GPa)
#
#
# Indices 1 2 3 4 5 6 
#
# 1 172.7090 3.9520 77.4193 0.0000 -20.2931 0.0000
# 2 3.9520 59.4856 -4.9103 0.0000 -3.1840 0.0000
# 3 77.4193 -4.9103 129.4803 0.0000 5.0133 0.0000
# 4 0.0000 0.0000 0.0000 11.3549 0.0000 -1.1909
# 5 -20.2931 -3.1840 5.0133 0.0000 35.9849 0.0000
# 6 0.0000 0.0000 0.0000 -1.1909 0.0000 -23.9635
#
#
#
# Elastic Compliance Matrix: (Units=1/GPa)
#
#
# Indices 1 2 3 4 5 6 
#
# 1 0.009021 -0.000755 -0.005648 0.000000 0.005807 0.000000
# 2 -0.000755 0.016998 0.001060 0.000000 0.000931 0.000000
# 3 -0.005648 0.001060 0.011321 0.000000 -0.004668 0.000000
# 4 0.000000 0.000000 0.000000 0.087611 0.000000 -0.004354
# 5 0.005807 0.000931 -0.004668 0.000000 0.031797 0.000000
# 6 0.000000 0.000000 0.000000 -0.004354 0.000000 -0.041514
#
#
# Mechanical properties :
#
#
# Convention : Reuss Voigt Hill
#
# Bulk Modulus (GPa) = 37.51542 57.17743 47.34642
# Shear Modulus (GPa) = 37.09063 23.68952 30.39007
#
# Velocity S-wave (km/s) = 4.16406 3.32785 3.76922
# Velocity P-wave (km/s) = 6.37630 6.44172 6.40910
#
# Compressibility (1/GPa) = 0.02665571
#
# Stress axis : x y z
#
# Youngs Moduli (GPa) = 110.84857 58.82964 88.33205
#
# Poissons Ratio (x) = 0.04440 0.49886
# Poissons Ratio (y) = 0.08366 -0.09362
# Poissons Ratio (z) = 0.62602 -0.06235
#
# Static dielectric constant tensor:
#      x y z
#    x 1.785740 0.000000 -0.016790 
#    y 0.000000 1.825520 0.000000 
#    z -0.016790 0.000000 1.717630 
# 
# From -- ./inp_files/292577.got.cif
#   From: 2010.05.17/outbox.cif.g08.bks.cpg/sg12_147_cif.got.tgz:292577.got - 2010.06.03 13:09:07.
