data_PCOD9183562
_publ_section_title
;
Structure prediction by ZEFSAII (Michael W. Deem and Ramdas Pophale) SiO2 
 PCOD9183562
Probable space group: C 2/M
;
_chemical_formula_sum "Si O2"
_cell_formula_units_Z 58
_cell_length_a 27.675942
_cell_length_b 7.519035
_cell_length_c 24.430564
_cell_angle_alpha 90.000000
_cell_angle_beta 146.822776
_cell_angle_gamma 90.000000
_cell_volume 2782.071890
_symmetry_space_group_name_H-M "C 2/M"
_symmetry_group_IT_number 12
_symmetry_cell_setting 'monoclinic'
loop_
_space_group_symop_operation_xyz
x,y,z
-x,y,-z
-x,-y,-z
x,-y,z
1/2+x,1/2+y,z
1/2-x,1/2+y,-z
1/2-x,1/2-y,-z
1/2+x,1/2-y,z
loop_
_atom_site_type_symbol
_atom_site_label
_atom_site_fract_x
_atom_site_fract_y
_atom_site_fract_z
Si Si1 0.070510 0.793819 0.155043
Si Si2 0.653991 0.788399 0.886441
Si Si3 0.030126 0.795176 0.238042
Si Si4 0.898324 0.786313 0.579746
Si Si5 0.103020 0.714787 0.604366
Si Si6 0.588945 0.786753 0.710600
Si Si7 0.264344 0.295594 0.365259
Si Si8 0.500000 0.000000 0.000000
O O1 0.041866 0.724279 0.188305
O O2 0.176830 0.796687 0.260554
O O3 0.039625 0.000000 0.117790
O O4 0.037491 0.657819 0.077814
O O5 0.572843 0.710715 0.843605
O O6 0.643132 0.721457 0.814119
O O7 0.640181 0.000000 0.873075
O O8 0.750000 0.750000 0.000000
O O9 0.081804 0.717360 0.339971
O O10 0.059357 0.000000 0.261887
O O11 0.813200 0.720126 0.465682
O O12 0.986427 0.751273 0.627213
O O13 0.890657 0.000000 0.575863
O O14 0.111705 0.500000 0.609211
O O15 0.123459 0.778479 0.685163
O O16 0.163161 0.791540 0.614047
O O17 0.000000 0.756906 0.500000
O O18 0.595826 0.000000 0.714528
O O19 0.240432 0.500000 0.354191
#
# Coordination Sequence:
#
# PCOD9183562 Si02
#       8
#     8   8   8   8   8   8   8   2
#     4  11  25  47  73  96 128 171 216 275 332 384
#     4  10  20  35  57  84 118 156 204 267 322 378
#     4   9  20  40  64  91 123 164 210 258 331 400
#     4   9  18  33  58  89 127 163 201 255 319 383
#     4  10  19  33  55  81 121 169 213 257 317 386
#     4   9  18  33  51  79 114 158 206 252 315 384
#     4  11  22  37  59  93 132 168 218 275 318 388
#     4  12  26  52  76  94 130 160 226 274 328 396
#
# _framework density 20.847771000000002
#
# number of rings (size 3 to 8) (size 9 to 14) (size 15 to 20)
#    0.000    2.069    2.069    1.034    0.966    2.483 
#    2.483    0.000    0.000    0.000    0.000    0.000 
#    0.000    0.000    0.000    0.000    0.000    0.000 
#
# Total GULP energy -161565.010604 kJ/mol
# GULP energy per Si atom -5571.207262 kJ/mol
# Density = 2.080032 g / cm^3
# Si number density = 20.847771 Si / 1000 Ang^3
#
#
#
# Elastic Constant Matrix: (Units=GPa)
#
#
# Indices 1 2 3 4 5 6 
#
# 1 86.4739 20.3140 76.6548 0.0000 -22.3550 0.0000
# 2 20.3140 83.8453 27.2960 -0.0001 -12.4701 0.0000
# 3 76.6548 27.2960 139.0984 0.0000 -37.7511 0.0000
# 4 0.0000 -0.0001 0.0000 -3.3883 0.0000 5.3968
# 5 -22.3550 -12.4701 -37.7511 0.0000 21.3860 0.0000
# 6 0.0000 0.0000 0.0000 5.3968 0.0000 3.2048
#
#
#
# Elastic Compliance Matrix: (Units=1/GPa)
#
#
# Indices 1 2 3 4 5 6 
#
# 1 0.022862 -0.001370 -0.011635 0.000000 0.002560 0.000000
# 2 -0.001370 0.013207 -0.000260 0.000000 0.005810 0.000000
# 3 -0.011635 -0.000260 0.019792 0.000000 0.022624 0.000000
# 4 0.000000 0.000000 0.000000 -0.080150 0.000000 0.134973
# 5 0.002560 0.005810 0.022624 0.000000 0.092760 0.000000
# 6 0.000000 0.000000 0.000000 0.134973 0.000000 0.084740
#
#
# Mechanical properties :
#
#
# Convention : Reuss Voigt Hill
#
# Bulk Modulus (GPa) = 34.09337 61.99412 48.04374
# Shear Modulus (GPa) = 26.38267 16.58402 21.48335
#
# Velocity S-wave (km/s) = 3.56123 2.82349 3.21360
# Velocity P-wave (km/s) = 5.77051 6.35850 6.07163
#
# Compressibility (1/GPa) = 0.02933122
#
# Stress axis : x y z
#
# Youngs Moduli (GPa) = 43.74106 75.71496 50.52538
#
# Poissons Ratio (x) = 0.10376 0.58786
# Poissons Ratio (y) = 0.05994 0.01312
# Poissons Ratio (z) = 0.50893 0.01966
#
# Static dielectric constant tensor:
#      x y z
#    x 1.751830 0.000000 -0.034330 
#    y 0.000000 1.809160 0.000000 
#    z -0.034330 0.000000 1.753580 
# 
# From -- ./inp_files/351525.got.cif
#   From: 2010.05.17/outbox.cif.g08.bks.cpg/sg12_176_cif.got.tgz:351525.got - 2010.06.03 13:09:07.
