data_PCOD9183112
_publ_section_title
;
Structure prediction by ZEFSAII (Michael W. Deem and Ramdas Pophale) SiO2 
 PCOD9183112
Probable space group: C 2/M
;
_chemical_formula_sum "Si O2"
_cell_formula_units_Z 56
_cell_length_a 25.386287
_cell_length_b 16.227665
_cell_length_c 24.102829
_cell_angle_alpha 90.000000
_cell_angle_beta 161.337728
_cell_angle_gamma 90.000000
_cell_volume 3177.302505
_symmetry_space_group_name_H-M "C 2/M"
_symmetry_group_IT_number 12
_symmetry_cell_setting 'monoclinic'
loop_
_space_group_symop_operation_xyz
x,y,z
-x,y,-z
-x,-y,-z
x,-y,z
1/2+x,1/2+y,z
1/2-x,1/2+y,-z
1/2-x,1/2-y,-z
1/2+x,1/2-y,z
loop_
_atom_site_type_symbol
_atom_site_label
_atom_site_fract_x
_atom_site_fract_y
_atom_site_fract_z
Si Si1 0.310309 0.222740 0.826710
Si Si2 0.368673 0.738555 0.464638
Si Si3 0.364601 0.406087 0.280808
Si Si4 0.373040 0.752037 0.674703
Si Si5 0.899747 0.906838 0.100585
Si Si6 0.292399 0.843815 0.984233
Si Si7 0.687278 0.187092 0.813558
O O1 0.207901 0.253610 0.671865
O O2 0.236452 0.133744 0.769462
O O3 0.279277 0.277684 0.850752
O O4 0.500000 0.219102 0.000000
O O5 0.481176 0.655658 0.574708
O O6 0.229477 0.730941 0.371978
O O7 0.495708 0.810772 0.608111
O O8 0.413044 0.500000 0.337550
O O9 0.245504 0.397249 0.108336
O O10 0.250000 0.750000 0.500000
O O11 0.461013 0.662926 0.766385
O O12 0.518705 0.819946 0.815441
O O13 0.799252 0.885611 0.056202
O O14 0.961532 0.000000 0.164149
O O15 0.773647 0.892842 0.923766
O O16 0.211307 0.755678 0.886317
#
# Coordination Sequence:
#
# PCOD9183112 Si02
#       7
#     8   8   8   8   8   8   8
#     4  10  19  33  54  78 102 138 181 215 253 308
#     4  10  19  34  56  77 102 140 180 214 253 310
#     4  10  20  34  51  76 111 143 175 216 259 300
#     4  11  20  35  57  79 105 138 178 213 253 315
#     4  11  21  35  55  78 106 135 171 222 271 305
#     4   9  18  34  53  74 102 140 175 204 251 315
#     4   9  18  34  55  75 101 137 176 211 253 310
#
# _framework density 17.625012999999999
#
# number of rings (size 3 to 8) (size 9 to 14) (size 15 to 20)
#    0.000    2.286    0.000    9.000    0.000    1.429 
#    0.000    6.429    0.000    5.571    0.000    0.000 
#    0.000    0.000    0.000    0.000    0.000    0.000 
#
# Total GULP energy -156109.019230 kJ/mol
# GULP energy per Si atom -5575.322115 kJ/mol
# Density = 1.758490 g / cm^3
# Si number density = 17.625013 Si / 1000 Ang^3
#
#
#
# Elastic Constant Matrix: (Units=GPa)
#
#
# Indices 1 2 3 4 5 6 
#
# 1 80.9059 11.6315 32.9283 0.0018 -2.8623 0.0006
# 2 11.6315 52.0703 22.9424 0.0016 -0.9049 0.0028
# 3 32.9283 22.9424 108.3395 -0.0017 -2.7930 0.0014
# 4 0.0018 0.0016 -0.0017 15.9534 -0.0004 -0.3312
# 5 -2.8623 -0.9049 -2.7930 -0.0004 37.7490 0.0001
# 6 0.0006 0.0028 0.0014 -0.3312 0.0001 5.3569
#
#
#
# Elastic Compliance Matrix: (Units=1/GPa)
#
#
# Indices 1 2 3 4 5 6 
#
# 1 0.014218 -0.001398 -0.004006 -0.000002 0.000748 0.000000
# 2 -0.001398 0.021320 -0.004087 -0.000003 0.000103 -0.000010
# 3 -0.004006 -0.004087 0.011325 0.000002 0.000436 0.000000
# 4 -0.000002 -0.000003 0.000002 0.062763 0.000001 0.003880
# 5 0.000748 0.000103 0.000436 0.000001 0.026582 -0.000001
# 6 0.000000 -0.000010 0.000000 0.003880 -0.000001 0.186914
#
#
# Mechanical properties :
#
#
# Convention : Reuss Voigt Hill
#
# Bulk Modulus (GPa) = 35.86819 41.81336 38.84078
# Shear Modulus (GPa) = 14.22891 23.39944 18.81417
#
# Velocity S-wave (km/s) = 2.84441 3.64761 3.27076
# Velocity P-wave (km/s) = 5.58413 6.44325 6.02901
#
# Compressibility (1/GPa) = 0.02787986
#
# Stress axis : x y z
#
# Youngs Moduli (GPa) = 70.33382 46.90500 88.30344
#
# Poissons Ratio (x) = 0.06557 0.35375
# Poissons Ratio (y) = 0.09832 0.36092
# Poissons Ratio (z) = 0.28176 0.19171
#
# Static dielectric constant tensor:
#      x y z
#    x 1.609630 0.000000 -0.019450 
#    y 0.000000 1.601680 -0.000010 
#    z -0.019450 -0.000010 1.630080 
# 
# From -- ./inp_files/349961.got.cif
#   From: 2010.05.17/outbox.cif.g08.bks.cpg/sg12_175_cif.got.tgz:349961.got - 2010.06.03 13:09:07.
