data_PCOD9183258
_publ_section_title
;
Structure prediction by ZEFSAII (Michael W. Deem and Ramdas Pophale) SiO2 
 PCOD9183258
Probable space group: C 2/M
;
_chemical_formula_sum "Si O2"
_cell_formula_units_Z 64
_cell_length_a 22.571223
_cell_length_b 7.404660
_cell_length_c 29.792044
_cell_angle_alpha 90.000000
_cell_angle_beta 150.760867
_cell_angle_gamma 90.000000
_cell_volume 2432.124156
_symmetry_space_group_name_H-M "C 2/M"
_symmetry_group_IT_number 12
_symmetry_cell_setting 'monoclinic'
loop_
_space_group_symop_operation_xyz
x,y,z
-x,y,-z
-x,-y,-z
x,-y,z
1/2+x,1/2+y,z
1/2-x,1/2+y,-z
1/2-x,1/2-y,-z
1/2+x,1/2-y,z
loop_
_atom_site_type_symbol
_atom_site_label
_atom_site_fract_x
_atom_site_fract_y
_atom_site_fract_z
Si Si1 0.373772 0.715027 0.108590
Si Si2 0.372982 0.706479 0.280548
Si Si3 0.117671 0.285484 0.390620
Si Si4 0.501330 0.721418 0.552459
Si Si5 0.892808 0.783665 0.790215
Si Si6 0.520364 0.707790 0.062213
Si Si7 0.763749 0.714651 0.617266
Si Si8 0.747818 0.780204 0.111373
O O1 0.390896 0.500000 0.122559
O O2 0.489201 0.788569 0.158501
O O3 0.348211 0.781019 0.142056
O O4 0.250000 0.750000 0.000000
O O5 0.335450 0.500000 0.262309
O O6 0.503971 0.704329 0.341823
O O7 0.397593 0.787353 0.345833
O O8 0.280755 0.784950 0.183104
O O9 0.096561 0.500000 0.376850
O O10 0.250000 0.250000 0.500000
O O11 0.135863 0.216647 0.351277
O O12 0.500000 0.777843 0.500000
O O13 0.506673 0.500000 0.556319
O O14 0.369793 0.779812 0.483644
O O15 0.786661 0.747670 0.684875
O O16 0.903397 0.000000 0.801401
O O17 0.895365 0.713788 0.842901
O O18 0.556326 0.500000 0.078546
O O19 0.383254 0.713042 0.990667
O O20 0.500000 0.795388 0.000000
O O21 0.762440 0.500000 0.610517
O O22 0.745637 0.000000 0.109922
#
# Coordination Sequence:
#
# PCOD9183258 Si02
#       8
#     8   8   8   8   8   8   8   8
#     4  10  19  33  54  81 109 140 179 220 274 333
#     4  10  20  37  58  83 115 148 185 228 278 338
#     4  11  21  35  57  86 116 148 184 227 281 336
#     4   9  18  35  57  79 108 146 186 228 273 321
#     4  10  21  37  57  82 111 147 183 223 281 333
#     4  10  22  40  59  79 110 152 192 231 279 335
#     4  10  21  36  56  85 112 142 186 229 274 329
#     4  10  21  35  57  86 112 143 185 234 281 328
#
# _framework density 26.314444000000002
#
# number of rings (size 3 to 8) (size 9 to 14) (size 15 to 20)
#    0.000    2.000    2.500    1.125    0.000    4.750 
#    0.000    1.250    0.000    1.500    0.000    0.000 
#    0.000    0.000    0.000    0.000    0.000    0.000 
#
# Total GULP energy -179013.039409 kJ/mol
# GULP energy per Si atom -5594.157482 kJ/mol
# Density = 2.625455 g / cm^3
# Si number density = 26.314444 Si / 1000 Ang^3
#
#
#
# Elastic Constant Matrix: (Units=GPa)
#
#
# Indices 1 2 3 4 5 6 
#
# 1 104.9274 11.4164 24.0272 -0.0005 -30.1954 0.0001
# 2 11.4164 111.0386 -3.2558 0.0011 -0.7287 -0.0008
# 3 24.0272 -3.2558 139.2043 -0.0005 -29.6078 -0.0001
# 4 -0.0005 0.0011 -0.0005 14.1998 0.0002 -0.4707
# 5 -30.1954 -0.7287 -29.6078 0.0002 58.9790 -0.0001
# 6 0.0001 -0.0008 -0.0001 -0.4707 -0.0001 10.3454
#
#
#
# Elastic Compliance Matrix: (Units=1/GPa)
#
#
# Indices 1 2 3 4 5 6 
#
# 1 0.011405 -0.001162 -0.000847 0.000000 0.005399 0.000000
# 2 -0.001162 0.009134 0.000349 -0.000001 -0.000307 0.000001
# 3 -0.000847 0.000349 0.008113 0.000000 0.003643 0.000000
# 4 0.000000 -0.000001 0.000000 0.070530 0.000000 0.003209
# 5 0.005399 -0.000307 0.003643 0.000000 0.021545 0.000000
# 6 0.000000 0.000001 0.000000 0.003209 0.000000 0.096807
#
#
# Mechanical properties :
#
#
# Convention : Reuss Voigt Hill
#
# Bulk Modulus (GPa) = 39.47824 46.61619 43.04721
# Shear Modulus (GPa) = 21.80580 38.23700 30.02140
#
# Velocity S-wave (km/s) = 2.88177 3.81606 3.38134
# Velocity P-wave (km/s) = 5.10959 6.09672 5.62485
#
# Compressibility (1/GPa) = 0.02533041
#
# Stress axis : x y z
#
# Youngs Moduli (GPa) = 87.68427 109.48627 123.25894
#
# Poissons Ratio (x) = 0.12722 0.10444
# Poissons Ratio (y) = 0.10189 -0.04301
# Poissons Ratio (z) = 0.07429 -0.03820
#
# Static dielectric constant tensor:
#      x y z
#    x 2.031310 0.000000 0.014700 
#    y 0.000000 1.962040 0.000000 
#    z 0.014700 0.000000 2.008390 
# 
# From -- ./inp_files/382542.got.cif
#   From: 2010.05.17/outbox.cif.g08.bks.cpg/sg12_192_cif.got.tgz:382542.got - 2010.06.03 13:09:07.
