data_PCOD9183245
_publ_section_title
;
Structure prediction by ZEFSAII (Michael W. Deem and Ramdas Pophale) SiO2 
 PCOD9183245
Probable space group: C 2/M
;
_chemical_formula_sum "Si O2"
_cell_formula_units_Z 56
_cell_length_a 8.838434
_cell_length_b 22.502862
_cell_length_c 16.800968
_cell_angle_alpha 90.000000
_cell_angle_beta 58.849577
_cell_angle_gamma 90.000000
_cell_volume 2859.735374
_symmetry_space_group_name_H-M "C 2/M"
_symmetry_group_IT_number 12
_symmetry_cell_setting 'monoclinic'
loop_
_space_group_symop_operation_xyz
x,y,z
-x,y,-z
-x,-y,-z
x,-y,z
1/2+x,1/2+y,z
1/2-x,1/2+y,-z
1/2-x,1/2-y,-z
1/2+x,1/2-y,z
loop_
_atom_site_type_symbol
_atom_site_label
_atom_site_fract_x
_atom_site_fract_y
_atom_site_fract_z
Si Si1 0.623571 0.755218 0.164700
Si Si2 0.257955 0.311701 0.285946
Si Si3 0.194929 0.067687 0.632093
Si Si4 0.931687 0.337220 0.099924
Si Si5 0.715134 0.412356 0.442760
Si Si6 0.801151 0.216035 0.563867
Si Si7 0.767907 0.935103 0.740597
O O1 0.461846 0.708082 0.215066
O O2 0.648909 0.795590 0.236732
O O3 0.795172 0.714476 0.111655
O O4 0.582854 0.801554 0.106138
O O5 0.241375 0.376794 0.330730
O O6 0.204018 0.260848 0.363000
O O7 0.261225 0.071435 0.521702
O O8 0.980472 0.075036 0.688042
O O9 0.233830 0.000000 0.649765
O O10 0.834326 0.382938 0.185832
O O11 0.000000 0.366329 0.000000
O O12 0.500000 0.421945 0.500000
O O13 0.793997 0.346233 0.408758
O O14 0.774190 0.438720 0.342182
O O15 0.750000 0.250000 0.500000
O O16 0.000000 0.195275 0.500000
O O17 0.729557 0.000000 0.786696
#
# Coordination Sequence:
#
# PCOD9183245 Si02
#       7
#     8   8   8   8   8   8   8
#     4  10  22  37  61  86 115 145 183 237 293 348
#     4  11  20  36  56  84 116 152 191 231 284 334
#     4  10  19  33  54  80 115 159 197 228 266 332
#     4  11  22  40  63  89 114 144 182 237 301 354
#     4   9  17  30  50  79 111 145 191 231 272 321
#     4  11  20  29  48  79 112 149 191 237 275 318
#     4  10  20  35  56  83 115 151 194 238 279 335
#
# _framework density 19.582232000000001
#
# number of rings (size 3 to 8) (size 9 to 14) (size 15 to 20)
#    0.000    1.714    2.857    3.429    2.000    2.000 
#    0.000    0.714    0.000    0.429    0.000    2.000 
#    0.000    0.000    0.000    0.000    0.000    0.000 
#
# Total GULP energy -155971.581318 kJ/mol
# GULP energy per Si atom -5570.413619 kJ/mol
# Density = 1.953766 g / cm^3
# Si number density = 19.582232 Si / 1000 Ang^3
#
#
#
# Elastic Constant Matrix: (Units=GPa)
#
#
# Indices 1 2 3 4 5 6 
#
# 1 43.9462 13.0980 18.6564 0.0000 15.9441 0.0000
# 2 13.0980 137.7981 38.8975 0.0000 16.2967 0.0000
# 3 18.6564 38.8975 95.1242 0.0000 24.7364 0.0000
# 4 0.0000 0.0000 0.0000 9.1154 0.0000 -2.8155
# 5 15.9441 16.2967 24.7364 0.0000 20.8686 0.0000
# 6 0.0000 0.0000 0.0000 -2.8155 0.0000 15.9456
#
#
#
# Elastic Compliance Matrix: (Units=1/GPa)
#
#
# Indices 1 2 3 4 5 6 
#
# 1 0.031487 -0.000190 0.000173 0.000000 -0.024113 0.000000
# 2 -0.000190 0.008387 -0.002496 0.000000 -0.003446 0.000000
# 3 0.000173 -0.002496 0.015940 0.000000 -0.017077 0.000000
# 4 0.000000 0.000000 0.000000 0.116033 0.000000 0.020488
# 5 -0.024113 -0.003446 -0.017077 0.000000 0.089275 0.000000
# 6 0.000000 0.000000 0.000000 0.020488 0.000000 0.066331
#
#
# Mechanical properties :
#
#
# Convention : Reuss Voigt Hill
#
# Bulk Modulus (GPa) = 19.69003 46.46360 33.07682
# Shear Modulus (GPa) = 14.30989 22.93370 18.62180
#
# Velocity S-wave (km/s) = 2.70619 3.42592 3.08710
# Velocity P-wave (km/s) = 4.45438 6.27918 5.44379
#
# Compressibility (1/GPa) = 0.05078711
#
# Stress axis : x y z
#
# Youngs Moduli (GPa) = 31.75928 119.22912 62.73410
#
# Poissons Ratio (x) = 0.02264 -0.01083
# Poissons Ratio (y) = 0.00603 0.15661
# Poissons Ratio (z) = -0.00548 0.29764
#
# Static dielectric constant tensor:
#      x y z
#    x 1.725290 0.000000 -0.043850 
#    y 0.000000 1.710930 0.000000 
#    z -0.043850 0.000000 1.699310 
# 
# From -- ./inp_files/258010.got.cif
#   From: 2010.05.17/outbox.cif.g08.bks.cpg/sg12_130_cif.got.tgz:258010.got - 2010.06.03 13:09:07.
