data_PCOD9183875
_publ_section_title
;
Structure prediction by ZEFSAII (Michael W. Deem and Ramdas Pophale) SiO2 
 PCOD9183875
Probable space group: C 2/M
;
_chemical_formula_sum "Si O2"
_cell_formula_units_Z 64
_cell_length_a 20.965935
_cell_length_b 8.643303
_cell_length_c 25.163983
_cell_angle_alpha 90.000000
_cell_angle_beta 128.596029
_cell_angle_gamma 90.000000
_cell_volume 3564.000380
_symmetry_space_group_name_H-M "C 2/M"
_symmetry_group_IT_number 12
_symmetry_cell_setting 'monoclinic'
loop_
_space_group_symop_operation_xyz
x,y,z
-x,y,-z
-x,-y,-z
x,-y,z
1/2+x,1/2+y,z
1/2-x,1/2+y,-z
1/2-x,1/2-y,-z
1/2+x,1/2-y,z
loop_
_atom_site_type_symbol
_atom_site_label
_atom_site_fract_x
_atom_site_fract_y
_atom_site_fract_z
Si Si1 0.406447 0.313056 0.444700
Si Si2 0.052444 0.686860 0.078535
Si Si3 0.739022 0.685043 0.553217
Si Si4 0.760508 0.313339 0.841300
Si Si5 0.149426 0.186415 0.298108
Si Si6 0.796303 0.684573 0.295896
Si Si7 0.510962 0.313317 0.843295
Si Si8 0.696918 0.312662 0.923637
O O1 0.500000 0.262062 0.500000
O O2 0.405529 0.500000 0.443010
O O3 0.344726 0.264066 0.460150
O O4 0.367309 0.251861 0.369856
O O5 0.050302 0.500000 0.080940
O O6 0.146082 0.735534 0.119783
O O7 0.015580 0.755783 0.112750
O O8 0.000000 0.733081 0.000000
O O9 0.738008 0.500000 0.550389
O O10 0.750000 0.750000 0.500000
O O11 0.812432 0.740200 0.629471
O O12 0.757520 0.500000 0.838237
O O13 0.707096 0.249750 0.765114
O O14 0.732168 0.263430 0.884921
O O15 0.211629 0.226599 0.282331
O O16 0.058776 0.237122 0.234625
O O17 0.150485 0.000000 0.304389
O O18 0.801848 0.500000 0.297582
O O19 0.510113 0.500000 0.842682
O O20 0.602772 0.262147 0.879020
O O21 0.699354 0.500000 0.926860
O O22 0.750000 0.250000 0.000000
#
# Coordination Sequence:
#
# PCOD9183875 Si02
#       8
#     8   8   8   8   8   8   8   8
#     4   9  19  37  59  82 109 144 183 219 261 316
#     4  10  20  33  53  80 107 137 175 222 267 315
#     4  10  20  35  57  83 111 144 180 217 264 317
#     4  10  20  35  54  77 108 143 180 218 266 326
#     4   9  18  34  55  79 109 141 177 222 267 313
#     4  10  19  33  56  83 111 141 176 223 272 314
#     4  10  20  36  56  79 106 139 180 223 269 319
#     4  10  22  39  57  77 106 145 182 222 273 325
#
# _framework density 17.957349000000001
#
# number of rings (size 3 to 8) (size 9 to 14) (size 15 to 20)
#    0.000    2.250    1.250    1.500    0.000    4.000 
#    2.250    0.000    0.000    0.000    0.000    0.000 
#    0.000    0.000    0.000    0.000    0.000    0.000 
#
# Total GULP energy -178587.125469 kJ/mol
# GULP energy per Si atom -5580.847671 kJ/mol
# Density = 1.791648 g / cm^3
# Si number density = 17.957349 Si / 1000 Ang^3
#
#
#
# Elastic Constant Matrix: (Units=GPa)
#
#
# Indices 1 2 3 4 5 6 
#
# 1 106.5249 19.2239 79.3401 0.0000 -5.2173 0.0000
# 2 19.2239 5.6416 26.0738 0.0000 -0.9734 0.0000
# 3 79.3401 26.0738 164.2682 0.0000 -5.3779 0.0000
# 4 0.0000 0.0000 0.0000 30.3128 0.0000 -3.5627
# 5 -5.2173 -0.9734 -5.3779 0.0000 38.9619 0.0000
# 6 0.0000 0.0000 0.0000 -3.5627 0.0000 22.4771
#
#
#
# Elastic Compliance Matrix: (Units=1/GPa)
#
#
# Indices 1 2 3 4 5 6 
#
# 1 0.025745 -0.113463 0.005620 0.000000 0.001389 0.000000
# 2 -0.113463 1.165534 -0.130333 0.000000 -0.004064 0.000000
# 3 0.005620 -0.130333 0.024087 0.000000 0.000821 0.000000
# 4 0.000000 0.000000 0.000000 0.033616 0.000000 0.005328
# 5 0.001389 -0.004064 0.000821 0.000000 0.025864 0.000000
# 6 0.000000 0.000000 0.000000 0.005328 0.000000 0.045334
#
#
# Mechanical properties :
#
#
# Convention : Reuss Voigt Hill
#
# Bulk Modulus (GPa) = 1.35315 58.41225 29.88270
# Shear Modulus (GPa) = 2.44754 28.47016 15.45885
#
# Velocity S-wave (km/s) = 1.16873 3.98607 2.93723
# Velocity P-wave (km/s) = 1.60512 7.33375 5.30850
#
# Compressibility (1/GPa) = 0.73901463
#
# Stress axis : x y z
#
# Youngs Moduli (GPa) = 38.84184 0.85798 41.51560
#
# Poissons Ratio (x) = 0.09735 -0.23333
# Poissons Ratio (y) = 4.40711 5.41086
# Poissons Ratio (z) = -0.21830 0.11182
#
# Static dielectric constant tensor:
#      x y z
#    x 1.596250 0.000000 0.013820 
#    y 0.000000 1.611180 0.000000 
#    z 0.013820 0.000000 1.589040 
# 
# From -- ./inp_files/346152.got.cif
#   From: 2010.05.17/outbox.cif.g08.bks.cpg/sg12_174_cif.got.tgz:346152.got - 2010.06.03 13:09:07.
