data_PCOD9183322
_publ_section_title
;
Structure prediction by ZEFSAII (Michael W. Deem and Ramdas Pophale) SiO2 
 PCOD9183322
Probable space group: C 2/M
;
_chemical_formula_sum "Si O2"
_cell_formula_units_Z 64
_cell_length_a 26.992921
_cell_length_b 8.783354
_cell_length_c 15.101737
_cell_angle_alpha 90.000000
_cell_angle_beta 66.710171
_cell_angle_gamma 90.000000
_cell_volume 3288.699366
_symmetry_space_group_name_H-M "C 2/M"
_symmetry_group_IT_number 12
_symmetry_cell_setting 'monoclinic'
loop_
_space_group_symop_operation_xyz
x,y,z
-x,y,-z
-x,-y,-z
x,-y,z
1/2+x,1/2+y,z
1/2-x,1/2+y,-z
1/2-x,1/2-y,-z
1/2+x,1/2-y,z
loop_
_atom_site_type_symbol
_atom_site_label
_atom_site_fract_x
_atom_site_fract_y
_atom_site_fract_z
Si Si1 0.096720 0.318657 0.067948
Si Si2 0.478952 0.821873 0.220550
Si Si3 0.561388 0.328026 0.919594
Si Si4 0.599932 0.332896 0.598271
Si Si5 0.796824 0.321041 0.526815
Si Si6 0.329056 0.315467 0.694658
Si Si7 0.294489 0.182156 0.902081
Si Si8 0.443240 0.329104 0.568033
O O1 0.094080 0.500000 0.051813
O O2 0.147803 0.287276 0.092393
O O3 0.040385 0.277756 0.155427
O O4 0.097710 0.231354 0.974019
O O5 0.442578 0.784269 0.160347
O O6 0.453112 0.723370 0.315478
O O7 0.477509 0.000000 0.242332
O O8 0.575547 0.500000 0.882737
O O9 0.500000 0.330892 0.000000
O O10 0.616941 0.500000 0.618747
O O11 0.648400 0.214237 0.566413
O O12 0.585251 0.345820 0.506292
O O13 0.788986 0.500000 0.543645
O O14 0.750000 0.250000 0.500000
O O15 0.804358 0.246122 0.619346
O O16 0.329630 0.500000 0.692119
O O17 0.296781 0.256245 0.802943
O O18 0.392691 0.262822 0.658839
O O19 0.287506 0.000000 0.899263
O O20 0.250000 0.250000 0.000000
O O21 0.500000 0.251845 0.500000
O O22 0.456430 0.500000 0.594130
#
# Coordination Sequence:
#
# PCOD9183322 Si02
#       8
#     8   8   8   8   8   8   8   8
#     4   9  20  37  57  80 113 154 194 241 303 365
#     4  10  19  33  54  82 118 155 190 234 297 361
#     4   9  17  31  52  79 109 143 188 237 285 343
#     4  10  20  34  54  85 122 153 193 240 284 345
#     4  11  22  41  66  90 121 158 199 246 299 356
#     4  10  21  39  64  92 124 160 201 248 304 360
#     4  11  24  43  63  87 120 158 207 260 309 363
#     4   8  16  31  53  84 120 155 189 230 282 344
#
# _framework density 19.460581999999999
#
# number of rings (size 3 to 8) (size 9 to 14) (size 15 to 20)
#    0.000    2.250    0.000    3.750    1.750    3.000 
#    2.250    0.000    0.000    2.250    0.000    0.000 
#    0.000    0.000    0.000    0.000    0.000    0.000 
#
# Total GULP energy -178347.034574 kJ/mol
# GULP energy per Si atom -5573.344830 kJ/mol
# Density = 1.941629 g / cm^3
# Si number density = 19.460582 Si / 1000 Ang^3
#
#
#
# Elastic Constant Matrix: (Units=GPa)
#
#
# Indices 1 2 3 4 5 6 
#
# 1 88.0230 38.0941 34.2436 0.0000 -2.6911 0.0000
# 2 38.0941 75.4248 39.1090 0.0000 0.3944 0.0000
# 3 34.2436 39.1090 104.6480 0.0000 -11.7366 0.0000
# 4 0.0000 0.0000 0.0000 23.9541 0.0000 0.2432
# 5 -2.6911 0.3944 -11.7366 0.0000 20.1458 0.0000
# 6 0.0000 0.0000 0.0000 0.2432 0.0000 23.7842
#
#
#
# Elastic Compliance Matrix: (Units=1/GPa)
#
#
# Indices 1 2 3 4 5 6 
#
# 1 0.015093 -0.006333 -0.002495 0.000000 0.000686 0.000000
# 2 -0.006333 0.019437 -0.005702 0.000000 -0.004548 0.000000
# 3 -0.002495 -0.005702 0.013351 0.000000 0.007556 0.000000
# 4 0.000000 0.000000 0.000000 0.041751 0.000000 -0.000427
# 5 0.000686 -0.004548 0.007556 0.000000 0.054221 0.000000
# 6 0.000000 0.000000 0.000000 -0.000427 0.000000 0.042049
#
#
# Mechanical properties :
#
#
# Convention : Reuss Voigt Hill
#
# Bulk Modulus (GPa) = 53.13165 54.55437 53.84301
# Shear Modulus (GPa) = 22.60046 24.02010 23.31028
#
# Velocity S-wave (km/s) = 3.41155 3.51706 3.46471
# Velocity P-wave (km/s) = 6.54826 6.67736 6.61312
#
# Compressibility (1/GPa) = 0.01882117
#
# Stress axis : x y z
#
# Youngs Moduli (GPa) = 66.25601 51.44854 74.90263
#
# Poissons Ratio (x) = 0.32581 0.18690
# Poissons Ratio (y) = 0.41958 0.42708
# Poissons Ratio (z) = 0.16532 0.29335
#
# Static dielectric constant tensor:
#      x y z
#    x 1.694810 0.000000 -0.018900 
#    y 0.000000 1.671420 0.000000 
#    z -0.018900 0.000000 1.716040 
# 
# From -- ./inp_files/243820.got.cif
#   From: 2010.05.17/outbox.cif.g08.bks.cpg/sg12_122_cif.got.tgz:243820.got - 2010.06.03 13:09:07.
