data_PCOD9183296
_publ_section_title
;
Structure prediction by ZEFSAII (Michael W. Deem and Ramdas Pophale) SiO2 
 PCOD9183296
Probable space group: C 2/M
;
_chemical_formula_sum "Si O2"
_cell_formula_units_Z 48
_cell_length_a 30.542895
_cell_length_b 8.809013
_cell_length_c 19.912959
_cell_angle_alpha 90.000000
_cell_angle_beta 148.927821
_cell_angle_gamma 90.000000
_cell_volume 2765.169945
_symmetry_space_group_name_H-M "C 2/M"
_symmetry_group_IT_number 12
_symmetry_cell_setting 'monoclinic'
loop_
_space_group_symop_operation_xyz
x,y,z
-x,y,-z
-x,-y,-z
x,-y,z
1/2+x,1/2+y,z
1/2-x,1/2+y,-z
1/2-x,1/2-y,-z
1/2+x,1/2-y,z
loop_
_atom_site_type_symbol
_atom_site_label
_atom_site_fract_x
_atom_site_fract_y
_atom_site_fract_z
Si Si1 0.005620 0.816795 0.585242
Si Si2 0.843477 0.818520 0.117110
Si Si3 0.617570 0.179980 0.468752
Si Si4 0.963375 0.318570 0.164626
Si Si5 0.032850 0.314887 0.115155
Si Si6 0.725915 0.181934 0.396439
O O1 0.929482 0.745071 0.527966
O O2 0.000000 0.772123 0.500000
O O3 0.093241 0.773085 0.738353
O O4 0.999395 0.000000 0.580763
O O5 0.890472 0.762495 0.111345
O O6 0.837908 0.000000 0.109799
O O7 0.750000 0.750000 0.000000
O O8 0.551605 0.207030 0.320602
O O9 0.705374 0.260101 0.566561
O O10 0.629645 0.000000 0.490345
O O11 0.947589 0.500000 0.144776
O O12 0.977515 0.266833 0.106821
O O13 0.030587 0.500000 0.112655
O O14 0.130415 0.270530 0.253424
O O15 0.000000 0.262514 0.000000
O O16 0.750000 0.250000 0.500000
O O17 0.728382 0.000000 0.403442
#
# Coordination Sequence:
#
# PCOD9183296 Si02
#       6
#     8   8   8   8   8   8
#     4   9  19  37  58  80 106 137 177 221 264 311
#     4  10  20  35  56  80 104 136 176 217 262 313
#     4  10  19  33  54  82 109 138 176 216 266 317
#     4   9  17  33  55  77 103 137 177 216 257 308
#     4   9  18  34  54  77 105 139 178 217 259 305
#     4  11  20  33  55  81 107 138 179 221 261 311
#
# _framework density 17.358788000000001
#
# number of rings (size 3 to 8) (size 9 to 14) (size 15 to 20)
#    0.000    2.333    1.667    1.500    0.000    1.667 
#    3.000    0.000    0.000    3.500    0.000    0.000 
#    0.000    0.000    0.000    0.000    0.000    0.000 
#
# Total GULP energy -133891.172246 kJ/mol
# GULP energy per Si atom -5578.798844 kJ/mol
# Density = 1.731928 g / cm^3
# Si number density = 17.358788 Si / 1000 Ang^3
#
#
#
# Elastic Constant Matrix: (Units=GPa)
#
#
# Indices 1 2 3 4 5 6 
#
# 1 173.1371 47.4669 103.3786 0.0000 -4.3744 0.0000
# 2 47.4669 31.1795 37.9006 0.0000 3.9018 0.0000
# 3 103.3786 37.9006 121.8729 0.0000 0.9851 0.0000
# 4 0.0000 0.0000 0.0000 21.2126 0.0000 4.0522
# 5 -4.3744 3.9018 0.9851 0.0000 36.8560 0.0000
# 6 0.0000 0.0000 0.0000 4.0522 0.0000 33.4951
#
#
#
# Elastic Compliance Matrix: (Units=1/GPa)
#
#
# Indices 1 2 3 4 5 6 
#
# 1 0.013975 -0.011615 -0.008267 0.000000 0.003109 0.000000
# 2 -0.011615 0.062168 -0.009419 0.000000 -0.007708 0.000000
# 3 -0.008267 -0.009419 0.018151 0.000000 -0.000469 0.000000
# 4 0.000000 0.000000 0.000000 0.048257 0.000000 -0.005838
# 5 0.003109 -0.007708 -0.000469 0.000000 0.028330 0.000000
# 6 0.000000 0.000000 0.000000 -0.005838 0.000000 0.030561
#
#
# Mechanical properties :
#
#
# Convention : Reuss Voigt Hill
#
# Bulk Modulus (GPa) = 28.01738 78.18685 53.10212
# Shear Modulus (GPa) = 18.38628 27.47563 22.93095
#
# Velocity S-wave (km/s) = 3.25805 3.98277 3.63850
# Velocity P-wave (km/s) = 5.50712 8.14183 6.95046
#
# Compressibility (1/GPa) = 0.03569213
#
# Stress axis : x y z
#
# Youngs Moduli (GPa) = 71.55639 16.08543 55.09343
#
# Poissons Ratio (x) = 0.18683 0.45548
# Poissons Ratio (y) = 0.83111 0.51891
# Poissons Ratio (z) = 0.59159 0.15151
#
# Static dielectric constant tensor:
#      x y z
#    x 1.575970 0.000000 -0.009510 
#    y 0.000000 1.586490 0.000000 
#    z -0.009510 0.000000 1.579070 
# 
# From -- ./inp_files/229933.got.cif
#   From: 2010.05.17/outbox.cif.g08.bks.cpg/sg12_115_cif.got.tgz:229933.got - 2010.06.03 13:09:07.
