data_PCOD9183809
_publ_section_title
;
Structure prediction by ZEFSAII (Michael W. Deem and Ramdas Pophale) SiO2 
 PCOD9183809
Probable space group: C 2/M
;
_chemical_formula_sum "Si O2"
_cell_formula_units_Z 48
_cell_length_a 12.918050
_cell_length_b 20.023175
_cell_length_c 22.391695
_cell_angle_alpha 90.000000
_cell_angle_beta 26.359766
_cell_angle_gamma 90.000000
_cell_volume 2571.614097
_symmetry_space_group_name_H-M "C 2/M"
_symmetry_group_IT_number 12
_symmetry_cell_setting 'monoclinic'
loop_
_space_group_symop_operation_xyz
x,y,z
-x,y,-z
-x,-y,-z
x,-y,z
1/2+x,1/2+y,z
1/2-x,1/2+y,-z
1/2-x,1/2-y,-z
1/2+x,1/2-y,z
loop_
_atom_site_type_symbol
_atom_site_label
_atom_site_fract_x
_atom_site_fract_y
_atom_site_fract_z
Si Si1 0.180219 0.666699 0.259213
Si Si2 0.656505 0.574422 0.192022
Si Si3 0.593728 0.795348 0.889074
Si Si4 0.303255 0.626854 0.961911
Si Si5 0.777037 0.426604 0.870191
Si Si6 0.116634 0.425006 0.504589
O O1 0.210436 0.746105 0.237596
O O2 0.437392 0.646806 0.151131
O O3 0.136355 0.631898 0.217805
O O4 0.990969 0.633740 0.400252
O O5 0.742375 0.500000 0.161554
O O6 0.800013 0.633091 0.148677
O O7 0.667762 0.586413 0.114819
O O8 0.391728 0.579828 0.351567
O O9 0.500000 0.764241 0.000000
O O10 0.371126 0.812267 0.963471
O O11 0.195706 0.588204 0.073921
O O12 0.873927 0.500000 0.805213
O O13 0.500000 0.429241 0.000000
O O14 0.062677 0.500000 0.556955
O O15 0.000000 0.421510 0.500000
#
# Coordination Sequence:
#
# PCOD9183809 Si02
#       6
#     8   8   8   8   8   8
#     4  11  20  34  55  81 112 142 177 222 274 327
#     4  10  21  37  57  82 109 142 187 229 270 320
#     4  10  22  36  54  81 114 149 178 219 273 327
#     4  10  19  33  56  81 110 144 178 225 270 324
#     4   9  18  30  49  78 106 137 175 219 266 316
#     4  10  20  36  58  82 107 141 182 231 274 313
#
# _framework density 18.665320999999999
#
# number of rings (size 3 to 8) (size 9 to 14) (size 15 to 20)
#    0.000    2.000    1.667    3.000    0.000    7.000 
#    0.000    0.000    0.000    0.000    0.000    3.500 
#    0.000    0.000    0.000    0.000    0.000    0.000 
#
# Total GULP energy -133824.291483 kJ/mol
# GULP energy per Si atom -5576.012145 kJ/mol
# Density = 1.862284 g / cm^3
# Si number density = 18.665321 Si / 1000 Ang^3
#
#
#
# Elastic Constant Matrix: (Units=GPa)
#
#
# Indices 1 2 3 4 5 6 
#
# 1 65.8462 38.4701 29.0820 0.0022 10.5640 0.0383
# 2 38.4701 128.6168 50.1852 -0.0075 15.9933 0.0120
# 3 29.0820 50.1852 82.7069 0.0764 8.9898 0.0799
# 4 0.0022 -0.0075 0.0764 26.2523 -0.0502 9.8423
# 5 10.5640 15.9933 8.9898 -0.0502 23.7528 0.0034
# 6 0.0383 0.0120 0.0799 9.8423 0.0034 -7.0268
#
#
#
# Elastic Compliance Matrix: (Units=1/GPa)
#
#
# Indices 1 2 3 4 5 6 
#
# 1 0.020012 -0.003732 -0.004253 -0.000012 -0.004778 0.000035
# 2 -0.003732 0.011415 -0.005172 0.000022 -0.004069 -0.000030
# 3 -0.004253 -0.005172 0.016833 -0.000073 -0.000997 0.000056
# 4 -0.000012 0.000022 -0.000073 0.024977 0.000066 0.034983
# 5 -0.004778 -0.004069 -0.000997 0.000066 0.047342 0.000071
# 6 0.000035 -0.000030 0.000056 0.034983 0.000071 -0.093311
#
#
# Mechanical properties :
#
#
# Convention : Reuss Voigt Hill
#
# Bulk Modulus (GPa) = 45.56568 56.96049 51.26308
# Shear Modulus (GPa) = 82.10368 19.22449 50.66409
#
# Velocity S-wave (km/s) = 6.63949 3.21278 5.21559
# Velocity P-wave (km/s) = 9.12370 6.65925 7.98710
#
# Compressibility (1/GPa) = 0.02194634
#
# Stress axis : x y z
#
# Youngs Moduli (GPa) = 49.96930 87.60069 59.40697
#
# Poissons Ratio (x) = 0.32695 0.25265
# Poissons Ratio (y) = 0.18650 0.30726
# Poissons Ratio (z) = 0.21251 0.45308
#
# Static dielectric constant tensor:
#      x y z
#    x 1.641580 0.000000 0.006250 
#    y 0.000000 1.685900 0.000040 
#    z 0.006250 0.000040 1.644890 
# 
# From -- ./inp_files/133397.got.cif
#   From: 2010.05.17/outbox.cif.g08.bks.cpg/sg12_67_cif.got.tgz:133397.got - 2010.06.03 13:09:07.
