data_PCOD9183574
_publ_section_title
;
Structure prediction by ZEFSAII (Michael W. Deem and Ramdas Pophale) SiO2 
 PCOD9183574
Probable space group: C 2/M
;
_chemical_formula_sum "Si O2"
_cell_formula_units_Z 48
_cell_length_a 16.381075
_cell_length_b 25.827889
_cell_length_c 5.748523
_cell_angle_alpha 90.000000
_cell_angle_beta 124.113417
_cell_angle_gamma 90.000000
_cell_volume 2013.634726
_symmetry_space_group_name_H-M "C 2/M"
_symmetry_group_IT_number 12
_symmetry_cell_setting 'monoclinic'
loop_
_space_group_symop_operation_xyz
x,y,z
-x,y,-z
-x,-y,-z
x,-y,z
1/2+x,1/2+y,z
1/2-x,1/2+y,-z
1/2-x,1/2-y,-z
1/2+x,1/2-y,z
loop_
_atom_site_type_symbol
_atom_site_label
_atom_site_fract_x
_atom_site_fract_y
_atom_site_fract_z
Si Si1 0.900515 0.694883 0.214892
Si Si2 0.098256 0.405799 0.060797
Si Si3 0.287769 0.166494 0.430213
Si Si4 0.615419 0.563001 0.216708
Si Si5 0.292343 0.439139 0.135542
Si Si6 0.884420 0.767954 0.807088
O O1 0.809286 0.667515 0.194305
O O2 0.000000 0.711462 0.500000
O O3 0.938984 0.647279 0.118743
O O4 0.859434 0.744429 0.018593
O O5 0.163313 0.382899 0.375430
O O6 0.175607 0.433579 0.014078
O O7 0.000000 0.433373 0.000000
O O8 0.179803 0.181813 0.340766
O O9 0.349979 0.219411 0.595481
O O10 0.625465 0.500000 0.236189
O O11 0.651694 0.579375 0.536533
O O12 0.500000 0.575811 0.000000
O O13 0.671796 0.580637 0.064775
O O14 0.314208 0.500000 0.157651
O O15 0.000000 0.776567 0.000000
#
# Coordination Sequence:
#
# PCOD9183574 Si02
#       6
#     8   8   8   8   8   8
#     4  11  18  34  58  81 108 151 202 243 296 365
#     4  11  23  37  57  80 116 161 201 252 306 365
#     4  10  20  35  54  80 111 148 197 239 295 366
#     4   9  18  37  65  93 120 153 199 253 307 368
#     4  10  22  38  62  95 124 160 210 257 305 362
#     4  10  19  33  55  82 109 143 187 246 299 361
#
# _framework density 23.837492000000001
#
# number of rings (size 3 to 8) (size 9 to 14) (size 15 to 20)
#    0.000    1.833    3.333    2.000    2.333    2.333 
#    0.000    0.833    3.667    3.500    0.000    0.000 
#    0.000    0.000    0.000    0.000    0.000    0.000 
#
# Total GULP energy -133697.834494 kJ/mol
# GULP energy per Si atom -5570.743104 kJ/mol
# Density = 2.378324 g / cm^3
# Si number density = 23.837492 Si / 1000 Ang^3
#
#
#
# Elastic Constant Matrix: (Units=GPa)
#
#
# Indices 1 2 3 4 5 6 
#
# 1 156.5730 6.7558 23.8561 0.0000 0.0118 0.0000
# 2 6.7558 37.1709 4.8774 0.0000 -6.7711 0.0000
# 3 23.8561 4.8774 60.0887 0.0000 1.6413 0.0000
# 4 0.0000 0.0000 0.0000 17.5466 0.0000 -3.0903
# 5 0.0118 -6.7711 1.6413 0.0000 35.9737 0.0000
# 6 0.0000 0.0000 0.0000 -3.0903 0.0000 31.2824
#
#
#
# Elastic Compliance Matrix: (Units=1/GPa)
#
#
# Indices 1 2 3 4 5 6 
#
# 1 0.006827 -0.000905 -0.002636 0.000000 -0.000052 0.000000
# 2 -0.000905 0.028330 -0.002089 0.000000 0.005428 0.000000
# 3 -0.002636 -0.002089 0.017891 0.000000 -0.001209 0.000000
# 4 0.000000 0.000000 0.000000 0.058000 0.000000 0.005730
# 5 -0.000052 0.005428 -0.001209 0.000000 0.028875 0.000000
# 6 0.000000 0.000000 0.000000 0.005730 0.000000 0.032533
#
#
# Mechanical properties :
#
#
# Convention : Reuss Voigt Hill
#
# Bulk Modulus (GPa) = 23.92889 36.09016 30.00952
# Shear Modulus (GPa) = 25.29793 31.51676 28.40735
#
# Velocity S-wave (km/s) = 3.26124 3.64008 3.45586
# Velocity P-wave (km/s) = 4.92352 5.73061 5.34233
#
# Compressibility (1/GPa) = 0.04179049
#
# Stress axis : x y z
#
# Youngs Moduli (GPa) = 146.46809 35.29828 55.89391
#
# Poissons Ratio (x) = 0.03193 0.14732
# Poissons Ratio (y) = 0.13249 0.11674
# Poissons Ratio (z) = 0.38605 0.07373
#
# Static dielectric constant tensor:
#      x y z
#    x 2.077570 0.000000 -0.075560 
#    y 0.000000 1.900010 0.000000 
#    z -0.075560 0.000000 2.079950 
# 
# From -- ./inp_files/13054.got.cif
#   From: 2010.05.17/outbox.cif.g08.bks.cpg/sg12_7_cif.got.tgz:13054.got - 2010.06.03 13:09:07.
