data_PCOD9183030
_publ_section_title
;
Structure prediction by ZEFSAII (Michael W. Deem and Ramdas Pophale) SiO2 
 PCOD9183030
Probable space group: C 2/M
;
_chemical_formula_sum "Si O2"
_cell_formula_units_Z 50
_cell_length_a 13.948121
_cell_length_b 7.518104
_cell_length_c 17.672486
_cell_angle_alpha 90.000000
_cell_angle_beta 83.407959
_cell_angle_gamma 90.000000
_cell_volume 1840.945394
_symmetry_space_group_name_H-M "C 2/M"
_symmetry_group_IT_number 12
_symmetry_cell_setting 'monoclinic'
loop_
_space_group_symop_operation_xyz
x,y,z
-x,y,-z
-x,-y,-z
x,-y,z
1/2+x,1/2+y,z
1/2-x,1/2+y,-z
1/2-x,1/2-y,-z
1/2+x,1/2-y,z
loop_
_atom_site_type_symbol
_atom_site_label
_atom_site_fract_x
_atom_site_fract_y
_atom_site_fract_z
Si Si1 0.948744 0.705279 0.079325
Si Si2 0.787628 0.789094 0.412837
Si Si3 0.014053 0.212358 0.770887
Si Si4 0.759422 0.693122 0.909555
Si Si5 0.500000 0.000000 0.500000
Si Si6 0.241969 0.782721 0.747389
Si Si7 0.983394 0.213452 0.613309
O O1 0.919805 0.500000 0.073339
O O2 0.017631 0.724410 0.144487
O O3 0.854203 0.818352 0.097759
O O4 0.000000 0.766411 0.000000
O O5 0.750000 0.750000 0.500000
O O6 0.733583 0.719594 0.341376
O O7 0.901188 0.737485 0.400187
O O8 0.789124 0.000000 0.403879
O O9 0.127010 0.267945 0.757223
O O10 0.957880 0.269307 0.701377
O O11 0.013757 0.000000 0.768112
O O12 0.806290 0.500000 0.908853
O O13 0.786212 0.783596 0.824460
O O14 0.750000 0.750000 0.000000
O O15 0.443579 0.843315 0.554083
O O16 0.249293 0.000000 0.750021
O O17 0.972561 0.000000 0.601974
#
# Coordination Sequence:
#
# PCOD9183030 Si02
#       7
#     8   8   8   8   2   8   8
#     4  10  20  32  51  80 109 135 173 222 263 312
#     4   9  17  31  53  77 106 133 170 223 270 312
#     4   8  15  31  53  73  99 132 175 224 264 301
#     4  10  19  33  54  75 103 139 175 212 265 319
#     4  12  22  32  60  78 106 144 186 218 264 342
#     4   7  13  28  48  72  96 129 166 209 262 308
#     4   9  20  36  53  80 109 140 180 226 269 315
#
# _framework density 27.159959000000001
#
# number of rings (size 3 to 8) (size 9 to 14) (size 15 to 20)
#    0.000    3.040    0.000    4.080    2.240    1.280 
#    0.000    1.600    3.520    0.000    0.000    0.000 
#    0.000    0.000    0.000    0.000    0.000    0.000 
#
# Total GULP energy -139171.320413 kJ/mol
# GULP energy per Si atom -5566.852817 kJ/mol
# Density = 2.709814 g / cm^3
# Si number density = 27.159959 Si / 1000 Ang^3
#
#
#
# Elastic Constant Matrix: (Units=GPa)
#
#
# Indices 1 2 3 4 5 6 
#
# 1 80.2201 5.4066 25.3098 0.0000 24.8390 0.0000
# 2 5.4066 78.9659 30.3483 0.0000 6.5605 0.0000
# 3 25.3098 30.3483 303.8877 0.0000 25.2291 0.0000
# 4 0.0000 0.0000 0.0000 1.8819 0.0000 7.2060
# 5 24.8390 6.5605 25.2291 0.0000 45.1476 0.0000
# 6 0.0000 0.0000 0.0000 7.2060 0.0000 1.2622
#
#
#
# Elastic Compliance Matrix: (Units=1/GPa)
#
#
# Indices 1 2 3 4 5 6 
#
# 1 0.015129 -0.000149 -0.000583 0.000000 -0.007976 0.000000
# 2 -0.000149 0.013237 -0.001213 0.000000 -0.001164 0.000000
# 3 -0.000583 -0.001213 0.003585 0.000000 -0.001507 0.000000
# 4 0.000000 0.000000 0.000000 -0.025473 0.000000 0.145426
# 5 -0.007976 -0.001164 -0.001507 0.000000 0.027549 0.000000
# 6 0.000000 0.000000 0.000000 0.145426 0.000000 -0.037979
#
#
# Mechanical properties :
#
#
# Convention : Reuss Voigt Hill
#
# Bulk Modulus (GPa) = 35.63586 65.02257 50.32921
# Shear Modulus (GPa) = 538.08686 36.45894 287.27290
#
# Velocity S-wave (km/s) = 14.09070 3.66782 10.29565
# Velocity P-wave (km/s) = 16.66972 6.47532 12.64534
#
# Compressibility (1/GPa) = 0.02806162
#
# Stress axis : x y z
#
# Youngs Moduli (GPa) = 66.09626 75.54742 278.90485
#
# Poissons Ratio (x) = 0.01127 0.16260
# Poissons Ratio (y) = 0.00986 0.33828
# Poissons Ratio (z) = 0.03853 0.09163
#
# Static dielectric constant tensor:
#      x y z
#    x 2.532320 0.000000 -0.054120 
#    y 0.000000 2.013270 0.000000 
#    z -0.054120 0.000000 2.392740 
# 
# From -- ./inp_files/230114.got.cif
#   From: 2010.05.17/outbox.cif.g08.bks.cpg/sg12_116_cif.got.tgz:230114.got - 2010.06.03 13:09:07.
