data_PCOD9183693
_publ_section_title
;
Structure prediction by ZEFSAII (Michael W. Deem and Ramdas Pophale) SiO2 
 PCOD9183693
Probable space group: C 2/M
;
_chemical_formula_sum "Si O2"
_cell_formula_units_Z 64
_cell_length_a 16.094772
_cell_length_b 16.570447
_cell_length_c 13.548407
_cell_angle_alpha 90.000000
_cell_angle_beta 60.355952
_cell_angle_gamma 90.000000
_cell_volume 3140.396627
_symmetry_space_group_name_H-M "C 2/M"
_symmetry_group_IT_number 12
_symmetry_cell_setting 'monoclinic'
loop_
_space_group_symop_operation_xyz
x,y,z
-x,y,-z
-x,-y,-z
x,-y,z
1/2+x,1/2+y,z
1/2-x,1/2+y,-z
1/2-x,1/2-y,-z
1/2+x,1/2-y,z
loop_
_atom_site_type_symbol
_atom_site_label
_atom_site_fract_x
_atom_site_fract_y
_atom_site_fract_z
Si Si1 0.403532 0.195484 0.011636
Si Si2 0.533955 0.910764 0.594814
Si Si3 0.747906 0.908946 0.410268
Si Si4 0.545666 0.745629 0.364684
Si Si5 0.736249 0.906773 0.046500
Si Si6 0.253493 0.292135 0.224233
Si Si7 0.543665 0.630609 0.082563
Si Si8 0.046036 0.087771 0.667661
O O1 0.341490 0.238636 0.134754
O O2 0.500000 0.157032 0.000000
O O3 0.331590 0.139053 0.992371
O O4 0.440250 0.272253 0.925188
O O5 0.500000 0.915552 0.500000
O O6 0.647715 0.896394 0.523836
O O7 0.484128 0.831359 0.667352
O O8 0.514007 0.000000 0.649798
O O9 0.764402 0.842802 0.317167
O O10 0.841735 0.907378 0.421836
O O11 0.742037 0.000000 0.370119
O O12 0.500000 0.750401 0.500000
O O13 0.659080 0.740118 0.296040
O O14 0.505225 0.665364 0.342542
O O15 0.732187 0.856362 0.150120
O O16 0.708275 0.000000 0.073292
O O17 0.850450 0.903245 0.956575
O O18 0.470943 0.595626 0.204961
O O19 0.500000 0.612126 0.000000
O O20 0.009905 0.000000 0.656196
#
# Coordination Sequence:
#
# PCOD9183693 Si02
#       8
#     8   8   8   8   8   8   8   8
#     4  10  21  37  57  81 115 154 193 240 289 350
#     4   9  17  33  55  80 112 145 185 240 293 339
#     4  10  19  33  55  85 111 140 184 240 297 345
#     4  11  22  39  58  84 115 160 198 236 287 339
#     4  11  22  34  55  85 116 150 189 237 298 362
#     4  11  20  35  59  85 109 145 190 242 293 356
#     4  10  20  38  61  88 119 149 188 247 308 352
#     4  11  23  36  57  86 119 156 195 235 284 351
#
# _framework density 20.379591000000001
#
# number of rings (size 3 to 8) (size 9 to 14) (size 15 to 20)
#    0.000    1.625    2.500    6.000    0.000    3.500 
#    0.000    0.000    0.000    0.375    0.000    0.000 
#    0.000    0.000    0.000    0.000    0.000    0.000 
#
# Total GULP energy -178551.231730 kJ/mol
# GULP energy per Si atom -5579.725992 kJ/mol
# Density = 2.033321 g / cm^3
# Si number density = 20.379591 Si / 1000 Ang^3
#
#
#
# Elastic Constant Matrix: (Units=GPa)
#
#
# Indices 1 2 3 4 5 6 
#
# 1 98.0803 53.2646 11.8384 0.0000 -27.2564 0.0000
# 2 53.2646 100.9056 10.2726 0.0000 -3.1395 0.0000
# 3 11.8384 10.2726 31.0688 0.0000 -21.9597 0.0000
# 4 0.0000 0.0000 0.0000 12.7478 0.0000 -7.7294
# 5 -27.2564 -3.1395 -21.9597 0.0000 32.4145 0.0000
# 6 0.0000 0.0000 0.0000 -7.7294 0.0000 27.6690
#
#
#
# Elastic Compliance Matrix: (Units=1/GPa)
#
#
# Indices 1 2 3 4 5 6 
#
# 1 0.023652 -0.013225 0.016333 0.000000 0.029673 0.000000
# 2 -0.013225 0.017757 -0.014346 0.000000 -0.019119 0.000000
# 3 0.016333 -0.014346 0.075661 0.000000 0.063603 0.000000
# 4 0.000000 0.000000 0.000000 0.094441 0.000000 0.026382
# 5 0.029673 -0.019119 0.063603 0.000000 0.097038 0.000000
# 6 0.000000 0.000000 0.000000 0.026382 0.000000 0.043511
#
#
# Mechanical properties :
#
#
# Convention : Reuss Voigt Hill
#
# Bulk Modulus (GPa) = 10.57125 42.31179 26.44152
# Shear Modulus (GPa) = 12.31323 24.87821 18.59572
#
# Velocity S-wave (km/s) = 2.46070 3.49770 3.02399
# Velocity P-wave (km/s) = 3.64305 6.09252 5.01949
#
# Compressibility (1/GPa) = 0.09459616
#
# Stress axis : x y z
#
# Youngs Moduli (GPa) = 42.27906 56.31648 13.21681
#
# Poissons Ratio (x) = 0.74478 -0.21587
# Poissons Ratio (y) = 0.55913 0.18960
# Poissons Ratio (z) = -0.69056 0.80789
#
# Static dielectric constant tensor:
#      x y z
#    x 1.749420 0.000000 -0.001330 
#    y 0.000000 1.749300 0.000000 
#    z -0.001330 0.000000 1.732560 
# 
# From -- ./inp_files/216366.got.cif
#   From: 2010.05.17/outbox.cif.g08.bks.cpg/sg12_109_cif.got.tgz:216366.got - 2010.06.03 13:09:07.
