data_PCOD9183860
_publ_section_title
;
Structure prediction by ZEFSAII (Michael W. Deem and Ramdas Pophale) SiO2 
 PCOD9183860
Probable space group: C 2/M
;
_chemical_formula_sum "Si O2"
_cell_formula_units_Z 56
_cell_length_a 16.226115
_cell_length_b 7.782940
_cell_length_c 27.313387
_cell_angle_alpha 90.000000
_cell_angle_beta 38.369857
_cell_angle_gamma 90.000000
_cell_volume 2141.116518
_symmetry_space_group_name_H-M "C 2/M"
_symmetry_group_IT_number 12
_symmetry_cell_setting 'monoclinic'
loop_
_space_group_symop_operation_xyz
x,y,z
-x,y,-z
-x,-y,-z
x,-y,z
1/2+x,1/2+y,z
1/2-x,1/2+y,-z
1/2-x,1/2-y,-z
1/2+x,1/2-y,z
loop_
_atom_site_type_symbol
_atom_site_label
_atom_site_fract_x
_atom_site_fract_y
_atom_site_fract_z
Si Si1 0.157001 0.291078 0.474816
Si Si2 0.203922 0.703145 0.903473
Si Si3 0.727127 0.198552 0.339599
Si Si4 0.898254 0.706501 0.950302
Si Si5 0.769635 0.697015 0.769276
Si Si6 0.496582 0.796649 0.803026
Si Si7 0.446905 0.297949 0.375861
O O1 0.153669 0.500000 0.475807
O O2 0.148270 0.231207 0.422804
O O3 0.303789 0.234712 0.424316
O O4 0.057262 0.231886 0.563387
O O5 0.202664 0.500000 0.910761
O O6 0.188275 0.731809 0.852970
O O7 0.350923 0.767934 0.848857
O O8 0.105329 0.771507 0.991913
O O9 0.731391 0.283234 0.283964
O O10 0.883937 0.202703 0.279965
O O11 0.683958 0.000000 0.353623
O O12 0.915782 0.500000 0.942375
O O13 0.989134 0.769446 0.863153
O O14 0.750000 0.750000 0.000000
O O15 0.731102 0.500000 0.782667
O O16 0.927488 0.707572 0.706645
O O17 0.522504 0.000000 0.790040
O O18 0.457497 0.500000 0.361241
#
# Coordination Sequence:
#
# PCOD9183860 Si02
#       7
#     8   8   8   8   8   8   8
#     4   9  19  37  58  78 103 136 173 214 263 318
#     4  10  19  34  56  79 107 141 177 219 268 320
#     4  10  22  38  54  75 107 147 184 218 262 314
#     4   8  16  30  50  78 106 134 171 217 267 315
#     4  11  23  37  53  76 108 144 183 223 263 311
#     4  10  19  33  56  83 108 136 176 223 267 315
#     4  10  20  35  58  84 106 132 171 219 270 321
#
# _framework density 26.154578999999998
#
# number of rings (size 3 to 8) (size 9 to 14) (size 15 to 20)
#    0.000    2.286    0.000    2.571    0.000    5.143 
#    0.000    3.571    0.000    4.286    0.000    0.000 
#    0.000    0.000    0.000    0.000    0.000    0.000 
#
# Total GULP energy -156571.956775 kJ/mol
# GULP energy per Si atom -5591.855599 kJ/mol
# Density = 2.609505 g / cm^3
# Si number density = 26.154579 Si / 1000 Ang^3
#
#
#
# Elastic Constant Matrix: (Units=GPa)
#
#
# Indices 1 2 3 4 5 6 
#
# 1 88.0129 2.8185 43.1549 0.0000 27.8086 -0.0004
# 2 2.8185 65.4914 6.5457 0.0003 8.6858 -0.0016
# 3 43.1549 6.5457 213.5974 0.0000 27.4086 0.0000
# 4 0.0000 0.0003 0.0000 18.5981 -0.0001 8.9037
# 5 27.8086 8.6858 27.4086 -0.0001 50.7930 0.0000
# 6 -0.0004 -0.0016 0.0000 8.9037 0.0000 21.2696
#
#
#
# Elastic Compliance Matrix: (Units=1/GPa)
#
#
# Indices 1 2 3 4 5 6 
#
# 1 0.014550 0.000500 -0.002065 0.000000 -0.006937 0.000000
# 2 0.000500 0.015645 -0.000217 -0.000001 -0.002832 0.000002
# 3 -0.002065 -0.000217 0.005324 0.000000 -0.001706 0.000000
# 4 0.000000 -0.000001 0.000000 0.067245 0.000000 -0.028150
# 5 -0.006937 -0.002832 -0.001706 0.000000 0.024891 -0.000001
# 6 0.000000 0.000002 0.000000 -0.028150 -0.000001 0.058799
#
#
# Mechanical properties :
#
#
# Convention : Reuss Voigt Hill
#
# Bulk Modulus (GPa) = 31.29272 52.45999 41.87636
# Shear Modulus (GPa) = 24.91653 39.10432 32.01042
#
# Velocity S-wave (km/s) = 3.08987 3.87088 3.50221
# Velocity P-wave (km/s) = 4.97195 6.33083 5.69209
#
# Compressibility (1/GPa) = 0.03195631
#
# Stress axis : x y z
#
# Youngs Moduli (GPa) = 68.72685 63.91839 187.81503
#
# Poissons Ratio (x) = -0.03198 0.38781
# Poissons Ratio (y) = -0.03438 0.04077
# Poissons Ratio (z) = 0.14191 0.01388
#
# Static dielectric constant tensor:
#      x y z
#    x 2.201810 0.000000 0.034820 
#    y 0.000000 1.928030 0.000000 
#    z 0.034820 0.000000 2.027220 
# 
# From -- ./inp_files/342535.got.cif
#   From: 2010.05.17/outbox.cif.g08.bks.cpg/sg12_172_cif.got.tgz:342535.got - 2010.06.03 13:09:07.
