data_PCOD9183745
_publ_section_title
;
Structure prediction by ZEFSAII (Michael W. Deem and Ramdas Pophale) SiO2 
 PCOD9183745
Probable space group: C 2/M
;
_chemical_formula_sum "Si O2"
_cell_formula_units_Z 56
_cell_length_a 11.464163
_cell_length_b 28.049377
_cell_length_c 13.890770
_cell_angle_alpha 90.000000
_cell_angle_beta 33.872202
_cell_angle_gamma 90.000000
_cell_volume 2489.510350
_symmetry_space_group_name_H-M "C 2/M"
_symmetry_group_IT_number 12
_symmetry_cell_setting 'monoclinic'
loop_
_space_group_symop_operation_xyz
x,y,z
-x,y,-z
-x,-y,-z
x,-y,z
1/2+x,1/2+y,z
1/2-x,1/2+y,-z
1/2-x,1/2-y,-z
1/2+x,1/2-y,z
loop_
_atom_site_type_symbol
_atom_site_label
_atom_site_fract_x
_atom_site_fract_y
_atom_site_fract_z
Si Si1 0.025619 0.554772 0.367034
Si Si2 0.778905 0.262478 0.181905
Si Si3 0.381521 0.272107 0.323899
Si Si4 0.620209 0.386165 0.657657
Si Si5 0.550591 0.948605 0.852743
Si Si6 0.371325 0.554379 0.980456
Si Si7 0.671774 0.634968 0.309273
O O1 0.984192 0.500000 0.363207
O O2 0.839050 0.591434 0.471727
O O3 0.000000 0.553986 0.500000
O O4 0.252534 0.566915 0.163190
O O5 0.613088 0.256108 0.206797
O O6 0.774722 0.244350 0.296317
O O7 0.787183 0.319670 0.187594
O O8 0.000000 0.241374 0.000000
O O9 0.250000 0.250000 0.500000
O O10 0.367737 0.329446 0.334929
O O11 0.448728 0.392785 0.692006
O O12 0.530367 0.411536 0.814813
O O13 0.333452 0.947037 0.946495
O O14 0.684470 0.902726 0.736182
O O15 0.654664 0.000000 0.763056
O O16 0.500000 0.945561 0.000000
O O17 0.455887 0.500000 0.926074
O O18 0.500000 0.654878 0.500000
#
# Coordination Sequence:
#
# PCOD9183745 Si02
#       7
#     8   8   8   8   8   8   8
#     4  10  23  43  65  94 132 178 226 279 337 397
#     4  11  24  45  70  97 132 178 226 284 348 423
#     4  11  25  47  69 101 137 178 228 291 360 412
#     4  11  23  41  66  98 128 173 223 276 337 408
#     4  10  19  33  55  89 130 165 203 257 316 386
#     4  10  21  39  65  95 134 174 216 269 326 397
#     4  11  22  37  62  92 128 173 215 266 332 404
#
# _framework density 22.494384
#
# number of rings (size 3 to 8) (size 9 to 14) (size 15 to 20)
#    0.000    1.429    1.429    4.286    2.000    2.571 
#    5.143    2.143    0.000    0.000    0.000    0.000 
#    0.000    0.000    0.000    0.000    0.000    0.000 
#
# Total GULP energy -156084.522944 kJ/mol
# GULP energy per Si atom -5574.447248 kJ/mol
# Density = 2.244319 g / cm^3
# Si number density = 22.494384 Si / 1000 Ang^3
#
#
#
# Elastic Constant Matrix: (Units=GPa)
#
#
# Indices 1 2 3 4 5 6 
#
# 1 108.1443 19.0927 1.5153 0.0000 25.4965 0.0000
# 2 19.0927 66.5945 28.2993 0.0000 -8.1131 0.0000
# 3 1.5153 28.2993 110.3177 0.0000 25.4382 0.0000
# 4 0.0000 0.0000 0.0000 32.0648 0.0000 -8.5361
# 5 25.4965 -8.1131 25.4382 0.0000 38.7720 0.0000
# 6 0.0000 0.0000 0.0000 -8.5361 0.0000 29.0351
#
#
#
# Elastic Compliance Matrix: (Units=1/GPa)
#
#
# Indices 1 2 3 4 5 6 
#
# 1 0.013891 -0.007860 0.005080 0.000000 -0.014112 0.000000
# 2 -0.007860 0.023379 -0.009673 0.000000 0.016407 0.000000
# 3 0.005080 -0.009673 0.014979 0.000000 -0.015192 0.000000
# 4 0.000000 0.000000 0.000000 0.033835 0.000000 0.009947
# 5 -0.014112 0.016407 -0.015192 0.000000 0.048473 0.000000
# 6 0.000000 0.000000 0.000000 0.009947 0.000000 0.037366
#
#
# Mechanical properties :
#
#
# Convention : Reuss Voigt Hill
#
# Bulk Modulus (GPa) = 36.57323 42.54123 39.55723
# Shear Modulus (GPa) = 24.27854 35.71764 29.99809
#
# Velocity S-wave (km/s) = 3.28886 3.98910 3.65578
# Velocity P-wave (km/s) = 5.54222 6.33800 5.95342
#
# Compressibility (1/GPa) = 0.02734240
#
# Stress axis : x y z
#
# Youngs Moduli (GPa) = 71.99159 42.77325 66.75803
#
# Poissons Ratio (x) = 0.33621 -0.33911
# Poissons Ratio (y) = 0.56587 0.64573
# Poissons Ratio (z) = -0.36569 0.41373
#
# Static dielectric constant tensor:
#      x y z
#    x 1.960670 0.000000 -0.027990 
#    y 0.000000 1.790550 0.000000 
#    z -0.027990 0.000000 1.842410 
# 
# From -- ./inp_files/210007.got.cif
#   From: 2010.05.17/outbox.cif.g08.bks.cpg/sg12_106_cif.got.tgz:210007.got - 2010.06.03 13:09:07.
