data_PCOD9183244
_publ_section_title
;
Structure prediction by ZEFSAII (Michael W. Deem and Ramdas Pophale) SiO2 
 PCOD9183244
Probable space group: C 2/M
;
_chemical_formula_sum "Si O2"
_cell_formula_units_Z 64
_cell_length_a 30.200543
_cell_length_b 7.839379
_cell_length_c 20.188844
_cell_angle_alpha 90.000000
_cell_angle_beta 37.661771
_cell_angle_gamma 90.000000
_cell_volume 2920.440429
_symmetry_space_group_name_H-M "C 2/M"
_symmetry_group_IT_number 12
_symmetry_cell_setting 'monoclinic'
loop_
_space_group_symop_operation_xyz
x,y,z
-x,y,-z
-x,-y,-z
x,-y,z
1/2+x,1/2+y,z
1/2-x,1/2+y,-z
1/2-x,1/2-y,-z
1/2+x,1/2-y,z
loop_
_atom_site_type_symbol
_atom_site_label
_atom_site_fract_x
_atom_site_fract_y
_atom_site_fract_z
Si Si1 0.516968 0.792778 0.652268
Si Si2 0.361396 0.793561 0.589288
Si Si3 0.103937 0.292169 0.309041
Si Si4 0.698050 0.800803 0.764048
Si Si5 0.966310 0.801937 0.220058
Si Si6 0.692696 0.195064 0.623284
Si Si7 0.613655 0.701473 0.992703
Si Si8 0.743090 0.705552 0.931186
O O1 0.593975 0.745309 0.528622
O O2 0.455634 0.736267 0.673069
O O3 0.507730 0.714646 0.735025
O O4 0.514297 0.000000 0.660900
O O5 0.405044 0.743497 0.603808
O O6 0.281470 0.719245 0.686353
O O7 0.355063 0.000000 0.597326
O O8 0.101808 0.500000 0.310120
O O9 0.183645 0.236093 0.191738
O O10 0.694254 0.722312 0.694639
O O11 0.647401 0.720799 0.880148
O O12 0.678010 0.000000 0.786052
O O13 0.889337 0.710798 0.304882
O O14 0.952990 0.000000 0.219294
O O15 0.032405 0.729617 0.097990
O O16 0.750000 0.250000 0.500000
O O17 0.711895 0.000000 0.612875
O O18 0.606726 0.500000 0.015145
O O19 0.671793 0.771669 0.977397
O O20 0.741727 0.500000 0.927285
O O21 0.750000 0.750000 0.000000
#
# Coordination Sequence:
#
# PCOD9183244 Si02
#       8
#     8   8   8   8   8   8   8   8
#     4  10  20  34  58  88 118 159 205 250 302 356
#     4  10  19  35  58  84 119 159 200 246 296 364
#     4   9  17  32  54  82 115 154 201 247 293 352
#     4  11  24  40  62  91 120 153 198 256 309 357
#     4  11  24  41  62  89 123 159 199 248 300 359
#     4  11  25  45  68  95 125 157 198 246 303 366
#     4  10  22  41  62  86 120 163 205 245 299 365
#     4  10  19  33  54  80 115 158 202 249 295 346
#
# _framework density 21.914501000000001
#
# number of rings (size 3 to 8) (size 9 to 14) (size 15 to 20)
#    0.000    1.750    1.250    3.000    0.000    8.000 
#    0.000    3.125    0.000    1.500    0.000    0.000 
#    0.000    0.000    0.000    0.000    0.000    0.000 
#
# Total GULP energy -178785.230764 kJ/mol
# GULP energy per Si atom -5587.038461 kJ/mol
# Density = 2.186462 g / cm^3
# Si number density = 21.914501 Si / 1000 Ang^3
#
#
#
# Elastic Constant Matrix: (Units=GPa)
#
#
# Indices 1 2 3 4 5 6 
#
# 1 92.1429 -10.2579 46.2196 0.0023 9.2628 0.0004
# 2 -10.2579 16.6801 0.8077 0.0237 0.8337 -0.0225
# 3 46.2196 0.8077 146.8978 0.0159 -5.1820 -0.0171
# 4 0.0023 0.0237 0.0159 16.3132 -0.0047 6.0932
# 5 9.2628 0.8337 -5.1820 -0.0047 36.0899 0.0001
# 6 0.0004 -0.0225 -0.0171 6.0932 0.0001 19.5709
#
#
#
# Elastic Compliance Matrix: (Units=1/GPa)
#
#
# Indices 1 2 3 4 5 6 
#
# 1 0.014853 0.009608 -0.004893 -0.000017 -0.004737 0.000012
# 2 0.009608 0.066258 -0.003546 -0.000139 -0.004506 0.000116
# 3 -0.004893 -0.003546 0.008457 -0.000003 0.002552 0.000004
# 4 -0.000017 -0.000139 -0.000003 0.069367 0.000016 -0.021597
# 5 -0.004737 -0.004506 0.002552 0.000016 0.029395 -0.000008
# 6 0.000012 0.000116 0.000004 -0.021597 -0.000008 0.057820
#
#
# Mechanical properties :
#
#
# Convention : Reuss Voigt Hill
#
# Bulk Modulus (GPa) = 10.88089 36.58441 23.73265
# Shear Modulus (GPa) = 18.21845 28.99157 23.60501
#
# Velocity S-wave (km/s) = 2.88643 3.64117 3.28554
# Velocity P-wave (km/s) = 4.01056 5.86582 5.02456
#
# Compressibility (1/GPa) = 0.09190428
#
# Stress axis : x y z
#
# Youngs Moduli (GPa) = 67.32660 15.09258 118.25124
#
# Poissons Ratio (x) = -0.14501 0.57863
# Poissons Ratio (y) = -0.64687 0.41935
# Poissons Ratio (z) = 0.32944 0.05352
#
# Static dielectric constant tensor:
#      x y z
#    x 1.805280 -0.000010 0.013420 
#    y -0.000010 1.826430 0.000010 
#    z 0.013420 0.000010 1.797320 
# 
# From -- ./inp_files/295655.got.cif
#   From: 2010.05.17/outbox.cif.g08.bks.cpg/sg12_148_cif.got.tgz:295655.got - 2010.06.03 13:09:07.
