data_PCOD9183438
_publ_section_title
;
Structure prediction by ZEFSAII (Michael W. Deem and Ramdas Pophale) SiO2 
 PCOD9183438
Probable space group: C 2/M
;
_chemical_formula_sum "Si O2"
_cell_formula_units_Z 40
_cell_length_a 23.356204
_cell_length_b 8.958427
_cell_length_c 18.865233
_cell_angle_alpha 90.000000
_cell_angle_beta 143.739456
_cell_angle_gamma 90.000000
_cell_volume 2334.641154
_symmetry_space_group_name_H-M "C 2/M"
_symmetry_group_IT_number 12
_symmetry_cell_setting 'monoclinic'
loop_
_space_group_symop_operation_xyz
x,y,z
-x,y,-z
-x,-y,-z
x,-y,z
1/2+x,1/2+y,z
1/2-x,1/2+y,-z
1/2-x,1/2-y,-z
1/2+x,1/2-y,z
loop_
_atom_site_type_symbol
_atom_site_label
_atom_site_fract_x
_atom_site_fract_y
_atom_site_fract_z
Si Si1 0.102623 0.321866 0.814599
Si Si2 0.789559 0.178165 0.647833
Si Si3 0.786524 0.678912 0.930223
Si Si4 0.387034 0.179789 0.882312
Si Si5 0.894206 0.178194 0.604219
O O1 0.094215 0.500000 0.800412
O O2 0.186158 0.261064 0.846305
O O3 0.999898 0.245962 0.698938
O O4 0.140819 0.285671 0.932272
O O5 0.836730 0.243638 0.765400
O O6 0.857245 0.212768 0.647242
O O7 0.685843 0.251068 0.527343
O O8 0.779891 0.000000 0.642785
O O9 0.770647 0.500000 0.915913
O O10 0.833638 0.718939 0.902345
O O11 0.382078 0.000000 0.868818
O O12 0.500000 0.221171 0.000000
O O13 0.895808 0.000000 0.597457
#
# Coordination Sequence:
#
# PCOD9183438 Si02
#       5
#     8   8   8   8   8
#     4  10  19  33  55  79 104 136 175 218 257 299
#     4  10  21  35  53  79 107 135 172 216 258 304
#     4   9  19  34  52  77 108 140 173 209 255 310
#     4  10  20  35  55  78 107 141 172 207 256 311
#     4  10  20  35  55  77 104 138 173 212 260 311
#
# _framework density 17.133254000000001
#
# number of rings (size 3 to 8) (size 9 to 14) (size 15 to 20)
#    0.000    2.200    0.000    3.000    0.000    6.000 
#    0.000    1.000    0.000    6.000    0.000    0.000 
#    0.000    0.000    0.000    0.000    0.000    0.000 
#
# Total GULP energy -111671.766078 kJ/mol
# GULP energy per Si atom -5583.588304 kJ/mol
# Density = 1.709426 g / cm^3
# Si number density = 17.133254 Si / 1000 Ang^3
#
#
#
# Elastic Constant Matrix: (Units=GPa)
#
#
# Indices 1 2 3 4 5 6 
#
# 1 124.9214 61.5827 107.8519 0.0000 5.5576 0.0000
# 2 61.5827 49.4228 68.5854 0.0000 6.6997 0.0000
# 3 107.8519 68.5854 165.3646 0.0000 15.7476 0.0000
# 4 0.0000 0.0000 0.0000 33.8962 0.0000 -1.7467
# 5 5.5576 6.6997 15.7476 0.0000 31.4279 0.0000
# 6 0.0000 0.0000 0.0000 -1.7467 0.0000 25.2360
#
#
#
# Elastic Compliance Matrix: (Units=1/GPa)
#
#
# Indices 1 2 3 4 5 6 
#
# 1 0.024840 -0.019986 -0.008295 0.000000 0.004024 0.000000
# 2 -0.019986 0.063755 -0.013073 0.000000 -0.003506 0.000000
# 3 -0.008295 -0.013073 0.017300 0.000000 -0.004415 0.000000
# 4 0.000000 0.000000 0.000000 0.029607 0.000000 0.002049
# 5 0.004024 -0.003506 -0.004415 0.000000 0.034067 0.000000
# 6 0.000000 0.000000 0.000000 0.002049 0.000000 0.039768
#
#
# Mechanical properties :
#
#
# Convention : Reuss Voigt Hill
#
# Bulk Modulus (GPa) = 43.12978 90.63877 66.88427
# Shear Modulus (GPa) = 16.67923 24.89127 20.78525
#
# Velocity S-wave (km/s) = 3.12348 3.81570 3.48681
# Velocity P-wave (km/s) = 6.18352 8.51057 7.43861
#
# Compressibility (1/GPa) = 0.02318584
#
# Stress axis : x y z
#
# Youngs Moduli (GPa) = 40.25780 15.68503 57.80451
#
# Poissons Ratio (x) = 0.31349 0.47946
# Poissons Ratio (y) = 0.80461 0.75570
# Poissons Ratio (z) = 0.33392 0.20506
#
# Static dielectric constant tensor:
#      x y z
#    x 1.562170 0.000000 -0.003110 
#    y 0.000000 1.569080 0.000000 
#    z -0.003110 0.000000 1.545450 
# 
# From -- ./inp_files/171862.got.cif
#   From: 2010.05.17/outbox.cif.g08.bks.cpg/sg12_86_cif.got.tgz:171862.got - 2010.06.03 13:09:07.
