data_PCOD9183418
_publ_section_title
;
Structure prediction by ZEFSAII (Michael W. Deem and Ramdas Pophale) SiO2 
 PCOD9183418
Probable space group: C 2/M
;
_chemical_formula_sum "Si O2"
_cell_formula_units_Z 48
_cell_length_a 21.045961
_cell_length_b 7.639560
_cell_length_c 15.591609
_cell_angle_alpha 90.000000
_cell_angle_beta 111.178429
_cell_angle_gamma 90.000000
_cell_volume 2337.535408
_symmetry_space_group_name_H-M "C 2/M"
_symmetry_group_IT_number 12
_symmetry_cell_setting 'monoclinic'
loop_
_space_group_symop_operation_xyz
x,y,z
-x,y,-z
-x,-y,-z
x,-y,z
1/2+x,1/2+y,z
1/2-x,1/2+y,-z
1/2-x,1/2-y,-z
1/2+x,1/2-y,z
loop_
_atom_site_type_symbol
_atom_site_label
_atom_site_fract_x
_atom_site_fract_y
_atom_site_fract_z
Si Si1 0.176933 0.714972 0.242852
Si Si2 0.076922 0.290013 0.539157
Si Si3 0.328037 0.291041 0.063077
Si Si4 0.075805 0.294416 0.046998
Si Si5 0.173100 0.710163 0.434614
Si Si6 0.327061 0.289423 0.255919
O O1 0.177559 0.500000 0.242161
O O2 0.121696 0.777463 0.146961
O O3 0.161720 0.772961 0.332159
O O4 0.252780 0.771665 0.252015
O O5 0.073532 0.500000 0.527716
O O6 0.121827 0.220769 0.481793
O O7 0.116100 0.255803 0.646816
O O8 0.000000 0.221746 0.500000
O O9 0.335666 0.500000 0.066189
O O10 0.340636 0.225518 0.166020
O O11 0.250000 0.250000 0.000000
O O12 0.380061 0.219717 0.017968
O O13 0.067148 0.500000 0.062657
O O14 0.000000 0.218633 0.000000
O O15 0.166161 0.500000 0.429061
O O16 0.250000 0.750000 0.500000
O O17 0.323282 0.500000 0.249533
#
# Coordination Sequence:
#
# PCOD9183418 Si02
#       6
#     8   8   8   8   8   8
#     4   9  17  33  55  80 109 143 185 228 272 330
#     4  10  22  37  54  83 118 144 178 232 285 332
#     4  11  22  37  59  85 115 150 194 241 287 339
#     4  10  21  38  60  86 116 151 189 231 287 348
#     4  10  19  33  55  78 105 141 181 224 271 322
#     4  10  20  36  58  81 110 148 189 231 277 336
#
# _framework density 20.53445
#
# number of rings (size 3 to 8) (size 9 to 14) (size 15 to 20)
#    0.000    2.000    3.333    0.500    0.000    3.333 
#    0.000    4.167    0.000    0.000    0.000    0.000 
#    0.000    0.000    0.000    0.000    0.000    0.000 
#
# Total GULP energy -134057.553497 kJ/mol
# GULP energy per Si atom -5585.731396 kJ/mol
# Density = 2.048771 g / cm^3
# Si number density = 20.534450 Si / 1000 Ang^3
#
#
#
# Elastic Constant Matrix: (Units=GPa)
#
#
# Indices 1 2 3 4 5 6 
#
# 1 178.6283 -9.3367 124.6173 0.0000 13.0770 0.0000
# 2 -9.3367 36.0866 -4.7223 0.0000 3.3774 0.0000
# 3 124.6173 -4.7223 228.8600 0.0000 -1.3545 0.0000
# 4 0.0000 0.0000 0.0000 15.1349 0.0000 -4.4155
# 5 13.0770 3.3774 -1.3545 0.0000 38.3128 0.0000
# 6 0.0000 0.0000 0.0000 -4.4155 0.0000 12.3132
#
#
#
# Elastic Compliance Matrix: (Units=1/GPa)
#
#
# Indices 1 2 3 4 5 6 
#
# 1 0.009615 0.002148 -0.005213 0.000000 -0.003655 0.000000
# 2 0.002148 0.028494 -0.000601 0.000000 -0.003266 0.000000
# 3 -0.005213 -0.000601 0.007208 0.000000 0.002087 0.000000
# 4 0.000000 0.000000 0.000000 0.073792 0.000000 0.026462
# 5 -0.003655 -0.003266 0.002087 0.000000 0.027710 0.000000
# 6 0.000000 0.000000 0.000000 0.026462 0.000000 0.090702
#
#
# Mechanical properties :
#
#
# Convention : Reuss Voigt Hill
#
# Bulk Modulus (GPa) = 26.32651 73.85461 50.09056
# Shear Modulus (GPa) = 19.41641 35.35330 27.38485
#
# Velocity S-wave (km/s) = 3.07832 4.15379 3.65582
# Velocity P-wave (km/s) = 5.04809 7.68437 6.50126
#
# Compressibility (1/GPa) = 0.03798452
#
# Stress axis : x y z
#
# Youngs Moduli (GPa) = 104.00945 35.09538 138.73976
#
# Poissons Ratio (x) = -0.07537 0.72319
# Poissons Ratio (y) = -0.22337 0.08335
# Poissons Ratio (z) = 0.54215 0.02108
#
# Static dielectric constant tensor:
#      x y z
#    x 1.650840 0.000000 0.040160 
#    y 0.000000 1.773130 0.000000 
#    z 0.040160 0.000000 1.667080 
# 
# From -- ./inp_files/229891.got.cif
#   From: 2010.05.17/outbox.cif.g08.bks.cpg/sg12_115_cif.got.tgz:229891.got - 2010.06.03 13:09:07.
