data_PCOD9183078
_publ_section_title
;
Structure prediction by ZEFSAII (Michael W. Deem and Ramdas Pophale) SiO2 
 PCOD9183078
Probable space group: C 2/M
;
_chemical_formula_sum "Si O2"
_cell_formula_units_Z 40
_cell_length_a 23.692725
_cell_length_b 8.596738
_cell_length_c 11.778429
_cell_angle_alpha 90.000000
_cell_angle_beta 108.053991
_cell_angle_gamma 90.000000
_cell_volume 2280.915591
_symmetry_space_group_name_H-M "C 2/M"
_symmetry_group_IT_number 12
_symmetry_cell_setting 'monoclinic'
loop_
_space_group_symop_operation_xyz
x,y,z
-x,y,-z
-x,-y,-z
x,-y,z
1/2+x,1/2+y,z
1/2-x,1/2+y,-z
1/2-x,1/2-y,-z
1/2+x,1/2-y,z
loop_
_atom_site_type_symbol
_atom_site_label
_atom_site_fract_x
_atom_site_fract_y
_atom_site_fract_z
Si Si1 0.587888 0.315080 0.108046
Si Si2 0.305195 0.814224 0.685365
Si Si3 0.055904 0.689767 0.610394
Si Si4 0.970449 0.312975 0.149457
Si Si5 0.822714 0.312127 0.433831
O O1 0.583422 0.500000 0.101076
O O2 0.650397 0.262840 0.198111
O O3 0.535281 0.249592 0.155364
O O4 0.574115 0.246986 0.975083
O O5 0.237360 0.759423 0.653904
O O6 0.324746 0.770750 0.568794
O O7 0.308948 0.000000 0.697793
O O8 0.055816 0.500000 0.608783
O O9 0.047669 0.737329 0.735687
O O10 0.117968 0.739234 0.593593
O O11 0.000000 0.741027 0.500000
O O12 0.972379 0.500000 0.146936
O O13 0.818629 0.500000 0.424891
#
# Coordination Sequence:
#
# PCOD9183078 Si02
#       5
#     8   8   8   8   8
#     4  11  21  34  52  74 103 136 171 211 255 297
#     4  10  19  33  54  77 102 134 172 210 250 299
#     4   9  17  31  53  79 105 133 163 201 252 305
#     4  10  19  33  54  78 103 132 170 209 249 302
#     4   9  18  33  53  78 106 133 166 208 253 301
#
# _framework density 17.536819000000001
#
# number of rings (size 3 to 8) (size 9 to 14) (size 15 to 20)
#    0.000    2.200    0.000    5.400    0.000    4.000 
#    0.000    3.000    0.000    4.200    0.000    0.000 
#    0.000    0.000    0.000    0.000    0.000    0.000 
#
# Total GULP energy -111649.928395 kJ/mol
# GULP energy per Si atom -5582.496420 kJ/mol
# Density = 1.749690 g / cm^3
# Si number density = 17.536819 Si / 1000 Ang^3
#
#
#
# Elastic Constant Matrix: (Units=GPa)
#
#
# Indices 1 2 3 4 5 6 
#
# 1 138.3692 30.0311 104.1144 0.0000 -5.3537 0.0000
# 2 30.0311 50.5551 35.0178 0.0000 1.6220 0.0000
# 3 104.1144 35.0178 130.9846 0.0000 6.8447 0.0000
# 4 0.0000 0.0000 0.0000 7.5345 0.0000 9.7371
# 5 -5.3537 1.6220 6.8447 0.0000 28.0798 0.0000
# 6 0.0000 0.0000 0.0000 9.7371 0.0000 25.2626
#
#
#
# Elastic Compliance Matrix: (Units=1/GPa)
#
#
# Indices 1 2 3 4 5 6 
#
# 1 0.019493 -0.001001 -0.015623 0.000000 0.007582 0.000000
# 2 -0.001001 0.024328 -0.005697 0.000000 -0.000207 0.000000
# 3 -0.015623 -0.005697 0.021994 0.000000 -0.008011 0.000000
# 4 0.000000 0.000000 0.000000 0.264442 0.000000 -0.101925
# 5 0.007582 -0.000207 -0.008011 0.000000 0.039023 0.000000
# 6 0.000000 0.000000 0.000000 -0.101925 0.000000 0.078870
#
#
# Mechanical properties :
#
#
# Convention : Reuss Voigt Hill
#
# Bulk Modulus (GPa) = 47.23067 73.13729 60.18398
# Shear Modulus (GPa) = 10.00301 22.22509 16.11405
#
# Velocity S-wave (km/s) = 2.39090 3.56383 3.03457
# Velocity P-wave (km/s) = 5.88325 7.66355 6.83164
#
# Compressibility (1/GPa) = 0.02117268
#
# Stress axis : x y z
#
# Youngs Moduli (GPa) = 51.30108 41.10470 45.46700
#
# Poissons Ratio (x) = 0.04116 0.71031
# Poissons Ratio (y) = 0.05137 0.25904
# Poissons Ratio (z) = 0.80145 0.23418
#
# Static dielectric constant tensor:
#      x y z
#    x 1.575910 0.000000 -0.006020 
#    y 0.000000 1.592270 0.000000 
#    z -0.006020 0.000000 1.581170 
# 
# From -- ./inp_files/162719.got.cif
#   From: 2010.05.17/outbox.cif.g08.bks.cpg/sg12_82_cif.got.tgz:162719.got - 2010.06.03 13:09:07.
