data_PCOD9183464
_publ_section_title
;
Structure prediction by ZEFSAII (Michael W. Deem and Ramdas Pophale) SiO2 
 PCOD9183464
Probable space group: C 2/M
;
_chemical_formula_sum "Si O2"
_cell_formula_units_Z 40
_cell_length_a 18.100247
_cell_length_b 11.144379
_cell_length_c 12.536506
_cell_angle_alpha 90.000000
_cell_angle_beta 54.430463
_cell_angle_gamma 90.000000
_cell_volume 2056.962974
_symmetry_space_group_name_H-M "C 2/M"
_symmetry_group_IT_number 12
_symmetry_cell_setting 'monoclinic'
loop_
_space_group_symop_operation_xyz
x,y,z
-x,y,-z
-x,-y,-z
x,-y,z
1/2+x,1/2+y,z
1/2-x,1/2+y,-z
1/2-x,1/2-y,-z
1/2+x,1/2-y,z
loop_
_atom_site_type_symbol
_atom_site_label
_atom_site_fract_x
_atom_site_fract_y
_atom_site_fract_z
Si Si1 0.611104 0.143883 0.806931
Si Si2 0.158325 0.367470 0.002354
Si Si3 0.945931 0.864762 0.285894
Si Si4 0.362981 0.694798 0.785452
Si Si5 0.675271 0.361112 0.406256
O O1 0.613484 0.178653 0.930491
O O2 0.559421 0.249088 0.787010
O O3 0.716269 0.151472 0.679923
O O4 0.586676 0.000000 0.817821
O O5 0.123223 0.500000 0.043742
O O6 0.266362 0.369154 0.887435
O O7 0.143064 0.302886 0.126093
O O8 0.873208 0.841533 0.440976
O O9 0.044759 0.868702 0.257545
O O10 0.928247 0.000000 0.255198
O O11 0.362729 0.718321 0.659184
O O12 0.655790 0.500000 0.391652
#
# Coordination Sequence:
#
# PCOD9183464 Si02
#       5
#     8   8   8   8   8
#     4   9  19  37  57  76 105 145 180 209 254 318
#     4   9  19  37  56  73 101 143 182 215 258 313
#     4  11  21  33  54  84 111 134 170 222 269 308
#     4  10  19  33  55  80 102 133 177 222 263 309
#     4   9  18  35  56  76 104 141 176 212 261 317
#
# _framework density 19.446145999999999
#
# number of rings (size 3 to 8) (size 9 to 14) (size 15 to 20)
#    0.000    2.400    0.000    4.200    0.000    3.200 
#    0.000   15.000    0.000    2.400    0.000    0.000 
#    0.000    0.000    0.000    0.000    0.000    0.000 
#
# Total GULP energy -111372.802793 kJ/mol
# GULP energy per Si atom -5568.640140 kJ/mol
# Density = 1.940189 g / cm^3
# Si number density = 19.446146 Si / 1000 Ang^3
#
#
#
# Elastic Constant Matrix: (Units=GPa)
#
#
# Indices 1 2 3 4 5 6 
#
# 1 104.1143 48.4126 20.5549 0.0000 5.4920 0.0000
# 2 48.4126 74.8939 37.4011 0.0000 16.4105 0.0000
# 3 20.5549 37.4011 67.7305 0.0000 2.0268 0.0000
# 4 0.0000 0.0000 0.0000 -82.7555 0.0000 78.2773
# 5 5.4920 16.4105 2.0268 0.0000 25.2003 0.0000
# 6 0.0000 0.0000 0.0000 78.2773 0.0000 -26.5535
#
#
#
# Elastic Compliance Matrix: (Units=1/GPa)
#
#
# Indices 1 2 3 4 5 6 
#
# 1 0.014072 -0.010677 0.001512 0.000000 0.003764 0.000000
# 2 -0.010677 0.030352 -0.013030 0.000000 -0.016391 0.000000
# 3 0.001512 -0.013030 0.021308 0.000000 0.006442 0.000000
# 4 0.000000 0.000000 0.000000 0.006757 0.000000 0.019918
# 5 0.003764 -0.016391 0.006442 0.000000 0.049017 0.000000
# 6 0.000000 0.000000 0.000000 0.019918 0.000000 0.021058
#
#
# Mechanical properties :
#
#
# Convention : Reuss Voigt Hill
#
# Bulk Modulus (GPa) = 46.85183 51.05290 48.95236
# Shear Modulus (GPa) = 25.76427 -7.46373 9.15027
#
# Velocity S-wave (km/s) = 3.64387 -1.96125 2.17156
# Velocity P-wave (km/s) = 6.46909 4.60237 5.61387
#
# Compressibility (1/GPa) = 0.02134389
#
# Stress axis : x y z
#
# Youngs Moduli (GPa) = 71.06193 32.94659 46.93101
#
# Poissons Ratio (x) = 0.35176 -0.07098
# Poissons Ratio (y) = 0.75869 0.61151
# Poissons Ratio (z) = -0.10747 0.42929
#
# Static dielectric constant tensor:
#      x y z
#    x 1.698070 0.000000 -0.024840 
#    y 0.000000 1.699810 0.000000 
#    z -0.024840 0.000000 1.696080 
# 
# From -- ./inp_files/141114.got.cif
#   From: 2010.05.17/outbox.cif.g08.bks.cpg/sg12_71_cif.got.tgz:141114.got - 2010.06.03 13:09:07.
