data_PCOD9183550
_publ_section_title
;
Structure prediction by ZEFSAII (Michael W. Deem and Ramdas Pophale) SiO2 
 PCOD9183550
Probable space group: C 2/M
;
_chemical_formula_sum "Si O2"
_cell_formula_units_Z 44
_cell_length_a 27.871631
_cell_length_b 14.123018
_cell_length_c 12.627214
_cell_angle_alpha 90.000000
_cell_angle_beta 151.835189
_cell_angle_gamma 90.000000
_cell_volume 2346.108510
_symmetry_space_group_name_H-M "C 2/M"
_symmetry_group_IT_number 12
_symmetry_cell_setting 'monoclinic'
loop_
_space_group_symop_operation_xyz
x,y,z
-x,y,-z
-x,-y,-z
x,-y,z
1/2+x,1/2+y,z
1/2-x,1/2+y,-z
1/2-x,1/2-y,-z
1/2+x,1/2-y,z
loop_
_atom_site_type_symbol
_atom_site_label
_atom_site_fract_x
_atom_site_fract_y
_atom_site_fract_z
Si Si1 0.386722 0.601580 0.905442
Si Si2 0.470139 0.606514 0.303511
Si Si3 0.245518 0.111109 0.006112
Si Si4 0.670079 0.729289 0.680640
Si Si5 0.000000 0.264702 0.000000
Si Si6 0.193936 0.699007 0.490539
O O1 0.418460 0.500000 0.922689
O O2 0.266344 0.612016 0.658311
O O3 0.419486 0.604636 0.090031
O O4 0.438650 0.691806 0.954259
O O5 0.513357 0.500000 0.405917
O O6 0.373258 0.621505 0.190273
O O7 0.557345 0.685266 0.473277
O O8 0.246537 0.157242 0.890826
O O9 0.270662 0.000000 0.056921
O O10 0.311183 0.173581 0.216723
O O11 0.689732 0.742602 0.593178
O O12 0.080884 0.320529 0.228321
O O13 0.250000 0.750000 0.500000
#
# Coordination Sequence:
#
# PCOD9183550 Si02
#       6
#     8   8   8   8   4   8
#     4  10  19  33  55  81 110 143 188 238 279 326
#     4  10  19  34  57  87 113 144 190 235 280 337
#     4  10  22  38  59  87 114 149 194 236 283 342
#     4  11  20  35  59  84 115 153 186 236 290 334
#     4  10  19  36  55  80 110 150 194 228 277 338
#     4  10  21  35  53  83 116 149 187 230 281 340
#
# _framework density 18.754460000000002
#
# number of rings (size 3 to 8) (size 9 to 14) (size 15 to 20)
#    0.000    1.818    3.636    1.364    0.000    1.455 
#    0.000    1.364    0.000    9.818    0.000    0.000 
#    0.000    0.000    0.000    0.000    0.000    0.000 
#
# Total GULP energy -122493.160819 kJ/mol
# GULP energy per Si atom -5567.870946 kJ/mol
# Density = 1.871177 g / cm^3
# Si number density = 18.754460 Si / 1000 Ang^3
#
#
#
# Elastic Constant Matrix: (Units=GPa)
#
#
# Indices 1 2 3 4 5 6 
#
# 1 74.4195 28.1130 52.5598 0.0000 -23.1781 0.0000
# 2 28.1130 89.5998 56.1052 0.0000 -15.3131 0.0000
# 3 52.5598 56.1052 141.0352 0.0000 -21.4807 0.0000
# 4 0.0000 0.0000 0.0000 44.3500 0.0000 20.9153
# 5 -23.1781 -15.3131 -21.4807 0.0000 26.1243 0.0000
# 6 0.0000 0.0000 0.0000 20.9153 0.0000 28.4806
#
#
#
# Elastic Compliance Matrix: (Units=1/GPa)
#
#
# Indices 1 2 3 4 5 6 
#
# 1 0.022399 -0.000930 -0.005754 0.000000 0.014596 0.000000
# 2 -0.000930 0.015358 -0.005164 0.000000 0.003931 0.000000
# 3 -0.005754 -0.005164 0.011490 0.000000 0.001315 0.000000
# 4 0.000000 0.000000 0.000000 0.034494 0.000000 -0.025332
# 5 0.014596 0.003931 0.001315 0.000000 0.054614 0.000000
# 6 0.000000 0.000000 0.000000 -0.025332 0.000000 0.053714
#
#
# Mechanical properties :
#
#
# Convention : Reuss Voigt Hill
#
# Bulk Modulus (GPa) = 39.14051 64.29006 51.71529
# Shear Modulus (GPa) = 22.29331 31.00940 26.65135
#
# Velocity S-wave (km/s) = 3.45148 4.07066 3.77379
# Velocity P-wave (km/s) = 6.06621 7.51319 6.82814
#
# Compressibility (1/GPa) = 0.02554898
#
# Stress axis : x y z
#
# Youngs Moduli (GPa) = 44.64548 65.11205 87.03559
#
# Poissons Ratio (x) = 0.06056 0.50083
# Poissons Ratio (y) = 0.04153 0.44948
# Poissons Ratio (z) = 0.25690 0.33626
#
# Static dielectric constant tensor:
#      x y z
#    x 1.727020 0.000000 -0.018830 
#    y 0.000000 1.643300 0.000000 
#    z -0.018830 0.000000 1.688300 
# 
# From -- ./inp_files/183595.got.cif
#   From: 2010.05.17/outbox.cif.g08.bks.cpg/sg12_92_cif.got.tgz:183595.got - 2010.06.03 13:09:07.
