data_PCOD9183977
_publ_section_title
;
Structure prediction by ZEFSAII (Michael W. Deem and Ramdas Pophale) SiO2 
 PCOD9183977
Probable space group: C 2/M
;
_chemical_formula_sum "Si O2"
_cell_formula_units_Z 48
_cell_length_a 26.065029
_cell_length_b 17.760073
_cell_length_c 12.597150
_cell_angle_alpha 90.000000
_cell_angle_beta 157.095669
_cell_angle_gamma 90.000000
_cell_volume 2269.556136
_symmetry_space_group_name_H-M "C 2/M"
_symmetry_group_IT_number 12
_symmetry_cell_setting 'monoclinic'
loop_
_space_group_symop_operation_xyz
x,y,z
-x,y,-z
-x,-y,-z
x,-y,z
1/2+x,1/2+y,z
1/2-x,1/2+y,-z
1/2-x,1/2-y,-z
1/2+x,1/2-y,z
loop_
_atom_site_type_symbol
_atom_site_label
_atom_site_fract_x
_atom_site_fract_y
_atom_site_fract_z
Si Si1 0.449738 0.090038 0.183699
Si Si2 0.004115 0.086843 0.835749
Si Si3 0.294297 0.908090 0.442253
Si Si4 0.783936 0.591675 0.656640
Si Si5 0.200365 0.283493 0.015732
Si Si6 0.980967 0.833263 0.590728
O O1 0.600163 0.113198 0.446229
O O2 0.378431 0.137646 0.138850
O O3 0.441760 0.000000 0.185021
O O4 0.370408 0.110529 0.924167
O O5 0.867469 0.118764 0.620750
O O6 0.993572 0.093984 0.688274
O O7 0.006234 0.000000 0.872896
O O8 0.145184 0.118388 0.139641
O O9 0.336939 0.885493 0.642306
O O10 0.294611 0.000000 0.440600
O O11 0.781281 0.500000 0.651948
O O12 0.091498 0.223925 0.844336
O O13 0.250000 0.250000 0.000000
O O14 0.336532 0.298765 0.334887
O O15 0.000000 0.845081 0.500000
#
# Coordination Sequence:
#
# PCOD9183977 Si02
#       6
#     8   8   8   8   8   8
#     4  10  19  34  60  88 117 150 194 245 286 337
#     4  10  19  33  56  86 119 152 192 241 286 335
#     4   9  18  30  52  90 125 154 186 233 295 343
#     4   9  16  30  54  85 121 156 192 233 285 344
#     4  10  22  40  60  82 110 150 193 237 298 356
#     4  10  22  39  59  80 105 151 198 239 294 356
#
# _framework density 21.149508999999998
#
# number of rings (size 3 to 8) (size 9 to 14) (size 15 to 20)
#    0.000    2.333    1.667    1.000    2.333    4.333 
#    0.000    2.500    0.000   10.500    0.000    0.000 
#    0.000    0.000    0.000    0.000    0.000    0.000 
#
# Total GULP energy -133688.750392 kJ/mol
# GULP energy per Si atom -5570.364600 kJ/mol
# Density = 2.110137 g / cm^3
# Si number density = 21.149509 Si / 1000 Ang^3
#
#
#
# Elastic Constant Matrix: (Units=GPa)
#
#
# Indices 1 2 3 4 5 6 
#
# 1 65.5245 24.3346 9.1469 0.0000 10.1595 0.0000
# 2 24.3346 23.7450 -2.0644 0.0000 8.0516 0.0000
# 3 9.1469 -2.0644 68.9563 0.0000 21.5600 0.0000
# 4 0.0000 0.0000 0.0000 17.5009 0.0000 3.2570
# 5 10.1595 8.0516 21.5600 0.0000 37.6112 0.0000
# 6 0.0000 0.0000 0.0000 3.2570 0.0000 12.7476
#
#
#
# Elastic Compliance Matrix: (Units=1/GPa)
#
#
# Indices 1 2 3 4 5 6 
#
# 1 0.025885 -0.027493 -0.004765 0.000000 0.001625 0.000000
# 2 -0.027493 0.076297 0.010619 0.000000 -0.014994 0.000000
# 3 -0.004765 0.010619 0.019202 0.000000 -0.011993 0.000000
# 4 0.000000 0.000000 0.000000 0.059993 0.000000 -0.015328
# 5 0.001625 -0.014994 -0.011993 0.000000 0.036234 0.000000
# 6 0.000000 0.000000 0.000000 -0.015328 0.000000 0.082363
#
#
# Mechanical properties :
#
#
# Convention : Reuss Voigt Hill
#
# Bulk Modulus (GPa) = 12.80290 24.56221 18.68256
# Shear Modulus (GPa) = 13.53964 22.02585 17.78275
#
# Velocity S-wave (km/s) = 2.53294 3.23063 2.90282
# Velocity P-wave (km/s) = 3.82374 5.05517 4.48195
#
# Compressibility (1/GPa) = 0.07810731
#
# Stress axis : x y z
#
# Youngs Moduli (GPa) = 38.63230 13.10661 52.07849
#
# Poissons Ratio (x) = 0.36034 0.24814
# Poissons Ratio (y) = 1.06212 -0.55303
# Poissons Ratio (z) = 0.18407 -0.13918
#
# Static dielectric constant tensor:
#      x y z
#    x 1.787370 0.000000 0.008250 
#    y 0.000000 1.782530 0.000000 
#    z 0.008250 0.000000 1.797780 
# 
# From -- ./inp_files/241882.got.cif
#   From: 2010.05.17/outbox.cif.g08.bks.cpg/sg12_121_cif.got.tgz:241882.got - 2010.06.03 13:09:07.
