data_PCOD9183790
_publ_section_title
;
Structure prediction by ZEFSAII (Michael W. Deem and Ramdas Pophale) SiO2 
 PCOD9183790
Probable space group: C 2/M
;
_chemical_formula_sum "Si O2"
_cell_formula_units_Z 64
_cell_length_a 19.572959
_cell_length_b 8.842345
_cell_length_c 19.465199
_cell_angle_alpha 90.000000
_cell_angle_beta 82.902239
_cell_angle_gamma 90.000000
_cell_volume 3343.042308
_symmetry_space_group_name_H-M "C 2/M"
_symmetry_group_IT_number 12
_symmetry_cell_setting 'monoclinic'
loop_
_space_group_symop_operation_xyz
x,y,z
-x,y,-z
-x,-y,-z
x,-y,z
1/2+x,1/2+y,z
1/2-x,1/2+y,-z
1/2-x,1/2-y,-z
1/2+x,1/2-y,z
loop_
_atom_site_type_symbol
_atom_site_label
_atom_site_fract_x
_atom_site_fract_y
_atom_site_fract_z
Si Si1 0.503318 0.823718 0.076676
Si Si2 0.508035 0.316652 0.578658
Si Si3 0.343081 0.176276 0.968301
Si Si4 0.905263 0.319355 0.701504
Si Si5 0.371791 0.325521 0.342593
Si Si6 0.754146 0.185458 0.262011
Si Si7 0.288217 0.682204 0.104172
Si Si8 0.511159 0.327901 0.787743
O O1 0.585074 0.814452 0.079810
O O2 0.467085 0.734613 0.141363
O O3 0.481840 0.000000 0.078557
O O4 0.500000 0.763629 0.000000
O O5 0.500000 0.278219 0.500000
O O6 0.507319 0.500000 0.585890
O O7 0.445583 0.252732 0.631993
O O8 0.581005 0.261002 0.601892
O O9 0.282763 0.230125 0.925426
O O10 0.330092 0.000000 0.984598
O O11 0.343314 0.257026 0.042324
O O12 0.906370 0.500000 0.695203
O O13 0.825755 0.271344 0.719533
O O14 0.951058 0.270211 0.760934
O O15 0.356459 0.500000 0.363493
O O16 0.301926 0.259499 0.319193
O O17 0.424878 0.325964 0.272110
O O18 0.784088 0.233374 0.183762
O O19 0.756860 0.000000 0.261812
O O20 0.291943 0.500000 0.104847
O O21 0.487198 0.500000 0.797180
#
# Coordination Sequence:
#
# PCOD9183790 Si02
#       8
#     8   8   8   8   8   8   8   8
#     4  10  21  34  48  67  97 134 171 216 270 318
#     4   9  18  35  58  81 109 144 175 206 247 299
#     4   9  18  32  44  62  91 123 162 205 259 315
#     4  10  19  33  56  81 105 135 170 210 255 307
#     4   8  16  31  51  76 103 133 172 211 253 306
#     4   9  17  30  50  75 101 131 169 212 259 305
#     4   9  17  29  48  66  86 121 163 208 253 304
#     4  10  20  34  53  75 101 135 177 221 261 311
#
# _framework density 19.144238000000001
#
# number of rings (size 3 to 8) (size 9 to 14) (size 15 to 20)
#    0.000    2.750    0.000    2.250    1.750    3.000 
#    0.000    4.375    0.000    7.500    0.000    0.000 
#    0.000    0.000    0.000    0.000    0.000    0.000 
#
# Total GULP energy -178302.708987 kJ/mol
# GULP energy per Si atom -5571.959656 kJ/mol
# Density = 1.910066 g / cm^3
# Si number density = 19.144238 Si / 1000 Ang^3
#
#
#
# Elastic Constant Matrix: (Units=GPa)
#
#
# Indices 1 2 3 4 5 6 
#
# 1 64.0634 5.6066 16.0924 0.0000 12.4327 0.0000
# 2 5.6066 11.4270 19.6635 0.0000 -0.1056 0.0000
# 3 16.0924 19.6635 116.6862 0.0000 11.7381 0.0000
# 4 0.0000 0.0000 0.0000 23.5819 0.0000 -2.8472
# 5 12.4327 -0.1056 11.7381 0.0000 20.3200 0.0000
# 6 0.0000 0.0000 0.0000 -2.8472 0.0000 9.1192
#
#
#
# Elastic Compliance Matrix: (Units=1/GPa)
#
#
# Indices 1 2 3 4 5 6 
#
# 1 0.018646 -0.009627 0.000216 0.000000 -0.011583 0.000000
# 2 -0.009627 0.131769 -0.022868 0.000000 0.019785 0.000000
# 3 0.000216 -0.022868 0.013185 0.000000 -0.007868 0.000000
# 4 0.000000 0.000000 0.000000 0.044067 0.000000 0.013759
# 5 -0.011583 0.019785 -0.007868 0.000000 0.060947 0.000000
# 6 0.000000 0.000000 0.000000 0.013759 0.000000 0.113955
#
#
# Mechanical properties :
#
#
# Convention : Reuss Voigt Hill
#
# Bulk Modulus (GPa) = 10.09674 30.54461 20.32068
# Shear Modulus (GPa) = 10.41361 20.65849 15.53605
#
# Velocity S-wave (km/s) = 2.33482 3.28852 2.85182
# Velocity P-wave (km/s) = 3.54316 5.51442 4.63480
#
# Compressibility (1/GPa) = 0.09904185
#
# Stress axis : x y z
#
# Youngs Moduli (GPa) = 53.63149 7.58904 75.84239
#
# Poissons Ratio (x) = 0.07306 -0.01639
# Poissons Ratio (y) = 0.51633 1.73435
# Poissons Ratio (z) = -0.01159 0.17354
#
# Static dielectric constant tensor:
#      x y z
#    x 1.715200 0.000000 0.035500 
#    y 0.000000 1.661580 0.000000 
#    z 0.035500 0.000000 1.672100 
# 
# From -- ./inp_files/319190.got.cif
#   From: 2010.05.17/outbox.cif.g08.bks.cpg/sg12_160_cif.got.tgz:319190.got - 2010.06.03 13:09:07.
