data_PCOD9183071
_publ_section_title
;
Structure prediction by ZEFSAII (Michael W. Deem and Ramdas Pophale) SiO2 
 PCOD9183071
Probable space group: C 2/M
;
_chemical_formula_sum "Si O2"
_cell_formula_units_Z 64
_cell_length_a 19.366257
_cell_length_b 8.787153
_cell_length_c 30.212406
_cell_angle_alpha 90.000000
_cell_angle_beta 137.443535
_cell_angle_gamma 90.000000
_cell_volume 3477.195851
_symmetry_space_group_name_H-M "C 2/M"
_symmetry_group_IT_number 12
_symmetry_cell_setting 'monoclinic'
loop_
_space_group_symop_operation_xyz
x,y,z
-x,y,-z
-x,-y,-z
x,-y,z
1/2+x,1/2+y,z
1/2-x,1/2+y,-z
1/2-x,1/2-y,-z
1/2+x,1/2-y,z
loop_
_atom_site_type_symbol
_atom_site_label
_atom_site_fract_x
_atom_site_fract_y
_atom_site_fract_z
Si Si1 0.611647 0.678139 0.781663
Si Si2 0.152669 0.815618 0.979655
Si Si3 0.323379 0.681902 0.907959
Si Si4 0.884657 0.816724 0.684280
Si Si5 0.652787 0.180731 0.429548
Si Si6 0.425349 0.685638 0.865774
Si Si7 0.939853 0.821922 0.346683
Si Si8 0.262971 0.683359 0.714681
O O1 0.631094 0.500000 0.800649
O O2 0.707157 0.775015 0.842151
O O3 0.502501 0.722929 0.750556
O O4 0.594949 0.694058 0.721086
O O5 0.152737 0.765391 0.031185
O O6 0.159180 0.000000 0.981331
O O7 0.250000 0.750000 0.000000
O O8 0.041083 0.770096 0.908598
O O9 0.335489 0.500000 0.914286
O O10 0.392613 0.737661 0.899624
O O11 0.852148 0.739168 0.623362
O O12 0.812995 0.778386 0.691360
O O13 0.883587 0.000000 0.676864
O O14 0.750000 0.250000 0.500000
O O15 0.547185 0.236859 0.401780
O O16 0.657679 0.000000 0.432763
O O17 0.424088 0.500000 0.865514
O O18 0.340232 0.734386 0.790191
O O19 0.847776 0.754709 0.331446
O O20 0.954746 0.000000 0.362452
O O21 0.254885 0.500000 0.713919
#
# Coordination Sequence:
#
# PCOD9183071 Si02
#       8
#     8   8   8   8   8   8   8   8
#     4   9  18  32  52  78 108 145 181 225 280 330
#     4  10  22  37  53  75 105 142 183 236 290 343
#     4  10  19  33  54  77 101 136 188 236 277 335
#     4   9  20  36  55  84 119 150 188 231 279 333
#     4  11  22  39  64  89 117 154 192 228 272 327
#     4   9  18  34  56  77 103 142 188 231 280 337
#     4  10  20  36  57  85 119 149 185 232 277 329
#     4  10  19  34  58  85 113 150 190 232 284 342
#
# _framework density 18.405636999999999
#
# number of rings (size 3 to 8) (size 9 to 14) (size 15 to 20)
#    0.000    2.250    1.250    2.625    1.750    4.500 
#    0.000    1.875    0.000    5.250    0.000    0.000 
#    0.000    0.000    0.000    0.000    0.000    0.000 
#
# Total GULP energy -178581.674669 kJ/mol
# GULP energy per Si atom -5580.677333 kJ/mol
# Density = 1.836375 g / cm^3
# Si number density = 18.405637 Si / 1000 Ang^3
#
#
#
# Elastic Constant Matrix: (Units=GPa)
#
#
# Indices 1 2 3 4 5 6 
#
# 1 149.3294 41.6859 54.4694 0.0000 27.3378 0.0000
# 2 41.6859 25.5522 23.2194 0.0000 6.6679 0.0001
# 3 54.4694 23.2194 90.1978 0.0000 24.9500 0.0000
# 4 0.0000 0.0000 0.0000 25.4622 0.0000 5.1228
# 5 27.3378 6.6679 24.9500 0.0000 24.1669 0.0000
# 6 0.0000 0.0001 0.0000 5.1228 0.0000 28.3187
#
#
#
# Elastic Compliance Matrix: (Units=1/GPa)
#
#
# Indices 1 2 3 4 5 6 
#
# 1 0.014471 -0.020326 -0.000741 0.000000 -0.009996 0.000000
# 2 -0.020326 0.079645 -0.011911 0.000000 0.013315 0.000000
# 3 -0.000741 -0.011911 0.018840 0.000000 -0.015325 0.000000
# 4 0.000000 0.000000 0.000000 0.040757 0.000000 -0.007373
# 5 -0.009996 0.013315 -0.015325 0.000000 0.064835 0.000000
# 6 0.000000 0.000000 0.000000 -0.007373 0.000000 0.036646
#
#
# Mechanical properties :
#
#
# Convention : Reuss Voigt Hill
#
# Bulk Modulus (GPa) = 21.27727 55.98097 38.62912
# Shear Modulus (GPa) = 14.84484 25.30321 20.07402
#
# Velocity S-wave (km/s) = 2.84304 3.71179 3.30607
# Velocity P-wave (km/s) = 4.72890 6.98935 5.96714
#
# Compressibility (1/GPa) = 0.04699850
#
# Stress axis : x y z
#
# Youngs Moduli (GPa) = 69.10307 12.55576 53.07879
#
# Poissons Ratio (x) = 0.25521 0.03935
# Poissons Ratio (y) = 1.40459 0.63224
# Poissons Ratio (z) = 0.05123 0.14955
#
# Static dielectric constant tensor:
#      x y z
#    x 1.635920 0.000000 -0.001270 
#    y 0.000000 1.628630 0.000000 
#    z -0.001270 0.000000 1.617100 
# 
# From -- ./inp_files/378266.got.cif
#   From: 2010.05.17/outbox.cif.g08.bks.cpg/sg12_190_cif.got.tgz:378266.got - 2010.06.03 13:09:07.
