data_PCOD9183937
_publ_section_title
;
Structure prediction by ZEFSAII (Michael W. Deem and Ramdas Pophale) SiO2 
 PCOD9183937
Probable space group: C 2/M
;
_chemical_formula_sum "Si O2"
_cell_formula_units_Z 56
_cell_length_a 30.697625
_cell_length_b 8.659272
_cell_length_c 11.785313
_cell_angle_alpha 90.000000
_cell_angle_beta 65.847326
_cell_angle_gamma 90.000000
_cell_volume 2858.514191
_symmetry_space_group_name_H-M "C 2/M"
_symmetry_group_IT_number 12
_symmetry_cell_setting 'monoclinic'
loop_
_space_group_symop_operation_xyz
x,y,z
-x,y,-z
-x,-y,-z
x,-y,z
1/2+x,1/2+y,z
1/2-x,1/2+y,-z
1/2-x,1/2-y,-z
1/2+x,1/2-y,z
loop_
_atom_site_type_symbol
_atom_site_label
_atom_site_fract_x
_atom_site_fract_y
_atom_site_fract_z
Si Si1 0.055529 0.185944 0.442795
Si Si2 0.319073 0.813905 0.987054
Si Si3 0.101071 0.813870 0.633657
Si Si4 0.014392 0.313724 0.858167
Si Si5 0.229277 0.684012 0.201798
Si Si6 0.293108 0.685115 0.528434
Si Si7 0.077860 0.313956 0.181221
O O1 0.079748 0.234261 0.534144
O O2 0.080643 0.255573 0.306424
O O3 0.000000 0.233451 0.500000
O O4 0.057398 0.000000 0.433991
O O5 0.301167 0.773770 0.878395
O O6 0.374390 0.767479 0.936887
O O7 0.315259 0.000000 0.002568
O O8 0.283042 0.736283 0.113491
O O9 0.065374 0.748415 0.765150
O O10 0.156024 0.764147 0.577829
O O11 0.099563 0.000000 0.640344
O O12 0.015732 0.500000 0.852152
O O13 0.971763 0.259042 0.820681
O O14 0.000000 0.267600 0.000000
O O15 0.227241 0.500000 0.216882
O O16 0.211401 0.760586 0.336464
O O17 0.291764 0.500000 0.528124
O O18 0.250000 0.750000 0.500000
O O19 0.077173 0.500000 0.182522
#
# Coordination Sequence:
#
# PCOD9183937 Si02
#       7
#     8   8   8   8   8   8   8
#     4  10  19  33  56  84 116 147 181 227 283 339
#     4   9  19  35  56  83 117 153 190 238 290 342
#     4  10  22  40  60  85 114 147 186 232 283 337
#     4  10  22  38  55  79 113 151 190 230 274 329
#     4  10  20  36  58  85 115 148 192 240 292 345
#     4  11  24  41  61  84 114 150 194 241 288 343
#     4  10  20  34  54  82 113 149 192 232 277 334
#
# _framework density 19.590596000000001
#
# number of rings (size 3 to 8) (size 9 to 14) (size 15 to 20)
#    0.000    2.000    1.429    1.714    0.000    4.571 
#    0.000    1.429    0.000    0.000    0.000    0.000 
#    0.000    0.000    0.000    0.000    0.000    0.000 
#
# Total GULP energy -156398.281778 kJ/mol
# GULP energy per Si atom -5585.652921 kJ/mol
# Density = 1.954601 g / cm^3
# Si number density = 19.590596 Si / 1000 Ang^3
#
#
#
# Elastic Constant Matrix: (Units=GPa)
#
#
# Indices 1 2 3 4 5 6 
#
# 1 105.7587 25.4540 59.2131 0.0000 -31.1107 0.0000
# 2 25.4540 16.8072 27.1369 0.0000 -6.8681 0.0000
# 3 59.2131 27.1369 138.8969 0.0000 -24.4038 0.0000
# 4 0.0000 0.0000 0.0000 35.1491 0.0000 -3.8474
# 5 -31.1107 -6.8681 -24.4038 0.0000 36.4790 0.0000
# 6 0.0000 0.0000 0.0000 -3.8474 0.0000 21.7360
#
#
#
# Elastic Compliance Matrix: (Units=1/GPa)
#
#
# Indices 1 2 3 4 5 6 
#
# 1 0.018735 -0.020656 -0.002071 0.000000 0.010704 0.000000
# 2 -0.020656 0.110739 -0.013895 0.000000 -0.006062 0.000000
# 3 -0.002071 -0.013895 0.011363 0.000000 0.003219 0.000000
# 4 0.000000 0.000000 0.000000 0.029012 0.000000 0.005135
# 5 0.010704 -0.006062 0.003219 0.000000 0.037554 0.000000
# 6 0.000000 0.000000 0.000000 0.005135 0.000000 0.046916
#
#
# Mechanical properties :
#
#
# Convention : Reuss Voigt Hill
#
# Bulk Modulus (GPa) = 14.79443 53.89674 34.34558
# Shear Modulus (GPa) = 14.28194 28.65007 21.46600
#
# Velocity S-wave (km/s) = 2.70297 3.82833 3.31377
# Velocity P-wave (km/s) = 4.16048 6.86388 5.67549
#
# Compressibility (1/GPa) = 0.06759300
#
# Stress axis : x y z
#
# Youngs Moduli (GPa) = 53.37588 9.03027 88.00820
#
# Poissons Ratio (x) = 0.18653 0.18223
# Poissons Ratio (y) = 1.10256 1.22283
# Poissons Ratio (z) = 0.11052 0.12547
#
# Static dielectric constant tensor:
#      x y z
#    x 1.702300 0.000000 -0.009160 
#    y 0.000000 1.663130 0.000000 
#    z -0.009160 0.000000 1.661860 
# 
# From -- ./inp_files/187136.got.cif
#   From: 2010.05.17/outbox.cif.g08.bks.cpg/sg12_94_cif.got.tgz:187136.got - 2010.06.03 13:09:07.
