data_PCOD9183106
_publ_section_title
;
Structure prediction by ZEFSAII (Michael W. Deem and Ramdas Pophale) SiO2 
 PCOD9183106
Probable space group: C 2/M
;
_chemical_formula_sum "Si O2"
_cell_formula_units_Z 40
_cell_length_a 25.765845
_cell_length_b 8.894478
_cell_length_c 25.665291
_cell_angle_alpha 90.000000
_cell_angle_beta 23.159610
_cell_angle_gamma 90.000000
_cell_volume 2313.280165
_symmetry_space_group_name_H-M "C 2/M"
_symmetry_group_IT_number 12
_symmetry_cell_setting 'monoclinic'
loop_
_space_group_symop_operation_xyz
x,y,z
-x,y,-z
-x,-y,-z
x,-y,z
1/2+x,1/2+y,z
1/2-x,1/2+y,-z
1/2-x,1/2-y,-z
1/2+x,1/2-y,z
loop_
_atom_site_type_symbol
_atom_site_label
_atom_site_fract_x
_atom_site_fract_y
_atom_site_fract_z
Si Si1 0.347379 0.678628 0.867422
Si Si2 0.798126 0.821473 0.090977
Si Si3 0.642247 0.320962 0.637371
Si Si4 0.341603 0.827244 0.156172
Si Si5 0.083825 0.681132 0.800833
O O1 0.324230 0.500000 0.886189
O O2 0.312128 0.752817 0.844870
O O3 0.496826 0.704728 0.747515
O O4 0.250000 0.750000 0.000000
O O5 0.780540 0.773609 0.167330
O O6 0.803982 0.000000 0.080231
O O7 0.938175 0.751634 0.942913
O O8 0.661281 0.500000 0.624835
O O9 0.750000 0.250000 0.500000
O O10 0.643899 0.243960 0.692423
O O11 0.331144 0.780049 0.226015
O O12 0.297217 0.000000 0.191039
O O13 0.500000 0.826341 0.000000
O O14 0.071292 0.500000 0.811101
#
# Coordination Sequence:
#
# PCOD9183106 Si02
#       5
#     8   8   8   8   8
#     4  11  22  36  56  81 110 145 183 226 274 326
#     4  11  20  30  50  81 112 143 179 224 275 322
#     4  11  24  39  57  81 110 146 186 224 274 331
#     4   8  16  30  48  74 106 142 178 219 273 324
#     4  10  19  33  54  77 108 145 182 226 272 321
#
# _framework density 17.291464000000001
#
# number of rings (size 3 to 8) (size 9 to 14) (size 15 to 20)
#    0.000    1.800    2.000    4.800    0.000    6.800 
#    0.000    0.000    0.000    1.200    0.000    8.400 
#    0.000    0.000    0.000    0.000    0.000    0.000 
#
# Total GULP energy -111638.925472 kJ/mol
# GULP energy per Si atom -5581.946274 kJ/mol
# Density = 1.725211 g / cm^3
# Si number density = 17.291464 Si / 1000 Ang^3
#
#
#
# Elastic Constant Matrix: (Units=GPa)
#
#
# Indices 1 2 3 4 5 6 
#
# 1 169.3076 86.8323 53.4778 0.0006 25.9034 -0.0005
# 2 86.8323 112.8604 55.6400 -0.0010 5.9093 0.0005
# 3 53.4778 55.6400 68.4756 -0.0010 16.9724 0.0007
# 4 0.0006 -0.0010 -0.0010 22.0327 0.0000 4.0888
# 5 25.9034 5.9093 16.9724 0.0000 21.1572 0.0001
# 6 -0.0005 0.0005 0.0007 4.0888 0.0001 33.3956
#
#
#
# Elastic Compliance Matrix: (Units=1/GPa)
#
#
# Indices 1 2 3 4 5 6 
#
# 1 0.012472 -0.009602 0.001475 -0.000001 -0.013771 0.000000
# 2 -0.009602 0.023021 -0.015636 0.000001 0.017869 0.000000
# 3 0.001475 -0.015636 0.031856 0.000001 -0.022994 0.000000
# 4 -0.000001 0.000001 0.000001 0.046442 0.000000 -0.005686
# 5 -0.013771 0.017869 -0.022994 0.000000 0.077580 0.000000
# 6 0.000000 0.000000 0.000000 -0.005686 0.000000 0.030640
#
#
# Mechanical properties :
#
#
# Convention : Reuss Voigt Hill
#
# Bulk Modulus (GPa) = 50.44547 82.50489 66.47518
# Shear Modulus (GPa) = 18.10651 25.63001 21.86826
#
# Velocity S-wave (km/s) = 3.23946 3.85416 3.56010
# Velocity P-wave (km/s) = 6.57488 8.22337 7.44490
#
# Compressibility (1/GPa) = 0.01982338
#
# Stress axis : x y z
#
# Youngs Moduli (GPa) = 80.18071 43.43930 31.39133
#
# Poissons Ratio (x) = 0.41709 -0.04630
# Poissons Ratio (y) = 0.76987 0.49083
# Poissons Ratio (z) = -0.11826 0.67921
#
# Static dielectric constant tensor:
#      x y z
#    x 1.615000 0.000000 0.011630 
#    y 0.000000 1.575690 0.000000 
#    z 0.011630 0.000000 1.556450 
# 
# From -- ./inp_files/92775.got.cif
#   From: 2010.05.17/outbox.cif.g08.bks.cpg/sg12_47_cif.got.tgz:92775.got - 2010.06.03 13:09:07.
