data_PCOD9183374
_publ_section_title
;
Structure prediction by ZEFSAII (Michael W. Deem and Ramdas Pophale) SiO2 
 PCOD9183374
Probable space group: C 2/M
;
_chemical_formula_sum "Si O2"
_cell_formula_units_Z 64
_cell_length_a 20.000101
_cell_length_b 14.467840
_cell_length_c 27.130373
_cell_angle_alpha 90.000000
_cell_angle_beta 25.647440
_cell_angle_gamma 90.000000
_cell_volume 3397.905660
_symmetry_space_group_name_H-M "C 2/M"
_symmetry_group_IT_number 12
_symmetry_cell_setting 'monoclinic'
loop_
_space_group_symop_operation_xyz
x,y,z
-x,y,-z
-x,-y,-z
x,-y,z
1/2+x,1/2+y,z
1/2-x,1/2+y,-z
1/2-x,1/2-y,-z
1/2+x,1/2-y,z
loop_
_atom_site_type_symbol
_atom_site_label
_atom_site_fract_x
_atom_site_fract_y
_atom_site_fract_z
Si Si1 0.912300 0.397912 0.253339
Si Si2 0.431814 0.106239 0.122134
Si Si3 0.968598 0.893158 0.937744
Si Si4 0.292700 0.391579 0.869283
Si Si5 0.917657 0.214010 0.874334
Si Si6 0.361498 0.292254 0.726190
Si Si7 0.748884 0.105437 0.172262
Si Si8 0.059080 0.893657 0.515063
O O1 0.981650 0.500000 0.219814
O O2 0.900777 0.397058 0.201286
O O3 0.743791 0.393173 0.389390
O O4 0.999690 0.302396 0.204988
O O5 0.308299 0.174478 0.180082
O O6 0.411161 0.000000 0.117341
O O7 0.610016 0.134701 0.995050
O O8 0.989747 0.827331 0.876674
O O9 0.112803 0.892678 0.879375
O O10 0.947065 0.000000 0.935704
O O11 0.823154 0.868957 0.069745
O O12 0.292932 0.500000 0.861237
O O13 0.384769 0.365752 0.857129
O O14 0.373609 0.341659 0.770389
O O15 0.750000 0.250000 0.000000
O O16 0.366663 0.183422 0.732669
O O17 0.484125 0.329172 0.605667
O O18 0.691959 0.000000 0.207310
O O19 0.000000 0.867126 0.500000
O O20 0.006866 0.000000 0.558568
#
# Coordination Sequence:
#
# PCOD9183374 Si02
#       8
#     8   8   8   8   8   8   8   8
#     4  10  21  37  56  84 118 147 188 238 282 333
#     4  10  19  33  54  85 119 144 176 234 298 348
#     4   9  19  35  53  76 111 151 186 230 279 334
#     4  11  24  36  51  85 122 151 184 233 290 348
#     4  12  22  34  55  80 112 155 193 226 278 342
#     4  12  21  34  61  84 115 150 189 231 295 346
#     4   9  20  35  54  81 111 145 190 235 280 332
#     4  10  20  36  59  87 114 145 187 237 288 342
#
# _framework density 18.835132000000002
#
# number of rings (size 3 to 8) (size 9 to 14) (size 15 to 20)
#    0.000    1.625    2.500    4.125    3.500    1.500 
#    0.000    1.250    0.000    1.875    0.000    0.000 
#    0.000    0.000    0.000    0.000    0.000    0.000 
#
# Total GULP energy -178669.761656 kJ/mol
# GULP energy per Si atom -5583.430052 kJ/mol
# Density = 1.879226 g / cm^3
# Si number density = 18.835132 Si / 1000 Ang^3
#
#
#
# Elastic Constant Matrix: (Units=GPa)
#
#
# Indices 1 2 3 4 5 6 
#
# 1 37.3312 7.2522 16.1064 -0.0064 11.9101 0.0015
# 2 7.2522 100.0751 52.9127 0.0102 13.2191 -0.0045
# 3 16.1064 52.9127 90.5975 0.0231 22.5913 -0.0110
# 4 -0.0064 0.0102 0.0231 9.0747 -0.0018 22.9524
# 5 11.9101 13.2191 22.5913 -0.0018 23.4281 0.0006
# 6 0.0015 -0.0045 -0.0110 22.9524 0.0006 0.0511
#
#
#
# Elastic Compliance Matrix: (Units=1/GPa)
#
#
# Indices 1 2 3 4 5 6 
#
# 1 0.032364 0.001013 -0.002765 -0.000003 -0.014358 0.000011
# 2 0.001013 0.014488 -0.008525 -0.000001 -0.000470 0.000003
# 3 -0.002765 -0.008525 0.019694 0.000008 -0.012774 -0.000021
# 4 -0.000003 -0.000001 0.000008 -0.000097 -0.000007 0.043607
# 5 -0.014358 -0.000470 -0.012774 -0.000007 0.062566 0.000017
# 6 0.000011 0.000003 -0.000021 0.043607 0.000017 -0.017241
#
#
# Mechanical properties :
#
#
# Convention : Reuss Voigt Hill
#
# Bulk Modulus (GPa) = 21.74248 42.28294 32.01271
# Shear Modulus (GPa) = 33.86173 16.62628 25.24400
#
# Velocity S-wave (km/s) = 4.24464 2.97430 3.66493
# Velocity P-wave (km/s) = 5.96584 5.85602 5.91119
#
# Compressibility (1/GPa) = 0.04599292
#
# Stress axis : x y z
#
# Youngs Moduli (GPa) = 30.89832 69.02037 50.77760
#
# Poissons Ratio (x) = -0.06994 0.14041
# Poissons Ratio (y) = -0.03131 0.43287
# Poissons Ratio (z) = 0.08544 0.58839
#
# Static dielectric constant tensor:
#      x y z
#    x 1.667750 -0.000010 -0.012790 
#    y -0.000010 1.702440 0.000000 
#    z -0.012790 0.000000 1.625360 
# 
# From -- ./inp_files/344004.got.cif
#   From: 2010.05.17/outbox.cif.g08.bks.cpg/sg12_173_cif.got.tgz:344004.got - 2010.06.03 13:09:07.
