data_PCOD9183254
_publ_section_title
;
Structure prediction by ZEFSAII (Michael W. Deem and Ramdas Pophale) SiO2 
 PCOD9183254
Probable space group: C 2/M
;
_chemical_formula_sum "Si O2"
_cell_formula_units_Z 64
_cell_length_a 20.944399
_cell_length_b 7.707883
_cell_length_c 23.737779
_cell_angle_alpha 90.000000
_cell_angle_beta 136.654756
_cell_angle_gamma 90.000000
_cell_volume 2630.363908
_symmetry_space_group_name_H-M "C 2/M"
_symmetry_group_IT_number 12
_symmetry_cell_setting 'monoclinic'
loop_
_space_group_symop_operation_xyz
x,y,z
-x,y,-z
-x,-y,-z
x,-y,z
1/2+x,1/2+y,z
1/2-x,1/2+y,-z
1/2-x,1/2-y,-z
1/2+x,1/2-y,z
loop_
_atom_site_type_symbol
_atom_site_label
_atom_site_fract_x
_atom_site_fract_y
_atom_site_fract_z
Si Si1 0.950553 0.798528 0.522784
Si Si2 0.261906 0.789783 0.347627
Si Si3 0.060530 0.196799 0.254773
Si Si4 0.132658 0.701317 0.921935
Si Si5 0.814816 0.790468 0.815408
Si Si6 0.782672 0.710366 0.137865
Si Si7 0.019512 0.293526 0.950520
Si Si8 0.515742 0.799919 0.685702
O O1 0.842505 0.783318 0.438140
O O2 0.985201 0.715254 0.602175
O O3 0.000000 0.718962 0.500000
O O4 0.976928 0.000000 0.543947
O O5 0.161010 0.732560 0.304386
O O6 0.261238 0.741028 0.280698
O O7 0.267011 0.000000 0.353879
O O8 0.050618 0.195118 0.315632
O O9 0.968541 0.291625 0.173634
O O10 0.054306 0.000000 0.228493
O O11 0.155391 0.500000 0.944124
O O12 0.202392 0.772841 0.917665
O O13 0.101246 0.779778 0.962609
O O14 0.793063 0.726078 0.864946
O O15 0.915942 0.730863 0.859073
O O16 0.815242 0.000000 0.817896
O O17 0.776037 0.500000 0.130130
O O18 0.878811 0.753484 0.232193
O O19 0.036392 0.500000 0.966147
O O20 0.000000 0.216765 0.000000
O O21 0.508680 0.000000 0.698074
#
# Coordination Sequence:
#
# PCOD9183254 Si02
#       8
#     8   8   8   8   8   8   8   8
#     4  11  24  38  52  75 107 142 182 232 283 323
#     4  10  21  35  54  78 105 141 179 222 277 334
#     4  10  19  33  54  81 109 135 174 227 276 319
#     4   9  17  33  55  78 107 145 186 219 265 329
#     4  10  19  35  57  82 108 135 180 229 270 322
#     4   8  16  31  55  81 103 137 182 227 267 315
#     4  10  21  36  55  80 112 147 180 219 269 327
#     4  10  20  36  57  78 106 146 187 221 269 330
#
# _framework density 24.331233999999998
#
# number of rings (size 3 to 8) (size 9 to 14) (size 15 to 20)
#    0.000    2.250    1.250    2.625    0.000    4.250 
#    0.000    3.750    0.000    0.000    0.000    0.000 
#    0.000    0.000    0.000    0.000    0.000    0.000 
#
# Total GULP energy -178741.314073 kJ/mol
# GULP energy per Si atom -5585.666065 kJ/mol
# Density = 2.427586 g / cm^3
# Si number density = 24.331234 Si / 1000 Ang^3
#
#
#
# Elastic Constant Matrix: (Units=GPa)
#
#
# Indices 1 2 3 4 5 6 
#
# 1 186.1647 11.2494 30.4464 0.0000 -14.9581 0.0000
# 2 11.2494 58.4191 14.2602 0.0002 -0.5313 0.0001
# 3 30.4464 14.2602 81.5114 0.0000 -21.0543 0.0000
# 4 0.0000 0.0002 0.0000 -2.1258 0.0000 14.3754
# 5 -14.9581 -0.5313 -21.0543 0.0000 44.4885 0.0000
# 6 0.0000 0.0001 0.0000 14.3754 0.0000 8.3469
#
#
#
# Elastic Compliance Matrix: (Units=1/GPa)
#
#
# Indices 1 2 3 4 5 6 
#
# 1 0.005789 -0.000675 -0.001758 0.000000 0.001106 0.000000
# 2 -0.000675 0.018042 -0.003312 0.000000 -0.001579 0.000000
# 3 -0.001758 -0.003312 0.015200 0.000000 0.006562 0.000000
# 4 0.000000 0.000000 0.000000 -0.037197 0.000000 0.064063
# 5 0.001106 -0.001579 0.006562 0.000000 0.025936 0.000000
# 6 0.000000 0.000000 0.000000 0.064063 0.000000 0.009474
#
#
# Mechanical properties :
#
#
# Convention : Reuss Voigt Hill
#
# Bulk Modulus (GPa) = 36.31257 48.66746 42.49001
# Shear Modulus (GPa) = 86.33456 28.15119 57.24288
#
# Velocity S-wave (km/s) = 5.96322 3.40516 4.85567
# Velocity P-wave (km/s) = 7.89747 5.95866 6.99556
#
# Compressibility (1/GPa) = 0.02753867
#
# Stress axis : x y z
#
# Youngs Moduli (GPa) = 172.74574 55.42670 65.79162
#
# Poissons Ratio (x) = 0.03744 0.11569
# Poissons Ratio (y) = 0.11668 0.21790
# Poissons Ratio (z) = 0.30376 0.18357
#
# Static dielectric constant tensor:
#      x y z
#    x 1.994510 0.000000 -0.027680 
#    y 0.000000 1.877540 0.000000 
#    z -0.027680 0.000000 1.988700 
# 
# From -- ./inp_files/346276.got.cif
#   From: 2010.05.17/outbox.cif.g08.bks.cpg/sg12_174_cif.got.tgz:346276.got - 2010.06.03 13:09:07.
