data_PCOD9183658
_publ_section_title
;
Structure prediction by ZEFSAII (Michael W. Deem and Ramdas Pophale) SiO2 
 PCOD9183658
Probable space group: C 2/M
;
_chemical_formula_sum "Si O2"
_cell_formula_units_Z 64
_cell_length_a 5.511777
_cell_length_b 26.784926
_cell_length_c 19.967357
_cell_angle_alpha 90.000000
_cell_angle_beta 89.888845
_cell_angle_gamma 90.000000
_cell_volume 2947.826065
_symmetry_space_group_name_H-M "C 2/M"
_symmetry_group_IT_number 12
_symmetry_cell_setting 'monoclinic'
loop_
_space_group_symop_operation_xyz
x,y,z
-x,y,-z
-x,-y,-z
x,-y,z
1/2+x,1/2+y,z
1/2-x,1/2+y,-z
1/2-x,1/2-y,-z
1/2+x,1/2-y,z
loop_
_atom_site_type_symbol
_atom_site_label
_atom_site_fract_x
_atom_site_fract_y
_atom_site_fract_z
Si Si1 0.747893 0.060004 0.467357
Si Si2 0.564016 0.261914 0.097796
Si Si3 0.196974 0.444927 0.200160
Si Si4 0.998230 0.056144 0.664644
Si Si5 0.960570 0.129435 0.858920
Si Si6 0.251163 0.942267 0.041020
Si Si7 0.664567 0.876529 0.731357
Si Si8 0.914950 0.725032 0.747728
O O1 0.500000 0.079805 0.500000
O O2 0.788907 0.067463 0.388220
O O3 0.000000 0.078235 0.500000
O O4 0.742983 0.000000 0.477708
O O5 0.830047 0.263173 0.066503
O O6 0.489922 0.319381 0.104963
O O7 0.589272 0.234747 0.171351
O O8 0.173813 0.500000 0.170951
O O9 0.388898 0.446697 0.261423
O O10 0.305135 0.405020 0.149456
O O11 0.956391 0.424870 0.234622
O O12 0.802227 0.100477 0.667616
O O13 0.901216 0.000000 0.647981
O O14 0.765871 0.096430 0.898464
O O15 0.857814 0.143698 0.785710
O O16 0.242886 0.000000 0.064080
O O17 0.500000 0.935695 0.000000
O O18 0.000000 0.934218 0.000000
O O19 0.467643 0.832427 0.727840
O O20 0.154752 0.755073 0.723349
#
# Coordination Sequence:
#
# PCOD9183658 Si02
#       8
#     8   8   8   8   8   8   8   8
#     4   9  18  32  52  72  99 150 201 230 263 313
#     4  10  19  33  55  84 109 140 174 224 272 330
#     4  10  21  33  50  80 116 149 182 224 278 339
#     4   9  20  34  47  77 119 151 185 232 275 322
#     4  11  22  36  60  82 108 147 190 222 284 343
#     4  10  24  44  62  82 109 144 189 239 275 317
#     4  11  21  32  56  82 113 151 181 224 285 344
#     4  10  19  34  52  78 110 143 178 222 269 333
#
# _framework density 21.710915
#
# number of rings (size 3 to 8) (size 9 to 14) (size 15 to 20)
#    0.000    2.000    2.500    2.250    5.250    1.500 
#    0.000    0.000    0.000    2.250    0.000    0.000 
#    0.000    3.000    0.000    0.000    0.000    0.000 
#
# Total GULP energy -178650.523041 kJ/mol
# GULP energy per Si atom -5582.828845 kJ/mol
# Density = 2.166150 g / cm^3
# Si number density = 21.710915 Si / 1000 Ang^3
#
#
#
# Elastic Constant Matrix: (Units=GPa)
#
#
# Indices 1 2 3 4 5 6 
#
# 1 116.7177 19.6138 20.3172 0.0000 -31.2246 0.0000
# 2 19.6138 70.2909 21.3960 0.0000 -18.0441 0.0000
# 3 20.3172 21.3960 50.0960 0.0000 -19.8030 0.0000
# 4 0.0000 0.0000 0.0000 2.1138 0.0000 3.6803
# 5 -31.2246 -18.0441 -19.8030 0.0000 31.3143 0.0000
# 6 0.0000 0.0000 0.0000 3.6803 0.0000 -11.9771
#
#
#
# Elastic Compliance Matrix: (Units=1/GPa)
#
#
# Indices 1 2 3 4 5 6 
#
# 1 0.011691 -0.000300 -0.000098 0.000000 0.011423 0.000000
# 2 -0.000300 0.017478 -0.004640 0.000000 0.006838 0.000000
# 3 -0.000098 -0.004640 0.027850 0.000000 0.014841 0.000000
# 4 0.000000 0.000000 0.000000 0.308195 0.000000 0.094701
# 5 0.011423 0.006838 0.014841 0.000000 0.056649 0.000000
# 6 0.000000 0.000000 0.000000 0.094701 0.000000 -0.054393
#
#
# Mechanical properties :
#
#
# Convention : Reuss Voigt Hill
#
# Bulk Modulus (GPa) = 21.30286 39.97318 30.63802
# Shear Modulus (GPa) = 12.71638 16.00871 14.36255
#
# Velocity S-wave (km/s) = 2.42278 2.71838 2.57482
# Velocity P-wave (km/s) = 4.20236 5.32018 4.79396
#
# Compressibility (1/GPa) = 0.04694206
#
# Stress axis : x y z
#
# Youngs Moduli (GPa) = 85.53626 57.21459 35.90701
#
# Poissons Ratio (x) = 0.01717 0.00352
# Poissons Ratio (y) = 0.02568 0.16662
# Poissons Ratio (z) = 0.00837 0.26549
#
# Static dielectric constant tensor:
#      x y z
#    x 1.869250 0.000000 -0.009270 
#    y 0.000000 1.786240 0.000000 
#    z -0.009270 0.000000 1.845470 
# 
# From -- ./inp_files/298298.got.cif
#   From: 2010.05.17/outbox.cif.g08.bks.cpg/sg12_150_cif.got.tgz:298298.got - 2010.06.03 13:09:07.
