data_PCOD9183931
_publ_section_title
;
Structure prediction by ZEFSAII (Michael W. Deem and Ramdas Pophale) SiO2 
 PCOD9183931
Probable space group: C 2/M
;
_chemical_formula_sum "Si O2"
_cell_formula_units_Z 48
_cell_length_a 28.873237
_cell_length_b 8.956127
_cell_length_c 10.473877
_cell_angle_alpha 90.000000
_cell_angle_beta 89.855796
_cell_angle_gamma 90.000000
_cell_volume 2708.456176
_symmetry_space_group_name_H-M "C 2/M"
_symmetry_group_IT_number 12
_symmetry_cell_setting 'monoclinic'
loop_
_space_group_symop_operation_xyz
x,y,z
-x,y,-z
-x,-y,-z
x,-y,z
1/2+x,1/2+y,z
1/2-x,1/2+y,-z
1/2-x,1/2-y,-z
1/2+x,1/2-y,z
loop_
_atom_site_type_symbol
_atom_site_label
_atom_site_fract_x
_atom_site_fract_y
_atom_site_fract_z
Si Si1 0.391279 0.179425 0.743407
Si Si2 0.201712 0.179287 0.647823
Si Si3 0.299549 0.321816 0.651781
Si Si4 0.554366 0.178282 0.515826
Si Si5 0.554023 0.180393 0.001060
Si Si6 0.896442 0.821274 0.242681
O O1 0.341126 0.253738 0.733151
O O2 0.419297 0.218365 0.614709
O O3 0.420785 0.223196 0.867228
O O4 0.386031 0.000000 0.745836
O O5 0.249355 0.257034 0.687111
O O6 0.192754 0.218274 0.498509
O O7 0.157074 0.222013 0.730890
O O8 0.207391 0.000000 0.653476
O O9 0.299493 0.500000 0.661549
O O10 0.500000 0.207286 0.500000
O O11 0.575218 0.265794 0.634536
O O12 0.560202 0.000000 0.537476
O O13 0.555028 0.000000 0.991227
O O14 0.500000 0.225851 0.000000
O O15 0.581470 0.248950 0.882408
O O16 0.898452 0.000000 0.234249
#
# Coordination Sequence:
#
# PCOD9183931 Si02
#       6
#     8   8   8   8   8   8
#     4  10  20  35  57  83 112 148 188 234 284 332
#     4   9  19  35  54  81 116 148 182 228 282 338
#     4  10  19  33  56  84 114 146 184 232 283 337
#     4  10  20  35  57  83 110 145 190 235 279 333
#     4  10  22  41  61  81 112 154 197 235 275 333
#     4  11  22  37  57  85 117 148 184 233 288 337
#
# _framework density 17.722272
#
# number of rings (size 3 to 8) (size 9 to 14) (size 15 to 20)
#    0.000    2.000    1.667    2.000    0.000    6.000 
#    0.000    2.500    0.000    0.000    0.000    0.000 
#    0.000    0.000    0.000    0.000    0.000    0.000 
#
# Total GULP energy -134014.446275 kJ/mol
# GULP energy per Si atom -5583.935261 kJ/mol
# Density = 1.768194 g / cm^3
# Si number density = 17.722272 Si / 1000 Ang^3
#
#
#
# Elastic Constant Matrix: (Units=GPa)
#
#
# Indices 1 2 3 4 5 6 
#
# 1 157.2568 41.2648 66.2096 0.0000 8.5840 0.0000
# 2 41.2648 17.0052 32.0514 0.0000 4.5839 0.0000
# 3 66.2096 32.0514 104.0945 0.0000 7.7570 0.0000
# 4 0.0000 0.0000 0.0000 15.6068 0.0000 9.8074
# 5 8.5840 4.5839 7.7570 0.0000 32.3272 0.0000
# 6 0.0000 0.0000 0.0000 9.8074 0.0000 10.5218
#
#
#
# Elastic Compliance Matrix: (Units=1/GPa)
#
#
# Indices 1 2 3 4 5 6 
#
# 1 0.018583 -0.054876 0.004954 0.000000 0.001658 0.000000
# 2 -0.054876 0.305229 -0.057975 0.000000 -0.014797 0.000000
# 3 0.004954 -0.057975 0.024225 0.000000 0.001092 0.000000
# 4 0.000000 0.000000 0.000000 0.154670 0.000000 -0.144168
# 5 0.001658 -0.014797 0.001092 0.000000 0.032330 0.000000
# 6 0.000000 0.000000 0.000000 -0.144168 0.000000 0.229420
#
#
# Mechanical properties :
#
#
# Convention : Reuss Voigt Hill
#
# Bulk Modulus (GPa) = 7.56193 61.93420 34.74807
# Shear Modulus (GPa) = 4.88124 20.94653 12.91389
#
# Velocity S-wave (km/s) = 1.66141 3.44165 2.70234
# Velocity P-wave (km/s) = 2.82073 7.12855 5.42092
#
# Compressibility (1/GPa) = 0.13224140
#
# Stress axis : x y z
#
# Youngs Moduli (GPa) = 53.81368 3.27623 41.27916
#
# Poissons Ratio (x) = 0.17979 -0.20448
# Poissons Ratio (y) = 2.95310 2.39315
# Poissons Ratio (z) = -0.26657 0.18994
#
# Static dielectric constant tensor:
#      x y z
#    x 1.590430 0.000000 -0.005010 
#    y 0.000000 1.589970 0.000000 
#    z -0.005010 0.000000 1.581400 
# 
# From -- ./inp_files/108679.got.cif
#   From: 2010.05.17/outbox.cif.g08.bks.cpg/sg12_55_cif.got.tgz:108679.got - 2010.06.03 13:09:07.
