data_PCOD9183457
_publ_section_title
;
Structure prediction by ZEFSAII (Michael W. Deem and Ramdas Pophale) SiO2 
 PCOD9183457
Probable space group: C 2/M
;
_chemical_formula_sum "Si O2"
_cell_formula_units_Z 40
_cell_length_a 18.410416
_cell_length_b 7.748320
_cell_length_c 20.613114
_cell_angle_alpha 90.000000
_cell_angle_beta 132.620182
_cell_angle_gamma 90.000000
_cell_volume 2163.760236
_symmetry_space_group_name_H-M "C 2/M"
_symmetry_group_IT_number 12
_symmetry_cell_setting 'monoclinic'
loop_
_space_group_symop_operation_xyz
x,y,z
-x,y,-z
-x,-y,-z
x,-y,z
1/2+x,1/2+y,z
1/2-x,1/2+y,-z
1/2-x,1/2-y,-z
1/2+x,1/2-y,z
loop_
_atom_site_type_symbol
_atom_site_label
_atom_site_fract_x
_atom_site_fract_y
_atom_site_fract_z
Si Si1 0.335549 0.500000 0.397802
Si Si2 0.525330 0.790225 0.088395
Si Si3 0.359883 0.793145 0.089041
Si Si4 0.014800 0.000000 0.401133
Si Si5 0.913768 0.296573 0.266788
Si Si6 0.758843 0.804695 0.731641
O O1 0.427393 0.500000 0.402489
O O2 0.383756 0.500000 0.497745
O O3 0.271471 0.667115 0.340998
O O4 0.440419 0.729762 0.086219
O O5 0.631541 0.726750 0.175980
O O6 0.527778 0.000000 0.090494
O O7 0.500000 0.735482 0.000000
O O8 0.384723 0.736698 0.177073
O O9 0.366894 0.000000 0.094337
O O10 0.250000 0.750000 0.000000
O O11 0.995364 0.829530 0.346630
O O12 0.942086 0.500000 0.282928
O O13 0.817421 0.282109 0.254568
O O14 0.748424 0.000000 0.701533
#
# Coordination Sequence:
#
# PCOD9183457 Si02
#       6
#     4   8   8   4   8   8
#     4   9  18  34  53  84 110 130 180 223 268 326
#     4  10  20  34  53  78 109 147 180 219 263 315
#     4  10  21  34  51  78 110 144 178 223 261 313
#     4   9  18  32  58  80 105 144 169 221 282 312
#     4   9  19  34  52  80 109 138 180 222 262 315
#     4  10  19  33  55  79 108 143 175 222 268 314
#
# _framework density 18.486336999999999
#
# number of rings (size 3 to 8) (size 9 to 14) (size 15 to 20)
#    0.000    2.400    1.000    1.200    1.400    2.000 
#    0.000    4.000    0.000    1.200    0.000    0.000 
#    0.000    0.000    0.000    0.000    0.000    0.000 
#
# Total GULP energy -111611.643726 kJ/mol
# GULP energy per Si atom -5580.582186 kJ/mol
# Density = 1.844426 g / cm^3
# Si number density = 18.486337 Si / 1000 Ang^3
#
#
#
# Elastic Constant Matrix: (Units=GPa)
#
#
# Indices 1 2 3 4 5 6 
#
# 1 58.7878 48.5793 64.1484 0.0000 -5.7754 0.0000
# 2 48.5793 93.5125 83.3193 0.0000 -6.5794 0.0000
# 3 64.1484 83.3193 199.7026 0.0000 -12.7917 0.0000
# 4 0.0000 0.0000 0.0000 5.9454 0.0000 -7.6743
# 5 -5.7754 -6.5794 -12.7917 0.0000 25.5807 0.0000
# 6 0.0000 0.0000 0.0000 -7.6743 0.0000 6.1355
#
#
#
# Elastic Compliance Matrix: (Units=1/GPa)
#
#
# Indices 1 2 3 4 5 6 
#
# 1 0.033308 -0.012334 -0.005449 0.000000 0.001623 0.000000
# 2 -0.012334 0.021606 -0.005036 0.000000 0.000254 0.000000
# 3 -0.005449 -0.005036 0.008985 0.000000 0.001967 0.000000
# 4 0.000000 0.000000 0.000000 -0.273705 0.000000 -0.342349
# 5 0.001623 0.000254 0.001967 0.000000 0.040507 0.000000
# 6 0.000000 0.000000 0.000000 -0.342349 0.000000 -0.265223
#
#
# Mechanical properties :
#
#
# Convention : Reuss Voigt Hill
#
# Bulk Modulus (GPa) = 54.76320 82.67744 68.72032
# Shear Modulus (GPa) = -13.06184 17.92939 2.43378
#
# Velocity S-wave (km/s) = -2.66102 3.11766 1.14864
# Velocity P-wave (km/s) = 4.49962 7.60134 6.24608
#
# Compressibility (1/GPa) = 0.01826044
#
# Stress axis : x y z
#
# Youngs Moduli (GPa) = 30.02269 46.28243 111.29416
#
# Poissons Ratio (x) = 0.57084 0.60648
# Poissons Ratio (y) = 0.37030 0.56053
# Poissons Ratio (z) = 0.16361 0.23310
#
# Static dielectric constant tensor:
#      x y z
#    x 1.631770 0.000000 -0.009520 
#    y 0.000000 1.659020 0.000000 
#    z -0.009520 0.000000 1.596210 
# 
# From -- ./inp_files/220283.got.cif
#   From: 2010.05.17/outbox.cif.g08.bks.cpg/sg12_111_cif.got.tgz:220283.got - 2010.06.03 13:09:07.
