data_PCOD9183943
_publ_section_title
;
Structure prediction by ZEFSAII (Michael W. Deem and Ramdas Pophale) SiO2 
 PCOD9183943
Probable space group: C 2/M
;
_chemical_formula_sum "Si O2"
_cell_formula_units_Z 48
_cell_length_a 10.643517
_cell_length_b 24.998125
_cell_length_c 8.757140
_cell_angle_alpha 90.000000
_cell_angle_beta 117.220793
_cell_angle_gamma 90.000000
_cell_volume 2071.948568
_symmetry_space_group_name_H-M "C 2/M"
_symmetry_group_IT_number 12
_symmetry_cell_setting 'monoclinic'
loop_
_space_group_symop_operation_xyz
x,y,z
-x,y,-z
-x,-y,-z
x,-y,z
1/2+x,1/2+y,z
1/2-x,1/2+y,-z
1/2-x,1/2-y,-z
1/2+x,1/2-y,z
loop_
_atom_site_type_symbol
_atom_site_label
_atom_site_fract_x
_atom_site_fract_y
_atom_site_fract_z
Si Si1 0.843625 0.828665 0.924815
Si Si2 0.337109 0.394326 0.202462
Si Si3 0.408652 0.056439 0.103676
Si Si4 0.344714 0.779385 0.427541
Si Si5 0.367400 0.437673 0.731980
Si Si6 0.350353 0.108863 0.598689
O O1 0.733683 0.791289 0.775912
O O2 0.852186 0.887983 0.844913
O O3 0.822221 0.841015 0.091184
O O4 0.000000 0.804863 0.000000
O O5 0.495651 0.417395 0.289539
O O6 0.256539 0.386746 0.316420
O O7 0.244820 0.434800 0.048904
O O8 0.491834 0.097221 0.255121
O O9 0.415520 0.000000 0.189129
O O10 0.500000 0.055211 0.000000
O O11 0.500000 0.753981 0.500000
O O12 0.250000 0.750000 0.500000
O O13 0.360402 0.837460 0.510685
O O14 0.388257 0.500000 0.792696
O O15 0.226426 0.434357 0.551236
#
# Coordination Sequence:
#
# PCOD9183943 Si02
#       6
#     8   8   8   8   8   8
#     4   9  21  40  60  87 125 162 203 254 309 367
#     4  10  19  33  56  84 120 161 202 248 298 353
#     4   9  17  29  48  78 114 149 188 233 281 337
#     4  11  25  46  69  92 120 157 203 258 322 386
#     4  10  20  33  53  86 128 172 212 250 296 354
#     4  10  21  37  58  84 117 156 201 252 305 363
#
# _framework density 23.166596999999999
#
# number of rings (size 3 to 8) (size 9 to 14) (size 15 to 20)
#    0.000    2.167    0.000    2.500    0.000   10.333 
#    0.000    5.833    0.000    5.500    0.000    0.000 
#    0.000    0.000    0.000    0.000    0.000    0.000 
#
# Total GULP energy -133907.389929 kJ/mol
# GULP energy per Si atom -5579.474580 kJ/mol
# Density = 2.311387 g / cm^3
# Si number density = 23.166597 Si / 1000 Ang^3
#
#
#
# Elastic Constant Matrix: (Units=GPa)
#
#
# Indices 1 2 3 4 5 6 
#
# 1 103.6373 8.8876 19.8472 0.0000 -6.1313 0.0000
# 2 8.8876 33.5907 9.2237 0.0000 2.8212 0.0000
# 3 19.8472 9.2237 90.5430 0.0000 20.5197 0.0000
# 4 0.0000 0.0000 0.0000 5.6804 0.0000 4.1608
# 5 -6.1313 2.8212 20.5197 0.0000 28.4472 0.0000
# 6 0.0000 0.0000 0.0000 4.1608 0.0000 3.4882
#
#
#
# Elastic Compliance Matrix: (Units=1/GPa)
#
#
# Indices 1 2 3 4 5 6 
#
# 1 0.010758 -0.002371 -0.003222 0.000000 0.004878 0.000000
# 2 -0.002371 0.031171 -0.002199 0.000000 -0.002016 0.000000
# 3 -0.003222 -0.002199 0.014444 0.000000 -0.010895 0.000000
# 4 0.000000 0.000000 0.000000 1.393991 0.000000 -1.662769
# 5 0.004878 -0.002016 -0.010895 0.000000 0.044263 0.000000
# 6 0.000000 0.000000 0.000000 -1.662769 0.000000 2.270048
#
#
# Mechanical properties :
#
#
# Convention : Reuss Voigt Hill
#
# Bulk Modulus (GPa) = 24.51671 33.74309 29.12990
# Shear Modulus (GPa) = 1.31792 20.17734 10.74763
#
# Velocity S-wave (km/s) = 0.75507 2.95442 2.15624
# Velocity P-wave (km/s) = 3.37134 5.12202 4.33596
#
# Compressibility (1/GPa) = 0.04078851
#
# Stress axis : x y z
#
# Youngs Moduli (GPa) = 92.95370 32.08147 69.23319
#
# Poissons Ratio (x) = 0.07608 0.22308
# Poissons Ratio (y) = 0.22042 0.15222
# Poissons Ratio (z) = 0.29951 0.07053
#
# Static dielectric constant tensor:
#      x y z
#    x 1.954860 0.000000 -0.019540 
#    y 0.000000 1.882670 0.000000 
#    z -0.019540 0.000000 1.846490 
# 
# From -- ./inp_files/52791.got.cif
#   From: 2010.05.17/outbox.cif.g08.bks.cpg/sg12_27_cif.got.tgz:52791.got - 2010.06.03 13:09:07.
