data_PCOD9183500
_publ_section_title
;
Structure prediction by ZEFSAII (Michael W. Deem and Ramdas Pophale) SiO2 
 PCOD9183500
Probable space group: C 2/M
;
_chemical_formula_sum "Si O2"
_cell_formula_units_Z 56
_cell_length_a 15.796953
_cell_length_b 7.798264
_cell_length_c 25.258569
_cell_angle_alpha 90.000000
_cell_angle_beta 60.746560
_cell_angle_gamma 90.000000
_cell_volume 2714.743778
_symmetry_space_group_name_H-M "C 2/M"
_symmetry_group_IT_number 12
_symmetry_cell_setting 'monoclinic'
loop_
_space_group_symop_operation_xyz
x,y,z
-x,y,-z
-x,-y,-z
x,-y,z
1/2+x,1/2+y,z
1/2-x,1/2+y,-z
1/2-x,1/2-y,-z
1/2+x,1/2-y,z
loop_
_atom_site_type_symbol
_atom_site_label
_atom_site_fract_x
_atom_site_fract_y
_atom_site_fract_z
Si Si1 0.837005 0.705869 0.209884
Si Si2 0.601649 0.706726 0.993675
Si Si3 0.473666 0.294900 0.566633
Si Si4 0.167275 0.704058 0.567946
Si Si5 0.946204 0.705560 0.874083
Si Si6 0.230338 0.706946 0.136497
Si Si7 0.244961 0.789330 0.347711
O O1 0.843949 0.500000 0.211514
O O2 0.764459 0.744863 0.184264
O O3 0.797780 0.768742 0.278174
O O4 0.944318 0.774070 0.162763
O O5 0.602089 0.500000 0.991211
O O6 0.602521 0.757094 0.054545
O O7 0.500000 0.768165 0.000000
O O8 0.689961 0.769424 0.930552
O O9 0.500000 0.226785 0.500000
O O10 0.464848 0.500000 0.564370
O O11 0.562511 0.261832 0.579020
O O12 0.367457 0.232742 0.616373
O O13 0.164062 0.500000 0.572308
O O14 0.250000 0.750000 0.500000
O O15 0.200662 0.768324 0.615436
O O16 0.952365 0.500000 0.867670
O O17 0.874915 0.769125 0.849866
O O18 0.229891 0.500000 0.133929
O O19 0.245579 0.000000 0.347499
#
# Coordination Sequence:
#
# PCOD9183500 Si02
#       7
#     8   8   8   8   8   8   8
#     4  10  21  38  57  78 106 147 188 222 268 333
#     4  10  19  33  55  80 108 143 180 225 281 328
#     4  10  19  36  59  82 110 148 183 223 280 331
#     4  11  21  36  59  87 115 146 183 228 278 331
#     4  10  21  35  55  81 109 141 182 228 274 324
#     4  10  21  37  55  79 111 144 180 230 282 324
#     4   9  20  38  57  78 112 149 181 221 279 336
#
# _framework density 20.628097
#
# number of rings (size 3 to 8) (size 9 to 14) (size 15 to 20)
#    0.000    2.000    2.857    0.857    0.000    2.857 
#    0.000    3.571    0.000    0.000    0.000    0.000 
#    0.000    0.000    0.000    0.000    0.000    0.000 
#
# Total GULP energy -156387.451023 kJ/mol
# GULP energy per Si atom -5585.266108 kJ/mol
# Density = 2.058115 g / cm^3
# Si number density = 20.628097 Si / 1000 Ang^3
#
#
#
# Elastic Constant Matrix: (Units=GPa)
#
#
# Indices 1 2 3 4 5 6 
#
# 1 120.1614 -2.5923 49.9274 0.0000 41.0916 0.0000
# 2 -2.5923 21.2429 -2.0201 -0.0001 -3.3622 0.0000
# 3 49.9274 -2.0201 137.0095 0.0000 33.0504 0.0000
# 4 0.0000 -0.0001 0.0000 8.6136 0.0000 8.0965
# 5 41.0916 -3.3622 33.0504 0.0000 22.9773 0.0000
# 6 0.0000 0.0000 0.0000 8.0965 0.0000 22.4807
#
#
#
# Elastic Compliance Matrix: (Units=1/GPa)
#
#
# Indices 1 2 3 4 5 6 
#
# 1 0.022189 -0.003983 0.002402 0.000000 -0.043719 0.000000
# 2 -0.003983 0.049113 -0.001954 0.000000 0.017121 0.000000
# 3 0.002402 -0.001954 0.011485 0.000000 -0.021101 0.000000
# 4 0.000000 0.000000 0.000000 0.175514 0.000001 -0.063212
# 5 -0.043719 0.017121 -0.021101 0.000001 0.154563 0.000000
# 6 0.000000 0.000000 0.000000 -0.063212 0.000000 0.067249
#
#
# Mechanical properties :
#
#
# Convention : Reuss Voigt Hill
#
# Bulk Modulus (GPa) = 13.20761 41.00486 27.10623
# Shear Modulus (GPa) = 9.75758 26.35425 18.05592
#
# Velocity S-wave (km/s) = 2.17727 3.57822 2.96177
# Velocity P-wave (km/s) = 3.56894 6.08217 4.98649
#
# Compressibility (1/GPa) = 0.07571390
#
# Stress axis : x y z
#
# Youngs Moduli (GPa) = 45.06756 20.36140 87.07141
#
# Poissons Ratio (x) = 0.08111 -0.20912
# Poissons Ratio (y) = 0.17952 0.17018
# Poissons Ratio (z) = -0.10824 0.03980
#
# Static dielectric constant tensor:
#      x y z
#    x 1.730410 0.000000 -0.006050 
#    y 0.000000 1.756990 0.000000 
#    z -0.006050 0.000000 1.708500 
# 
# From -- ./inp_files/337848.got.cif
#   From: 2010.05.17/outbox.cif.g08.bks.cpg/sg12_169_cif.got.tgz:337848.got - 2010.06.03 13:09:07.
