data_PCOD9183180
_publ_section_title
;
Structure prediction by ZEFSAII (Michael W. Deem and Ramdas Pophale) SiO2 
 PCOD9183180
Probable space group: C 2/M
;
_chemical_formula_sum "Si O2"
_cell_formula_units_Z 48
_cell_length_a 32.237000
_cell_length_b 8.507169
_cell_length_c 20.704685
_cell_angle_alpha 90.000000
_cell_angle_beta 27.893682
_cell_angle_gamma 90.000000
_cell_volume 2656.431153
_symmetry_space_group_name_H-M "C 2/M"
_symmetry_group_IT_number 12
_symmetry_cell_setting 'monoclinic'
loop_
_space_group_symop_operation_xyz
x,y,z
-x,y,-z
-x,-y,-z
x,-y,z
1/2+x,1/2+y,z
1/2-x,1/2+y,-z
1/2-x,1/2-y,-z
1/2+x,1/2-y,z
loop_
_atom_site_type_symbol
_atom_site_label
_atom_site_fract_x
_atom_site_fract_y
_atom_site_fract_z
Si Si1 0.270975 0.685975 0.830171
Si Si2 0.550838 0.186822 0.363782
Si Si3 0.075643 0.190336 0.094687
Si Si4 0.946016 0.186715 0.385999
Si Si5 0.272579 0.812658 0.683449
Si Si6 0.927364 0.190991 0.049398
O O1 0.278111 0.500000 0.828185
O O2 0.346684 0.769401 0.767759
O O3 0.287373 0.732000 0.732597
O O4 0.171584 0.742922 0.982055
O O5 0.500000 0.231152 0.500000
O O6 0.506206 0.272704 0.365125
O O7 0.540323 0.000000 0.369563
O O8 0.999498 0.239157 0.249018
O O9 0.081942 0.000000 0.087135
O O10 0.056822 0.239099 0.046653
O O11 0.851477 0.267006 0.527520
O O12 0.932969 0.000000 0.400385
O O13 0.174377 0.766514 0.794790
O O14 0.273066 0.000000 0.694031
O O15 0.931428 0.000000 0.044721
O O16 0.000000 0.250167 0.000000
#
# Coordination Sequence:
#
# PCOD9183180 Si02
#       6
#     8   8   8   8   8   8
#     4  11  21  34  55  79 105 141 183 223 264 313
#     4  11  22  35  54  77 105 142 184 225 261 308
#     4   9  20  37  55  78 110 142 176 219 268 316
#     4  11  22  35  53  78 109 144 179 221 267 312
#     4  10  19  33  54  79 108 141 178 219 264 315
#     4   8  15  32  59  83 102 134 179 218 257 316
#
# _framework density 18.069355000000002
#
# number of rings (size 3 to 8) (size 9 to 14) (size 15 to 20)
#    0.000    2.000    1.667    4.000    0.000    2.667 
#    0.000    0.833    0.000   12.500    0.000    0.000 
#    0.000    0.000    0.000    0.000    0.000    0.000 
#
# Total GULP energy -133993.521521 kJ/mol
# GULP energy per Si atom -5583.063397 kJ/mol
# Density = 1.802823 g / cm^3
# Si number density = 18.069355 Si / 1000 Ang^3
#
#
#
# Elastic Constant Matrix: (Units=GPa)
#
#
# Indices 1 2 3 4 5 6 
#
# 1 87.1904 -6.5406 45.4366 0.0053 -17.5840 -0.0034
# 2 -6.5406 12.6702 2.4985 0.0182 4.6707 -0.0237
# 3 45.4366 2.4985 134.0558 0.0140 0.3013 -0.0186
# 4 0.0053 0.0182 0.0140 -30.5755 -0.0040 67.8489
# 5 -17.5840 4.6707 0.3013 -0.0040 20.5955 0.0059
# 6 -0.0034 -0.0237 -0.0186 67.8489 0.0059 -67.9966
#
#
#
# Elastic Compliance Matrix: (Units=1/GPa)
#
#
# Indices 1 2 3 4 5 6 
#
# 1 0.017981 0.005256 -0.006225 -0.000002 0.014251 -0.000001
# 2 0.005256 0.087990 -0.003387 0.000013 -0.015418 -0.000018
# 3 -0.006225 -0.003387 0.009643 0.000001 -0.004687 0.000000
# 4 -0.000002 0.000013 0.000001 0.026935 -0.000007 0.026877
# 5 0.014251 -0.015418 -0.004687 -0.000007 0.064287 0.000005
# 6 -0.000001 -0.000018 0.000000 0.026877 0.000005 0.012112
#
#
# Mechanical properties :
#
#
# Convention : Reuss Voigt Hill
#
# Bulk Modulus (GPa) = 9.35420 35.18949 22.27185
# Shear Modulus (GPa) = 18.99026 -2.76051 8.11487
#
# Velocity S-wave (km/s) = 3.24538 -1.23736 2.12149
# Velocity P-wave (km/s) = 4.38536 4.18038 4.28409
#
# Compressibility (1/GPa) = 0.10690385
#
# Stress axis : x y z
#
# Youngs Moduli (GPa) = 55.61354 11.36493 103.70258
#
# Poissons Ratio (x) = -0.05974 0.64550
# Poissons Ratio (y) = -0.29231 0.35122
# Poissons Ratio (z) = 0.34617 0.03849
#
# Static dielectric constant tensor:
#      x y z
#    x 1.597060 0.000000 -0.001460 
#    y 0.000000 1.610860 0.000000 
#    z -0.001460 0.000000 1.627120 
# 
# From -- ./inp_files/295342.got.cif
#   From: 2010.05.17/outbox.cif.g08.bks.cpg/sg12_148_cif.got.tgz:295342.got - 2010.06.03 13:09:07.
