data_PCOD9183556
_publ_section_title
;
Structure prediction by ZEFSAII (Michael W. Deem and Ramdas Pophale) SiO2 
 PCOD9183556
Probable space group: C 2/M
;
_chemical_formula_sum "Si O2"
_cell_formula_units_Z 64
_cell_length_a 19.279695
_cell_length_b 7.801353
_cell_length_c 20.485098
_cell_angle_alpha 90.000000
_cell_angle_beta 95.296803
_cell_angle_gamma 90.000000
_cell_volume 3067.959778
_symmetry_space_group_name_H-M "C 2/M"
_symmetry_group_IT_number 12
_symmetry_cell_setting 'monoclinic'
loop_
_space_group_symop_operation_xyz
x,y,z
-x,y,-z
-x,-y,-z
x,-y,z
1/2+x,1/2+y,z
1/2-x,1/2+y,-z
1/2-x,1/2-y,-z
1/2+x,1/2-y,z
loop_
_atom_site_type_symbol
_atom_site_label
_atom_site_fract_x
_atom_site_fract_y
_atom_site_fract_z
Si Si1 0.581962 0.709582 0.592414
Si Si2 0.775238 0.303722 0.073175
Si Si3 0.331056 0.292212 0.275352
Si Si4 0.050408 0.199073 0.213435
Si Si5 0.801285 0.302901 0.805623
Si Si6 0.670409 0.706172 0.476273
Si Si7 0.089483 0.205888 0.852049
Si Si8 0.065566 0.210022 0.362565
O O1 0.581554 0.500000 0.591757
O O2 0.631423 0.767046 0.656249
O O3 0.617918 0.766295 0.528775
O O4 0.502738 0.759837 0.601470
O O5 0.756547 0.500000 0.082620
O O6 0.737746 0.202483 0.128379
O O7 0.858025 0.281919 0.090501
O O8 0.750000 0.250000 0.000000
O O9 0.327273 0.500000 0.278328
O O10 0.253525 0.229864 0.251996
O O11 0.377616 0.253246 0.216136
O O12 0.125683 0.209639 0.188030
O O13 0.056111 0.271661 0.287404
O O14 0.989523 0.269339 0.161809
O O15 0.030580 0.000000 0.221265
O O16 0.815820 0.500000 0.790283
O O17 0.667409 0.500000 0.475433
O O18 0.750000 0.750000 0.500000
O O19 0.636242 0.766288 0.405112
O O20 0.092052 0.000000 0.861938
O O21 0.066715 0.000000 0.360797
#
# Coordination Sequence:
#
# PCOD9183556 Si02
#       8
#     8   8   8   8   8   8   8   8
#     4   9  15  28  51  74  97 134 185 230 272 327
#     4  11  22  39  63  88 116 149 185 222 265 320
#     4   8  14  27  48  74 100 134 179 225 270 320
#     4  10  19  33  55  81 113 148 183 230 286 334
#     4  10  21  35  54  82 116 148 184 228 273 323
#     4  10  21  33  49  74 105 139 182 233 285 336
#     4   9  17  33  56  82 112 145 183 226 273 328
#     4   9  17  31  51  76 103 138 186 236 277 326
#
# _framework density 20.860768
#
# number of rings (size 3 to 8) (size 9 to 14) (size 15 to 20)
#    0.000    2.500    1.250    2.625    1.750    2.000 
#    0.000    0.625    0.000    6.000    0.000    0.000 
#    0.000    0.000    0.000    0.000    0.000    0.000 
#
# Total GULP energy -178520.291548 kJ/mol
# GULP energy per Si atom -5578.759111 kJ/mol
# Density = 2.081329 g / cm^3
# Si number density = 20.860768 Si / 1000 Ang^3
#
#
#
# Elastic Constant Matrix: (Units=GPa)
#
#
# Indices 1 2 3 4 5 6 
#
# 1 146.6801 -1.2354 48.6433 0.0000 31.2954 0.0000
# 2 -1.2354 32.4528 -0.2615 0.0000 5.5573 0.0000
# 3 48.6433 -0.2615 82.2530 0.0000 35.1505 0.0000
# 4 0.0000 0.0000 0.0000 7.2563 0.0000 2.5839
# 5 31.2954 5.5573 35.1505 0.0000 34.8193 0.0000
# 6 0.0000 0.0000 0.0000 2.5839 0.0000 19.2808
#
#
#
# Elastic Compliance Matrix: (Units=1/GPa)
#
#
# Indices 1 2 3 4 5 6 
#
# 1 0.008945 0.001187 -0.003112 0.000000 -0.005087 0.000000
# 2 0.001187 0.032595 0.003660 0.000000 -0.009963 0.000000
# 3 -0.003112 0.003660 0.022976 0.000000 -0.020982 0.000000
# 4 0.000000 0.000000 0.000000 0.144718 0.000000 -0.019394
# 5 -0.005087 -0.009963 -0.020982 0.000000 0.056064 0.000000
# 6 0.000000 0.000000 0.000000 -0.019394 0.000000 0.054464
#
#
# Mechanical properties :
#
#
# Convention : Reuss Voigt Hill
#
# Bulk Modulus (GPa) = 14.70928 39.51985 27.11457
# Shear Modulus (GPa) = 14.75123 26.55390 20.65257
#
# Velocity S-wave (km/s) = 2.66207 3.57166 3.14987
# Velocity P-wave (km/s) = 4.06390 5.99956 5.12396
#
# Compressibility (1/GPa) = 0.06798427
#
# Stress axis : x y z
#
# Youngs Moduli (GPa) = 111.79346 30.67974 43.52337
#
# Poissons Ratio (x) = -0.03641 0.13545
# Poissons Ratio (y) = -0.13266 -0.15928
# Poissons Ratio (z) = 0.34791 -0.11228
#
# Static dielectric constant tensor:
#      x y z
#    x 1.763500 0.000000 0.012610 
#    y 0.000000 1.799000 0.000000 
#    z 0.012610 0.000000 1.767270 
# 
# From -- ./inp_files/314210.got.cif
#   From: 2010.05.17/outbox.cif.g08.bks.cpg/sg12_158_cif.got.tgz:314210.got - 2010.06.03 13:09:07.
