data_PCOD9183816
_publ_section_title
;
Structure prediction by ZEFSAII (Michael W. Deem and Ramdas Pophale) SiO2 
 PCOD9183816
Probable space group: C 2/M
;
_chemical_formula_sum "Si O2"
_cell_formula_units_Z 48
_cell_length_a 10.739647
_cell_length_b 18.657075
_cell_length_c 18.377141
_cell_angle_alpha 90.000000
_cell_angle_beta 52.627202
_cell_angle_gamma 90.000000
_cell_volume 2926.282869
_symmetry_space_group_name_H-M "C 2/M"
_symmetry_group_IT_number 12
_symmetry_cell_setting 'monoclinic'
loop_
_space_group_symop_operation_xyz
x,y,z
-x,y,-z
-x,-y,-z
x,-y,z
1/2+x,1/2+y,z
1/2-x,1/2+y,-z
1/2-x,1/2-y,-z
1/2+x,1/2-y,z
loop_
_atom_site_type_symbol
_atom_site_label
_atom_site_fract_x
_atom_site_fract_y
_atom_site_fract_z
Si Si1 0.475240 0.919409 0.289165
Si Si2 0.911192 0.342611 0.461128
Si Si3 0.067028 0.275727 0.189630
Si Si4 0.884266 0.690325 0.107977
Si Si5 0.205082 0.081407 0.267289
Si Si6 0.060166 0.801159 0.627248
O O1 0.434700 0.894577 0.384713
O O2 0.578202 0.857291 0.215199
O O3 0.316351 0.919040 0.298275
O O4 0.540516 0.000000 0.263872
O O5 0.979299 0.264881 0.412495
O O6 0.731233 0.328652 0.545579
O O7 0.000000 0.369883 0.500000
O O8 0.237246 0.239223 0.134988
O O9 0.983272 0.276843 0.140777
O O10 0.955403 0.233672 0.286787
O O11 0.806861 0.617748 0.167096
O O12 0.000000 0.678410 0.000000
O O13 0.061683 0.134303 0.333048
O O14 0.158504 0.000000 0.267114
#
# Coordination Sequence:
#
# PCOD9183816 Si02
#       6
#     8   8   8   8   8   8
#     4   9  19  34  50  72 100 136 171 203 247 299
#     4  10  21  30  50  73 101 133 171 214 241 285
#     4   9  19  33  55  75 103 135 165 207 256 305
#     4  10  19  33  56  82 102 126 167 213 256 306
#     4   9  19  35  53  73 101 133 166 205 257 301
#     4   9  20  32  50  73 101 131 171 206 251 291
#
# _framework density 16.403061999999998
#
# number of rings (size 3 to 8) (size 9 to 14) (size 15 to 20)
#    0.000    2.667    0.000    0.500   14.000    1.333 
#    0.000    1.667    0.000    0.500    0.000    0.000 
#    0.000    0.000    0.000    0.000    0.000    0.000 
#
# Total GULP energy -133730.569624 kJ/mol
# GULP energy per Si atom -5572.107068 kJ/mol
# Density = 1.636573 g / cm^3
# Si number density = 16.403062 Si / 1000 Ang^3
#
#
#
# Elastic Constant Matrix: (Units=GPa)
#
#
# Indices 1 2 3 4 5 6 
#
# 1 49.0219 33.5205 32.3362 0.0000 6.4698 0.0000
# 2 33.5205 112.9605 31.7686 0.0000 -5.5494 0.0000
# 3 32.3362 31.7686 83.8370 0.0000 2.8934 0.0000
# 4 0.0000 0.0000 0.0000 5.7146 0.0000 -2.8134
# 5 6.4698 -5.5494 2.8934 0.0000 21.3250 0.0000
# 6 0.0000 0.0000 0.0000 -2.8134 0.0000 18.6700
#
#
#
# Elastic Compliance Matrix: (Units=1/GPa)
#
#
# Indices 1 2 3 4 5 6 
#
# 1 0.033474 -0.007770 -0.009591 0.000000 -0.010876 0.000000
# 2 -0.007770 0.011921 -0.001717 0.000000 0.005693 0.000000
# 3 -0.009591 -0.001717 0.016269 0.000000 0.000256 0.000000
# 4 0.000000 0.000000 0.000000 0.189013 0.000000 0.028483
# 5 -0.010876 0.005693 0.000256 0.000000 0.051640 0.000000
# 6 0.000000 0.000000 0.000000 0.028483 0.000000 0.057854
#
#
# Mechanical properties :
#
#
# Convention : Reuss Voigt Hill
#
# Bulk Modulus (GPa) = 42.53929 49.00777 45.77353
# Shear Modulus (GPa) = 12.31031 19.02153 15.66592
#
# Velocity S-wave (km/s) = 2.74248 3.40903 3.09376
# Velocity P-wave (km/s) = 6.00152 6.74073 6.38184
#
# Compressibility (1/GPa) = 0.02350768
#
# Stress axis : x y z
#
# Youngs Moduli (GPa) = 29.87350 83.88634 61.46658
#
# Poissons Ratio (x) = 0.65182 0.58955
# Poissons Ratio (y) = 0.23213 0.10552
# Poissons Ratio (z) = 0.28653 0.14400
#
# Static dielectric constant tensor:
#      x y z
#    x 1.541820 0.000000 0.010760 
#    y 0.000000 1.556070 0.000000 
#    z 0.010760 0.000000 1.536690 
# 
# From -- ./inp_files/205326.got.cif
#   From: 2010.05.17/outbox.cif.g08.bks.cpg/sg12_103_cif.got.tgz:205326.got - 2010.06.03 13:09:07.
