data_PCOD9183002
_publ_section_title
;
Structure prediction by ZEFSAII (Michael W. Deem and Ramdas Pophale) SiO2 
 PCOD9183002
Probable space group: C 2/M
;
_chemical_formula_sum "Si O2"
_cell_formula_units_Z 48
_cell_length_a 18.083047
_cell_length_b 15.510307
_cell_length_c 13.633603
_cell_angle_alpha 90.000000
_cell_angle_beta 139.752679
_cell_angle_gamma 90.000000
_cell_volume 2470.554961
_symmetry_space_group_name_H-M "C 2/M"
_symmetry_group_IT_number 12
_symmetry_cell_setting 'monoclinic'
loop_
_space_group_symop_operation_xyz
x,y,z
-x,y,-z
-x,-y,-z
x,-y,z
1/2+x,1/2+y,z
1/2-x,1/2+y,-z
1/2-x,1/2-y,-z
1/2+x,1/2-y,z
loop_
_atom_site_type_symbol
_atom_site_label
_atom_site_fract_x
_atom_site_fract_y
_atom_site_fract_z
Si Si1 0.220185 0.191806 0.814484
Si Si2 0.870842 0.594057 0.829327
Si Si3 0.445676 0.096742 0.288578
Si Si4 0.909982 0.232346 0.130715
Si Si5 0.837014 0.343310 0.365477
Si Si6 0.160911 0.769068 0.323108
O O1 0.280826 0.111288 0.825898
O O2 0.147596 0.178838 0.839380
O O3 0.147075 0.245757 0.660872
O O4 0.323581 0.256432 0.952656
O O5 0.850607 0.500000 0.763482
O O6 0.857299 0.676489 0.746781
O O7 0.000000 0.595838 0.000000
O O8 0.419255 0.169900 0.182935
O O9 0.563859 0.125275 0.460946
O O10 0.353052 0.101161 0.283236
O O11 0.453285 0.000000 0.257226
O O12 0.036245 0.201940 0.232303
O O13 0.720403 0.335422 0.308185
O O14 0.250000 0.750000 0.500000
#
# Coordination Sequence:
#
# PCOD9183002 Si02
#       6
#     8   8   8   8   8   8
#     4   9  19  34  53  76 111 139 179 214 255 326
#     4  10  20  35  56  82 110 136 174 228 277 310
#     4  10  19  33  53  83 111 132 175 225 272 307
#     4  10  19  33  53  83 106 141 175 216 268 307
#     4   9  18  31  50  75 105 143 169 212 263 309
#     4  11  20  34  52  80 112 139 178 218 262 320
#
# _framework density 19.428833999999998
#
# number of rings (size 3 to 8) (size 9 to 14) (size 15 to 20)
#    0.000    2.167    3.333    1.000    0.000    1.333 
#    0.000    0.000    0.000    4.000    0.000   18.667 
#    0.000    0.000    0.000    0.000    0.000    0.000 
#
# Total GULP energy -133784.467144 kJ/mol
# GULP energy per Si atom -5574.352798 kJ/mol
# Density = 1.938461 g / cm^3
# Si number density = 19.428834 Si / 1000 Ang^3
#
#
#
# Elastic Constant Matrix: (Units=GPa)
#
#
# Indices 1 2 3 4 5 6 
#
# 1 117.6365 9.3818 22.7071 0.0000 33.3962 0.0000
# 2 9.3818 62.0231 11.4128 0.0000 6.0480 0.0000
# 3 22.7071 11.4128 59.0356 0.0000 10.5137 0.0000
# 4 0.0000 0.0000 0.0000 10.4376 0.0000 -3.1865
# 5 33.3962 6.0480 10.5137 0.0000 31.0826 0.0000
# 6 0.0000 0.0000 0.0000 -3.1865 0.0000 11.6829
#
#
#
# Elastic Compliance Matrix: (Units=1/GPa)
#
#
# Indices 1 2 3 4 5 6 
#
# 1 0.012596 -0.000203 -0.002556 0.000000 -0.012629 0.000000
# 2 -0.000203 0.016877 -0.002808 0.000000 -0.002116 0.000000
# 3 -0.002556 -0.002808 0.019025 0.000000 -0.003142 0.000000
# 4 0.000000 0.000000 0.000000 0.104510 0.000000 0.028505
# 5 -0.012629 -0.002116 -0.003142 0.000000 0.047216 0.000000
# 6 0.000000 0.000000 0.000000 0.028505 0.000000 0.093370
#
#
# Mechanical properties :
#
#
# Convention : Reuss Voigt Hill
#
# Bulk Modulus (GPa) = 26.76492 36.18872 31.47682
# Shear Modulus (GPa) = 15.76382 23.65351 19.70867
#
# Velocity S-wave (km/s) = 2.85153 3.49297 3.18842
# Velocity P-wave (km/s) = 4.96462 5.91055 5.45811
#
# Compressibility (1/GPa) = 0.03736234
#
# Stress axis : x y z
#
# Youngs Moduli (GPa) = 79.39209 59.25323 52.56369
#
# Poissons Ratio (x) = 0.01205 0.13437
# Poissons Ratio (y) = 0.01615 0.14758
# Poissons Ratio (z) = 0.20295 0.16636
#
# Static dielectric constant tensor:
#      x y z
#    x 1.768120 0.000000 -0.004020 
#    y 0.000000 1.651550 0.000000 
#    z -0.004020 0.000000 1.698320 
# 
# From -- ./inp_files/225458.got.cif
#   From: 2010.05.17/outbox.cif.g08.bks.cpg/sg12_113_cif.got.tgz:225458.got - 2010.06.03 13:09:07.
