data_PCOD9183358
_publ_section_title
;
Structure prediction by ZEFSAII (Michael W. Deem and Ramdas Pophale) SiO2 
 PCOD9183358
Probable space group: C 2/M
;
_chemical_formula_sum "Si O2"
_cell_formula_units_Z 56
_cell_length_a 11.677855
_cell_length_b 25.355881
_cell_length_c 12.787271
_cell_angle_alpha 90.000000
_cell_angle_beta 126.926885
_cell_angle_gamma 90.000000
_cell_volume 3026.811228
_symmetry_space_group_name_H-M "C 2/M"
_symmetry_group_IT_number 12
_symmetry_cell_setting 'monoclinic'
loop_
_space_group_symop_operation_xyz
x,y,z
-x,y,-z
-x,-y,-z
x,-y,z
1/2+x,1/2+y,z
1/2-x,1/2+y,-z
1/2-x,1/2-y,-z
1/2+x,1/2-y,z
loop_
_atom_site_type_symbol
_atom_site_label
_atom_site_fract_x
_atom_site_fract_y
_atom_site_fract_z
Si Si1 0.502420 0.162163 0.264163
Si Si2 0.064229 0.837689 0.802221
Si Si3 0.081219 0.757466 0.435182
Si Si4 0.893085 0.094765 0.850970
Si Si5 0.072103 0.560135 0.652658
Si Si6 0.698432 0.299101 0.081837
Si Si7 0.649108 0.817879 0.138320
O O1 0.521097 0.199819 0.373444
O O2 0.481509 0.102985 0.292514
O O3 0.358160 0.186145 0.134201
O O4 0.626438 0.171492 0.248264
O O5 0.215823 0.849365 0.831624
O O6 0.971939 0.801942 0.674783
O O7 0.984895 0.889642 0.799989
O O8 0.102366 0.802679 0.925878
O O9 0.250000 0.750000 0.500000
O O10 0.000000 0.770759 0.500000
O O11 0.745826 0.065054 0.745961
O O12 0.842841 0.151881 0.867872
O O13 0.000000 0.072688 0.000000
O O14 0.034658 0.500000 0.659738
O O15 0.000000 0.571476 0.500000
O O16 0.683685 0.243625 0.131718
O O17 0.500000 0.831467 0.000000
#
# Coordination Sequence:
#
# PCOD9183358 Si02
#       7
#     8   8   8   8   8   8   8
#     4  11  22  37  58  82 116 151 196 243 291 342
#     4  11  21  36  52  82 125 154 192 235 277 358
#     4  12  26  36  50  80 125 170 200 230 286 356
#     4   9  20  36  62  88 115 145 189 244 300 343
#     4  10  23  43  66  88 109 146 199 251 302 353
#     4  10  19  33  54  84 113 155 191 234 275 341
#     4  12  20  31  55  86 120 158 192 229 289 357
#
# _framework density 18.50132
#
# number of rings (size 3 to 8) (size 9 to 14) (size 15 to 20)
#    0.000    1.286    2.857    4.714    6.000    0.286 
#    0.000    0.000    0.000    1.286    0.000    2.000 
#    0.000    0.000    0.000    0.000    0.000    0.000 
#
# Total GULP energy -156179.343703 kJ/mol
# GULP energy per Si atom -5577.833704 kJ/mol
# Density = 1.845921 g / cm^3
# Si number density = 18.501320 Si / 1000 Ang^3
#
#
#
# Elastic Constant Matrix: (Units=GPa)
#
#
# Indices 1 2 3 4 5 6 
#
# 1 113.8660 15.3236 34.4461 0.0000 -3.2155 0.0000
# 2 15.3236 56.0271 29.6269 0.0000 -11.9639 0.0000
# 3 34.4461 29.6269 84.8035 0.0000 2.2248 0.0000
# 4 0.0000 0.0000 0.0000 13.4731 0.0000 3.2676
# 5 -3.2155 -11.9639 2.2248 0.0000 33.3408 0.0000
# 6 0.0000 0.0000 0.0000 3.2676 0.0000 18.3182
#
#
#
# Elastic Compliance Matrix: (Units=1/GPa)
#
#
# Indices 1 2 3 4 5 6 
#
# 1 0.010071 -0.000423 -0.003972 0.000000 0.001085 0.000000
# 2 -0.000423 0.024528 -0.008642 0.000000 0.009338 0.000000
# 3 -0.003972 -0.008642 0.016545 0.000000 -0.004588 0.000000
# 4 0.000000 0.000000 0.000000 0.077578 0.000000 -0.013838
# 5 0.001085 0.009338 -0.004588 0.000000 0.033755 0.000000
# 6 0.000000 0.000000 0.000000 -0.013838 0.000000 0.057059
#
#
# Mechanical properties :
#
#
# Convention : Reuss Voigt Hill
#
# Bulk Modulus (GPa) = 39.88706 45.94330 42.91518
# Shear Modulus (GPa) = 19.68765 24.71308 22.20037
#
# Velocity S-wave (km/s) = 3.26563 3.65875 3.46776
# Velocity P-wave (km/s) = 5.98539 6.53720 6.26737
#
# Compressibility (1/GPa) = 0.02507079
#
# Stress axis : x y z
#
# Youngs Moduli (GPa) = 99.29269 40.76955 60.44183
#
# Poissons Ratio (x) = 0.01724 0.24005
# Poissons Ratio (y) = 0.04198 0.52236
# Poissons Ratio (z) = 0.39435 0.35235
#
# Static dielectric constant tensor:
#      x y z
#    x 1.733010 0.000000 0.023640 
#    y 0.000000 1.602170 0.000000 
#    z 0.023640 0.000000 1.733160 
# 
# From -- ./inp_files/135486.got.cif
#   From: 2010.05.17/outbox.cif.g08.bks.cpg/sg12_68_cif.got.tgz:135486.got - 2010.06.03 13:09:07.
