data_PCOD9183766
_publ_section_title
;
Structure prediction by ZEFSAII (Michael W. Deem and Ramdas Pophale) SiO2 
 PCOD9183766
Probable space group: C 2/M
;
_chemical_formula_sum "Si O2"
_cell_formula_units_Z 56
_cell_length_a 13.313382
_cell_length_b 13.432407
_cell_length_c 27.825103
_cell_angle_alpha 90.000000
_cell_angle_beta 141.792805
_cell_angle_gamma 90.000000
_cell_volume 3077.681604
_symmetry_space_group_name_H-M "C 2/M"
_symmetry_group_IT_number 12
_symmetry_cell_setting 'monoclinic'
loop_
_space_group_symop_operation_xyz
x,y,z
-x,y,-z
-x,-y,-z
x,-y,z
1/2+x,1/2+y,z
1/2-x,1/2+y,-z
1/2-x,1/2-y,-z
1/2+x,1/2-y,z
loop_
_atom_site_type_symbol
_atom_site_label
_atom_site_fract_x
_atom_site_fract_y
_atom_site_fract_z
Si Si1 0.029402 0.619925 0.086038
Si Si2 0.627425 0.117955 0.507237
Si Si3 0.028890 0.185102 0.331778
Si Si4 0.803284 0.614508 0.750800
Si Si5 0.565852 0.112158 0.664437
Si Si6 0.762818 0.120766 0.085880
Si Si7 0.403066 0.684685 0.751233
O O1 0.026774 0.500000 0.082393
O O2 0.092911 0.643208 0.162624
O O3 0.159780 0.650741 0.094630
O O4 0.850864 0.651936 0.001566
O O5 0.500000 0.152911 0.500000
O O6 0.799323 0.170787 0.577637
O O7 0.546311 0.128697 0.424749
O O8 0.654608 0.000000 0.525920
O O9 0.052628 0.151059 0.285885
O O10 0.884480 0.126290 0.303991
O O11 0.974678 0.300240 0.313980
O O12 0.835896 0.500000 0.749792
O O13 0.848642 0.699630 0.730023
O O14 0.749820 0.126182 0.715010
O O15 0.541302 0.000000 0.672978
O O16 0.939392 0.167031 0.156926
O O17 0.778259 0.000000 0.091587
#
# Coordination Sequence:
#
# PCOD9183766 Si02
#       7
#     8   8   8   8   8   8   8
#     4   8  15  29  49  73 100 131 165 207 253 293
#     4  10  19  33  56  80 100 128 168 211 251 292
#     4  11  21  35  55  76 103 135 167 206 252 300
#     4  10  21  35  51  75 104 134 171 208 248 298
#     4  10  22  37  53  76 104 134 168 206 251 300
#     4   9  16  28  50  77 102 128 164 210 254 294
#     4  11  21  32  53  80 101 132 171 208 250 298
#
# _framework density 18.195513999999999
#
# number of rings (size 3 to 8) (size 9 to 14) (size 15 to 20)
#    0.000    2.143    2.857    2.143    0.000    2.286 
#    0.000    0.000    0.000    0.429    0.000    2.000 
#    0.000    0.000    0.000    0.000    0.000    0.000 
#
# Total GULP energy -156152.969035 kJ/mol
# GULP energy per Si atom -5576.891751 kJ/mol
# Density = 1.815410 g / cm^3
# Si number density = 18.195514 Si / 1000 Ang^3
#
#
#
# Elastic Constant Matrix: (Units=GPa)
#
#
# Indices 1 2 3 4 5 6 
#
# 1 36.0017 1.5695 14.4073 0.0000 17.5667 0.0000
# 2 1.5695 51.8974 2.0213 0.0000 11.6945 0.0000
# 3 14.4073 2.0213 94.0503 0.0000 36.1913 0.0000
# 4 0.0000 0.0000 0.0000 26.5838 0.0000 1.8034
# 5 17.5667 11.6945 36.1913 0.0000 24.7475 0.0000
# 6 0.0000 0.0000 0.0000 1.8034 0.0000 11.7532
#
#
#
# Elastic Compliance Matrix: (Units=1/GPa)
#
#
# Indices 1 2 3 4 5 6 
#
# 1 0.056999 0.015169 0.021201 0.000000 -0.078633 0.000000
# 2 0.015169 0.028523 0.014622 0.000000 -0.045629 0.000000
# 3 0.021201 0.014622 0.035496 0.000000 -0.073869 0.000000
# 4 0.000000 0.000000 0.000000 0.038013 0.000000 -0.005833
# 5 -0.078633 -0.045629 -0.073869 0.000000 0.225814 0.000000
# 6 0.000000 0.000000 0.000000 -0.005833 0.000000 0.085978
#
#
# Mechanical properties :
#
#
# Convention : Reuss Voigt Hill
#
# Bulk Modulus (GPa) = 4.48426 24.21618 14.35022
# Shear Modulus (GPa) = 11.28232 23.54698 17.41465
#
# Velocity S-wave (km/s) = 2.49280 3.60128 3.09704
# Velocity P-wave (km/s) = 3.27952 5.53444 4.54892
#
# Compressibility (1/GPa) = 0.22300217
#
# Stress axis : x y z
#
# Youngs Moduli (GPa) = 17.54414 35.06001 28.17232
#
# Poissons Ratio (x) = -0.53184 -0.59728
# Poissons Ratio (y) = -0.26614 -0.41193
# Poissons Ratio (z) = -0.37196 -0.51264
#
# Static dielectric constant tensor:
#      x y z
#    x 1.608270 0.000000 -0.005320 
#    y 0.000000 1.617110 0.000000 
#    z -0.005320 0.000000 1.637190 
# 
# From -- ./inp_files/214248.got.cif
#   From: 2010.05.17/outbox.cif.g08.bks.cpg/sg12_108_cif.got.tgz:214248.got - 2010.06.03 13:09:07.
