data_PCOD9183350
_publ_section_title
;
Structure prediction by ZEFSAII (Michael W. Deem and Ramdas Pophale) SiO2 
 PCOD9183350
Probable space group: C 2/M
;
_chemical_formula_sum "Si O2"
_cell_formula_units_Z 60
_cell_length_a 33.592952
_cell_length_b 9.290715
_cell_length_c 11.131627
_cell_angle_alpha 90.000000
_cell_angle_beta 111.477432
_cell_angle_gamma 90.000000
_cell_volume 3232.966462
_symmetry_space_group_name_H-M "C 2/M"
_symmetry_group_IT_number 12
_symmetry_cell_setting 'monoclinic'
loop_
_space_group_symop_operation_xyz
x,y,z
-x,y,-z
-x,-y,-z
x,-y,z
1/2+x,1/2+y,z
1/2-x,1/2+y,-z
1/2-x,1/2-y,-z
1/2+x,1/2-y,z
loop_
_atom_site_type_symbol
_atom_site_label
_atom_site_fract_x
_atom_site_fract_y
_atom_site_fract_z
Si Si1 0.222533 0.830273 0.300994
Si Si2 0.635804 0.332715 0.085232
Si Si3 0.574061 0.657822 0.245318
Si Si4 0.894967 0.328552 0.502599
Si Si5 0.545239 0.670067 0.617069
Si Si6 0.306200 0.330429 0.453218
Si Si7 0.435162 0.162439 0.126766
Si Si8 0.500000 0.753438 0.000000
O O1 0.184676 0.792747 0.166816
O O2 0.264657 0.733703 0.340891
O O3 0.203629 0.813840 0.415162
O O4 0.232891 0.000000 0.298416
O O5 0.633854 0.500000 0.043701
O O6 0.610894 0.327711 0.185591
O O7 0.609254 0.232525 0.966762
O O8 0.578426 0.500000 0.308899
O O9 0.578988 0.780236 0.349431
O O10 0.530057 0.665395 0.123657
O O11 0.893210 0.500000 0.490007
O O12 0.918984 0.254850 0.418263
O O13 0.848157 0.259267 0.466694
O O14 0.500000 0.689310 0.500000
O O15 0.554316 0.500000 0.632444
O O16 0.544684 0.738212 0.748392
O O17 0.312057 0.500000 0.435983
O O18 0.429340 0.000000 0.163730
O O19 0.466947 0.162420 0.047663
#
# Coordination Sequence:
#
# PCOD9183350 Si02
#       8
#     8   8   8   8   8   8   8   4
#     4   9  17  32  53  83 119 154 191 236 285 336
#     4   9  18  34  55  79 114 153 189 229 278 337
#     4  10  19  34  54  79 109 147 191 232 279 336
#     4  12  24  37  57  84 116 152 190 238 290 342
#     4  11  25  44  64  83 108 149 198 243 288 342
#     4  10  19  33  54  83 118 155 193 236 283 341
#     4  11  23  38  57  84 116 148 188 234 287 342
#     4  10  22  36  56  84 114 148 182 232 284 342
#
# _framework density 18.558807999999999
#
# number of rings (size 3 to 8) (size 9 to 14) (size 15 to 20)
#    0.000    1.733    1.333    3.600    0.000    8.533 
#    0.000    0.000    0.000    0.800    0.000    0.000 
#    0.000    0.000    0.000    0.000    0.000    0.000 
#
# Total GULP energy -167525.799661 kJ/mol
# GULP energy per Si atom -5584.193322 kJ/mol
# Density = 1.851657 g / cm^3
# Si number density = 18.558808 Si / 1000 Ang^3
#
#
#
# Elastic Constant Matrix: (Units=GPa)
#
#
# Indices 1 2 3 4 5 6 
#
# 1 82.9293 60.9803 38.9334 0.0000 17.2333 0.0000
# 2 60.9803 146.8488 58.5876 0.0000 10.4951 0.0000
# 3 38.9334 58.5876 86.7454 0.0000 20.1591 0.0000
# 4 0.0000 0.0000 0.0000 17.8621 0.0000 -2.4509
# 5 17.2333 10.4951 20.1591 0.0000 32.7459 0.0000
# 6 0.0000 0.0000 0.0000 -2.4509 0.0000 15.8615
#
#
#
# Elastic Compliance Matrix: (Units=1/GPa)
#
#
# Indices 1 2 3 4 5 6 
#
# 1 0.019524 -0.006499 -0.002882 0.000000 -0.006418 0.000000
# 2 -0.006499 0.011515 -0.005598 0.000000 0.003176 0.000000
# 3 -0.002882 -0.005598 0.018477 0.000000 -0.008064 0.000000
# 4 0.000000 0.000000 0.000000 0.057197 0.000000 0.008838
# 5 -0.006418 0.003176 -0.008064 0.000000 0.037862 0.000000
# 6 0.000000 0.000000 0.000000 0.008838 0.000000 0.064411
#
#
# Mechanical properties :
#
#
# Convention : Reuss Voigt Hill
#
# Bulk Modulus (GPa) = 51.13309 70.39181 60.76245
# Shear Modulus (GPa) = 20.36955 23.82870 22.09913
#
# Velocity S-wave (km/s) = 3.31655 3.58712 3.45449
# Velocity P-wave (km/s) = 6.50213 7.42752 6.98018
#
# Compressibility (1/GPa) = 0.01955681
#
# Stress axis : x y z
#
# Youngs Moduli (GPa) = 51.21866 86.84223 54.12256
#
# Poissons Ratio (x) = 0.56440 0.15598
# Poissons Ratio (y) = 0.33288 0.30300
# Poissons Ratio (z) = 0.14761 0.48618
#
# Static dielectric constant tensor:
#      x y z
#    x 1.637960 0.000000 0.006590 
#    y 0.000000 1.628590 0.000000 
#    z 0.006590 0.000000 1.639170 
# 
# From -- ./inp_files/187678.got.cif
#   From: 2010.05.17/outbox.cif.g08.bks.cpg/sg12_94_cif.got.tgz:187678.got - 2010.06.03 13:09:07.
