data_PCOD9183757
_publ_section_title
;
Structure prediction by ZEFSAII (Michael W. Deem and Ramdas Pophale) SiO2 
 PCOD9183757
Probable space group: C 2/M
;
_chemical_formula_sum "Si O2"
_cell_formula_units_Z 64
_cell_length_a 18.657606
_cell_length_b 7.449772
_cell_length_c 21.866725
_cell_angle_alpha 90.000000
_cell_angle_beta 102.922417
_cell_angle_gamma 90.000000
_cell_volume 2962.387880
_symmetry_space_group_name_H-M "C 2/M"
_symmetry_group_IT_number 12
_symmetry_cell_setting 'monoclinic'
loop_
_space_group_symop_operation_xyz
x,y,z
-x,y,-z
-x,-y,-z
x,-y,z
1/2+x,1/2+y,z
1/2-x,1/2+y,-z
1/2-x,1/2-y,-z
1/2+x,1/2-y,z
loop_
_atom_site_type_symbol
_atom_site_label
_atom_site_fract_x
_atom_site_fract_y
_atom_site_fract_z
Si Si1 0.431903 0.718719 0.567439
Si Si2 0.623893 0.720503 0.311989
Si Si3 0.487465 0.288187 0.813068
Si Si4 0.775737 0.214480 0.936130
Si Si5 0.440621 0.279979 0.938096
Si Si6 0.098488 0.783499 0.572759
Si Si7 0.343720 0.217085 0.184805
Si Si8 0.283339 0.209943 0.302174
O O1 0.431379 0.500000 0.567300
O O2 0.394450 0.779067 0.622674
O O3 0.394801 0.775778 0.496534
O O4 0.517593 0.773054 0.580477
O O5 0.623823 0.500000 0.313458
O O6 0.561668 0.780838 0.252348
O O7 0.703505 0.783006 0.304387
O O8 0.471859 0.500000 0.812540
O O9 0.464214 0.217939 0.875105
O O10 0.573496 0.266525 0.816720
O O11 0.858261 0.280076 0.938932
O O12 0.715331 0.281800 0.876378
O O13 0.778651 0.000000 0.928775
O O14 0.750000 0.250000 0.000000
O O15 0.440873 0.500000 0.938403
O O16 0.500000 0.223748 0.000000
O O17 0.161633 0.724372 0.630488
O O18 0.098765 0.000000 0.572870
O O19 0.320320 0.283426 0.247601
O O20 0.342210 0.000000 0.184649
O O21 0.270863 0.000000 0.287121
#
# Coordination Sequence:
#
# PCOD9183757 Si02
#       8
#     8   8   8   8   8   8   8   8
#     4   8  15  29  49  71  96 126 161 205 250 288
#     4   9  17  30  49  72  96 126 166 205 241 289
#     4  10  19  33  56  78  94 125 174 212 237 284
#     4  10  20  35  54  76 104 135 166 202 245 291
#     4   9  17  30  50  76 102 126 159 204 243 276
#     4   9  17  31  51  73  96 125 163 205 248 291
#     4  10  21  35  50  72 104 134 157 196 256 301
#     4  10  20  33  49  71 101 133 162 197 246 299
#
# _framework density 21.604192000000001
#
# number of rings (size 3 to 8) (size 9 to 14) (size 15 to 20)
#    0.000    2.625    0.000    3.000    0.000    6.500 
#    0.000    2.500    0.000    5.250    0.000    0.000 
#    0.000    0.000    0.000    0.000    0.000    0.000 
#
# Total GULP energy -178767.604331 kJ/mol
# GULP energy per Si atom -5586.487635 kJ/mol
# Density = 2.155502 g / cm^3
# Si number density = 21.604192 Si / 1000 Ang^3
#
#
#
# Elastic Constant Matrix: (Units=GPa)
#
#
# Indices 1 2 3 4 5 6 
#
# 1 196.5046 -10.0461 130.2855 0.0000 -14.8663 0.0000
# 2 -10.0461 58.7372 -8.6568 0.0000 -5.7722 0.0000
# 3 130.2855 -8.6568 200.4877 0.0000 -12.1163 0.0000
# 4 0.0000 0.0000 0.0000 15.7875 0.0000 12.9223
# 5 -14.8663 -5.7722 -12.1163 0.0000 43.6512 0.0000
# 6 0.0000 0.0000 0.0000 12.9223 0.0000 17.5060
#
#
#
# Elastic Compliance Matrix: (Units=1/GPa)
#
#
# Indices 1 2 3 4 5 6 
#
# 1 0.009076 0.000861 -0.005764 0.000000 0.001605 0.000000
# 2 0.000861 0.017491 0.000360 0.000000 0.002706 0.000000
# 3 -0.005764 0.000360 0.008780 0.000000 0.000522 0.000000
# 4 0.000000 0.000000 0.000000 0.160033 0.000000 -0.118131
# 5 0.001605 0.002706 0.000522 0.000000 0.023958 0.000000
# 6 0.000000 0.000000 0.000000 -0.118131 0.000000 0.144323
#
#
# Mechanical properties :
#
#
# Convention : Reuss Voigt Hill
#
# Bulk Modulus (GPa) = 38.08071 75.43275 56.75673
# Shear Modulus (GPa) = 13.10609 38.33207 25.71908
#
# Velocity S-wave (km/s) = 2.46569 4.21680 3.45406
# Velocity P-wave (km/s) = 5.07651 7.66160 6.49889
#
# Compressibility (1/GPa) = 0.02626002
#
# Stress axis : x y z
#
# Youngs Moduli (GPa) = 110.18379 57.17205 113.89041
#
# Poissons Ratio (x) = -0.04920 0.65643
# Poissons Ratio (y) = -0.09482 -0.04095
# Poissons Ratio (z) = 0.63506 -0.02056
#
# Static dielectric constant tensor:
#      x y z
#    x 1.730400 0.000000 -0.009880 
#    y 0.000000 1.034570 0.000000 
#    z -0.009880 0.000000 1.749760 
# 
# From -- ./inp_files/309960.got.cif
#   From: 2010.05.17/outbox.cif.g08.bks.cpg/sg12_155_cif.got.tgz:309960.got - 2010.06.03 13:09:07.
