data_PCOD9183335
_publ_section_title
;
Structure prediction by ZEFSAII (Michael W. Deem and Ramdas Pophale) SiO2 
 PCOD9183335
Probable space group: C 2/M
;
_chemical_formula_sum "Si O2"
_cell_formula_units_Z 56
_cell_length_a 15.567876
_cell_length_b 27.250547
_cell_length_c 8.996122
_cell_angle_alpha 90.000000
_cell_angle_beta 131.471955
_cell_angle_gamma 90.000000
_cell_volume 2859.591825
_symmetry_space_group_name_H-M "C 2/M"
_symmetry_group_IT_number 12
_symmetry_cell_setting 'monoclinic'
loop_
_space_group_symop_operation_xyz
x,y,z
-x,y,-z
-x,-y,-z
x,-y,z
1/2+x,1/2+y,z
1/2-x,1/2+y,-z
1/2-x,1/2-y,-z
1/2+x,1/2-y,z
loop_
_atom_site_type_symbol
_atom_site_label
_atom_site_fract_x
_atom_site_fract_y
_atom_site_fract_z
Si Si1 0.329779 0.786181 0.184463
Si Si2 0.922868 0.867789 0.699536
Si Si3 0.816025 0.555803 0.040768
Si Si4 0.394971 0.159129 0.991322
Si Si5 0.695848 0.280285 0.576467
Si Si6 0.624703 0.551714 0.572423
Si Si7 0.176964 0.880556 0.086708
O O1 0.358773 0.756883 0.366508
O O2 0.251622 0.832598 0.139044
O O3 0.250000 0.750000 0.000000
O O4 0.417596 0.807191 0.163230
O O5 0.899446 0.814318 0.608632
O O6 0.857578 0.904055 0.515766
O O7 0.867279 0.876583 0.796295
O O8 0.058024 0.879446 0.858184
O O9 0.867379 0.500000 0.111969
O O10 0.879812 0.603692 0.042260
O O11 0.713344 0.551160 0.806280
O O12 0.756580 0.574203 0.125944
O O13 0.288068 0.184955 0.775682
O O14 0.500000 0.159010 0.000000
O O15 0.750000 0.250000 0.500000
O O16 0.500000 0.555833 0.500000
O O17 0.631372 0.500000 0.496174
#
# Coordination Sequence:
#
# PCOD9183335 Si02
#       7
#     8   8   8   8   8   8   8
#     4   9  20  38  55  76 111 151 184 236 284 326
#     4  11  21  34  57  85 115 152 186 231 283 346
#     4  10  20  37  60  82 113 152 187 236 295 347
#     4  10  22  40  59  84 115 148 194 248 284 334
#     4  11  21  37  59  83 115 152 196 232 286 347
#     4  10  19  33  54  83 114 144 183 227 281 345
#     4  10  21  35  54  84 117 146 187 234 282 344
#
# _framework density 19.583213000000001
#
# number of rings (size 3 to 8) (size 9 to 14) (size 15 to 20)
#    0.000    1.857    4.286    0.000    0.000    3.143 
#    0.000    6.429    0.000    0.000    0.000    1.000 
#    0.000    0.000    0.000    0.000    0.000    0.000 
#
# Total GULP energy -155895.898983 kJ/mol
# GULP energy per Si atom -5567.710678 kJ/mol
# Density = 1.953864 g / cm^3
# Si number density = 19.583213 Si / 1000 Ang^3
#
#
#
# Elastic Constant Matrix: (Units=GPa)
#
#
# Indices 1 2 3 4 5 6 
#
# 1 106.4471 48.0186 15.2180 0.0000 -20.6390 0.0000
# 2 48.0186 131.3901 26.3022 0.0000 -24.3623 0.0000
# 3 15.2180 26.3022 43.6713 0.0000 -22.4805 0.0000
# 4 0.0000 0.0000 0.0000 38.1420 0.0000 -11.6562
# 5 -20.6390 -24.3623 -22.4805 0.0000 22.1474 0.0000
# 6 0.0000 0.0000 0.0000 -11.6562 0.0000 19.3604
#
#
#
# Elastic Compliance Matrix: (Units=1/GPa)
#
#
# Indices 1 2 3 4 5 6 
#
# 1 0.012612 -0.003108 0.003701 0.000000 0.012090 0.000000
# 2 -0.003108 0.010338 -0.001634 0.000000 0.006816 0.000000
# 3 0.003701 -0.001634 0.049096 0.000000 0.051485 0.000000
# 4 0.000000 0.000000 0.000000 0.032129 0.000000 0.019344
# 5 0.012090 0.006816 0.051485 0.000000 0.116176 0.000000
# 6 0.000000 0.000000 0.000000 0.019344 0.000000 0.063298
#
#
# Mechanical properties :
#
#
# Convention : Reuss Voigt Hill
#
# Bulk Modulus (GPa) = 14.29348 51.17623 32.73486
# Shear Modulus (GPa) = 16.17844 28.72794 22.45319
#
# Velocity S-wave (km/s) = 2.87738 3.83426 3.38975
# Velocity P-wave (km/s) = 4.28413 6.76694 5.66327
#
# Compressibility (1/GPa) = 0.06996195
#
# Stress axis : x y z
#
# Youngs Moduli (GPa) = 79.29261 96.73127 20.36830
#
# Poissons Ratio (x) = 0.30066 -0.07538
# Poissons Ratio (y) = 0.24646 0.03329
# Poissons Ratio (z) = -0.29345 0.15809
#
# Static dielectric constant tensor:
#      x y z
#    x 1.667500 0.000000 0.019100 
#    y 0.000000 1.736940 0.000000 
#    z 0.019100 0.000000 1.681530 
# 
# From -- ./inp_files/65983.got.cif
#   From: 2010.05.17/outbox.cif.g08.bks.cpg/sg12_33_cif.got.tgz:65983.got - 2010.06.03 13:09:07.
