data_PCOD9183926
_publ_section_title
;
Structure prediction by ZEFSAII (Michael W. Deem and Ramdas Pophale) SiO2 
 PCOD9183926
Probable space group: C 2/M
;
_chemical_formula_sum "Si O2"
_cell_formula_units_Z 56
_cell_length_a 28.314520
_cell_length_b 11.649790
_cell_length_c 23.509257
_cell_angle_alpha 90.000000
_cell_angle_beta 159.115243
_cell_angle_gamma 90.000000
_cell_volume 2764.476398
_symmetry_space_group_name_H-M "C 2/M"
_symmetry_group_IT_number 12
_symmetry_cell_setting 'monoclinic'
loop_
_space_group_symop_operation_xyz
x,y,z
-x,y,-z
-x,-y,-z
x,-y,z
1/2+x,1/2+y,z
1/2-x,1/2+y,-z
1/2-x,1/2-y,-z
1/2+x,1/2-y,z
loop_
_atom_site_type_symbol
_atom_site_label
_atom_site_fract_x
_atom_site_fract_y
_atom_site_fract_z
Si Si1 0.715038 0.694835 0.353766
Si Si2 0.061728 0.625804 0.244108
Si Si3 0.582530 0.367918 0.725208
Si Si4 0.689994 0.828265 0.109017
Si Si5 0.488384 0.132211 0.287890
Si Si6 0.453186 0.626103 0.007270
Si Si7 0.795124 0.123691 0.351517
O O1 0.671479 0.779669 0.355198
O O2 0.853943 0.634553 0.521110
O O3 0.736412 0.775621 0.323077
O O4 0.584783 0.622396 0.193608
O O5 0.122775 0.500000 0.317624
O O6 0.981737 0.646650 0.212315
O O7 0.954914 0.627808 0.072735
O O8 0.585159 0.500000 0.754036
O O9 0.709970 0.354730 0.828859
O O10 0.569556 0.250272 0.748703
O O11 0.452808 0.367431 0.538640
O O12 0.659463 0.695385 0.087247
O O13 0.749667 0.871837 0.235368
O O14 0.440144 0.000000 0.247760
O O15 0.403529 0.500000 0.937292
O O16 0.500000 0.680346 0.000000
O O17 0.752525 0.000000 0.327452
#
# Coordination Sequence:
#
# PCOD9183926 Si02
#       7
#     8   8   8   8   8   8   8
#     4  10  19  35  57  83 112 148 186 229 283 342
#     4  10  21  35  56  85 116 148 186 237 285 335
#     4  10  22  39  60  84 113 149 193 240 284 332
#     4  11  21  36  56  84 114 149 185 230 286 339
#     4  10  22  40  59  82 113 152 196 238 282 333
#     4  10  20  35  53  78 113 150 186 226 274 337
#     4  10  19  33  56  84 113 145 182 229 282 342
#
# _framework density 20.257000999999999
#
# number of rings (size 3 to 8) (size 9 to 14) (size 15 to 20)
#    0.000    1.857    1.429    3.000    0.000    2.857 
#    0.000    5.714    0.000    2.571    0.000    0.000 
#    0.000    0.000    0.000    0.000    0.000    0.000 
#
# Total GULP energy -155938.645165 kJ/mol
# GULP energy per Si atom -5569.237327 kJ/mol
# Density = 2.021090 g / cm^3
# Si number density = 20.257001 Si / 1000 Ang^3
#
#
#
# Elastic Constant Matrix: (Units=GPa)
#
#
# Indices 1 2 3 4 5 6 
#
# 1 60.4046 39.8355 11.6113 0.0000 -4.6994 0.0000
# 2 39.8355 124.3865 9.3732 0.0000 9.6072 0.0000
# 3 11.6113 9.3732 33.0206 -0.0001 -0.8585 -0.0001
# 4 0.0000 0.0000 -0.0001 -3.9671 0.0000 -2.8912
# 5 -4.6994 9.6072 -0.8585 0.0000 30.9651 0.0000
# 6 0.0000 0.0000 -0.0001 -2.8912 0.0000 17.7983
#
#
#
# Elastic Compliance Matrix: (Units=1/GPa)
#
#
# Indices 1 2 3 4 5 6 
#
# 1 0.022957 -0.007345 -0.005842 0.000000 0.005601 0.000000
# 2 -0.007345 0.010782 -0.000594 0.000000 -0.004476 0.000000
# 3 -0.005842 -0.000594 0.032512 -0.000001 0.000199 0.000000
# 4 0.000000 0.000000 -0.000001 -0.225388 0.000000 -0.036612
# 5 0.005601 -0.004476 0.000199 0.000000 0.034539 0.000000
# 6 0.000000 0.000000 0.000000 -0.036612 0.000000 0.050238
#
#
# Mechanical properties :
#
#
# Convention : Reuss Voigt Hill
#
# Bulk Modulus (GPa) = 25.84680 37.71687 31.78184
# Shear Modulus (GPa) = -147.49102 19.42536 -64.03283
#
# Velocity S-wave (km/s) = -8.54213 3.10004 -5.62840
# Velocity P-wave (km/s) = 9.19258 5.61011 5.14928
#
# Compressibility (1/GPa) = 0.03868951
#
# Stress axis : x y z
#
# Youngs Moduli (GPa) = 43.55901 92.74606 30.75752
#
# Poissons Ratio (x) = 0.68118 0.17969
# Poissons Ratio (y) = 0.31992 0.01828
# Poissons Ratio (z) = 0.25448 0.05513
#
# Static dielectric constant tensor:
#      x y z
#    x 1.706780 0.000000 -0.015370 
#    y 0.000000 1.774670 0.000000 
#    z -0.015370 0.000000 1.734690 
# 
# From -- ./inp_files/353971.got.cif
#   From: 2010.05.17/outbox.cif.g08.bks.cpg/sg12_177_cif.got.tgz:353971.got - 2010.06.03 13:09:07.
