data_PCOD9183084
_publ_section_title
;
Structure prediction by ZEFSAII (Michael W. Deem and Ramdas Pophale) SiO2 
 PCOD9183084
Probable space group: C 2/M
;
_chemical_formula_sum "Si O2"
_cell_formula_units_Z 56
_cell_length_a 19.227200
_cell_length_b 9.017810
_cell_length_c 21.934341
_cell_angle_alpha 90.000000
_cell_angle_beta 56.750911
_cell_angle_gamma 90.000000
_cell_volume 3180.542111
_symmetry_space_group_name_H-M "C 2/M"
_symmetry_group_IT_number 12
_symmetry_cell_setting 'monoclinic'
loop_
_space_group_symop_operation_xyz
x,y,z
-x,y,-z
-x,-y,-z
x,-y,z
1/2+x,1/2+y,z
1/2-x,1/2+y,-z
1/2-x,1/2-y,-z
1/2+x,1/2-y,z
loop_
_atom_site_type_symbol
_atom_site_label
_atom_site_fract_x
_atom_site_fract_y
_atom_site_fract_z
Si Si1 0.116844 0.328851 0.564043
Si Si2 0.033564 0.824545 0.417078
Si Si3 0.173581 0.676475 0.853248
Si Si4 0.174373 0.678049 0.997914
Si Si5 0.794873 0.325833 0.702390
Si Si6 0.999346 0.171552 0.074382
Si Si7 0.269699 0.328992 0.399917
O O1 0.090413 0.500000 0.576989
O O2 0.181458 0.308243 0.476869
O O3 0.167624 0.284773 0.599538
O O4 0.040182 0.220306 0.592490
O O5 0.116013 0.740931 0.357243
O O6 0.000000 0.778038 0.500000
O O7 0.048662 0.000000 0.411277
O O8 0.168457 0.500000 0.848884
O O9 0.249671 0.742298 0.778745
O O10 0.087788 0.748391 0.869756
O O11 0.184615 0.707783 0.920258
O O12 0.173450 0.500000 0.007210
O O13 0.083204 0.746960 0.056603
O O14 0.250000 0.750000 0.000000
O O15 0.801986 0.500000 0.712509
O O16 0.741310 0.309248 0.666311
O O17 0.999007 0.000000 0.094367
O O18 0.000000 0.173471 0.000000
O O19 0.294603 0.500000 0.400754
#
# Coordination Sequence:
#
# PCOD9183084 Si02
#       7
#     8   8   8   8   8   8   8
#     4  10  19  33  54  77 103 134 175 226 274 325
#     4  11  22  35  54  79 108 144 186 232 282 336
#     4  10  21  37  56  82 115 148 184 227 276 329
#     4  10  20  35  58  87 118 150 184 226 272 323
#     4  11  22  37  57  80 110 146 185 231 281 332
#     4   9  17  32  56  83 110 143 183 221 261 317
#     4   9  19  34  52  76 104 135 173 221 274 326
#
# _framework density 17.607061999999999
#
# number of rings (size 3 to 8) (size 9 to 14) (size 15 to 20)
#    0.000    2.000    1.429    2.571    0.000    5.714 
#    0.000    1.429    0.000    8.571    0.000    0.000 
#    0.000    0.000    0.000    0.000    0.000    0.000 
#
# Total GULP energy -156221.136074 kJ/mol
# GULP energy per Si atom -5579.326288 kJ/mol
# Density = 1.756699 g / cm^3
# Si number density = 17.607062 Si / 1000 Ang^3
#
#
#
# Elastic Constant Matrix: (Units=GPa)
#
#
# Indices 1 2 3 4 5 6 
#
# 1 104.3339 54.4174 36.0947 0.0000 -13.8151 0.0002
# 2 54.4174 77.8762 50.3903 0.0000 -6.3727 0.0003
# 3 36.0947 50.3903 79.7466 0.0000 -17.2469 0.0000
# 4 0.0000 0.0000 0.0000 26.4348 0.0000 -5.9026
# 5 -13.8151 -6.3727 -17.2469 0.0000 18.4239 0.0000
# 6 0.0002 0.0003 0.0000 -5.9026 0.0000 34.8765
#
#
#
# Elastic Compliance Matrix: (Units=1/GPa)
#
#
# Indices 1 2 3 4 5 6 
#
# 1 0.016540 -0.012397 0.002636 0.000000 0.010582 0.000000
# 2 -0.012397 0.031692 -0.017622 0.000000 -0.014830 0.000000
# 3 0.002636 -0.017622 0.027072 0.000000 0.021223 0.000000
# 4 0.000000 0.000000 0.000000 0.039315 0.000000 0.006654
# 5 0.010582 -0.014830 0.021223 0.000000 0.076950 0.000000
# 6 0.000000 0.000000 0.000000 0.006654 0.000000 0.029799
#
#
# Mechanical properties :
#
#
# Convention : Reuss Voigt Hill
#
# Bulk Modulus (GPa) = 48.69176 60.41797 54.55486
# Shear Modulus (GPa) = 17.66915 24.01735 20.84325
#
# Velocity S-wave (km/s) = 3.17128 3.69734 3.44437
# Velocity P-wave (km/s) = 6.41281 7.25371 6.84618
#
# Compressibility (1/GPa) = 0.02053736
#
# Stress axis : x y z
#
# Youngs Moduli (GPa) = 60.46000 31.55326 36.93901
#
# Poissons Ratio (x) = 0.39117 -0.09736
# Poissons Ratio (y) = 0.74953 0.65094
# Poissons Ratio (z) = -0.15936 0.55603
#
# Static dielectric constant tensor:
#      x y z
#    x 1.591410 0.000000 0.000890 
#    y 0.000000 1.586810 0.000000 
#    z 0.000890 0.000000 1.589830 
# 
# From -- ./inp_files/313751.got.cif
#   From: 2010.05.17/outbox.cif.g08.bks.cpg/sg12_157_cif.got.tgz:313751.got - 2010.06.03 13:09:07.
