data_PCOD9183153
_publ_section_title
;
Structure prediction by ZEFSAII (Michael W. Deem and Ramdas Pophale) SiO2 
 PCOD9183153
Probable space group: C 2/M
;
_chemical_formula_sum "Si O2"
_cell_formula_units_Z 64
_cell_length_a 21.111230
_cell_length_b 7.761466
_cell_length_c 25.539403
_cell_angle_alpha 90.000000
_cell_angle_beta 129.130724
_cell_angle_gamma 90.000000
_cell_volume 3246.133428
_symmetry_space_group_name_H-M "C 2/M"
_symmetry_group_IT_number 12
_symmetry_cell_setting 'monoclinic'
loop_
_space_group_symop_operation_xyz
x,y,z
-x,y,-z
-x,-y,-z
x,-y,z
1/2+x,1/2+y,z
1/2-x,1/2+y,-z
1/2-x,1/2-y,-z
1/2+x,1/2-y,z
loop_
_atom_site_type_symbol
_atom_site_label
_atom_site_fract_x
_atom_site_fract_y
_atom_site_fract_z
Si Si1 0.541423 0.794165 0.293727
Si Si2 0.193580 0.706729 0.921554
Si Si3 0.514892 0.294570 0.449383
Si Si4 0.398435 0.791479 0.296411
Si Si5 0.739647 0.291244 0.155468
Si Si6 0.844470 0.204282 0.554540
Si Si7 0.947629 0.705221 0.923766
Si Si8 0.491955 0.788574 0.156828
O O1 0.462034 0.730912 0.284611
O O2 0.618800 0.756618 0.370204
O O3 0.541428 0.731324 0.234162
O O4 0.532659 0.000000 0.286486
O O5 0.189162 0.500000 0.914824
O O6 0.230761 0.770183 0.886285
O O7 0.101475 0.766529 0.883248
O O8 0.250000 0.750000 0.000000
O O9 0.500000 0.224493 0.500000
O O10 0.527080 0.500000 0.460959
O O11 0.436798 0.265974 0.371243
O O12 0.593580 0.224547 0.458015
O O13 0.307710 0.735154 0.233240
O O14 0.399304 0.000000 0.296582
O O15 0.739694 0.500000 0.155148
O O16 0.648186 0.233286 0.118431
O O17 0.750000 0.250000 0.500000
O O18 0.850787 0.000000 0.554698
O O19 0.962799 0.500000 0.930422
O O20 0.975511 0.774059 0.881891
O O21 0.000000 0.775593 0.000000
O O22 0.493756 0.000000 0.156602
#
# Coordination Sequence:
#
# PCOD9183153 Si02
#       8
#     8   8   8   8   8   8   8   8
#     4   9  16  32  57  78 100 136 177 216 258 305
#     4  10  19  33  54  79 103 132 172 218 260 305
#     4   9  19  36  56  79 107 138 173 213 255 301
#     4   9  17  32  55  80 104 135 173 213 259 310
#     4  10  20  35  54  77 107 138 171 213 266 317
#     4  10  20  35  55  80 109 139 171 211 257 307
#     4  10  21  36  53  75 104 140 179 217 259 311
#     4   9  17  33  55  75 100 136 177 215 257 308
#
# _framework density 19.715762999999999
#
# number of rings (size 3 to 8) (size 9 to 14) (size 15 to 20)
#    0.000    2.500    1.250    1.125    0.000    3.000 
#    2.250    1.875    0.000    0.000    0.000    0.000 
#    0.000    0.000    0.000    0.000    0.000    0.000 
#
# Total GULP energy -178530.524698 kJ/mol
# GULP energy per Si atom -5579.078897 kJ/mol
# Density = 1.967089 g / cm^3
# Si number density = 19.715763 Si / 1000 Ang^3
#
#
#
# Elastic Constant Matrix: (Units=GPa)
#
#
# Indices 1 2 3 4 5 6 
#
# 1 147.3532 1.4100 115.6633 0.0000 -15.5187 0.0000
# 2 1.4100 20.0522 -1.6175 -0.0001 -9.3850 0.0001
# 3 115.6633 -1.6175 201.1045 0.0000 -13.9900 0.0000
# 4 0.0000 -0.0001 0.0000 22.4681 0.0000 5.9053
# 5 -15.5187 -9.3850 -13.9900 0.0000 37.0899 0.0000
# 6 0.0000 0.0001 0.0000 5.9053 0.0000 17.9390
#
#
#
# Elastic Compliance Matrix: (Units=1/GPa)
#
#
# Indices 1 2 3 4 5 6 
#
# 1 0.012614 -0.000270 -0.007080 0.000000 0.002539 0.000000
# 2 -0.000270 0.057013 0.001653 0.000000 0.014937 0.000000
# 3 -0.007080 0.001653 0.009120 0.000000 0.000896 0.000000
# 4 0.000000 0.000000 0.000000 0.048723 0.000000 -0.016039
# 5 0.002539 0.014937 0.000896 0.000000 0.032141 0.000000
# 6 0.000000 0.000000 0.000000 -0.016039 0.000000 0.061024
#
#
# Mechanical properties :
#
#
# Convention : Reuss Voigt Hill
#
# Bulk Modulus (GPa) = 14.84728 66.60240 40.72484
# Shear Modulus (GPa) = 19.64779 32.36968 26.00874
#
# Velocity S-wave (km/s) = 3.16025 4.05633 3.63600
# Velocity P-wave (km/s) = 4.56763 7.46947 6.19097
#
# Compressibility (1/GPa) = 0.06735240
#
# Stress axis : x y z
#
# Youngs Moduli (GPa) = 79.27654 17.53991 109.64448
#
# Poissons Ratio (x) = 0.00473 0.77633
# Poissons Ratio (y) = 0.02140 -0.18123
# Poissons Ratio (z) = 0.56131 -0.02899
#
# Static dielectric constant tensor:
#      x y z
#    x 1.673770 0.000000 -0.029630 
#    y 0.000000 1.755320 0.000000 
#    z -0.029630 0.000000 1.668710 
# 
# From -- ./inp_files/346311.got.cif
#   From: 2010.05.17/outbox.cif.g08.bks.cpg/sg12_174_cif.got.tgz:346311.got - 2010.06.03 13:09:07.
