data_PCOD9183811
_publ_section_title
;
Structure prediction by ZEFSAII (Michael W. Deem and Ramdas Pophale) SiO2 
 PCOD9183811
Probable space group: C 2/M
;
_chemical_formula_sum "Si O2"
_cell_formula_units_Z 56
_cell_length_a 11.645516
_cell_length_b 27.402542
_cell_length_c 10.551592
_cell_angle_alpha 90.000000
_cell_angle_beta 122.191421
_cell_angle_gamma 90.000000
_cell_volume 2849.561506
_symmetry_space_group_name_H-M "C 2/M"
_symmetry_group_IT_number 12
_symmetry_cell_setting 'monoclinic'
loop_
_space_group_symop_operation_xyz
x,y,z
-x,y,-z
-x,-y,-z
x,-y,z
1/2+x,1/2+y,z
1/2-x,1/2+y,-z
1/2-x,1/2-y,-z
1/2+x,1/2-y,z
loop_
_atom_site_type_symbol
_atom_site_label
_atom_site_fract_x
_atom_site_fract_y
_atom_site_fract_z
Si Si1 0.813688 0.845102 0.125167
Si Si2 0.580661 0.445521 0.846721
Si Si3 0.674972 0.845273 0.779060
Si Si4 0.064548 0.785521 0.163972
Si Si5 0.346951 0.696361 0.409318
Si Si6 0.603666 0.791859 0.411332
Si Si7 0.793342 0.054643 0.794206
O O1 0.846465 0.901037 0.180355
O O2 0.788043 0.813293 0.235302
O O3 0.952870 0.824345 0.146423
O O4 0.702985 0.843473 0.947819
O O5 0.603157 0.500000 0.808317
O O6 0.419844 0.437976 0.773239
O O7 0.641819 0.444588 0.025746
O O8 0.798944 0.813706 0.794110
O O9 0.528453 0.824646 0.658576
O O10 0.693232 0.899874 0.736987
O O11 0.078135 0.745026 0.278810
O O12 0.000000 0.762802 0.000000
O O13 0.500000 0.675413 0.500000
O O14 0.366783 0.753103 0.459900
O O15 0.239566 0.678874 0.451663
O O16 0.737943 0.000000 0.741333
#
# Coordination Sequence:
#
# PCOD9183811 Si02
#       7
#     8   8   8   8   8   8   8
#     4  10  19  33  56  81 111 151 180 233 275 325
#     4   8  13  25  49  83 114 143 180 222 278 332
#     4  10  20  34  54  86 117 141 186 231 286 331
#     4  10  20  31  51  78 110 141 180 227 274 317
#     4  11  23  40  53  71 103 149 195 228 274 329
#     4  11  24  37  53  73 108 153 189 232 276 332
#     4   8  13  25  50  83 119 146 172 224 283 335
#
# _framework density 19.652145999999998
#
# number of rings (size 3 to 8) (size 9 to 14) (size 15 to 20)
#    0.000    2.286    2.857    1.714    2.000    1.143 
#    0.000    0.000    0.000    1.286    0.000    4.000 
#    0.000    8.000    0.000    0.000    0.000    0.571 
#
# Total GULP energy -156171.337361 kJ/mol
# GULP energy per Si atom -5577.547763 kJ/mol
# Density = 1.960742 g / cm^3
# Si number density = 19.652146 Si / 1000 Ang^3
#
#
#
# Elastic Constant Matrix: (Units=GPa)
#
#
# Indices 1 2 3 4 5 6 
#
# 1 84.6197 45.1339 24.9616 0.0000 17.4792 0.0000
# 2 45.1339 118.6760 52.8092 0.0000 4.5203 0.0000
# 3 24.9616 52.8092 73.1049 0.0000 -8.0332 0.0000
# 4 0.0000 0.0000 0.0000 14.8883 0.0000 4.6910
# 5 17.4792 4.5203 -8.0332 0.0000 31.8197 0.0000
# 6 0.0000 0.0000 0.0000 4.6910 0.0000 17.2881
#
#
#
# Elastic Compliance Matrix: (Units=1/GPa)
#
#
# Indices 1 2 3 4 5 6 
#
# 1 0.017390 -0.004592 -0.003701 0.000000 -0.009835 0.000000
# 2 -0.004592 0.014186 -0.008870 0.000000 -0.001732 0.000000
# 3 -0.003701 -0.008870 0.022331 0.000000 0.008931 0.000000
# 4 0.000000 0.000000 0.000000 0.073446 0.000000 -0.019929
# 5 -0.009835 -0.001732 0.008931 0.000000 0.039330 0.000000
# 6 0.000000 0.000000 0.000000 -0.019929 0.000000 0.063251
#
#
# Mechanical properties :
#
#
# Convention : Reuss Voigt Hill
#
# Bulk Modulus (GPa) = 51.06994 58.02332 54.54663
# Shear Modulus (GPa) = 18.46463 23.03227 20.74845
#
# Velocity S-wave (km/s) = 3.06857 3.42716 3.25281
# Velocity P-wave (km/s) = 6.21275 6.72680 6.47488
#
# Compressibility (1/GPa) = 0.01958099
#
# Stress axis : x y z
#
# Youngs Moduli (GPa) = 57.50357 70.49423 44.77982
#
# Poissons Ratio (x) = 0.32371 0.16575
# Poissons Ratio (y) = 0.26406 0.39718
# Poissons Ratio (z) = 0.21285 0.62526
#
# Static dielectric constant tensor:
#      x y z
#    x 1.762970 0.000000 0.001680 
#    y 0.000000 1.705770 0.000000 
#    z 0.001680 0.000000 1.748690 
# 
# From -- ./inp_files/136729.got.cif
#   From: 2010.05.17/outbox.cif.g08.bks.cpg/sg12_69_cif.got.tgz:136729.got - 2010.06.03 13:09:07.
