data_PCOD9183952
_publ_section_title
;
Structure prediction by ZEFSAII (Michael W. Deem and Ramdas Pophale) SiO2 
 PCOD9183952
Probable space group: C 2/M
;
_chemical_formula_sum "Si O2"
_cell_formula_units_Z 64
_cell_length_a 20.963589
_cell_length_b 8.715520
_cell_length_c 25.143256
_cell_angle_alpha 90.000000
_cell_angle_beta 127.924108
_cell_angle_gamma 90.000000
_cell_volume 3623.776667
_symmetry_space_group_name_H-M "C 2/M"
_symmetry_group_IT_number 12
_symmetry_cell_setting 'monoclinic'
loop_
_space_group_symop_operation_xyz
x,y,z
-x,y,-z
-x,-y,-z
x,-y,z
1/2+x,1/2+y,z
1/2-x,1/2+y,-z
1/2-x,1/2-y,-z
1/2+x,1/2-y,z
loop_
_atom_site_type_symbol
_atom_site_label
_atom_site_fract_x
_atom_site_fract_y
_atom_site_fract_z
Si Si1 0.119479 0.815415 0.672833
Si Si2 0.786972 0.816988 0.465012
Si Si3 0.235979 0.815302 0.825064
Si Si4 0.465602 0.183429 0.541266
Si Si5 0.259790 0.684408 0.669111
Si Si6 0.787018 0.316726 0.965453
Si Si7 0.124806 0.184472 0.178266
Si Si8 0.035511 0.184224 0.959536
O O1 0.158486 0.772251 0.749759
O O2 0.182624 0.751685 0.661344
O O3 0.032734 0.743566 0.616653
O O4 0.115771 0.000000 0.666827
O O5 0.750000 0.750000 0.500000
O O6 0.879466 0.761612 0.505948
O O7 0.739996 0.752761 0.389440
O O8 0.783575 0.000000 0.463909
O O9 0.239488 0.764089 0.887840
O O10 0.314164 0.752063 0.834188
O O11 0.240566 0.000000 0.826598
O O12 0.500000 0.219634 0.500000
O O13 0.456578 0.000000 0.540331
O O14 0.251903 0.500000 0.662659
O O15 0.337691 0.724174 0.745188
O O16 0.782849 0.500000 0.965430
O O17 0.750000 0.250000 0.000000
O O18 0.879568 0.264896 0.005979
O O19 0.033723 0.231523 0.117981
O O20 0.127830 0.000000 0.174908
O O21 0.047327 0.000000 0.962129
O O22 0.000000 0.217082 0.000000
#
# Coordination Sequence:
#
# PCOD9183952 Si02
#       8
#     8   8   8   8   8   8   8   8
#     4  10  19  33  56  85 113 145 187 234 284 331
#     4  12  25  41  61  84 115 152 190 231 282 339
#     4   9  19  34  53  80 113 146 184 232 282 331
#     4  11  22  37  59  87 118 148 187 235 279 329
#     4  10  19  34  55  83 116 149 187 229 280 333
#     4  11  23  38  56  80 113 152 190 232 283 336
#     4   9  18  32  55  84 113 146 183 229 279 329
#     4  10  19  34  57  85 114 145 187 233 277 329
#
# _framework density 17.661133
#
# number of rings (size 3 to 8) (size 9 to 14) (size 15 to 20)
#    0.000    1.750    2.500    2.625    0.000    2.750 
#    0.000    1.250    0.000    3.000    0.000    0.000 
#    0.000    0.000    0.000    0.000    0.000    0.000 
#
# Total GULP energy -178666.832048 kJ/mol
# GULP energy per Si atom -5583.338501 kJ/mol
# Density = 1.762094 g / cm^3
# Si number density = 17.661133 Si / 1000 Ang^3
#
#
#
# Elastic Constant Matrix: (Units=GPa)
#
#
# Indices 1 2 3 4 5 6 
#
# 1 87.9504 41.9314 67.6439 0.0000 -17.1238 0.0000
# 2 41.9314 57.7962 49.4092 0.0000 -6.9475 0.0000
# 3 67.6439 49.4092 168.2966 0.0000 -16.0187 0.0000
# 4 0.0000 0.0000 0.0000 27.4112 0.0000 0.4995
# 5 -17.1238 -6.9475 -16.0187 0.0000 28.0157 0.0000
# 6 0.0000 0.0000 0.0000 0.4995 0.0000 30.1641
#
#
#
# Elastic Compliance Matrix: (Units=1/GPa)
#
#
# Indices 1 2 3 4 5 6 
#
# 1 0.021712 -0.010663 -0.004849 0.000000 0.007854 0.000000
# 2 -0.010663 0.028438 -0.004243 0.000000 -0.001891 0.000000
# 3 -0.004849 -0.004243 0.009258 0.000000 0.001278 0.000000
# 4 0.000000 0.000000 0.000000 0.036492 0.000000 -0.000604
# 5 0.007854 -0.001891 0.001278 0.000000 0.040757 0.000000
# 6 0.000000 0.000000 0.000000 -0.000604 0.000000 0.033162
#
#
# Mechanical properties :
#
#
# Convention : Reuss Voigt Hill
#
# Bulk Modulus (GPa) = 50.25468 70.22356 60.23912
# Shear Modulus (GPa) = 23.15216 27.45546 25.30381
#
# Velocity S-wave (km/s) = 3.62458 3.94708 3.78926
# Velocity P-wave (km/s) = 6.78480 7.78592 7.30253
#
# Compressibility (1/GPa) = 0.01989864
#
# Stress axis : x y z
#
# Youngs Moduli (GPa) = 46.05697 35.16380 108.01314
#
# Poissons Ratio (x) = 0.37495 0.52373
# Poissons Ratio (y) = 0.49111 0.45833
# Poissons Ratio (z) = 0.22332 0.14921
#
# Static dielectric constant tensor:
#      x y z
#    x 1.553450 0.000000 -0.002770 
#    y 0.000000 1.593640 0.000000 
#    z -0.002770 0.000000 1.638060 
# 
# From -- ./inp_files/346226.got.cif
#   From: 2010.05.17/outbox.cif.g08.bks.cpg/sg12_174_cif.got.tgz:346226.got - 2010.06.03 13:09:07.
