data_PCOD9183526
_publ_section_title
;
Structure prediction by ZEFSAII (Michael W. Deem and Ramdas Pophale) SiO2 
 PCOD9183526
Probable space group: C 2/M
;
_chemical_formula_sum "Si O2"
_cell_formula_units_Z 48
_cell_length_a 20.749927
_cell_length_b 8.820407
_cell_length_c 15.299709
_cell_angle_alpha 90.000000
_cell_angle_beta 80.180745
_cell_angle_gamma 90.000000
_cell_volume 2759.174533
_symmetry_space_group_name_H-M "C 2/M"
_symmetry_group_IT_number 12
_symmetry_cell_setting 'monoclinic'
loop_
_space_group_symop_operation_xyz
x,y,z
-x,y,-z
-x,-y,-z
x,-y,z
1/2+x,1/2+y,z
1/2-x,1/2+y,-z
1/2-x,1/2-y,-z
1/2+x,1/2-y,z
loop_
_atom_site_type_symbol
_atom_site_label
_atom_site_fract_x
_atom_site_fract_y
_atom_site_fract_z
Si Si1 0.938409 0.319546 0.449885
Si Si2 0.662705 0.317449 0.269252
Si Si3 0.189485 0.817886 0.066760
Si Si4 0.804898 0.819264 0.548815
Si Si5 0.478354 0.182156 0.729706
Si Si6 0.952185 0.682921 0.932604
O O1 0.923787 0.500000 0.453371
O O2 0.875668 0.231107 0.497593
O O3 0.000000 0.296173 0.500000
O O4 0.962791 0.273152 0.347670
O O5 0.658966 0.500000 0.270845
O O6 0.692746 0.272620 0.168805
O O7 0.699550 0.268563 0.348602
O O8 0.589278 0.253149 0.288090
O O9 0.119575 0.756971 0.048580
O O10 0.190423 0.000000 0.061306
O O11 0.250000 0.750000 0.000000
O O12 0.750000 0.750000 0.500000
O O13 0.799492 0.000000 0.548243
O O14 0.483443 0.221180 0.830794
O O15 0.472539 0.000000 0.724244
O O16 0.944340 0.500000 0.938110
O O17 0.000000 0.729005 0.000000
#
# Coordination Sequence:
#
# PCOD9183526 Si02
#       6
#     8   8   8   8   8   8
#     4  10  19  33  55  81 107 136 174 217 259 311
#     4   9  19  35  55  77 103 138 177 219 264 311
#     4  10  20  36  57  80 105 137 178 221 265 315
#     4  11  23  38  55  77 108 143 178 219 266 313
#     4   9  17  31  54  80 104 137 176 214 257 309
#     4   9  18  34  55  79 108 140 174 214 262 313
#
# _framework density 17.396508000000001
#
# number of rings (size 3 to 8) (size 9 to 14) (size 15 to 20)
#    0.000    2.333    1.667    1.000    0.000    2.667 
#    3.000    0.000    0.000    0.000    0.000    0.000 
#    0.000    0.000    0.000    0.000    0.000    0.000 
#
# Total GULP energy -133854.197353 kJ/mol
# GULP energy per Si atom -5577.258223 kJ/mol
# Density = 1.735691 g / cm^3
# Si number density = 17.396508 Si / 1000 Ang^3
#
#
#
# Elastic Constant Matrix: (Units=GPa)
#
#
# Indices 1 2 3 4 5 6 
#
# 1 94.3344 36.8324 89.0115 0.0000 4.8511 0.0000
# 2 36.8324 25.2919 42.5677 0.0000 2.9248 0.0000
# 3 89.0115 42.5677 157.2053 0.0000 9.4352 0.0000
# 4 0.0000 0.0000 0.0000 22.1621 0.0000 -1.5803
# 5 4.8511 2.9248 9.4352 0.0000 35.3493 0.0000
# 6 0.0000 0.0000 0.0000 -1.5803 0.0000 31.3075
#
#
#
# Elastic Compliance Matrix: (Units=1/GPa)
#
#
# Indices 1 2 3 4 5 6 
#
# 1 0.031111 -0.028791 -0.009864 0.000000 0.000746 0.000000
# 2 -0.028791 0.099311 -0.010501 0.000000 -0.001463 0.000000
# 3 -0.009864 -0.010501 0.014895 0.000000 -0.001753 0.000000
# 4 0.000000 0.000000 0.000000 0.045285 0.000000 0.002286
# 5 0.000746 -0.001463 -0.001753 0.000000 0.028776 0.000000
# 6 0.000000 0.000000 0.000000 0.002286 0.000000 0.032057
#
#
# Mechanical properties :
#
#
# Convention : Reuss Voigt Hill
#
# Bulk Modulus (GPa) = 21.27517 68.18385 44.72951
# Shear Modulus (GPa) = 13.68302 24.99178 19.33740
#
# Velocity S-wave (km/s) = 2.80757 3.79436 3.33764
# Velocity P-wave (km/s) = 4.77138 7.64691 6.37344
#
# Compressibility (1/GPa) = 0.04700315
#
# Stress axis : x y z
#
# Youngs Moduli (GPa) = 32.14247 10.06942 67.13602
#
# Poissons Ratio (x) = 0.28991 0.66225
# Poissons Ratio (y) = 0.92543 0.70501
# Poissons Ratio (z) = 0.31706 0.10574
#
# Static dielectric constant tensor:
#      x y z
#    x 1.541840 0.000000 0.002590 
#    y 0.000000 1.584890 0.000000 
#    z 0.002590 0.000000 1.629250 
# 
# From -- ./inp_files/221649.got.cif
#   From: 2010.05.17/outbox.cif.g08.bks.cpg/sg12_111_cif.got.tgz:221649.got - 2010.06.03 13:09:07.
