data_PCOD9183650
_publ_section_title
;
Structure prediction by ZEFSAII (Michael W. Deem and Ramdas Pophale) SiO2 
 PCOD9183650
Probable space group: C 2/M
;
_chemical_formula_sum "Si O2"
_cell_formula_units_Z 64
_cell_length_a 17.839467
_cell_length_b 14.489718
_cell_length_c 16.887444
_cell_angle_alpha 90.000000
_cell_angle_beta 136.996142
_cell_angle_gamma 90.000000
_cell_volume 2977.285055
_symmetry_space_group_name_H-M "C 2/M"
_symmetry_group_IT_number 12
_symmetry_cell_setting 'monoclinic'
loop_
_space_group_symop_operation_xyz
x,y,z
-x,y,-z
-x,-y,-z
x,-y,z
1/2+x,1/2+y,z
1/2-x,1/2+y,-z
1/2-x,1/2-y,-z
1/2+x,1/2-y,z
loop_
_atom_site_type_symbol
_atom_site_label
_atom_site_fract_x
_atom_site_fract_y
_atom_site_fract_z
Si Si1 0.612371 0.101026 0.480074
Si Si2 0.494925 0.606607 0.582490
Si Si3 0.729586 0.732154 0.303652
Si Si4 0.014972 0.786804 0.841385
Si Si5 0.668580 0.395828 0.846020
Si Si6 0.270678 0.654725 0.471572
Si Si7 0.919325 0.388823 0.213893
Si Si8 0.292668 0.720880 0.900647
O O1 0.669479 0.171362 0.584767
O O2 0.693632 0.093236 0.466188
O O3 0.495689 0.127632 0.351045
O O4 0.603342 0.000000 0.510218
O O5 0.500000 0.651789 0.500000
O O6 0.462648 0.500000 0.545953
O O7 0.610516 0.609453 0.715435
O O8 0.400363 0.641517 0.567418
O O9 0.612863 0.694198 0.244942
O O10 0.738599 0.831309 0.354890
O O11 0.723184 0.731875 0.204957
O O12 0.074785 0.862725 0.833533
O O13 0.033472 0.685969 0.813508
O O14 0.083214 0.793809 0.975622
O O15 0.705402 0.500000 0.889690
O O16 0.759014 0.317046 0.916641
O O17 0.250000 0.750000 0.500000
O O18 0.925533 0.500000 0.200883
O O19 0.794822 0.355641 0.136304
#
# Coordination Sequence:
#
# PCOD9183650 Si02
#       8
#     8   8   8   8   8   8   8   8
#     4  10  21  38  64  94 123 159 205 257 313 377
#     4  10  20  33  53  84 119 148 181 238 303 363
#     4  11  23  39  60  90 126 162 200 252 318 371
#     4  11  23  42  64  88 121 166 218 255 302 364
#     4  10  21  39  62  88 117 156 209 257 304 361
#     4  10  19  33  55  83 115 153 192 235 294 366
#     4  10  22  42  66  94 123 160 212 259 307 372
#     4  11  25  40  62  90 124 168 207 258 310 367
#
# _framework density 21.496093999999999
#
# number of rings (size 3 to 8) (size 9 to 14) (size 15 to 20)
#    0.000    1.625    1.250    4.500    5.250    4.500 
#    0.000    2.500    0.000    3.750    0.000    0.000 
#    0.000    0.000    0.000    0.000    0.000    0.000 
#
# Total GULP energy -178525.976773 kJ/mol
# GULP energy per Si atom -5578.936774 kJ/mol
# Density = 2.144717 g / cm^3
# Si number density = 21.496094 Si / 1000 Ang^3
#
#
#
# Elastic Constant Matrix: (Units=GPa)
#
#
# Indices 1 2 3 4 5 6 
#
# 1 57.8195 9.2872 7.0690 0.0000 -9.2569 0.0000
# 2 9.2872 95.8396 21.9555 0.0000 -2.6676 0.0000
# 3 7.0690 21.9555 114.8239 0.0000 -4.5663 0.0000
# 4 0.0000 0.0000 0.0000 35.5849 0.0000 14.7938
# 5 -9.2569 -2.6676 -4.5663 0.0000 38.7266 0.0000
# 6 0.0000 0.0000 0.0000 14.7938 0.0000 23.6249
#
#
#
# Elastic Compliance Matrix: (Units=1/GPa)
#
#
# Indices 1 2 3 4 5 6 
#
# 1 0.018289 -0.001502 -0.000672 0.000000 0.004189 0.000000
# 2 -0.001502 0.011045 -0.002013 0.000000 0.000165 0.000000
# 3 -0.000672 -0.002013 0.009166 0.000000 0.000781 0.000000
# 4 0.000000 0.000000 0.000000 0.037992 0.000000 -0.023790
# 5 0.004189 0.000165 0.000781 0.000000 0.026927 0.000000
# 6 0.000000 0.000000 0.000000 -0.023790 0.000000 0.057226
#
#
# Mechanical properties :
#
#
# Convention : Reuss Voigt Hill
#
# Bulk Modulus (GPa) = 33.19270 38.34518 35.76894
# Shear Modulus (GPa) = 27.92334 34.93206 31.42770
#
# Velocity S-wave (km/s) = 3.60807 4.03555 3.82778
# Velocity P-wave (km/s) = 5.72995 6.29215 6.01762
#
# Compressibility (1/GPa) = 0.03012711
#
# Stress axis : x y z
#
# Youngs Moduli (GPa) = 54.67690 90.53585 109.09464
#
# Poissons Ratio (x) = 0.13596 0.07334
# Poissons Ratio (y) = 0.08211 0.21961
# Poissons Ratio (z) = 0.03676 0.18225
#
# Static dielectric constant tensor:
#      x y z
#    x 1.857370 0.000000 -0.036590 
#    y 0.000000 1.808160 0.000000 
#    z -0.036590 0.000000 1.826870 
# 
# From -- ./inp_files/278204.got.cif
#   From: 2010.05.17/outbox.cif.g08.bks.cpg/sg12_140_cif.got.tgz:278204.got - 2010.06.03 13:09:07.
