data_PCOD9183794
_publ_section_title
;
Structure prediction by ZEFSAII (Michael W. Deem and Ramdas Pophale) SiO2 
 PCOD9183794
Probable space group: C 2/M
;
_chemical_formula_sum "Si O2"
_cell_formula_units_Z 64
_cell_length_a 27.878143
_cell_length_b 12.763278
_cell_length_c 15.277495
_cell_angle_alpha 90.000000
_cell_angle_beta 139.638921
_cell_angle_gamma 90.000000
_cell_volume 3520.356908
_symmetry_space_group_name_H-M "C 2/M"
_symmetry_group_IT_number 12
_symmetry_cell_setting 'monoclinic'
loop_
_space_group_symop_operation_xyz
x,y,z
-x,y,-z
-x,-y,-z
x,-y,z
1/2+x,1/2+y,z
1/2-x,1/2+y,-z
1/2-x,1/2-y,-z
1/2+x,1/2-y,z
loop_
_atom_site_type_symbol
_atom_site_label
_atom_site_fract_x
_atom_site_fract_y
_atom_site_fract_z
Si Si1 0.569544 0.380357 0.661198
Si Si2 0.325547 0.122913 0.046144
Si Si3 0.030672 0.756203 0.781591
Si Si4 0.523579 0.623883 0.131306
Si Si5 0.826605 0.760438 0.662621
Si Si6 0.395174 0.884016 0.632495
Si Si7 0.700532 0.775209 0.804819
Si Si8 0.252988 0.881221 0.308375
O O1 0.500000 0.382385 0.500000
O O2 0.598248 0.500000 0.709744
O O3 0.545253 0.335315 0.721799
O O4 0.628845 0.299506 0.704193
O O5 0.405850 0.168924 0.135172
O O6 0.308857 0.148694 0.124840
O O7 0.318863 0.000000 0.019588
O O8 0.267697 0.195255 0.914376
O O9 0.027106 0.818288 0.867864
O O10 0.952494 0.696312 0.669325
O O11 0.514307 0.500000 0.125854
O O12 0.609863 0.653235 0.271099
O O13 0.500000 0.655590 0.000000
O O14 0.750000 0.750000 0.500000
O O15 0.870246 0.655966 0.694088
O O16 0.801580 0.795418 0.724304
O O17 0.322471 0.886422 0.471121
O O18 0.427243 0.000000 0.681510
O O19 0.716972 0.842270 0.742206
O O20 0.221189 0.000000 0.259376
#
# Coordination Sequence:
#
# PCOD9183794 Si02
#       8
#     8   8   8   8   8   8   8   8
#     4  10  20  35  55  80 111 144 179 224 279 336
#     4  10  21  37  54  75 107 146 182 221 273 331
#     4  10  20  35  57  79 107 147 184 227 275 334
#     4  10  21  36  57  86 116 147 190 243 292 339
#     4   9  19  35  55  80 114 149 184 230 284 341
#     4   9  18  34  55  80 108 140 178 223 274 330
#     4  10  21  35  54  79 107 139 182 230 270 326
#     4  10  19  33  56  81 106 137 179 230 278 321
#
# _framework density 18.179974000000001
#
# number of rings (size 3 to 8) (size 9 to 14) (size 15 to 20)
#    0.000    2.250    0.000    2.625    1.750    0.500 
#    0.000    2.500    0.000   10.125    0.000    0.000 
#    0.000    0.000    0.000    0.000    0.000    0.000 
#
# Total GULP energy -178243.095854 kJ/mol
# GULP energy per Si atom -5570.096745 kJ/mol
# Density = 1.813860 g / cm^3
# Si number density = 18.179974 Si / 1000 Ang^3
#
#
#
# Elastic Constant Matrix: (Units=GPa)
#
#
# Indices 1 2 3 4 5 6 
#
# 1 98.5685 31.6113 20.4760 0.0000 -17.2185 0.0000
# 2 31.6113 72.0450 15.2863 0.0000 -17.0430 0.0000
# 3 20.4760 15.2863 33.5169 0.0000 -3.7089 0.0000
# 4 0.0000 0.0000 0.0000 5.4080 0.0000 -9.7316
# 5 -17.2185 -17.0430 -3.7089 0.0000 27.7112 0.0000
# 6 0.0000 0.0000 0.0000 -9.7316 0.0000 17.3381
#
#
#
# Elastic Compliance Matrix: (Units=1/GPa)
#
#
# Indices 1 2 3 4 5 6 
#
# 1 0.013429 -0.003299 -0.006091 0.000000 0.005500 0.000000
# 2 -0.003299 0.018528 -0.005482 0.000000 0.008612 0.000000
# 3 -0.006091 -0.005482 0.035795 0.000000 -0.002365 0.000000
# 4 0.000000 0.000000 0.000000-18.461681 0.000000-10.362217
# 5 0.005500 0.008612 -0.002365 0.000000 0.044484 0.000000
# 6 0.000000 0.000000 0.000000-10.362217 0.000000 -5.758454
#
#
# Mechanical properties :
#
#
# Convention : Reuss Voigt Hill
#
# Bulk Modulus (GPa) = 26.30958 37.65305 31.98132
# Shear Modulus (GPa) = -0.20777 19.20858 9.50040
#
# Velocity S-wave (km/s) = -0.33842 3.25403 2.28847
# Velocity P-wave (km/s) = 3.78820 5.90547 4.96110
#
# Compressibility (1/GPa) = 0.03800896
#
# Stress axis : x y z
#
# Youngs Moduli (GPa) = 74.46402 53.97242 27.93670
#
# Poissons Ratio (x) = 0.17805 0.17016
# Poissons Ratio (y) = 0.24565 0.15315
# Poissons Ratio (z) = 0.45356 0.29587
#
# Static dielectric constant tensor:
#      x y z
#    x 1.626510 0.000000 0.025440 
#    y 0.000000 1.607980 0.000000 
#    z 0.025440 0.000000 1.640440 
# 
# From -- ./inp_files/245977.got.cif
#   From: 2010.05.17/outbox.cif.g08.bks.cpg/sg12_123_cif.got.tgz:245977.got - 2010.06.03 13:09:07.
