data_PCOD9183858
_publ_section_title
;
Structure prediction by ZEFSAII (Michael W. Deem and Ramdas Pophale) SiO2 
 PCOD9183858
Probable space group: C 2/M
;
_chemical_formula_sum "Si O2"
_cell_formula_units_Z 42
_cell_length_a 14.942164
_cell_length_b 7.553392
_cell_length_c 15.889624
_cell_angle_alpha 90.000000
_cell_angle_beta 108.993570
_cell_angle_gamma 90.000000
_cell_volume 1695.727204
_symmetry_space_group_name_H-M "C 2/M"
_symmetry_group_IT_number 12
_symmetry_cell_setting 'monoclinic'
loop_
_space_group_symop_operation_xyz
x,y,z
-x,y,-z
-x,-y,-z
x,-y,z
1/2+x,1/2+y,z
1/2-x,1/2+y,-z
1/2-x,1/2-y,-z
1/2+x,1/2-y,z
loop_
_atom_site_type_symbol
_atom_site_label
_atom_site_fract_x
_atom_site_fract_y
_atom_site_fract_z
Si Si1 0.605327 0.791999 0.027934
Si Si2 0.590193 0.712973 0.837790
Si Si3 0.142771 0.303026 0.495463
Si Si4 0.000000 0.000000 0.500000
Si Si5 0.742264 0.785802 0.217639
Si Si6 0.404531 0.294565 0.697147
O O1 0.632883 0.775542 0.938925
O O2 0.597979 0.000000 0.044649
O O3 0.500000 0.712220 0.000000
O O4 0.676279 0.721775 0.119644
O O5 0.592018 0.500000 0.843375
O O6 0.653248 0.767692 0.777831
O O7 0.482816 0.769768 0.787933
O O8 0.142771 0.500000 0.532481
O O9 0.250000 0.250000 0.500000
O O10 0.091419 0.304928 0.388579
O O11 0.084372 0.155561 0.528051
O O12 0.696435 0.718219 0.288795
O O13 0.740337 0.000000 0.221287
O O14 0.425462 0.500000 0.682936
#
# Coordination Sequence:
#
# PCOD9183858 Si02
#       6
#     8   8   8   2   8   8
#     4  10  19  33  56  82 121 170 227 285 339 413
#     4  10  22  37  58  87 128 171 228 286 344 416
#     4  12  26  51  83 115 156 200 247 312 380 462
#     4  12  26  52  84 120 156 194 254 294 386 460
#     4  10  21  38  58  87 124 179 228 281 357 417
#     4  11  23  42  64  98 140 175 229 297 353 433
#
# _framework density 24.768135000000001
#
# number of rings (size 3 to 8) (size 9 to 14) (size 15 to 20)
#    0.000    1.333    3.810    1.429    0.000    4.190 
#    3.429    1.905    0.000    0.000    0.000    0.000 
#    0.000    0.000    0.000    0.000    0.000    0.000 
#
# Total GULP energy -117197.344326 kJ/mol
# GULP energy per Si atom -5580.825920 kJ/mol
# Density = 2.471176 g / cm^3
# Si number density = 24.768135 Si / 1000 Ang^3
#
#
#
# Elastic Constant Matrix: (Units=GPa)
#
#
# Indices 1 2 3 4 5 6 
#
# 1 110.2803 31.9543 -13.7020 0.0000 10.0923 0.0000
# 2 31.9543 136.2644 -0.1113 0.0000 11.9166 0.0000
# 3 -13.7020 -0.1113 49.9414 0.0000 -8.2624 0.0000
# 4 0.0000 0.0000 0.0000 15.6273 0.0000 2.8258
# 5 10.0923 11.9166 -8.2624 0.0000 24.1936 0.0000
# 6 0.0000 0.0000 0.0000 2.8258 0.0000 16.7304
#
#
#
# Elastic Compliance Matrix: (Units=1/GPa)
#
#
# Indices 1 2 3 4 5 6 
#
# 1 0.010217 -0.002187 0.002407 0.000000 -0.002362 0.000000
# 2 -0.002187 0.008157 -0.001161 0.000000 -0.003502 0.000000
# 3 0.002407 -0.001161 0.021844 0.000000 0.007028 0.000000
# 4 0.000000 0.000000 0.000000 0.066006 0.000000 -0.011149
# 5 -0.002362 -0.003502 0.007028 0.000000 0.046444 0.000000
# 6 0.000000 0.000000 0.000000 -0.011149 0.000000 0.061654
#
#
# Mechanical properties :
#
#
# Convention : Reuss Voigt Hill
#
# Bulk Modulus (GPa) = 26.08550 36.97422 31.52986
# Shear Modulus (GPa) = 21.83564 29.86660 25.85112
#
# Velocity S-wave (km/s) = 2.97240 3.47630 3.23418
# Velocity P-wave (km/s) = 4.72599 5.57435 5.16761
#
# Compressibility (1/GPa) = 0.03833548
#
# Stress axis : x y z
#
# Youngs Moduli (GPa) = 97.87708 122.59556 45.77899
#
# Poissons Ratio (x) = 0.26816 -0.11021
# Poissons Ratio (y) = 0.21409 0.05316
# Poissons Ratio (z) = -0.23563 0.14237
#
# Static dielectric constant tensor:
#      x y z
#    x 1.976240 0.000000 -0.001530 
#    y 0.000000 1.942320 0.000000 
#    z -0.001530 0.000000 2.024320 
# 
# From -- ./inp_files/267801.got.cif
#   From: 2010.05.17/outbox.cif.g08.bks.cpg/sg12_134_cif.got.tgz:267801.got - 2010.06.03 13:09:07.
