data_PCOD9183923
_publ_section_title
;
Structure prediction by ZEFSAII (Michael W. Deem and Ramdas Pophale) SiO2 
 PCOD9183923
Probable space group: C 2/M
;
_chemical_formula_sum "Si O2"
_cell_formula_units_Z 52
_cell_length_a 26.828715
_cell_length_b 15.470152
_cell_length_c 7.525537
_cell_angle_alpha 90.000000
_cell_angle_beta 115.255448
_cell_angle_gamma 90.000000
_cell_volume 2824.876746
_symmetry_space_group_name_H-M "C 2/M"
_symmetry_group_IT_number 12
_symmetry_cell_setting 'monoclinic'
loop_
_space_group_symop_operation_xyz
x,y,z
-x,y,-z
-x,-y,-z
x,-y,z
1/2+x,1/2+y,z
1/2-x,1/2+y,-z
1/2-x,1/2-y,-z
1/2+x,1/2-y,z
loop_
_atom_site_type_symbol
_atom_site_label
_atom_site_fract_x
_atom_site_fract_y
_atom_site_fract_z
Si Si1 0.784361 0.597062 0.770497
Si Si2 0.145388 0.154578 0.905438
Si Si3 0.022304 0.903045 0.732228
Si Si4 0.765451 0.404283 0.163808
Si Si5 0.500000 0.264595 0.000000
Si Si6 0.311679 0.728814 0.398358
Si Si7 0.121215 0.709665 0.171162
O O1 0.767643 0.500000 0.696562
O O2 0.740702 0.668258 0.637287
O O3 0.844634 0.621393 0.791541
O O4 0.783420 0.602738 0.984073
O O5 0.088656 0.102718 0.827516
O O6 0.159153 0.185082 0.727191
O O7 0.199293 0.105547 0.058157
O O8 0.136574 0.237336 0.017386
O O9 0.000000 0.888380 0.500000
O O10 0.005445 0.000000 0.762777
O O11 0.001657 0.829090 0.833634
O O12 0.780873 0.500000 0.252873
O O13 0.790530 0.323363 0.305988
O O14 0.555610 0.208713 0.086460
O O15 0.353178 0.738715 0.623840
#
# Coordination Sequence:
#
# PCOD9183923 Si02
#       7
#     8   8   8   8   4   8   8
#     4  10  20  36  57  83 114 147 179 228 281 329
#     4  10  19  35  53  77 114 145 174 220 274 327
#     4  10  20  35  55  79 108 145 187 227 270 326
#     4  10  19  33  56  84 113 143 176 220 283 340
#     4  10  23  38  55  78 108 148 192 230 274 316
#     4  11  20  36  57  83 114 141 181 228 274 338
#     4  11  21  37  57  79 108 149 186 228 272 324
#
# _framework density 18.407883999999999
#
# number of rings (size 3 to 8) (size 9 to 14) (size 15 to 20)
#    0.000    1.692    3.077    3.000    0.000    1.231 
#    0.000    4.231    0.000    0.000    0.000    2.154 
#    0.000    0.000    0.000    0.000    0.000    0.000 
#
# Total GULP energy -145191.388244 kJ/mol
# GULP energy per Si atom -5584.284163 kJ/mol
# Density = 1.836599 g / cm^3
# Si number density = 18.407884 Si / 1000 Ang^3
#
#
#
# Elastic Constant Matrix: (Units=GPa)
#
#
# Indices 1 2 3 4 5 6 
#
# 1 92.6659 17.7120 15.2096 0.0000 13.9503 0.0000
# 2 17.7120 82.2921 1.4203 0.0000 11.7450 0.0000
# 3 15.2096 1.4203 51.5115 0.0000 6.4441 0.0000
# 4 0.0000 0.0000 0.0000 -11.5190 0.0000 -0.2087
# 5 13.9503 11.7450 6.4441 0.0000 25.4165 0.0000
# 6 0.0000 0.0000 0.0000 -0.2087 0.0000 14.7927
#
#
#
# Elastic Compliance Matrix: (Units=1/GPa)
#
#
# Indices 1 2 3 4 5 6 
#
# 1 0.012420 -0.001880 -0.002965 0.000000 -0.005196 0.000000
# 2 -0.001880 0.013303 0.000855 0.000000 -0.005332 0.000000
# 3 -0.002965 0.000855 0.020770 0.000000 -0.004034 0.000000
# 4 0.000000 0.000000 0.000000 -0.086791 0.000000 -0.001224
# 5 -0.005196 -0.005332 -0.004034 0.000000 0.045683 0.000000
# 6 0.000000 0.000000 0.000000 -0.001224 0.000000 0.067584
#
#
# Mechanical properties :
#
#
# Convention : Reuss Voigt Hill
#
# Bulk Modulus (GPa) = 25.96593 32.79481 29.38037
# Shear Modulus (GPa) = 53.31306 18.54655 35.92981
#
# Velocity S-wave (km/s) = 5.38748 3.17761 4.42279
# Velocity P-wave (km/s) = 7.26887 5.59618 6.48667
#
# Compressibility (1/GPa) = 0.03851200
#
# Stress axis : x y z
#
# Youngs Moduli (GPa) = 80.51652 75.17215 48.14701
#
# Poissons Ratio (x) = 0.14135 0.14277
# Poissons Ratio (y) = 0.15140 -0.04119
# Poissons Ratio (z) = 0.23875 -0.06431
#
# Static dielectric constant tensor:
#      x y z
#    x 1.643020 0.000000 -0.013950 
#    y 0.000000 1.643600 0.000000 
#    z -0.013950 0.000000 1.625020 
# 
# From -- ./inp_files/111327.got.cif
#   From: 2010.05.17/outbox.cif.g08.bks.cpg/sg12_56_cif.got.tgz:111327.got - 2010.06.03 13:09:07.
