data_PCOD9183781
_publ_section_title
;
Structure prediction by ZEFSAII (Michael W. Deem and Ramdas Pophale) SiO2 
 PCOD9183781
Probable space group: C 2/M
;
_chemical_formula_sum "Si O2"
_cell_formula_units_Z 64
_cell_length_a 13.879202
_cell_length_b 14.467342
_cell_length_c 17.623936
_cell_angle_alpha 90.000000
_cell_angle_beta 117.434933
_cell_angle_gamma 90.000000
_cell_volume 3140.808540
_symmetry_space_group_name_H-M "C 2/M"
_symmetry_group_IT_number 12
_symmetry_cell_setting 'monoclinic'
loop_
_space_group_symop_operation_xyz
x,y,z
-x,y,-z
-x,-y,-z
x,-y,z
1/2+x,1/2+y,z
1/2-x,1/2+y,-z
1/2-x,1/2-y,-z
1/2+x,1/2-y,z
loop_
_atom_site_type_symbol
_atom_site_label
_atom_site_fract_x
_atom_site_fract_y
_atom_site_fract_z
Si Si1 0.487467 0.190041 0.672463
Si Si2 0.829325 0.109744 0.814299
Si Si3 0.272842 0.107001 0.647416
Si Si4 0.697445 0.110473 0.173970
Si Si5 0.174753 0.263579 0.856217
Si Si6 0.611672 0.273538 0.497794
Si Si7 0.341015 0.893254 0.381079
Si Si8 0.499389 0.240846 0.089390
O O1 0.399393 0.125593 0.679823
O O2 0.571069 0.231271 0.762392
O O3 0.419074 0.265834 0.600904
O O4 0.557438 0.133898 0.635885
O O5 0.755109 0.156146 0.853979
O O6 0.762933 0.121769 0.711318
O O7 0.938130 0.170797 0.852157
O O8 0.844890 0.000000 0.831887
O O9 0.249605 0.138208 0.725378
O O10 0.202694 0.157570 0.558989
O O11 0.249118 0.000000 0.635192
O O12 0.762586 0.167667 0.134572
O O13 0.575924 0.151733 0.131222
O O14 0.698966 0.000000 0.166493
O O15 0.119318 0.272157 0.917969
O O16 0.500000 0.297871 0.500000
O O17 0.650518 0.174440 0.544676
O O18 0.345878 0.000000 0.404921
O O19 0.500000 0.256149 0.000000
#
# Coordination Sequence:
#
# PCOD9183781 Si02
#       8
#     8   8   8   8   8   8   8   8
#     4  10  19  33  56  80 110 150 193 239 289 334
#     4   9  20  38  60  88 118 153 194 237 290 350
#     4  11  21  35  55  79 113 154 198 239 279 338
#     4  10  22  40  61  88 121 158 195 238 290 351
#     4  10  21  40  63  84 117 155 194 237 294 353
#     4  10  20  33  51  79 113 151 193 239 288 331
#     4   9  18  33  55  80 112 146 185 237 290 339
#     4  11  23  40  63  89 117 151 192 243 297 354
#
# _framework density 20.376919000000001
#
# number of rings (size 3 to 8) (size 9 to 14) (size 15 to 20)
#    0.000    2.000    1.250    3.750    0.000    7.000 
#    0.000    1.875    0.000    0.000    0.000    0.000 
#    0.000    0.000    0.000    0.000    0.000    0.000 
#
# Total GULP energy -178726.860771 kJ/mol
# GULP energy per Si atom -5585.214399 kJ/mol
# Density = 2.033054 g / cm^3
# Si number density = 20.376919 Si / 1000 Ang^3
#
#
#
# Elastic Constant Matrix: (Units=GPa)
#
#
# Indices 1 2 3 4 5 6 
#
# 1 41.6640 8.0406 -4.1266 0.0000 -7.2333 0.0000
# 2 8.0406 87.9759 8.6631 0.0000 6.0995 0.0000
# 3 -4.1266 8.6631 39.1486 0.0000 -1.5769 0.0000
# 4 0.0000 0.0000 0.0000 8.0173 0.0000 2.3764
# 5 -7.2333 6.0995 -1.5769 0.0000 26.3885 0.0000
# 6 0.0000 0.0000 0.0000 2.3764 0.0000 14.0879
#
#
#
# Elastic Compliance Matrix: (Units=1/GPa)
#
#
# Indices 1 2 3 4 5 6 
#
# 1 0.026471 -0.003374 0.003870 0.000000 0.008267 0.000000
# 2 -0.003374 0.012267 -0.003229 0.000000 -0.003953 0.000000
# 3 0.003870 -0.003229 0.026803 0.000000 0.003409 0.000000
# 4 0.000000 0.000000 0.000000 0.131295 0.000000 -0.022147
# 5 0.008267 -0.003953 0.003409 0.000000 0.041279 0.000000
# 6 0.000000 0.000000 0.000000 -0.022147 0.000000 0.074719
#
#
# Mechanical properties :
#
#
# Convention : Reuss Voigt Hill
#
# Bulk Modulus (GPa) = 16.64576 21.54920 19.09748
# Shear Modulus (GPa) = 14.77869 20.11285 17.44577
#
# Velocity S-wave (km/s) = 2.69600 3.14513 2.92918
# Velocity P-wave (km/s) = 4.22822 4.87723 4.56428
#
# Compressibility (1/GPa) = 0.06007537
#
# Stress axis : x y z
#
# Youngs Moduli (GPa) = 37.77708 81.51848 37.30856
#
# Poissons Ratio (x) = 0.27501 -0.14438
# Poissons Ratio (y) = 0.12744 0.12048
# Poissons Ratio (z) = -0.14619 0.26325
#
# Static dielectric constant tensor:
#      x y z
#    x 1.752260 0.000000 -0.015920 
#    y 0.000000 1.687630 0.000000 
#    z -0.015920 0.000000 1.766510 
# 
# From -- ./inp_files/270316.got.cif
#   From: 2010.05.17/outbox.cif.g08.bks.cpg/sg12_136_cif.got.tgz:270316.got - 2010.06.03 13:09:07.
