data_PCOD9183924
_publ_section_title
;
Structure prediction by ZEFSAII (Michael W. Deem and Ramdas Pophale) SiO2 
 PCOD9183924
Probable space group: C 2/M
;
_chemical_formula_sum "Si O2"
_cell_formula_units_Z 56
_cell_length_a 15.595837
_cell_length_b 24.645644
_cell_length_c 9.422579
_cell_angle_alpha 90.000000
_cell_angle_beta 120.087436
_cell_angle_gamma 90.000000
_cell_volume 3133.761653
_symmetry_space_group_name_H-M "C 2/M"
_symmetry_group_IT_number 12
_symmetry_cell_setting 'monoclinic'
loop_
_space_group_symop_operation_xyz
x,y,z
-x,y,-z
-x,-y,-z
x,-y,z
1/2+x,1/2+y,z
1/2-x,1/2+y,-z
1/2-x,1/2-y,-z
1/2+x,1/2-y,z
loop_
_atom_site_type_symbol
_atom_site_label
_atom_site_fract_x
_atom_site_fract_y
_atom_site_fract_z
Si Si1 0.784426 0.729504 0.681220
Si Si2 0.748543 0.561970 0.607452
Si Si3 0.895918 0.842253 0.489700
Si Si4 0.567036 0.131374 0.191448
Si Si5 0.768263 0.937883 0.744278
Si Si6 0.896865 0.832250 0.832409
Si Si7 0.554927 0.938961 0.696485
O O1 0.750000 0.750000 0.500000
O O2 0.686215 0.697590 0.648777
O O3 0.872586 0.686416 0.729322
O O4 0.824851 0.780817 0.801542
O O5 0.734395 0.500000 0.634388
O O6 0.654171 0.598654 0.564329
O O7 0.846333 0.587021 0.758325
O O8 0.763207 0.565848 0.448314
O O9 0.908743 0.832166 0.670033
O O10 0.000000 0.837796 0.500000
O O11 0.496046 0.107324 0.253391
O O12 0.500000 0.139588 0.000000
O O13 0.845493 0.889340 0.830796
O O14 0.670780 0.930554 0.759390
O O15 0.805309 0.000000 0.795911
O O16 0.000000 0.826115 0.000000
O O17 0.500000 0.939484 0.500000
O O18 0.541643 0.000000 0.747984
#
# Coordination Sequence:
#
# PCOD9183924 Si02
#       7
#     8   8   8   8   8   8   8
#     4   9  20  39  58  76 106 148 188 221 271 342
#     4   9  17  32  55  77 106 150 187 217 267 331
#     4   9  19  37  56  76 106 139 181 228 264 322
#     4  11  21  34  54  82 117 147 179 230 290 327
#     4   9  18  35  57  82 108 142 188 230 266 326
#     4  10  20  38  58  78 108 139 179 226 281 324
#     4  10  19  33  56  84 113 144 190 230 263 331
#
# _framework density 17.869896000000001
#
# number of rings (size 3 to 8) (size 9 to 14) (size 15 to 20)
#    0.000    2.429    1.429    1.714    0.000    1.714 
#   10.286    0.714    0.000    0.000    0.000    0.000 
#    0.000    0.000    0.000    0.000    0.000    0.000 
#
# Total GULP energy -156023.333744 kJ/mol
# GULP energy per Si atom -5572.261919 kJ/mol
# Density = 1.782922 g / cm^3
# Si number density = 17.869896 Si / 1000 Ang^3
#
#
#
# Elastic Constant Matrix: (Units=GPa)
#
#
# Indices 1 2 3 4 5 6 
#
# 1 111.9464 71.4943 32.2764 0.0000 16.1369 0.0000
# 2 71.4943 146.6290 53.9635 0.0000 25.2806 0.0000
# 3 32.2764 53.9635 82.1697 0.0000 32.0757 0.0000
# 4 0.0000 0.0000 0.0000 -5.6402 0.0000 19.7347
# 5 16.1369 25.2806 32.0757 0.0000 24.6150 0.0000
# 6 0.0000 0.0000 0.0000 19.7347 0.0000 6.1041
#
#
#
# Elastic Compliance Matrix: (Units=1/GPa)
#
#
# Indices 1 2 3 4 5 6 
#
# 1 0.013107 -0.005861 -0.000600 0.000000 -0.001791 0.000000
# 2 -0.005861 0.011735 -0.004477 0.000000 -0.002376 0.000000
# 3 -0.000600 -0.004477 0.027268 0.000000 -0.030541 0.000000
# 4 0.000000 0.000000 0.000000 -0.014400 0.000000 0.046557
# 5 -0.001791 -0.002376 -0.030541 0.000000 0.084038 0.000000
# 6 0.000000 0.000000 0.000000 0.046557 0.000000 0.013306
#
#
# Mechanical properties :
#
#
# Convention : Reuss Voigt Hill
#
# Bulk Modulus (GPa) = 33.07589 72.91261 52.99425
# Shear Modulus (GPa) = 29.93841 17.21649 23.57745
#
# Velocity S-wave (km/s) = 4.09755 3.10729 3.63629
# Velocity P-wave (km/s) = 6.39813 7.33241 6.88114
#
# Compressibility (1/GPa) = 0.03023350
#
# Stress axis : x y z
#
# Youngs Moduli (GPa) = 76.29293 85.21416 36.67294
#
# Poissons Ratio (x) = 0.49947 0.02201
# Poissons Ratio (y) = 0.44718 0.16419
# Poissons Ratio (z) = 0.04579 0.38151
#
# Static dielectric constant tensor:
#      x y z
#    x 1.596630 0.000000 -0.005270 
#    y 0.000000 1.641430 0.000000 
#    z -0.005270 0.000000 1.590570 
# 
# From -- ./inp_files/65968.got.cif
#   From: 2010.05.17/outbox.cif.g08.bks.cpg/sg12_33_cif.got.tgz:65968.got - 2010.06.03 13:09:07.
