data_PCOD9183424
_publ_section_title
;
Structure prediction by ZEFSAII (Michael W. Deem and Ramdas Pophale) SiO2 
 PCOD9183424
Probable space group: C 2/M
;
_chemical_formula_sum "Si O2"
_cell_formula_units_Z 64
_cell_length_a 17.476883
_cell_length_b 13.709862
_cell_length_c 14.474395
_cell_angle_alpha 90.000000
_cell_angle_beta 54.102614
_cell_angle_gamma 90.000000
_cell_volume 2809.436167
_symmetry_space_group_name_H-M "C 2/M"
_symmetry_group_IT_number 12
_symmetry_cell_setting 'monoclinic'
loop_
_space_group_symop_operation_xyz
x,y,z
-x,y,-z
-x,-y,-z
x,-y,z
1/2+x,1/2+y,z
1/2-x,1/2+y,-z
1/2-x,1/2-y,-z
1/2+x,1/2-y,z
loop_
_atom_site_type_symbol
_atom_site_label
_atom_site_fract_x
_atom_site_fract_y
_atom_site_fract_z
Si Si1 0.624531 0.170785 0.273114
Si Si2 0.692225 0.799743 0.418216
Si Si3 0.296168 0.112051 0.268403
Si Si4 0.404332 0.890205 0.009325
Si Si5 0.062661 0.313678 0.687469
Si Si6 0.395902 0.383585 0.246515
Si Si7 0.840615 0.889037 0.088902
Si Si8 0.359480 0.275132 0.904898
O O1 0.623376 0.169940 0.383464
O O2 0.526814 0.135046 0.298203
O O3 0.727108 0.125678 0.175998
O O4 0.628969 0.273727 0.213156
O O5 0.727435 0.692848 0.360051
O O6 0.640301 0.801335 0.551688
O O7 0.785298 0.868152 0.353196
O O8 0.323952 0.134224 0.142381
O O9 0.390127 0.124352 0.264407
O O10 0.263805 0.000000 0.296511
O O11 0.386705 0.000000 0.988387
O O12 0.500000 0.888744 0.000000
O O13 0.407699 0.816556 0.922573
O O14 0.049548 0.201285 0.735270
O O15 0.419945 0.500000 0.239625
O O16 0.392744 0.345143 0.141674
O O17 0.859621 0.000000 0.090541
O O18 0.878164 0.862372 0.961537
O O19 0.250000 0.250000 0.000000
#
# Coordination Sequence:
#
# PCOD9183424 Si02
#       8
#     8   8   8   8   8   8   8   8
#     4  10  21  36  53  78 109 140 174 220 269 310
#     4  10  21  37  54  75 105 144 184 220 260 309
#     4  10  20  35  56  81 107 138 179 220 261 316
#     4  10  20  34  55  84 114 140 170 217 273 320
#     4  11  21  34  56  80 107 138 175 225 272 310
#     4   9  18  35  57  79 104 137 178 217 257 313
#     4   9  19  36  58  81 107 140 175 213 261 321
#     4  10  19  33  55  78 108 143 176 211 256 321
#
# _framework density 22.780372
#
# number of rings (size 3 to 8) (size 9 to 14) (size 15 to 20)
#    0.000    2.125    0.000    5.625    0.000    4.500 
#    0.000    1.875    0.000    7.875    0.000    0.000 
#    0.000    0.000    0.000    0.000    0.000    0.000 
#
# Total GULP energy -178410.115960 kJ/mol
# GULP energy per Si atom -5575.316124 kJ/mol
# Density = 2.272852 g / cm^3
# Si number density = 22.780372 Si / 1000 Ang^3
#
#
#
# Elastic Constant Matrix: (Units=GPa)
#
#
# Indices 1 2 3 4 5 6 
#
# 1 67.8201 -0.8553 -6.5350 0.0000 13.6048 0.0000
# 2 -0.8553 85.1451 -0.8916 0.0000 7.2369 0.0000
# 3 -6.5350 -0.8916 80.5302 0.0000 13.4069 0.0000
# 4 0.0000 0.0000 0.0000 6.9359 0.0000 0.0811
# 5 13.6048 7.2369 13.4069 0.0000 28.3818 0.0000
# 6 0.0000 0.0000 0.0000 0.0811 0.0000 10.1985
#
#
#
# Elastic Compliance Matrix: (Units=1/GPa)
#
#
# Indices 1 2 3 4 5 6 
#
# 1 0.017029 0.001041 0.003035 0.000000 -0.009862 0.000000
# 2 0.001041 0.012105 0.000885 0.000000 -0.004004 0.000000
# 3 0.003035 0.000885 0.014059 0.000000 -0.008322 0.000000
# 4 0.000000 0.000000 0.000000 0.144191 0.000000 -0.001147
# 5 -0.009862 -0.004004 -0.008322 0.000000 0.044913 0.000000
# 6 0.000000 0.000000 0.000000 -0.001147 0.000000 0.098063
#
#
# Mechanical properties :
#
#
# Convention : Reuss Voigt Hill
#
# Bulk Modulus (GPa) = 18.82691 24.10350 21.46521
# Shear Modulus (GPa) = 14.78665 25.22172 20.00419
#
# Velocity S-wave (km/s) = 2.55050 3.33102 2.96655
# Velocity P-wave (km/s) = 4.11775 5.03965 4.60185
#
# Compressibility (1/GPa) = 0.05311546
#
# Stress axis : x y z
#
# Youngs Moduli (GPa) = 58.72397 82.61278 71.12751
#
# Poissons Ratio (x) = -0.08601 -0.21589
# Poissons Ratio (y) = -0.06114 -0.06295
# Poissons Ratio (z) = -0.17824 -0.07311
#
# Static dielectric constant tensor:
#      x y z
#    x 1.929110 0.000000 -0.084110 
#    y 0.000000 1.835510 0.000000 
#    z -0.084110 0.000000 2.004040 
# 
# From -- ./inp_files/225230.got.cif
#   From: 2010.05.17/outbox.cif.g08.bks.cpg/sg12_113_cif.got.tgz:225230.got - 2010.06.03 13:09:07.
