data_PCOD9183560
_publ_section_title
;
Structure prediction by ZEFSAII (Michael W. Deem and Ramdas Pophale) SiO2 
 PCOD9183560
Probable space group: C 2/M
;
_chemical_formula_sum "Si O2"
_cell_formula_units_Z 48
_cell_length_a 14.208498
_cell_length_b 20.511507
_cell_length_c 9.459259
_cell_angle_alpha 90.000000
_cell_angle_beta 64.475033
_cell_angle_gamma 90.000000
_cell_volume 2487.715940
_symmetry_space_group_name_H-M "C 2/M"
_symmetry_group_IT_number 12
_symmetry_cell_setting 'monoclinic'
loop_
_space_group_symop_operation_xyz
x,y,z
-x,y,-z
-x,-y,-z
x,-y,z
1/2+x,1/2+y,z
1/2-x,1/2+y,-z
1/2-x,1/2-y,-z
1/2+x,1/2-y,z
loop_
_atom_site_type_symbol
_atom_site_label
_atom_site_fract_x
_atom_site_fract_y
_atom_site_fract_z
Si Si1 0.190305 0.353066 0.479003
Si Si2 0.120915 0.232858 0.728515
Si Si3 0.199770 0.333183 0.898461
Si Si4 0.434219 0.300636 0.679977
Si Si5 0.910373 0.575303 0.234512
Si Si6 0.103547 0.651350 0.252020
O O1 0.142841 0.289948 0.596160
O O2 0.298039 0.324266 0.354242
O O3 0.185780 0.409388 0.597717
O O4 0.134964 0.382690 0.376658
O O5 0.145775 0.269861 0.858963
O O6 0.008198 0.202302 0.770314
O O7 0.320915 0.332752 0.773522
O O8 0.130591 0.392453 0.882527
O O9 0.187410 0.336599 0.074233
O O10 0.500000 0.323792 0.500000
O O11 0.414031 0.223686 0.674903
O O12 0.935093 0.500000 0.205287
O O13 0.006484 0.615448 0.241217
#
# Coordination Sequence:
#
# PCOD9183560 Si02
#       6
#     8   8   8   8   8   8
#     4  10  19  36  55  83 115 150 196 238 281 343
#     4  10  19  33  55  81 116 156 186 236 289 346
#     4  11  24  35  55  86 121 153 190 241 294 346
#     4  12  19  34  57  82 116 155 192 233 289 352
#     4  11  24  41  60  82 117 164 201 231 280 351
#     4  12  21  34  55  88 120 149 189 242 296 343
#
# _framework density 19.294806999999999
#
# number of rings (size 3 to 8) (size 9 to 14) (size 15 to 20)
#    0.000    1.000    6.667    3.500    0.000    2.667 
#    0.000    0.000    0.000    4.500    0.000    0.000 
#    0.000    8.000    0.000    0.000    0.000    0.000 
#
# Total GULP energy -133711.045856 kJ/mol
# GULP energy per Si atom -5571.293577 kJ/mol
# Density = 1.925089 g / cm^3
# Si number density = 19.294807 Si / 1000 Ang^3
#
#
#
# Elastic Constant Matrix: (Units=GPa)
#
#
# Indices 1 2 3 4 5 6 
#
# 1 84.3436 21.2885 10.3936 0.0000 -1.2513 0.0000
# 2 21.2885 47.9957 11.5749 0.0000 -7.9087 0.0000
# 3 10.3936 11.5749 97.6321 0.0000 7.7497 0.0000
# 4 0.0000 0.0000 0.0000 5.2175 0.0000 0.0749
# 5 -1.2513 -7.9087 7.7497 0.0000 26.1238 0.0000
# 6 0.0000 0.0000 0.0000 0.0749 0.0000 12.7557
#
#
#
# Elastic Compliance Matrix: (Units=1/GPa)
#
#
# Indices 1 2 3 4 5 6 
#
# 1 0.013425 -0.005959 -0.000646 0.000000 -0.000969 0.000000
# 2 -0.005959 0.025597 -0.003065 0.000000 0.008373 0.000000
# 3 -0.000646 -0.003065 0.011010 0.000000 -0.004225 0.000000
# 4 0.000000 0.000000 0.000000 0.191679 0.000000 -0.001126
# 5 -0.000969 0.008373 -0.004225 0.000000 0.042021 0.000000
# 6 0.000000 0.000000 0.000000 -0.001126 0.000000 0.078403
#
#
# Mechanical properties :
#
#
# Convention : Reuss Voigt Hill
#
# Bulk Modulus (GPa) = 32.58035 35.16505 33.87270
# Shear Modulus (GPa) = 12.76468 21.26703 17.01586
#
# Velocity S-wave (km/s) = 2.57487 3.32356 2.97288
# Velocity P-wave (km/s) = 5.07564 5.74394 5.42010
#
# Compressibility (1/GPa) = 0.03069334
#
# Stress axis : x y z
#
# Youngs Moduli (GPa) = 74.48519 39.06689 90.82636
#
# Poissons Ratio (x) = 0.23279 0.05866
# Poissons Ratio (y) = 0.44385 0.27838
# Poissons Ratio (z) = 0.04811 0.11974
#
# Static dielectric constant tensor:
#      x y z
#    x 1.788100 0.000000 0.013010 
#    y 0.000000 1.677840 0.000000 
#    z 0.013010 0.000000 1.733870 
# 
# From -- ./inp_files/63359.got.cif
#   From: 2010.05.17/outbox.cif.g08.bks.cpg/sg12_32_cif.got.tgz:63359.got - 2010.06.03 13:09:07.
