data_PCOD9183320
_publ_section_title
;
Structure prediction by ZEFSAII (Michael W. Deem and Ramdas Pophale) SiO2 
 PCOD9183320
Probable space group: C 2/M
;
_chemical_formula_sum "Si O2"
_cell_formula_units_Z 56
_cell_length_a 20.010049
_cell_length_b 8.810866
_cell_length_c 26.170809
_cell_angle_alpha 90.000000
_cell_angle_beta 40.596105
_cell_angle_gamma 90.000000
_cell_volume 3002.477674
_symmetry_space_group_name_H-M "C 2/M"
_symmetry_group_IT_number 12
_symmetry_cell_setting 'monoclinic'
loop_
_space_group_symop_operation_xyz
x,y,z
-x,y,-z
-x,-y,-z
x,-y,z
1/2+x,1/2+y,z
1/2-x,1/2+y,-z
1/2-x,1/2-y,-z
1/2+x,1/2-y,z
loop_
_atom_site_type_symbol
_atom_site_label
_atom_site_fract_x
_atom_site_fract_y
_atom_site_fract_z
Si Si1 0.324826 0.678456 0.828439
Si Si2 0.395843 0.818854 0.089571
Si Si3 0.568702 0.680345 0.823707
Si Si4 0.644865 0.820407 0.081517
Si Si5 0.679656 0.818093 0.495729
Si Si6 0.001519 0.680961 0.669811
Si Si7 0.165041 0.318836 0.666259
O O1 0.337805 0.500000 0.832809
O O2 0.205853 0.706478 0.884878
O O3 0.359404 0.778580 0.856308
O O4 0.398506 0.725906 0.739166
O O5 0.385777 0.733583 0.148918
O O6 0.403229 0.000000 0.095041
O O7 0.500000 0.772132 0.000000
O O8 0.566322 0.500000 0.821212
O O9 0.453371 0.746202 0.887981
O O10 0.629237 0.748251 0.740229
O O11 0.643196 0.000000 0.074538
O O12 0.750000 0.750000 0.000000
O O13 0.750000 0.750000 0.500000
O O14 0.564365 0.783031 0.581599
O O15 0.727735 0.748241 0.416812
O O16 0.690328 0.000000 0.488832
O O17 0.981340 0.500000 0.682401
O O18 0.078766 0.714498 0.672670
O O19 0.171546 0.500000 0.666605
#
# Coordination Sequence:
#
# PCOD9183320 Si02
#       7
#     8   8   8   8   8   8   8
#     4  11  22  36  59  87 114 150 194 237 287 345
#     4  10  23  43  62  81 112 153 194 240 292 345
#     4  12  24  38  60  87 115 151 194 238 287 346
#     4  12  24  39  59  84 116 148 186 238 292 342
#     4   9  17  29  48  77 114 152 190 232 283 340
#     4   9  18  32  52  80 116 155 188 230 287 339
#     4  10  19  33  54  82 116 153 189 233 289 340
#
# _framework density 18.651261999999999
#
# number of rings (size 3 to 8) (size 9 to 14) (size 15 to 20)
#    0.000    1.571    1.429    5.571    0.000    5.429 
#    0.000    0.000    0.000    0.857    0.000    6.000 
#    0.000    0.000    0.000    0.000    0.000    0.000 
#
# Total GULP energy -156400.212518 kJ/mol
# GULP energy per Si atom -5585.721876 kJ/mol
# Density = 1.860881 g / cm^3
# Si number density = 18.651262 Si / 1000 Ang^3
#
#
#
# Elastic Constant Matrix: (Units=GPa)
#
#
# Indices 1 2 3 4 5 6 
#
# 1 17.6340 9.6646 -13.2153 0.0000 2.9718 0.0000
# 2 9.6646 62.5800 14.3590 -0.0001 0.2661 0.0000
# 3 -13.2153 14.3590 86.3169 0.0001 1.9686 0.0000
# 4 0.0000 -0.0001 0.0001 35.8774 0.0000 2.3288
# 5 2.9718 0.2661 1.9686 0.0000 22.5747 0.0000
# 6 0.0000 0.0000 0.0000 2.3288 0.0000 22.8148
#
#
#
# Elastic Compliance Matrix: (Units=1/GPa)
#
#
# Indices 1 2 3 4 5 6 
#
# 1 0.078164 -0.015417 0.014792 0.000000 -0.011398 0.000000
# 2 -0.015417 0.019655 -0.005682 0.000000 0.002293 0.000000
# 3 0.014792 -0.005682 0.014868 0.000000 -0.003177 0.000000
# 4 0.000000 0.000000 0.000000 0.028059 0.000000 -0.002864
# 5 -0.011398 0.002293 -0.003177 0.000000 0.046048 0.000000
# 6 0.000000 0.000000 0.000000 -0.002864 0.000000 0.044124
#
#
# Mechanical properties :
#
#
# Convention : Reuss Voigt Hill
#
# Bulk Modulus (GPa) = 9.99288 20.90530 15.44909
# Shear Modulus (GPa) = 18.05784 26.63488 22.34636
#
# Velocity S-wave (km/s) = 3.11494 3.78305 3.46514
# Velocity P-wave (km/s) = 4.27861 5.50589 4.93058
#
# Compressibility (1/GPa) = 0.10007121
#
# Stress axis : x y z
#
# Youngs Moduli (GPa) = 12.79361 50.87886 67.26054
#
# Poissons Ratio (x) = 0.78439 -0.99490
# Poissons Ratio (y) = 0.19724 0.38219
# Poissons Ratio (z) = -0.18924 0.28911
#
# Static dielectric constant tensor:
#      x y z
#    x 1.628060 0.000000 0.010790 
#    y 0.000000 1.620130 0.000000 
#    z 0.010790 0.000000 1.675860 
# 
# From -- ./inp_files/362996.got.cif
#   From: 2010.05.17/outbox.cif.g08.bks.cpg/sg12_182_cif.got.tgz:362996.got - 2010.06.03 13:09:07.
