data_PCOD9183853
_publ_section_title
;
Structure prediction by ZEFSAII (Michael W. Deem and Ramdas Pophale) SiO2 
 PCOD9183853
Probable space group: C 2/M
;
_chemical_formula_sum "Si O2"
_cell_formula_units_Z 56
_cell_length_a 29.537076
_cell_length_b 9.023195
_cell_length_c 12.130092
_cell_angle_alpha 90.000000
_cell_angle_beta 109.710778
_cell_angle_gamma 90.000000
_cell_volume 3043.472734
_symmetry_space_group_name_H-M "C 2/M"
_symmetry_group_IT_number 12
_symmetry_cell_setting 'monoclinic'
loop_
_space_group_symop_operation_xyz
x,y,z
-x,y,-z
-x,-y,-z
x,-y,z
1/2+x,1/2+y,z
1/2-x,1/2+y,-z
1/2-x,1/2-y,-z
1/2+x,1/2-y,z
loop_
_atom_site_type_symbol
_atom_site_label
_atom_site_fract_x
_atom_site_fract_y
_atom_site_fract_z
Si Si1 0.866742 0.823549 0.805692
Si Si2 0.983634 0.676674 0.288382
Si Si3 0.605299 0.822947 0.634358
Si Si4 0.948483 0.674283 0.016850
Si Si5 0.317330 0.675924 0.141917
Si Si6 0.912394 0.177259 0.608964
Si Si7 0.293588 0.824763 0.893419
O O1 0.883385 0.783785 0.696076
O O2 0.818558 0.744360 0.807335
O O3 0.861358 0.000000 0.807995
O O4 0.908822 0.769996 0.922602
O O5 0.994435 0.500000 0.296738
O O6 0.947754 0.708094 0.359391
O O7 0.955948 0.709985 0.151412
O O8 0.033094 0.764890 0.333657
O O9 0.643815 0.752827 0.748724
O O10 0.609061 0.752910 0.517060
O O11 0.610990 0.000000 0.635474
O O12 0.935443 0.500000 0.997064
O O13 0.000000 0.693998 0.000000
O O14 0.325935 0.500000 0.141267
O O15 0.263647 0.699358 0.146455
O O16 0.316419 0.747272 0.019825
O O17 0.912238 0.000000 0.596989
O O18 0.302612 0.000000 0.906300
#
# Coordination Sequence:
#
# PCOD9183853 Si02
#       7
#     8   8   8   8   8   8   8
#     4  11  23  37  56  84 117 153 193 239 290 340
#     4  10  21  37  56  82 112 147 192 236 283 342
#     4  11  23  38  59  84 113 152 195 238 284 340
#     4  10  19  33  56  82 112 149 185 230 287 345
#     4  10  21  39  63  91 119 146 183 234 286 337
#     4  11  24  39  55  79 114 154 196 241 285 336
#     4  10  21  38  63  91 118 149 185 228 284 347
#
# _framework density 18.400034000000002
#
# number of rings (size 3 to 8) (size 9 to 14) (size 15 to 20)
#    0.000    1.571    1.429    3.429    0.000    8.286 
#    0.000    0.714    0.000    0.000    0.000    0.000 
#    0.000    0.000    0.000    0.000    0.000    0.000 
#
# Total GULP energy -156539.003971 kJ/mol
# GULP energy per Si atom -5590.678713 kJ/mol
# Density = 1.835815 g / cm^3
# Si number density = 18.400034 Si / 1000 Ang^3
#
#
#
# Elastic Constant Matrix: (Units=GPa)
#
#
# Indices 1 2 3 4 5 6 
#
# 1 107.0909 67.2865 55.5816 0.0000 -20.3140 0.0000
# 2 67.2865 77.7278 52.6676 0.0000 -13.2436 0.0000
# 3 55.5816 52.6676 79.0875 0.0000 -14.2566 0.0000
# 4 0.0000 0.0000 0.0000 33.6957 0.0000 0.5135
# 5 -20.3140 -13.2436 -14.2566 0.0000 18.4004 0.0000
# 6 0.0000 0.0000 0.0000 0.5135 0.0000 31.8532
#
#
#
# Elastic Compliance Matrix: (Units=1/GPa)
#
#
# Indices 1 2 3 4 5 6 
#
# 1 0.023373 -0.015576 -0.003978 0.000000 0.011510 0.000000
# 2 -0.015576 0.034323 -0.012271 0.000000 -0.002000 0.000000
# 3 -0.003978 -0.012271 0.024674 0.000000 0.005894 0.000000
# 4 0.000000 0.000000 0.000000 0.029685 0.000000 -0.000479
# 5 0.011510 -0.002000 0.005894 0.000000 0.070181 0.000000
# 6 0.000000 0.000000 0.000000 -0.000479 0.000000 0.031402
#
#
# Mechanical properties :
#
#
# Convention : Reuss Voigt Hill
#
# Bulk Modulus (GPa) = 53.42105 68.33083 60.87594
# Shear Modulus (GPa) = 17.63495 22.68124 20.15809
#
# Velocity S-wave (km/s) = 3.09919 3.51475 3.31350
# Velocity P-wave (km/s) = 6.47324 7.32722 6.91343
#
# Compressibility (1/GPa) = 0.01871921
#
# Stress axis : x y z
#
# Youngs Moduli (GPa) = 42.78493 29.13488 40.52813
#
# Poissons Ratio (x) = 0.45381 0.16124
# Poissons Ratio (y) = 0.66643 0.49732
# Poissons Ratio (z) = 0.17021 0.35751
#
# Static dielectric constant tensor:
#      x y z
#    x 1.636210 0.000000 -0.011360 
#    y 0.000000 1.609870 0.000000 
#    z -0.011360 0.000000 1.606410 
# 
# From -- ./inp_files/187704.got.cif
#   From: 2010.05.17/outbox.cif.g08.bks.cpg/sg12_94_cif.got.tgz:187704.got - 2010.06.03 13:09:07.
