data_PCOD9183955
_publ_section_title
;
Structure prediction by ZEFSAII (Michael W. Deem and Ramdas Pophale) SiO2 
 PCOD9183955
Probable space group: C 2/M
;
_chemical_formula_sum "Si O2"
_cell_formula_units_Z 48
_cell_length_a 24.382914
_cell_length_b 7.550724
_cell_length_c 20.183534
_cell_angle_alpha 90.000000
_cell_angle_beta 33.054710
_cell_angle_gamma 90.000000
_cell_volume 2026.833551
_symmetry_space_group_name_H-M "C 2/M"
_symmetry_group_IT_number 12
_symmetry_cell_setting 'monoclinic'
loop_
_space_group_symop_operation_xyz
x,y,z
-x,y,-z
-x,-y,-z
x,-y,z
1/2+x,1/2+y,z
1/2-x,1/2+y,-z
1/2-x,1/2-y,-z
1/2+x,1/2-y,z
loop_
_atom_site_type_symbol
_atom_site_label
_atom_site_fract_x
_atom_site_fract_y
_atom_site_fract_z
Si Si1 0.387100 0.705277 0.215327
Si Si2 0.697776 0.788604 0.483197
Si Si3 0.090484 0.298070 0.077855
Si Si4 0.467795 0.782504 0.721015
Si Si5 0.320002 0.207451 0.144706
Si Si6 0.594422 0.786169 0.360589
O O1 0.394539 0.500000 0.227993
O O2 0.278923 0.778247 0.348179
O O3 0.478164 0.798946 0.160434
O O4 0.385361 0.715197 0.138033
O O5 0.750000 0.750000 0.500000
O O6 0.583981 0.722141 0.598923
O O7 0.689239 0.000000 0.481432
O O8 0.126326 0.500000 0.050321
O O9 0.082319 0.219922 0.159725
O O10 0.155650 0.214951 0.952686
O O11 0.415846 0.728666 0.705340
O O12 0.468501 0.000000 0.723010
O O13 0.202512 0.231520 0.277822
O O14 0.344585 0.000000 0.117616
O O15 0.500000 0.723977 0.500000
O O16 0.591196 0.000000 0.364888
#
# Coordination Sequence:
#
# PCOD9183955 Si02
#       6
#     8   8   8   8   8   8
#     4  11  22  36  58  88 118 151 195 242 287 341
#     4  10  19  33  56  85 114 145 184 228 281 338
#     4  10  21  38  58  82 116 156 195 234 288 349
#     4   9  18  35  59  83 113 152 187 229 285 341
#     4  11  24  39  57  83 115 155 197 238 287 343
#     4  10  21  40  64  86 112 148 190 237 290 348
#
# _framework density 23.682258999999998
#
# number of rings (size 3 to 8) (size 9 to 14) (size 15 to 20)
#    0.000    1.833    1.667    2.500    0.000    7.667 
#    0.000    1.667    0.000    0.000    0.000    0.000 
#    0.000    0.000    0.000    0.000    0.000    0.000 
#
# Total GULP energy -134160.028105 kJ/mol
# GULP energy per Si atom -5590.001171 kJ/mol
# Density = 2.362836 g / cm^3
# Si number density = 23.682259 Si / 1000 Ang^3
#
#
#
# Elastic Constant Matrix: (Units=GPa)
#
#
# Indices 1 2 3 4 5 6 
#
# 1 106.0508 -15.0302 16.5284 0.0054 28.0951 -0.0076
# 2 -15.0302 59.7088 -5.8096 0.0106 6.7185 -0.0123
# 3 16.5284 -5.8096 104.9799 0.0063 34.4338 -0.0082
# 4 0.0054 0.0106 0.0063 10.5087 -0.0055 -6.4678
# 5 28.0951 6.7185 34.4338 -0.0055 30.9509 0.0061
# 6 -0.0076 -0.0123 -0.0082 -6.4678 0.0061 10.4208
#
#
#
# Elastic Compliance Matrix: (Units=1/GPa)
#
#
# Indices 1 2 3 4 5 6 
#
# 1 0.014952 0.006471 0.004592 -0.000010 -0.020086 0.000027
# 2 0.006471 0.020785 0.005571 -0.000015 -0.016583 0.000034
# 3 0.004592 0.005571 0.017123 -0.000012 -0.024428 0.000030
# 4 -0.000010 -0.000015 -0.000012 0.153980 0.000035 0.095570
# 5 -0.020086 -0.016583 -0.024428 0.000035 0.081319 -0.000080
# 6 0.000027 0.000034 0.000030 0.095570 -0.000080 0.155279
#
#
# Mechanical properties :
#
#
# Convention : Reuss Voigt Hill
#
# Bulk Modulus (GPa) = 11.61066 29.12408 20.36737
# Shear Modulus (GPa) = 11.39266 28.71280 20.05273
#
# Velocity S-wave (km/s) = 2.19569 3.48576 2.91304
# Velocity P-wave (km/s) = 3.36770 5.34090 4.46467
#
# Compressibility (1/GPa) = 0.08612772
#
# Stress axis : x y z
#
# Youngs Moduli (GPa) = 66.88054 48.11217 58.39969
#
# Poissons Ratio (x) = -0.31132 -0.26819
# Poissons Ratio (y) = -0.43277 -0.32533
# Poissons Ratio (z) = -0.30714 -0.26802
#
# Static dielectric constant tensor:
#      x y z
#    x 1.828970 0.000000 0.037410 
#    y 0.000000 1.928280 0.000000 
#    z 0.037410 0.000000 1.937630 
# 
# From -- ./inp_files/327185.got.cif
#   From: 2010.05.17/outbox.cif.g08.bks.cpg/sg12_164_cif.got.tgz:327185.got - 2010.06.03 13:09:07.
