data_PCOD9183352
_publ_section_title
;
Structure prediction by ZEFSAII (Michael W. Deem and Ramdas Pophale) SiO2 
 PCOD9183352
Probable space group: C 2/M
;
_chemical_formula_sum "Si O2"
_cell_formula_units_Z 42
_cell_length_a 24.431789
_cell_length_b 7.916482
_cell_length_c 20.712821
_cell_angle_alpha 90.000000
_cell_angle_beta 157.074083
_cell_angle_gamma 90.000000
_cell_volume 1560.556420
_symmetry_space_group_name_H-M "C 2/M"
_symmetry_group_IT_number 12
_symmetry_cell_setting 'monoclinic'
loop_
_space_group_symop_operation_xyz
x,y,z
-x,y,-z
-x,-y,-z
x,-y,z
1/2+x,1/2+y,z
1/2-x,1/2+y,-z
1/2-x,1/2-y,-z
1/2+x,1/2-y,z
loop_
_atom_site_type_symbol
_atom_site_label
_atom_site_fract_x
_atom_site_fract_y
_atom_site_fract_z
Si Si1 0.500000 0.000000 0.000000
Si Si2 0.638413 0.308862 0.586891
Si Si3 0.859305 0.798743 0.206601
Si Si4 0.154742 0.809031 0.088526
Si Si5 0.487061 0.807950 0.751721
Si Si6 0.790017 0.815814 0.640042
O O1 0.566329 0.153126 0.023232
O O2 0.620449 0.500000 0.590896
O O3 0.497248 0.248329 0.398623
O O4 0.703672 0.199136 0.713525
O O5 0.756341 0.315799 0.658760
O O6 0.720652 0.722913 0.088595
O O7 0.899555 0.754064 0.176806
O O8 0.850337 0.000000 0.201413
O O9 0.097147 0.000000 0.032154
O O10 0.342132 0.808378 0.551944
O O11 0.432091 0.709768 0.754781
O O12 0.518476 0.000000 0.804006
O O13 0.786205 0.000000 0.666470
#
# Coordination Sequence:
#
# PCOD9183352 Si02
#       6
#     2   8   8   8   8   8
#     4  12  26  48  58  78 108 140 194 254 280 332
#     4  10  19  33  54  83 119 151 179 223 280 339
#     4  10  19  33  54  83 119 151 179 223 280 339
#     4  12  24  40  62  83 109 144 190 232 289 337
#     4   9  16  26  42  70 110 151 184 214 258 325
#     4   9  16  26  42  70 110 151 184 214 258 325
#
# _framework density 26.913478000000001
#
# number of rings (size 3 to 8) (size 9 to 14) (size 15 to 20)
#    0.000    1.905    1.905    3.143    0.000    9.143 
#    0.000    0.000    0.000    0.000    0.000    1.333 
#    0.000    0.000    0.000    0.000    0.000    0.000 
#
# Total GULP energy -117322.770257 kJ/mol
# GULP energy per Si atom -5586.798584 kJ/mol
# Density = 2.685222 g / cm^3
# Si number density = 26.913478 Si / 1000 Ang^3
#
#
#
# Elastic Constant Matrix: (Units=GPa)
#
#
# Indices 1 2 3 4 5 6 
#
# 1 195.8670 79.9268 43.9544 0.0000 48.9434 0.0000
# 2 79.9268 173.2046 12.4851 0.0000 19.2689 0.0000
# 3 43.9544 12.4851 138.5240 0.0000 39.8603 0.0000
# 4 0.0000 0.0000 0.0000 13.6919 0.0000 6.3589
# 5 48.9434 19.2689 39.8603 0.0000 50.7040 0.0000
# 6 0.0000 0.0000 0.0000 6.3589 0.0000 25.7360
#
#
#
# Elastic Compliance Matrix: (Units=1/GPa)
#
#
# Indices 1 2 3 4 5 6 
#
# 1 0.007964 -0.002952 -0.000480 0.000000 -0.006188 0.000000
# 2 -0.002952 0.007125 0.000328 0.000000 -0.000116 0.000000
# 3 -0.000480 0.000328 0.009362 0.000000 -0.007021 0.000000
# 4 0.000000 0.000000 0.000000 0.082503 0.000000 -0.020385
# 5 -0.006188 -0.000116 -0.007021 0.000000 0.031259 0.000000
# 6 0.000000 0.000000 0.000000 -0.020385 0.000000 0.043893
#
#
# Mechanical properties :
#
#
# Convention : Reuss Voigt Hill
#
# Bulk Modulus (GPa) = 54.81805 86.70314 70.76059
# Shear Modulus (GPa) = 25.72067 42.77501 34.24784
#
# Velocity S-wave (km/s) = 3.09476 3.99099 3.57110
# Velocity P-wave (km/s) = 5.76043 7.31593 6.58427
#
# Compressibility (1/GPa) = 0.01824217
#
# Stress axis : x y z
#
# Youngs Moduli (GPa) = 125.56062 140.34972 106.81400
#
# Poissons Ratio (x) = 0.41433 0.05131
# Poissons Ratio (y) = 0.37067 -0.03502
# Poissons Ratio (z) = 0.06032 -0.04602
#
# Static dielectric constant tensor:
#      x y z
#    x 2.104330 0.000000 -0.040430 
#    y 0.000000 1.983510 0.000000 
#    z -0.040430 0.000000 2.235710 
# 
# From -- ./inp_files/171499.got.cif
#   From: 2010.05.17/outbox.cif.g08.bks.cpg/sg12_86_cif.got.tgz:171499.got - 2010.06.03 13:09:07.
