data_PCOD9183299
_publ_section_title
;
Structure prediction by ZEFSAII (Michael W. Deem and Ramdas Pophale) SiO2 
 PCOD9183299
Probable space group: C 2/M
;
_chemical_formula_sum "Si O2"
_cell_formula_units_Z 60
_cell_length_a 31.956925
_cell_length_b 12.650626
_cell_length_c 9.499645
_cell_angle_alpha 90.000000
_cell_angle_beta 62.855756
_cell_angle_gamma 90.000000
_cell_volume 3417.483568
_symmetry_space_group_name_H-M "C 2/M"
_symmetry_group_IT_number 12
_symmetry_cell_setting 'monoclinic'
loop_
_space_group_symop_operation_xyz
x,y,z
-x,y,-z
-x,-y,-z
x,-y,z
1/2+x,1/2+y,z
1/2-x,1/2+y,-z
1/2-x,1/2-y,-z
1/2+x,1/2-y,z
loop_
_atom_site_type_symbol
_atom_site_label
_atom_site_fract_x
_atom_site_fract_y
_atom_site_fract_z
Si Si1 0.311788 0.125231 0.175273
Si Si2 0.865118 0.745459 0.346662
Si Si3 0.429256 0.381980 0.785933
Si Si4 0.552333 0.380212 0.913991
Si Si5 0.590049 0.122438 0.469528
Si Si6 0.158106 0.262859 0.159919
Si Si7 0.500000 0.251040 0.500000
Si Si8 0.299063 0.374789 0.661321
O O1 0.339654 0.187040 0.255605
O O2 0.256040 0.130248 0.290207
O O3 0.324956 0.000000 0.148644
O O4 0.320872 0.183090 0.011491
O O5 0.908705 0.815355 0.227144
O O6 0.887542 0.661466 0.419366
O O7 0.829981 0.820272 0.490903
O O8 0.427628 0.500000 0.729267
O O9 0.382542 0.319390 0.819240
O O10 0.474458 0.322773 0.655126
O O11 0.432044 0.386492 0.948804
O O12 0.548357 0.500000 0.861597
O O13 0.500000 0.332842 0.000000
O O14 0.630070 0.149670 0.293189
O O15 0.542186 0.184007 0.504056
O O16 0.579583 0.000000 0.488127
O O17 0.191797 0.195852 0.212318
O O18 0.311238 0.500000 0.661839
#
# Coordination Sequence:
#
# PCOD9183299 Si02
#       8
#     8   8   8   8   8   8   4   8
#     4  11  22  38  59  84 116 153 196 240 286 342
#     4  11  21  38  59  82 118 151 190 234 290 343
#     4  10  19  33  54  82 110 142 182 227 282 340
#     4  10  20  34  55  81 113 147 181 227 284 341
#     4  10  21  36  56  79 109 152 195 235 280 332
#     4  10  20  37  58  81 112 149 187 238 290 338
#     4  10  20  34  56  80 112 148 188 238 280 334
#     4  10  22  38  59  87 115 149 192 240 293 350
#
# _framework density 17.556778000000001
#
# number of rings (size 3 to 8) (size 9 to 14) (size 15 to 20)
#    0.000    1.733    1.333    3.600    0.000    0.000 
#    0.000    4.000    0.000    8.000    0.000    0.000 
#    0.000    0.000    0.000    0.000    0.000    0.000 
#
# Total GULP energy -167353.798831 kJ/mol
# GULP energy per Si atom -5578.459961 kJ/mol
# Density = 1.751682 g / cm^3
# Si number density = 17.556778 Si / 1000 Ang^3
#
#
#
# Elastic Constant Matrix: (Units=GPa)
#
#
# Indices 1 2 3 4 5 6 
#
# 1 76.3434 28.0752 42.3615 0.0000 -6.3434 0.0000
# 2 28.0752 116.2883 59.7383 0.0000 -11.6199 0.0000
# 3 42.3615 59.7383 109.4111 0.0000 -2.8900 0.0000
# 4 0.0000 0.0000 0.0000 12.9025 0.0000 0.7053
# 5 -6.3434 -11.6199 -2.8900 0.0000 27.6767 0.0000
# 6 0.0000 0.0000 0.0000 0.7053 0.0000 18.5156
#
#
#
# Elastic Compliance Matrix: (Units=1/GPa)
#
#
# Indices 1 2 3 4 5 6 
#
# 1 0.016996 -0.000647 -0.006149 0.000000 0.002982 0.000000
# 2 -0.000647 0.012522 -0.006469 0.000000 0.004433 0.000000
# 3 -0.006149 -0.006469 0.014985 0.000000 -0.002561 0.000000
# 4 0.000000 0.000000 0.000000 0.077666 0.000000 -0.002959
# 5 0.002982 0.004433 -0.002561 0.000000 0.038409 0.000000
# 6 0.000000 0.000000 0.000000 -0.002959 0.000000 0.054121
#
#
# Mechanical properties :
#
#
# Convention : Reuss Voigt Hill
#
# Bulk Modulus (GPa) = 55.63755 62.48811 59.06283
# Shear Modulus (GPa) = 20.22490 23.27681 21.75085
#
# Velocity S-wave (km/s) = 3.39775 3.64511 3.52360
# Velocity P-wave (km/s) = 6.86672 7.30651 7.09002
#
# Compressibility (1/GPa) = 0.01797347
#
# Stress axis : x y z
#
# Youngs Moduli (GPa) = 58.83720 79.86037 66.73311
#
# Poissons Ratio (x) = 0.05165 0.41031
# Poissons Ratio (y) = 0.03805 0.43172
# Poissons Ratio (z) = 0.36177 0.51665
#
# Static dielectric constant tensor:
#      x y z
#    x 1.582680 0.000000 0.012430 
#    y 0.000000 1.600540 0.000000 
#    z 0.012430 0.000000 1.593570 
# 
# From -- ./inp_files/110413.got.cif
#   From: 2010.05.17/outbox.cif.g08.bks.cpg/sg12_56_cif.got.tgz:110413.got - 2010.06.03 13:09:07.
