data_PCOD9183963
_publ_section_title
;
Structure prediction by ZEFSAII (Michael W. Deem and Ramdas Pophale) SiO2 
 PCOD9183963
Probable space group: C 2/M
;
_chemical_formula_sum "Si O2"
_cell_formula_units_Z 56
_cell_length_a 24.387005
_cell_length_b 15.568048
_cell_length_c 13.846209
_cell_angle_alpha 90.000000
_cell_angle_beta 31.554763
_cell_angle_gamma 90.000000
_cell_volume 2750.966258
_symmetry_space_group_name_H-M "C 2/M"
_symmetry_group_IT_number 12
_symmetry_cell_setting 'monoclinic'
loop_
_space_group_symop_operation_xyz
x,y,z
-x,y,-z
-x,-y,-z
x,-y,z
1/2+x,1/2+y,z
1/2-x,1/2+y,-z
1/2-x,1/2-y,-z
1/2+x,1/2-y,z
loop_
_atom_site_type_symbol
_atom_site_label
_atom_site_fract_x
_atom_site_fract_y
_atom_site_fract_z
Si Si1 0.004868 0.811557 0.390486
Si Si2 0.331122 0.602551 0.526787
Si Si3 0.909890 0.599150 0.057029
Si Si4 0.464323 0.402636 0.154734
Si Si5 0.849513 0.271399 0.993903
Si Si6 0.202518 0.091544 0.115561
Si Si7 0.308309 0.407458 0.095481
O O1 0.896996 0.845111 0.507449
O O2 0.000000 0.761731 0.500000
O O3 0.073350 0.764280 0.205337
O O4 0.079393 0.891757 0.305849
O O5 0.356729 0.500000 0.495844
O O6 0.207268 0.610411 0.724658
O O7 0.373646 0.633693 0.358447
O O8 0.918339 0.500000 0.010168
O O9 0.916718 0.669276 0.963392
O O10 0.000000 0.612110 0.000000
O O11 0.429809 0.500000 0.180394
O O12 0.500000 0.360941 0.000000
O O13 0.567079 0.409173 0.068104
O O14 0.764414 0.331545 0.070830
O O15 0.791115 0.194095 0.140206
O O16 0.231610 0.000000 0.116297
O O17 0.222314 0.088802 0.971062
O O18 0.269318 0.500000 0.196705
#
# Coordination Sequence:
#
# PCOD9183963 Si02
#       7
#     8   8   8   8   8   8   8
#     4  11  21  33  55  88 124 153 193 256 318 363
#     4  10  19  36  61  92 120 151 204 261 312 360
#     4  10  23  43  67  88 116 161 210 257 302 359
#     4   9  16  29  54  86 124 157 184 237 311 372
#     4  11  21  36  57  85 121 163 199 248 303 364
#     4  10  19  33  56  85 119 158 199 243 296 362
#     4   9  17  31  52  82 120 156 192 240 302 360
#
# _framework density 20.356483999999998
#
# number of rings (size 3 to 8) (size 9 to 14) (size 15 to 20)
#    0.000    2.000    2.857    3.429    0.000    2.857 
#    0.000    0.714    6.286    1.714    0.000    3.000 
#    0.000    0.000    0.000    0.000    0.000    0.000 
#
# Total GULP energy -155870.668617 kJ/mol
# GULP energy per Si atom -5566.809593 kJ/mol
# Density = 2.031015 g / cm^3
# Si number density = 20.356484 Si / 1000 Ang^3
#
#
#
# Elastic Constant Matrix: (Units=GPa)
#
#
# Indices 1 2 3 4 5 6 
#
# 1 106.6177 53.0397 46.6940 0.0000 -2.8928 0.0000
# 2 53.0397 120.5400 29.8975 0.0000 -6.7631 0.0000
# 3 46.6940 29.8975 76.2101 0.0000 1.3186 0.0000
# 4 0.0000 0.0000 0.0000 9.6733 0.0000 -5.7388
# 5 -2.8928 -6.7631 1.3186 0.0000 39.1870 0.0000
# 6 0.0000 0.0000 0.0000 -5.7388 0.0000 51.1920
#
#
#
# Elastic Compliance Matrix: (Units=1/GPa)
#
#
# Indices 1 2 3 4 5 6 
#
# 1 0.014952 -0.004736 -0.007313 0.000000 0.000533 0.000000
# 2 -0.004736 0.010806 -0.001365 0.000000 0.001561 0.000000
# 3 -0.007313 -0.001365 0.018161 0.000000 -0.001386 0.000000
# 4 0.000000 0.000000 0.000000 0.110743 0.000000 0.012415
# 5 0.000533 0.001561 -0.001386 0.000000 0.025874 0.000000
# 6 0.000000 0.000000 0.000000 0.012415 0.000000 0.020926
#
#
# Mechanical properties :
#
#
# Convention : Reuss Voigt Hill
#
# Bulk Modulus (GPa) = 58.50132 62.51448 60.50790
# Shear Modulus (GPa) = 21.36875 31.59288 26.48082
#
# Velocity S-wave (km/s) = 3.24346 3.94379 3.61065
# Velocity P-wave (km/s) = 6.54428 7.17736 6.86812
#
# Compressibility (1/GPa) = 0.01709363
#
# Stress axis : x y z
#
# Youngs Moduli (GPa) = 66.87963 92.54270 55.06163
#
# Poissons Ratio (x) = 0.43825 0.40265
# Poissons Ratio (y) = 0.31672 0.07514
# Poissons Ratio (z) = 0.48907 0.12629
#
# Static dielectric constant tensor:
#      x y z
#    x 1.755510 0.000000 0.062820 
#    y 0.000000 1.808300 0.000000 
#    z 0.062820 0.000000 1.754640 
# 
# From -- ./inp_files/240876.got.cif
#   From: 2010.05.17/outbox.cif.g08.bks.cpg/sg12_121_cif.got.tgz:240876.got - 2010.06.03 13:09:07.
