data_PCOD9183411
_publ_section_title
;
Structure prediction by ZEFSAII (Michael W. Deem and Ramdas Pophale) SiO2 
 PCOD9183411
Probable space group: C 2/M
;
_chemical_formula_sum "Si O2"
_cell_formula_units_Z 64
_cell_length_a 20.547592
_cell_length_b 7.599993
_cell_length_c 19.669298
_cell_angle_alpha 90.000000
_cell_angle_beta 89.376594
_cell_angle_gamma 90.000000
_cell_volume 3071.406355
_symmetry_space_group_name_H-M "C 2/M"
_symmetry_group_IT_number 12
_symmetry_cell_setting 'monoclinic'
loop_
_space_group_symop_operation_xyz
x,y,z
-x,y,-z
-x,-y,-z
x,-y,z
1/2+x,1/2+y,z
1/2-x,1/2+y,-z
1/2-x,1/2-y,-z
1/2+x,1/2-y,z
loop_
_atom_site_type_symbol
_atom_site_label
_atom_site_fract_x
_atom_site_fract_y
_atom_site_fract_z
Si Si1 0.178105 0.711140 0.920201
Si Si2 0.920355 0.288439 0.193498
Si Si3 0.880057 0.795498 0.663721
Si Si4 0.994340 0.286846 0.422688
Si Si5 0.741372 0.711749 0.420179
Si Si6 0.630978 0.214735 0.659765
Si Si7 0.174688 0.788639 0.077635
Si Si8 0.925824 0.212221 0.808283
O O1 0.180464 0.500000 0.912753
O O2 0.123390 0.777585 0.868826
O O3 0.252036 0.777049 0.906419
O O4 0.161934 0.748827 0.998830
O O5 0.915300 0.500000 0.194259
O O6 0.888967 0.224771 0.264785
O O7 0.997297 0.250967 0.188320
O O8 0.824218 0.720253 0.615267
O O9 0.894451 0.719187 0.738151
O O10 0.947172 0.784489 0.622597
O O11 0.862595 0.000000 0.675227
O O12 0.998228 0.500000 0.420895
O O13 0.926501 0.234282 0.390459
O O14 0.000000 0.229049 0.500000
O O15 0.740601 0.500000 0.416920
O O16 0.750000 0.750000 0.500000
O O17 0.801599 0.774779 0.373570
O O18 0.633015 0.000000 0.661977
O O19 0.118094 0.723814 0.128287
O O20 0.176634 0.000000 0.084271
O O21 0.921682 0.000000 0.806984
#
# Coordination Sequence:
#
# PCOD9183411 Si02
#       8
#     8   8   8   8   8   8   8   8
#     4   9  19  35  57  83 107 136 178 222 259 305
#     4  10  20  35  56  80 106 140 180 220 261 307
#     4  10  21  35  53  79 108 138 173 218 266 312
#     4  10  19  33  55  78 102 137 178 216 257 309
#     4  10  21  37  56  78 105 137 176 221 267 316
#     4   9  18  33  53  77 103 136 176 216 258 308
#     4   9  19  36  57  80 108 142 176 213 262 316
#     4  10  21  36  54  79 110 143 177 214 261 317
#
# _framework density 20.83736
#
# number of rings (size 3 to 8) (size 9 to 14) (size 15 to 20)
#    0.000    2.375    1.250    0.750    1.750    3.250 
#    0.000    3.750    0.000    0.000    0.000    0.000 
#    0.000    0.000    0.000    0.000    0.000    0.000 
#
# Total GULP energy -178618.130107 kJ/mol
# GULP energy per Si atom -5581.816566 kJ/mol
# Density = 2.078993 g / cm^3
# Si number density = 20.837360 Si / 1000 Ang^3
#
#
#
# Elastic Constant Matrix: (Units=GPa)
#
#
# Indices 1 2 3 4 5 6 
#
# 1 -5345.3096 21.6946-4282.7324 0.0000 -213.0232 0.0000
# 2 21.6946 45.3098 19.8397 0.0000 3.9745 0.0000
# 3 -4282.7324 19.8397-3319.0408 0.0000 -169.2444 0.0000
# 4 0.0000 0.0000 0.0000 17.4555 0.0000 -2.7471
# 5 -213.0232 3.9745 -169.2444 0.0000 35.2096 0.0000
# 6 0.0000 0.0000 0.0000 -2.7471 0.0000 20.1503
#
#
#
# Elastic Compliance Matrix: (Units=1/GPa)
#
#
# Indices 1 2 3 4 5 6 
#
# 1 0.005560 0.000525 -0.007134 0.000000 -0.000715 0.000000
# 2 0.000525 0.022160 -0.000465 0.000000 -0.001562 0.000000
# 3 -0.007134 -0.000465 0.008915 0.000000 -0.000259 0.000000
# 4 0.000000 0.000000 0.000000 0.058545 0.000000 0.007982
# 5 -0.000715 -0.001562 -0.000259 0.000000 0.023003 0.000000
# 6 0.000000 0.000000 0.000000 0.007982 0.000000 0.050715
#
#
# Mechanical properties :
#
#
# Convention : Reuss Voigt Hill
#
# Bulk Modulus (GPa) = 44.47386 -1900.15965 -927.84289
# Shear Modulus (GPa) = 26.24095 -277.29310 -125.52607
#
# Velocity S-wave (km/s) = 3.55254 -11.54833 -7.76992
# Velocity P-wave (km/s) = 6.18200 33.04086 22.95083
#
# Compressibility (1/GPa) = 0.02248512
#
# Stress axis : x y z
#
# Youngs Moduli (GPa) = 179.86611 45.12715 112.17097
#
# Poissons Ratio (x) = -0.02368 0.80027
# Poissons Ratio (y) = -0.09436 0.05214
# Poissons Ratio (z) = 1.28323 0.02098
#
# Static dielectric constant tensor:
#      x y z
#    x 1.717830 0.000000 0.014700 
#    y 0.000000 1.798220 0.000000 
#    z 0.014700 0.000000 1.724250 
# 
# From -- ./inp_files/281397.got.cif
#   From: 2010.05.17/outbox.cif.g08.bks.cpg/sg12_141_cif.got.tgz:281397.got - 2010.06.03 13:09:07.
