data_PCOD9183971
_publ_section_title
;
Structure prediction by ZEFSAII (Michael W. Deem and Ramdas Pophale) SiO2 
 PCOD9183971
Probable space group: C 2/M
;
_chemical_formula_sum "Si O2"
_cell_formula_units_Z 48
_cell_length_a 26.556861
_cell_length_b 15.419702
_cell_length_c 10.131686
_cell_angle_alpha 90.000000
_cell_angle_beta 149.278625
_cell_angle_gamma 90.000000
_cell_volume 2119.529450
_symmetry_space_group_name_H-M "C 2/M"
_symmetry_group_IT_number 12
_symmetry_cell_setting 'monoclinic'
loop_
_space_group_symop_operation_xyz
x,y,z
-x,y,-z
-x,-y,-z
x,-y,z
1/2+x,1/2+y,z
1/2-x,1/2+y,-z
1/2-x,1/2-y,-z
1/2+x,1/2-y,z
loop_
_atom_site_type_symbol
_atom_site_label
_atom_site_fract_x
_atom_site_fract_y
_atom_site_fract_z
Si Si1 0.531061 0.404503 0.880176
Si Si2 0.643116 0.593888 0.861125
Si Si3 0.851905 0.278569 0.041963
Si Si4 0.366671 0.257125 0.773745
Si Si5 0.884281 0.248758 0.521335
Si Si6 0.124953 0.596462 0.684398
O O1 0.495952 0.500000 0.834617
O O2 0.609360 0.412579 0.937060
O O3 0.443056 0.341207 0.636265
O O4 0.592408 0.355356 0.131210
O O5 0.606295 0.500000 0.717275
O O6 0.616349 0.697114 0.790502
O O7 0.758743 0.592458 0.092183
O O8 0.888651 0.274258 0.972856
O O9 0.732297 0.270158 0.762771
O O10 0.880020 0.366243 0.179271
O O11 0.250000 0.250000 0.500000
O O12 0.402250 0.221127 0.713650
O O13 0.915000 0.327985 0.498711
O O14 0.084736 0.500000 0.577884
#
# Coordination Sequence:
#
# PCOD9183971 Si02
#       6
#     8   8   8   8   8   8
#     4  10  20  34  57  91 125 150 178 228 293 350
#     4   8  15  30  53  79 107 141 179 220 273 334
#     4   9  18  35  55  79 111 152 196 236 278 333
#     4   9  19  36  57  79 112 153 190 228 279 340
#     4  10  19  33  56  86 116 148 185 235 293 340
#     4  10  20  37  59  79 107 153 203 242 277 330
#
# _framework density 22.646536000000001
#
# number of rings (size 3 to 8) (size 9 to 14) (size 15 to 20)
#    0.000    2.667    0.000    3.500    0.000    2.000 
#    0.000   11.667    0.000   25.000    0.000    0.000 
#    0.000    0.000    0.000    0.000    0.000    0.000 
#
# Total GULP energy -133660.252100 kJ/mol
# GULP energy per Si atom -5569.177171 kJ/mol
# Density = 2.259499 g / cm^3
# Si number density = 22.646536 Si / 1000 Ang^3
#
#
#
# Elastic Constant Matrix: (Units=GPa)
#
#
# Indices 1 2 3 4 5 6 
#
# 1 139.5917 53.8516 29.4695 0.0000 -14.7342 0.0000
# 2 53.8516 182.7715 54.6625 0.0000 -25.2107 0.0000
# 3 29.4695 54.6625 95.9906 0.0000 -2.2301 0.0000
# 4 0.0000 0.0000 0.0000 23.6999 0.0000 -5.3652
# 5 -14.7342 -25.2107 -2.2301 0.0000 35.3899 0.0000
# 6 0.0000 0.0000 0.0000 -5.3652 0.0000 8.5760
#
#
#
# Elastic Compliance Matrix: (Units=1/GPa)
#
#
# Indices 1 2 3 4 5 6 
#
# 1 0.008378 -0.001705 -0.001551 0.000000 0.002176 0.000000
# 2 -0.001705 0.007731 -0.003773 0.000000 0.004560 0.000000
# 3 -0.001551 -0.003773 0.012984 0.000000 -0.002515 0.000000
# 4 0.000000 0.000000 0.000000 0.049156 0.000000 0.030752
# 5 0.002176 0.004560 -0.002515 0.000000 0.032253 0.000000
# 6 0.000000 0.000000 0.000000 0.030752 0.000000 0.135843
#
#
# Mechanical properties :
#
#
# Convention : Reuss Voigt Hill
#
# Bulk Modulus (GPa) = 66.50699 77.14677 71.82688
# Shear Modulus (GPa) = 18.83844 32.22451 25.53148
#
# Velocity S-wave (km/s) = 2.88730 3.77627 3.36131
# Velocity P-wave (km/s) = 6.36762 7.29062 6.84469
#
# Compressibility (1/GPa) = 0.01503601
#
# Stress axis : x y z
#
# Youngs Moduli (GPa) = 119.35335 129.34941 77.01734
#
# Poissons Ratio (x) = 0.22049 0.11945
# Poissons Ratio (y) = 0.20345 0.29060
# Poissons Ratio (z) = 0.18511 0.48806
#
# Static dielectric constant tensor:
#      x y z
#    x 1.908910 0.000000 0.019860 
#    y 0.000000 1.934460 0.000000 
#    z 0.019860 0.000000 1.882310 
# 
# From -- ./inp_files/189519.got.cif
#   From: 2010.05.17/outbox.cif.g08.bks.cpg/sg12_95_cif.got.tgz:189519.got - 2010.06.03 13:09:07.
