data_PCOD9183765
_publ_section_title
;
Structure prediction by ZEFSAII (Michael W. Deem and Ramdas Pophale) SiO2 
 PCOD9183765
Probable space group: C 2/M
;
_chemical_formula_sum "Si O2"
_cell_formula_units_Z 64
_cell_length_a 12.643746
_cell_length_b 13.235304
_cell_length_c 30.008276
_cell_angle_alpha 90.000000
_cell_angle_beta 42.085216
_cell_angle_gamma 90.000000
_cell_volume 3365.719558
_symmetry_space_group_name_H-M "C 2/M"
_symmetry_group_IT_number 12
_symmetry_cell_setting 'monoclinic'
loop_
_space_group_symop_operation_xyz
x,y,z
-x,y,-z
-x,-y,-z
x,-y,z
1/2+x,1/2+y,z
1/2-x,1/2+y,-z
1/2-x,1/2-y,-z
1/2+x,1/2-y,z
loop_
_atom_site_type_symbol
_atom_site_label
_atom_site_fract_x
_atom_site_fract_y
_atom_site_fract_z
Si Si1 0.992765 0.744989 0.938100
Si Si2 0.412535 0.239256 0.723934
Si Si3 0.398452 0.380897 0.177690
Si Si4 0.765258 0.617083 0.377322
Si Si5 0.783450 0.621674 0.935644
Si Si6 0.168767 0.781999 0.150163
Si Si7 0.493556 0.689104 0.396896
Si Si8 0.307106 0.112867 0.465379
O O1 0.063358 0.824817 0.880488
O O2 0.145234 0.693298 0.912706
O O3 0.897255 0.660700 0.939948
O O4 0.876161 0.816059 0.003017
O O5 0.266360 0.168083 0.755071
O O6 0.573347 0.177218 0.679942
O O7 0.370534 0.283246 0.785321
O O8 0.445425 0.314579 0.672749
O O9 0.383386 0.500000 0.176973
O O10 0.545477 0.353003 0.163365
O O11 0.794502 0.500000 0.359206
O O12 0.626536 0.653520 0.389078
O O13 0.726078 0.626987 0.442112
O O14 0.767339 0.500000 0.939030
O O15 0.845805 0.672023 0.869945
O O16 0.442954 0.803975 0.424453
O O17 0.329850 0.630149 0.455904
O O18 0.370347 0.000000 0.447902
#
# Coordination Sequence:
#
# PCOD9183765 Si02
#       8
#     8   8   8   8   8   8   8   8
#     4   9  20  36  54  82 113 138 174 224 270 315
#     4  10  21  36  51  75 109 142 177 220 265 312
#     4  10  20  36  56  75 103 142 179 218 266 317
#     4  10  19  33  57  83 105 135 178 222 265 317
#     4  10  20  35  57  83 110 141 178 222 269 315
#     4  10  21  36  53  76 107 141 180 221 261 314
#     4  10  19  33  56  79 108 141 173 217 267 315
#     4   9  19  35  56  82 108 136 174 219 266 317
#
# _framework density 19.015250999999999
#
# number of rings (size 3 to 8) (size 9 to 14) (size 15 to 20)
#    0.000    2.250    0.000    2.625    0.000    5.500 
#    0.000    1.250    0.000   21.750    0.000    0.000 
#    0.000    0.000    0.000    0.000    0.000    0.000 
#
# Total GULP energy -178389.967196 kJ/mol
# GULP energy per Si atom -5574.686475 kJ/mol
# Density = 1.897197 g / cm^3
# Si number density = 19.015251 Si / 1000 Ang^3
#
#
#
# Elastic Constant Matrix: (Units=GPa)
#
#
# Indices 1 2 3 4 5 6 
#
# 1 -48.8118 -80.1466 -59.6558 0.0000 -3.1896 0.0000
# 2 -80.1466 -26.9985 -50.8351 0.0000 14.8138 0.0000
# 3 -59.6558 -50.8351 37.0299 0.0000 15.6844 0.0000
# 4 0.0000 0.0000 0.0000 0.5903 0.0000 10.9159
# 5 -3.1896 14.8138 15.6844 0.0000 27.3862 0.0000
# 6 0.0000 0.0000 0.0000 10.9159 0.0000 7.1306
#
#
#
# Elastic Compliance Matrix: (Units=1/GPa)
#
#
# Indices 1 2 3 4 5 6 
#
# 1 0.012097 -0.015131 -0.007061 0.000000 0.013638 0.000000
# 2 -0.015131 0.012696 -0.004347 0.000000 -0.006140 0.000000
# 3 -0.007061 -0.004347 0.011901 0.000000 -0.005286 0.000000
# 4 0.000000 0.000000 0.000000 -0.062033 0.000000 0.094964
# 5 0.013638 -0.006140 -0.005286 0.000000 0.044452 0.000000
# 6 0.000000 0.000000 0.000000 0.094964 0.000000 -0.005135
#
#
# Mechanical properties :
#
#
# Convention : Reuss Voigt Hill
#
# Bulk Modulus (GPa) = -61.02623 -46.67281 -53.84952
# Shear Modulus (GPa) = 81.17659 17.14523 49.16091
#
# Velocity S-wave (km/s) = 6.54087 3.00602 5.09014
# Velocity P-wave (km/s) = 4.98808 3.54260 2.48303
#
# Compressibility (1/GPa) = -0.01638640
#
# Stress axis : x y z
#
# Youngs Moduli (GPa) = 82.66831 78.76708 84.02817
#
# Poissons Ratio (x) = 1.19185 0.59333
# Poissons Ratio (y) = 1.25088 0.36530
# Poissons Ratio (z) = 0.58372 0.34243
#
# Static dielectric constant tensor:
#      x y z
#    x 1.683850 0.000000 0.020170 
#    y 0.000000 1.630400 0.000000 
#    z 0.020170 0.000000 1.702870 
# 
# From -- ./inp_files/374101.got.cif
#   From: 2010.05.17/outbox.cif.g08.bks.cpg/sg12_188_cif.got.tgz:374101.got - 2010.06.03 13:09:07.
