data_PCOD9183949
_publ_section_title
;
Structure prediction by ZEFSAII (Michael W. Deem and Ramdas Pophale) SiO2 
 PCOD9183949
Probable space group: C 2/M
;
_chemical_formula_sum "Si O2"
_cell_formula_units_Z 60
_cell_length_a 13.073645
_cell_length_b 13.449193
_cell_length_c 21.732246
_cell_angle_alpha 90.000000
_cell_angle_beta 120.292038
_cell_angle_gamma 90.000000
_cell_volume 3299.457914
_symmetry_space_group_name_H-M "C 2/M"
_symmetry_group_IT_number 12
_symmetry_cell_setting 'monoclinic'
loop_
_space_group_symop_operation_xyz
x,y,z
-x,y,-z
-x,-y,-z
x,-y,z
1/2+x,1/2+y,z
1/2-x,1/2+y,-z
1/2-x,1/2-y,-z
1/2+x,1/2-y,z
loop_
_atom_site_type_symbol
_atom_site_label
_atom_site_fract_x
_atom_site_fract_y
_atom_site_fract_z
Si Si1 0.690215 0.612229 0.766212
Si Si2 0.706826 0.681046 0.234177
Si Si3 0.966329 0.115620 0.606701
Si Si4 0.225666 0.381360 0.608584
Si Si5 0.838726 0.611611 0.154460
Si Si6 0.385143 0.617640 0.003303
Si Si7 0.934014 0.814870 0.150673
Si Si8 0.500000 0.242838 0.500000
O O1 0.736487 0.500000 0.772990
O O2 0.778249 0.701895 0.776763
O O3 0.576865 0.624660 0.686878
O O4 0.641087 0.627916 0.820385
O O5 0.755068 0.656665 0.316184
O O6 0.782681 0.625616 0.205013
O O7 0.569664 0.650118 0.189504
O O8 0.845817 0.138468 0.606921
O O9 0.982516 0.187730 0.554182
O O10 0.960945 0.000000 0.585127
O O11 0.206939 0.500000 0.603773
O O12 0.114931 0.325211 0.545419
O O13 0.884811 0.500000 0.161023
O O14 0.929938 0.699764 0.169781
O O15 0.730360 0.627574 0.073887
O O16 0.402129 0.500000 0.021002
O O17 0.379227 0.671325 0.066729
O O18 0.500000 0.652800 0.000000
#
# Coordination Sequence:
#
# PCOD9183949 Si02
#       8
#     8   8   8   8   8   8   8   4
#     4  10  21  37  57  83 111 143 185 229 276 329
#     4  11  21  37  58  83 111 148 185 231 274 329
#     4  10  21  38  60  84 110 143 185 230 275 331
#     4  11  23  38  58  84 114 147 185 228 276 331
#     4  10  22  37  55  83 117 148 184 229 277 328
#     4  10  19  33  56  85 112 144 189 234 274 321
#     4  11  21  35  61  82 111 150 189 228 277 326
#     4  12  22  40  60  82 116 146 184 224 286 332
#
# _framework density 18.184805999999998
#
# number of rings (size 3 to 8) (size 9 to 14) (size 15 to 20)
#    0.000    1.467    4.000    2.000    0.000    1.600 
#    0.000    0.000    0.000    1.200    0.000    0.000 
#    0.000    0.000    0.000    0.000    0.000    0.000 
#
# Total GULP energy -167569.264682 kJ/mol
# GULP energy per Si atom -5585.642156 kJ/mol
# Density = 1.814342 g / cm^3
# Si number density = 18.184806 Si / 1000 Ang^3
#
#
#
# Elastic Constant Matrix: (Units=GPa)
#
#
# Indices 1 2 3 4 5 6 
#
# 1 41.2884 5.5421 8.6693 0.0000 -15.2552 0.0000
# 2 5.5421 63.3875 12.2111 0.0000 -18.5193 0.0000
# 3 8.6693 12.2111 66.6212 0.0000 -25.3450 0.0000
# 4 0.0000 0.0000 0.0000 1.4508 0.0000 -12.1233
# 5 -15.2552 -18.5193 -25.3450 0.0000 29.5392 0.0000
# 6 0.0000 0.0000 0.0000 -12.1233 0.0000 1.7139
#
#
#
# Elastic Compliance Matrix: (Units=1/GPa)
#
#
# Indices 1 2 3 4 5 6 
#
# 1 0.030674 0.002613 0.003235 0.000000 0.020255 0.000000
# 2 0.002613 0.019649 0.001868 0.000000 0.015271 0.000000
# 3 0.003235 0.001868 0.022756 0.000000 0.022367 0.000000
# 4 0.000000 0.000000 0.000000 -0.011862 0.000000 -0.083906
# 5 0.020255 0.015271 0.022367 0.000000 0.073079 0.000000
# 6 0.000000 0.000000 0.000000 -0.083906 0.000000 -0.010041
#
#
# Mechanical properties :
#
#
# Convention : Reuss Voigt Hill
#
# Bulk Modulus (GPa) = 11.29804 24.90467 18.10136
# Shear Modulus (GPa) = 36.14643 16.19910 26.17276
#
# Velocity S-wave (km/s) = 4.46323 2.98787 3.79788
# Velocity P-wave (km/s) = 5.72599 5.06243 5.40440
#
# Compressibility (1/GPa) = 0.08851089
#
# Stress axis : x y z
#
# Youngs Moduli (GPa) = 32.60121 50.89258 43.94448
#
# Poissons Ratio (x) = -0.13296 -0.14217
# Poissons Ratio (y) = -0.08517 -0.08209
# Poissons Ratio (z) = -0.10548 -0.09507
#
# Static dielectric constant tensor:
#      x y z
#    x 1.590260 0.000000 -0.002540 
#    y 0.000000 1.624340 0.000000 
#    z -0.002540 0.000000 1.593040 
# 
# From -- ./inp_files/263371.got.cif
#   From: 2010.05.17/outbox.cif.g08.bks.cpg/sg12_132_cif.got.tgz:263371.got - 2010.06.03 13:09:07.
