data_PCOD9183238
_publ_section_title
;
Structure prediction by ZEFSAII (Michael W. Deem and Ramdas Pophale) SiO2 
 PCOD9183238
Probable space group: C 2/M
;
_chemical_formula_sum "Si O2"
_cell_formula_units_Z 64
_cell_length_a 20.709497
_cell_length_b 8.860917
_cell_length_c 20.726419
_cell_angle_alpha 90.000000
_cell_angle_beta 73.442385
_cell_angle_gamma 90.000000
_cell_volume 3645.691012
_symmetry_space_group_name_H-M "C 2/M"
_symmetry_group_IT_number 12
_symmetry_cell_setting 'monoclinic'
loop_
_space_group_symop_operation_xyz
x,y,z
-x,y,-z
-x,-y,-z
x,-y,z
1/2+x,1/2+y,z
1/2-x,1/2+y,-z
1/2-x,1/2-y,-z
1/2+x,1/2-y,z
loop_
_atom_site_type_symbol
_atom_site_label
_atom_site_fract_x
_atom_site_fract_y
_atom_site_fract_z
Si Si1 0.914572 0.818987 0.349847
Si Si2 0.802852 0.178918 0.273502
Si Si3 0.662831 0.319282 0.360069
Si Si4 0.560239 0.179679 0.287684
Si Si5 0.323906 0.180951 0.991224
Si Si6 0.796838 0.320111 0.139887
Si Si7 0.322557 0.681484 0.495889
Si Si8 0.640335 0.319767 0.147307
O O1 0.863092 0.788877 0.305914
O O2 0.876803 0.773346 0.426586
O O3 0.984431 0.735074 0.320062
O O4 0.926526 0.000000 0.348770
O O5 0.735989 0.266204 0.314954
O O6 0.819032 0.230698 0.196459
O O7 0.789271 0.000000 0.279246
O O8 0.657434 0.500000 0.354838
O O9 0.606822 0.241560 0.332154
O O10 0.656888 0.278330 0.437176
O O11 0.590370 0.249030 0.213362
O O12 0.564094 0.000000 0.283941
O O13 0.368281 0.250968 0.921689
O O14 0.321175 0.000000 0.985613
O O15 0.250000 0.250000 0.000000
O O16 0.337321 0.215754 0.062583
O O17 0.801744 0.500000 0.149916
O O18 0.717441 0.287251 0.148671
O O19 0.316439 0.500000 0.494580
O O20 0.250000 0.750000 0.500000
O O21 0.633392 0.500000 0.147054
#
# Coordination Sequence:
#
# PCOD9183238 Si02
#       8
#     8   8   8   8   8   8   8   8
#     4  10  23  42  59  82 116 151 189 235 289 344
#     4  11  21  34  58  86 114 149 192 237 280 335
#     4  11  22  37  60  86 115 151 188 233 288 341
#     4  12  25  39  58  84 114 152 195 238 284 342
#     4   9  17  29  47  76 113 151 189 232 281 333
#     4   9  18  31  51  80 115 150 187 231 282 333
#     4  10  21  38  62  87 114 150 188 233 287 341
#     4  10  19  33  54  80 113 151 186 232 289 342
#
# _framework density 17.554970000000001
#
# number of rings (size 3 to 8) (size 9 to 14) (size 15 to 20)
#    0.000    1.750    2.500    3.375    0.000    5.000 
#    0.000    2.500    0.000    0.750    0.000    5.250 
#    0.000    0.000    0.000    0.000    0.000    0.000 
#
# Total GULP energy -178658.739549 kJ/mol
# GULP energy per Si atom -5583.085611 kJ/mol
# Density = 1.751501 g / cm^3
# Si number density = 17.554970 Si / 1000 Ang^3
#
#
#
# Elastic Constant Matrix: (Units=GPa)
#
#
# Indices 1 2 3 4 5 6 
#
# 1 76.4244 49.6814 72.0170 0.0000 -0.6926 0.0000
# 2 49.6814 69.7335 71.8418 0.0000 4.9772 0.0000
# 3 72.0170 71.8418 193.4581 0.0000 12.3558 0.0000
# 4 0.0000 0.0000 0.0000 30.5767 0.0000 -0.3134
# 5 -0.6926 4.9772 12.3558 0.0000 22.9000 0.0000
# 6 0.0000 0.0000 0.0000 -0.3134 0.0000 27.5285
#
#
#
# Elastic Compliance Matrix: (Units=1/GPa)
#
#
# Indices 1 2 3 4 5 6 
#
# 1 0.027757 -0.014850 -0.005259 0.000000 0.006905 0.000000
# 2 -0.014850 0.031175 -0.005787 0.000000 -0.004102 0.000000
# 3 -0.005259 -0.005787 0.009534 0.000000 -0.004046 0.000000
# 4 0.000000 0.000000 0.000000 0.032708 0.000000 0.000372
# 5 0.006905 -0.004102 -0.004046 0.000000 0.046951 0.000000
# 6 0.000000 0.000000 0.000000 0.000372 0.000000 0.036330
#
#
# Mechanical properties :
#
#
# Convention : Reuss Voigt Hill
#
# Bulk Modulus (GPa) = 59.97398 80.74405 70.35901
# Shear Modulus (GPa) = 20.67778 25.93943 23.30861
#
# Velocity S-wave (km/s) = 3.43576 3.84814 3.64778
# Velocity P-wave (km/s) = 7.06944 8.11413 7.60973
#
# Compressibility (1/GPa) = 0.01667390
#
# Stress axis : x y z
#
# Youngs Moduli (GPa) = 36.02726 32.07735 104.88523
#
# Poissons Ratio (x) = 0.47634 0.55161
# Poissons Ratio (y) = 0.53500 0.60695
# Poissons Ratio (z) = 0.18947 0.18563
#
# Static dielectric constant tensor:
#      x y z
#    x 1.565570 0.000000 0.007900 
#    y 0.000000 1.587990 0.000000 
#    z 0.007900 0.000000 1.629000 
# 
# From -- ./inp_files/319803.got.cif
#   From: 2010.05.17/outbox.cif.g08.bks.cpg/sg12_160_cif.got.tgz:319803.got - 2010.06.03 13:09:07.
