data_PCOD9183580
_publ_section_title
;
Structure prediction by ZEFSAII (Michael W. Deem and Ramdas Pophale) SiO2 
 PCOD9183580
Probable space group: C 2/M
;
_chemical_formula_sum "Si O2"
_cell_formula_units_Z 48
_cell_length_a 11.681466
_cell_length_b 13.190019
_cell_length_c 21.736784
_cell_angle_alpha 90.000000
_cell_angle_beta 137.438046
_cell_angle_gamma 90.000000
_cell_volume 2265.339681
_symmetry_space_group_name_H-M "C 2/M"
_symmetry_group_IT_number 12
_symmetry_cell_setting 'monoclinic'
loop_
_space_group_symop_operation_xyz
x,y,z
-x,y,-z
-x,-y,-z
x,-y,z
1/2+x,1/2+y,z
1/2-x,1/2+y,-z
1/2-x,1/2-y,-z
1/2+x,1/2-y,z
loop_
_atom_site_type_symbol
_atom_site_label
_atom_site_fract_x
_atom_site_fract_y
_atom_site_fract_z
Si Si1 0.031313 0.111789 0.312499
Si Si2 0.134844 0.118958 0.005208
Si Si3 0.076594 0.336835 0.696294
Si Si4 0.629037 0.184523 0.498866
Si Si5 0.485450 0.889513 0.793153
Si Si6 0.055800 0.826988 0.184034
O O1 0.230115 0.121629 0.408609
O O2 0.012931 0.122044 0.231710
O O3 0.945690 0.214000 0.305508
O O4 0.971769 0.000000 0.309179
O O5 0.097251 0.166726 0.924300
O O6 0.095204 0.000000 0.981090
O O7 0.321025 0.123389 0.106988
O O8 0.000000 0.163352 0.000000
O O9 0.983620 0.381804 0.718752
O O10 0.271593 0.369913 0.775937
O O11 0.993547 0.368297 0.599077
O O12 0.500000 0.230608 0.500000
O O13 0.750000 0.250000 0.500000
O O14 0.398502 0.789614 0.783679
O O15 0.424875 0.000000 0.789286
#
# Coordination Sequence:
#
# PCOD9183580 Si02
#       6
#     8   8   8   8   8   8
#     4  10  22  37  56  84 114 147 190 237 286 340
#     4  10  19  33  55  82 110 142 184 233 283 337
#     4  10  21  37  58  80 114 148 185 233 289 339
#     4  10  20  38  60  84 118 156 194 240 295 348
#     4  10  22  37  55  82 110 144 188 232 280 341
#     4  11  20  36  59  80 108 149 186 231 285 342
#
# _framework density 21.188876
#
# number of rings (size 3 to 8) (size 9 to 14) (size 15 to 20)
#    0.000    1.833    3.333    1.000    0.000    2.333 
#    0.000    0.000    0.000    2.500    0.000    0.000 
#    0.000    0.000    0.000    0.000    0.000    0.000 
#
# Total GULP energy -133739.798551 kJ/mol
# GULP energy per Si atom -5572.491606 kJ/mol
# Density = 2.114065 g / cm^3
# Si number density = 21.188876 Si / 1000 Ang^3
#
#
#
# Elastic Constant Matrix: (Units=GPa)
#
#
# Indices 1 2 3 4 5 6 
#
# 1 74.2572 8.4148 27.7775 0.0000 -2.5412 0.0000
# 2 8.4148 87.5148 -1.6340 0.0000 -2.1188 0.0000
# 3 27.7775 -1.6340 120.3820 0.0000 -27.8215 0.0000
# 4 0.0000 0.0000 0.0000 -0.6697 0.0000 5.0066
# 5 -2.5412 -2.1188 -27.8215 0.0000 31.5576 0.0000
# 6 0.0000 0.0000 0.0000 5.0066 0.0000 -5.1964
#
#
#
# Elastic Compliance Matrix: (Units=1/GPa)
#
#
# Indices 1 2 3 4 5 6 
#
# 1 0.015087 -0.001587 -0.004077 0.000000 -0.002486 0.000000
# 2 -0.001587 0.011629 0.000848 0.000000 0.001400 0.000000
# 3 -0.004077 0.000848 0.011550 0.000000 0.009911 0.000000
# 4 0.000000 0.000000 0.000000 0.240730 0.000000 0.231935
# 5 -0.002486 0.001400 0.009911 0.000000 0.040319 0.000000
# 6 0.000000 0.000000 0.000000 0.231935 0.000000 0.031023
#
#
# Mechanical properties :
#
#
# Convention : Reuss Voigt Hill
#
# Bulk Modulus (GPa) = 34.92583 39.03008 36.97795
# Shear Modulus (GPa) = 13.53128 21.64468 17.58798
#
# Velocity S-wave (km/s) = 2.52980 3.19958 2.88420
# Velocity P-wave (km/s) = 5.00520 5.66655 5.34611
#
# Compressibility (1/GPa) = 0.02863211
#
# Stress axis : x y z
#
# Youngs Moduli (GPa) = 66.28372 85.99223 86.58214
#
# Poissons Ratio (x) = 0.13647 0.35302
# Poissons Ratio (y) = 0.10519 -0.07339
# Poissons Ratio (z) = 0.27026 -0.07289
#
# Static dielectric constant tensor:
#      x y z
#    x 1.764890 0.000000 0.005990 
#    y 0.000000 1.811260 0.000000 
#    z 0.005990 0.000000 1.760870 
# 
# From -- ./inp_files/204294.got.cif
#   From: 2010.05.17/outbox.cif.g08.bks.cpg/sg12_103_cif.got.tgz:204294.got - 2010.06.03 13:09:07.
