data_PCOD9183537
_publ_section_title
;
Structure prediction by ZEFSAII (Michael W. Deem and Ramdas Pophale) SiO2 
 PCOD9183537
Probable space group: C 2/M
;
_chemical_formula_sum "Si O2"
_cell_formula_units_Z 58
_cell_length_a 17.391459
_cell_length_b 14.730249
_cell_length_c 12.608003
_cell_angle_alpha 90.000000
_cell_angle_beta 100.746312
_cell_angle_gamma 90.000000
_cell_volume 3173.279661
_symmetry_space_group_name_H-M "C 2/M"
_symmetry_group_IT_number 12
_symmetry_cell_setting 'monoclinic'
loop_
_space_group_symop_operation_xyz
x,y,z
-x,y,-z
-x,-y,-z
x,-y,z
1/2+x,1/2+y,z
1/2-x,1/2+y,-z
1/2-x,1/2-y,-z
1/2+x,1/2-y,z
loop_
_atom_site_type_symbol
_atom_site_label
_atom_site_fract_x
_atom_site_fract_y
_atom_site_fract_z
Si Si1 0.066671 0.336983 0.438105
Si Si2 0.828784 0.393266 0.102356
Si Si3 0.262551 0.897393 0.458511
Si Si4 0.619117 0.341146 0.566860
Si Si5 0.727388 0.760611 0.733625
Si Si6 0.330063 0.895026 0.856756
Si Si7 0.500000 0.500000 0.500000
Si Si8 0.007672 0.606246 0.200514
O O1 0.149697 0.387124 0.473245
O O2 0.084496 0.235089 0.480006
O O3 0.033941 0.340970 0.311794
O O4 0.000000 0.374684 0.500000
O O5 0.817779 0.500000 0.127392
O O6 0.783495 0.327143 0.169788
O O7 0.921115 0.371943 0.139186
O O8 0.807222 0.382643 0.973602
O O9 0.198098 0.878209 0.531325
O O10 0.252305 0.823202 0.362803
O O11 0.252231 0.000000 0.415427
O O12 0.646591 0.289089 0.679567
O O13 0.558217 0.420951 0.563045
O O14 0.787991 0.680927 0.775830
O O15 0.423529 0.884140 0.867585
O O16 0.311645 0.000000 0.820851
O O17 0.006506 0.500000 0.231226
#
# Coordination Sequence:
#
# PCOD9183537 Si02
#       8
#     8   8   8   8   8   8   2   8
#     4  11  21  34  54  84 117 149 183 226 273 334
#     4  10  21  37  57  82 112 140 181 232 283 332
#     4  11  22  37  56  82 118 152 184 226 277 334
#     4  11  23  39  56  80 112 149 191 231 269 326
#     4  11  22  37  57  84 110 147 184 226 278 333
#     4  10  21  37  58  80 107 144 187 234 279 323
#     4  12  24  40  60  76 112 150 194 232 266 316
#     4  10  19  33  55  81 108 142 179 221 274 330
#
# _framework density 18.277619999999999
#
# number of rings (size 3 to 8) (size 9 to 14) (size 15 to 20)
#    0.000    1.379    1.379    6.621    0.966    4.966 
#    0.000    0.000    0.000    0.000    0.000    0.000 
#    0.000    9.931    0.000    0.000    0.000    0.000 
#
# Total GULP energy -161669.266622 kJ/mol
# GULP energy per Si atom -5574.802297 kJ/mol
# Density = 1.823602 g / cm^3
# Si number density = 18.277620 Si / 1000 Ang^3
#
#
#
# Elastic Constant Matrix: (Units=GPa)
#
#
# Indices 1 2 3 4 5 6 
#
# 1 52.1808 11.9959 2.4565 0.0000 3.9975 0.0000
# 2 11.9959 90.6731 19.5069 0.0000 12.9797 0.0000
# 3 2.4565 19.5069 46.4952 0.0000 5.0912 0.0000
# 4 0.0000 0.0000 0.0000 22.8223 0.0000 8.2198
# 5 3.9975 12.9797 5.0912 0.0000 23.3867 0.0000
# 6 0.0000 0.0000 0.0000 8.2198 0.0000 20.1367
#
#
#
# Elastic Compliance Matrix: (Units=1/GPa)
#
#
# Indices 1 2 3 4 5 6 
#
# 1 0.019861 -0.002361 0.000174 0.000000 -0.002122 0.000000
# 2 -0.002361 0.013211 -0.004773 0.000000 -0.005889 0.000000
# 3 0.000174 -0.004773 0.023781 0.000000 -0.002558 0.000000
# 4 0.000000 0.000000 0.000000 0.051369 0.000000 -0.020969
# 5 -0.002122 -0.005889 -0.002558 0.000000 0.046947 0.000000
# 6 0.000000 0.000000 0.000000 -0.020969 0.000000 0.058220
#
#
# Mechanical properties :
#
#
# Convention : Reuss Voigt Hill
#
# Bulk Modulus (GPa) = 23.29248 28.58528 25.93888
# Shear Modulus (GPa) = 20.69351 23.62846 22.16099
#
# Velocity S-wave (km/s) = 3.36843 3.59939 3.48583
# Velocity P-wave (km/s) = 5.28203 5.74000 5.51577
#
# Compressibility (1/GPa) = 0.04293231
#
# Stress axis : x y z
#
# Youngs Moduli (GPa) = 50.34898 75.69512 42.05045
#
# Poissons Ratio (x) = 0.17873 -0.00730
# Poissons Ratio (y) = 0.11888 0.20070
# Poissons Ratio (z) = -0.00874 0.36129
#
# Static dielectric constant tensor:
#      x y z
#    x 1.650240 0.000000 -0.013290 
#    y 0.000000 1.623510 0.000000 
#    z -0.013290 0.000000 1.628100 
# 
# From -- ./inp_files/156069.got.cif
#   From: 2010.05.17/outbox.cif.g08.bks.cpg/sg12_79_cif.got.tgz:156069.got - 2010.06.03 13:09:07.
