data_PCOD9183306
_publ_section_title
;
Structure prediction by ZEFSAII (Michael W. Deem and Ramdas Pophale) SiO2 
 PCOD9183306
Probable space group: C 2/M
;
_chemical_formula_sum "Si O2"
_cell_formula_units_Z 44
_cell_length_a 14.673212
_cell_length_b 10.901314
_cell_length_c 27.235204
_cell_angle_alpha 90.000000
_cell_angle_beta 155.846803
_cell_angle_gamma 90.000000
_cell_volume 1782.570664
_symmetry_space_group_name_H-M "C 2/M"
_symmetry_group_IT_number 12
_symmetry_cell_setting 'monoclinic'
loop_
_space_group_symop_operation_xyz
x,y,z
-x,y,-z
-x,-y,-z
x,-y,z
1/2+x,1/2+y,z
1/2-x,1/2+y,-z
1/2-x,1/2-y,-z
1/2+x,1/2-y,z
loop_
_atom_site_type_symbol
_atom_site_label
_atom_site_fract_x
_atom_site_fract_y
_atom_site_fract_z
Si Si1 0.756169 0.000000 0.641375
Si Si2 0.526509 0.267172 0.232081
Si Si3 0.116321 0.500000 0.684885
Si Si4 0.033506 0.000000 0.433282
Si Si5 0.125835 0.500000 0.311809
Si Si6 0.030188 0.000000 0.956618
Si Si7 0.066796 0.735999 0.975755
Si Si8 0.850080 0.769352 0.299658
O O1 0.500000 0.000000 0.500000
O O2 0.877761 0.126041 0.685834
O O3 0.743256 0.000000 0.694600
O O4 0.709318 0.244181 0.280546
O O5 0.498027 0.131281 0.242558
O O6 0.308468 0.324651 0.098341
O O7 0.290486 0.500000 0.814716
O O8 0.026246 0.638848 0.644729
O O9 0.010434 0.117638 0.387438
O O10 0.819225 0.000000 0.365019
O O11 0.244181 0.000000 0.572834
O O12 0.135753 0.126856 0.992187
O O13 0.000000 0.000000 0.000000
O O14 0.845628 0.703121 0.836711
O O15 0.000000 0.738889 0.000000
#
# Coordination Sequence:
#
# PCOD9183306 Si02
#       8
#     4   8   4   4   4   4   8   8
#     4  10  22  33  51  78 110 143 178 224 271 320
#     4  10  20  34  54  83 110 142 180 224 272 323
#     4   8  16  29  49  76 102 137 171 209 262 319
#     4   9  18  31  51  80 105 140 178 225 275 315
#     4   9  19  32  55  81 108 138 185 228 269 312
#     4   8  15  29  51  79 104 136 175 216 259 322
#     4  10  19  33  54  82 112 145 178 221 275 329
#     4   9  18  32  52  80 110 139 176 222 270 323
#
# _framework density 24.683451999999999
#
# number of rings (size 3 to 8) (size 9 to 14) (size 15 to 20)
#    0.000    2.727    0.000    1.091    7.636    0.727 
#    0.000    7.273    0.000    1.091   18.909    0.000 
#    0.000    0.000    0.000    0.000    0.000    0.000 
#
# Total GULP energy -122638.474747 kJ/mol
# GULP energy per Si atom -5574.476125 kJ/mol
# Density = 2.462727 g / cm^3
# Si number density = 24.683452 Si / 1000 Ang^3
#
#
#
# Elastic Constant Matrix: (Units=GPa)
#
#
# Indices 1 2 3 4 5 6 
#
# 1 39.2621 19.9489 6.8702 -0.2473 -2.4029 -0.0232
# 2 19.9489 173.1649 102.4883 0.0855 -17.6765 0.0068
# 3 6.8702 102.4883 162.8633 -0.5729 -5.4372 -0.0569
# 4 -0.2473 0.0855 -0.5729 -603.7016 0.0115 -10.3002
# 5 -2.4029 -17.6765 -5.4372 0.0115 36.8258 -0.0008
# 6 -0.0232 0.0068 -0.0569 -10.3002 -0.0008 28.0791
#
#
#
# Elastic Compliance Matrix: (Units=1/GPa)
#
#
# Indices 1 2 3 4 5 6 
#
# 1 0.027229 -0.003902 0.001310 -0.000013 0.000097 0.000021
# 2 -0.003902 0.010256 -0.006164 0.000009 0.003758 -0.000015
# 3 0.001310 -0.006164 0.009917 -0.000011 -0.001409 0.000019
# 4 -0.000013 0.000009 -0.000011 -0.001646 0.000002 -0.000604
# 5 0.000097 0.003758 -0.001409 0.000002 0.028757 -0.000002
# 6 0.000021 -0.000015 0.000019 -0.000604 -0.000002 0.035392
#
#
# Mechanical properties :
#
#
# Convention : Reuss Voigt Hill
#
# Bulk Modulus (GPa) = 33.45613 70.43390 51.94501
# Shear Modulus (GPa) = 36.39510 -91.36048 -27.48269
#
# Velocity S-wave (km/s) = 3.84405 -6.09042 -3.34039
# Velocity P-wave (km/s) = 5.76939 4.56736 2.49249
#
# Compressibility (1/GPa) = 0.02988989
#
# Stress axis : x y z
#
# Youngs Moduli (GPa) = 36.72525 97.50146 100.83963
#
# Poissons Ratio (x) = 0.38050 -0.13213
# Poissons Ratio (y) = 0.14332 0.62158
# Poissons Ratio (z) = -0.04812 0.60100
#
# Static dielectric constant tensor:
#      x y z
#    x 1.966120 0.000000 -0.002180 
#    y 0.000000 2.055470 0.000000 
#    z -0.002180 0.000000 1.877160 
# 
# From -- ./inp_files/232302.got.cif
#   From: 2010.05.17/outbox.cif.g08.bks.cpg/sg12_117_cif.got.tgz:232302.got - 2010.06.03 13:09:07.
