data_PCOD9183573
_publ_section_title
;
Structure prediction by ZEFSAII (Michael W. Deem and Ramdas Pophale) SiO2 
 PCOD9183573
Probable space group: C 2/M
;
_chemical_formula_sum "Si O2"
_cell_formula_units_Z 64
_cell_length_a 24.826768
_cell_length_b 8.780731
_cell_length_c 17.094335
_cell_angle_alpha 90.000000
_cell_angle_beta 105.653323
_cell_angle_gamma 90.000000
_cell_volume 3588.307166
_symmetry_space_group_name_H-M "C 2/M"
_symmetry_group_IT_number 12
_symmetry_cell_setting 'monoclinic'
loop_
_space_group_symop_operation_xyz
x,y,z
-x,y,-z
-x,-y,-z
x,-y,z
1/2+x,1/2+y,z
1/2-x,1/2+y,-z
1/2-x,1/2-y,-z
1/2+x,1/2-y,z
loop_
_atom_site_type_symbol
_atom_site_label
_atom_site_fract_x
_atom_site_fract_y
_atom_site_fract_z
Si Si1 0.876493 0.683760 0.230769
Si Si2 0.818476 0.816482 0.357618
Si Si3 0.091344 0.317815 0.173973
Si Si4 0.479780 0.319846 0.180514
Si Si5 0.307185 0.683195 0.697623
Si Si6 0.080110 0.321857 0.988672
Si Si7 0.312135 0.682636 0.527051
Si Si8 0.305097 0.822785 0.056324
O O1 0.877779 0.500000 0.230121
O O2 0.857608 0.745759 0.306804
O O3 0.935906 0.745569 0.223674
O O4 0.830324 0.736916 0.148118
O O5 0.755072 0.753562 0.321895
O O6 0.838130 0.773064 0.453689
O O7 0.817567 0.000000 0.350918
O O8 0.093438 0.500000 0.181407
O O9 0.150551 0.247780 0.221897
O O10 0.077388 0.280696 0.078138
O O11 0.041560 0.250487 0.206968
O O12 0.481606 0.500000 0.191990
O O13 0.455484 0.277705 0.085117
O O14 0.302881 0.500000 0.701682
O O15 0.332891 0.724751 0.621755
O O16 0.063013 0.500000 0.972264
O O17 0.144030 0.310025 0.984925
O O18 0.308842 0.500000 0.524956
O O19 0.250000 0.750000 0.500000
O O20 0.293133 0.000000 0.064191
O O21 0.250000 0.750000 0.000000
#
# Coordination Sequence:
#
# PCOD9183573 Si02
#       8
#     8   8   8   8   8   8   8   8
#     4  10  21  37  54  76 104 139 177 218 263 313
#     4  10  19  33  55  82 109 141 178 214 258 318
#     4  11  22  36  55  78 106 142 178 221 267 314
#     4  11  22  37  56  78 102 136 180 225 267 312
#     4  10  20  34  52  80 113 142 174 216 264 312
#     4   9  20  37  53  72 101 139 179 218 263 312
#     4   8  16  31  51  75 107 141 172 210 258 310
#     4   9  19  33  48  69 100 137 171 209 257 306
#
# _framework density 17.835708
#
# number of rings (size 3 to 8) (size 9 to 14) (size 15 to 20)
#    0.000    2.250    0.000    3.750    1.750    6.000 
#    0.000    0.000    0.000    0.750    0.000    5.250 
#    0.000    0.000    0.000    0.000    0.000    0.000 
#
# Total GULP energy -178451.747538 kJ/mol
# GULP energy per Si atom -5576.617111 kJ/mol
# Density = 1.779511 g / cm^3
# Si number density = 17.835708 Si / 1000 Ang^3
#
#
#
# Elastic Constant Matrix: (Units=GPa)
#
#
# Indices 1 2 3 4 5 6 
#
# 1 21.9873 18.6428 19.0173 0.0000 -6.8060 0.0000
# 2 18.6428 52.7425 27.2974 0.0000 -8.8012 0.0000
# 3 19.0173 27.2974 75.8076 0.0000 -34.2285 0.0000
# 4 0.0000 0.0000 0.0000 23.5729 0.0000 -4.2431
# 5 -6.8060 -8.8012 -34.2285 0.0000 22.4698 0.0000
# 6 0.0000 0.0000 0.0000 -4.2431 0.0000 23.7833
#
#
#
# Elastic Compliance Matrix: (Units=1/GPa)
#
#
# Indices 1 2 3 4 5 6 
#
# 1 0.072063 -0.019092 -0.015131 0.000000 -0.008700 0.000000
# 2 -0.019092 0.029364 -0.010256 0.000000 -0.009905 0.000000
# 3 -0.015131 -0.010256 0.053803 0.000000 0.073358 0.000000
# 4 0.000000 0.000000 0.000000 0.043829 0.000000 0.007819
# 5 -0.008700 -0.009905 0.073358 0.000000 0.149736 0.000000
# 6 0.000000 0.000000 0.000000 0.007819 0.000000 0.043441
#
#
# Mechanical properties :
#
#
# Convention : Reuss Voigt Hill
#
# Bulk Modulus (GPa) = 15.08989 31.16137 23.12563
# Shear Modulus (GPa) = 9.93471 19.67053 14.80262
#
# Velocity S-wave (km/s) = 2.36267 3.32456 2.88400
# Velocity P-wave (km/s) = 3.99021 5.67857 4.90754
#
# Compressibility (1/GPa) = 0.06626955
#
# Stress axis : x y z
#
# Youngs Moduli (GPa) = 13.87670 34.05533 18.58647
#
# Poissons Ratio (x) = 0.65020 0.28124
# Poissons Ratio (y) = 0.26494 0.19063
# Poissons Ratio (z) = 0.20997 0.34928
#
# Static dielectric constant tensor:
#      x y z
#    x 1.585330 0.000000 -0.015240 
#    y 0.000000 1.598910 0.000000 
#    z -0.015240 0.000000 1.641950 
# 
# From -- ./inp_files/291580.got.cif
#   From: 2010.05.17/outbox.cif.g08.bks.cpg/sg12_146_cif.got.tgz:291580.got - 2010.06.03 13:09:07.
