data_PCOD9183966
_publ_section_title
;
Structure prediction by ZEFSAII (Michael W. Deem and Ramdas Pophale) SiO2 
 PCOD9183966
Probable space group: C 2/M
;
_chemical_formula_sum "Si O2"
_cell_formula_units_Z 64
_cell_length_a 19.291457
_cell_length_b 8.846305
_cell_length_c 20.888597
_cell_angle_alpha 90.000000
_cell_angle_beta 98.521446
_cell_angle_gamma 90.000000
_cell_volume 3525.454721
_symmetry_space_group_name_H-M "C 2/M"
_symmetry_group_IT_number 12
_symmetry_cell_setting 'monoclinic'
loop_
_space_group_symop_operation_xyz
x,y,z
-x,y,-z
-x,-y,-z
x,-y,z
1/2+x,1/2+y,z
1/2-x,1/2+y,-z
1/2-x,1/2-y,-z
1/2+x,1/2-y,z
loop_
_atom_site_type_symbol
_atom_site_label
_atom_site_fract_x
_atom_site_fract_y
_atom_site_fract_z
Si Si1 0.022460 0.182452 0.074377
Si Si2 0.080260 0.817605 0.519942
Si Si3 0.338063 0.321351 0.837871
Si Si4 0.162352 0.680626 0.412843
Si Si5 0.443303 0.821312 0.183880
Si Si6 0.914161 0.677656 0.729458
Si Si7 0.693568 0.684001 0.633831
Si Si8 0.302718 0.319582 0.217947
O O1 0.102755 0.223843 0.102490
O O2 0.974148 0.256820 0.121934
O O3 0.017020 0.000000 0.079415
O O4 0.000000 0.225842 0.000000
O O5 0.129623 0.762711 0.469038
O O6 0.120789 0.769910 0.590313
O O7 0.000000 0.763383 0.500000
O O8 0.078310 0.000000 0.519343
O O9 0.327256 0.500000 0.840620
O O10 0.371803 0.277537 0.774127
O O11 0.264395 0.238172 0.829954
O O12 0.165206 0.500000 0.425289
O O13 0.111164 0.707043 0.345415
O O14 0.239645 0.731156 0.400104
O O15 0.504282 0.796967 0.245149
O O16 0.373256 0.740099 0.195957
O O17 0.431821 0.000000 0.176332
O O18 0.898613 0.500000 0.741232
O O19 0.695617 0.500000 0.635130
O O20 0.701139 0.734512 0.708312
O O21 0.302516 0.500000 0.219081
#
# Coordination Sequence:
#
# PCOD9183966 Si02
#       8
#     8   8   8   8   8   8   8   8
#     4   9  19  38  62  86 114 150 186 218 263 326
#     4  10  22  37  52  75 106 137 177 230 279 325
#     4  10  19  33  56  86 114 139 179 227 264 315
#     4  10  19  35  56  75 101 138 181 220 269 335
#     4  10  21  35  54  84 117 144 182 231 273 317
#     4   9  18  34  54  77 108 144 178 221 274 329
#     4   9  19  36  55  74 102 142 182 222 273 332
#     4  11  21  36  57  79 112 151 184 225 281 333
#
# _framework density 18.153687000000001
#
# number of rings (size 3 to 8) (size 9 to 14) (size 15 to 20)
#    0.000    2.250    1.250    1.500    1.750    2.000 
#    0.000    1.875    0.000    0.000    0.000    0.000 
#    0.000    0.000    0.000    0.000    0.000    0.000 
#
# Total GULP energy -178554.927678 kJ/mol
# GULP energy per Si atom -5579.841490 kJ/mol
# Density = 1.811237 g / cm^3
# Si number density = 18.153687 Si / 1000 Ang^3
#
#
#
# Elastic Constant Matrix: (Units=GPa)
#
#
# Indices 1 2 3 4 5 6 
#
# 1 149.8967 41.6474 59.6874 0.0000 10.7799 0.0000
# 2 41.6474 23.8453 21.5222 0.0000 8.3744 0.0000
# 3 59.6874 21.5222 83.7130 0.0000 22.2474 0.0000
# 4 0.0000 0.0000 0.0000 23.1611 0.0000 -4.7462
# 5 10.7799 8.3744 22.2474 0.0000 21.1411 0.0000
# 6 0.0000 0.0000 0.0000 -4.7462 0.0000 24.2049
#
#
#
# Elastic Compliance Matrix: (Units=1/GPa)
#
#
# Indices 1 2 3 4 5 6 
#
# 1 0.015569 -0.023715 -0.007483 0.000000 0.009330 0.000000
# 2 -0.023715 0.092147 -0.000410 0.000000 -0.023978 0.000000
# 3 -0.007483 -0.000410 0.022669 0.000000 -0.019877 0.000000
# 4 0.000000 0.000000 0.000000 0.044983 0.000000 0.008820
# 5 0.009330 -0.023978 -0.019877 0.000000 0.072960 0.000000
# 6 0.000000 0.000000 0.000000 0.008820 0.000000 0.043043
#
#
# Mechanical properties :
#
#
# Convention : Reuss Voigt Hill
#
# Bulk Modulus (GPa) = 14.88763 55.90765 35.39764
# Shear Modulus (GPa) = 13.26344 22.67463 17.96903
#
# Velocity S-wave (km/s) = 2.70593 3.53801 3.14957
# Velocity P-wave (km/s) = 4.24045 6.89592 5.72430
#
# Compressibility (1/GPa) = 0.06716984
#
# Stress axis : x y z
#
# Youngs Moduli (GPa) = 64.23035 10.85224 44.11309
#
# Poissons Ratio (x) = 0.25736 0.33011
# Poissons Ratio (y) = 1.52320 0.01806
# Poissons Ratio (z) = 0.48066 0.00444
#
# Static dielectric constant tensor:
#      x y z
#    x 1.626160 0.000000 0.031180 
#    y 0.000000 1.610770 0.000000 
#    z 0.031180 0.000000 1.604160 
# 
# From -- ./inp_files/314124.got.cif
#   From: 2010.05.17/outbox.cif.g08.bks.cpg/sg12_158_cif.got.tgz:314124.got - 2010.06.03 13:09:07.
