data_PCOD9183864
_publ_section_title
;
Structure prediction by ZEFSAII (Michael W. Deem and Ramdas Pophale) SiO2 
 PCOD9183864
Probable space group: C 2/M
;
_chemical_formula_sum "Si O2"
_cell_formula_units_Z 48
_cell_length_a 30.586084
_cell_length_b 13.958108
_cell_length_c 8.987482
_cell_angle_alpha 90.000000
_cell_angle_beta 137.709744
_cell_angle_gamma 90.000000
_cell_volume 2581.846516
_symmetry_space_group_name_H-M "C 2/M"
_symmetry_group_IT_number 12
_symmetry_cell_setting 'monoclinic'
loop_
_space_group_symop_operation_xyz
x,y,z
-x,y,-z
-x,-y,-z
x,-y,z
1/2+x,1/2+y,z
1/2-x,1/2+y,-z
1/2-x,1/2-y,-z
1/2+x,1/2-y,z
loop_
_atom_site_type_symbol
_atom_site_label
_atom_site_fract_x
_atom_site_fract_y
_atom_site_fract_z
Si Si1 0.519552 0.205730 0.265437
Si Si2 0.105728 0.323405 0.200623
Si Si3 0.877235 0.388028 0.265261
Si Si4 0.163703 0.227626 0.070316
Si Si5 0.712985 0.895297 0.671867
Si Si6 0.958539 0.893727 0.245815
O O1 0.569362 0.218232 0.254366
O O2 0.557612 0.156791 0.497123
O O3 0.491313 0.309583 0.233139
O O4 0.456590 0.144162 0.054560
O O5 0.146666 0.253320 0.197761
O O6 0.157879 0.393262 0.405325
O O7 0.886072 0.500000 0.248188
O O8 0.823969 0.383680 0.264068
O O9 0.853329 0.320889 0.071166
O O10 0.235525 0.188313 0.225778
O O11 0.113268 0.144300 0.898576
O O12 0.744986 0.000000 0.750807
O O13 0.000000 0.898072 0.500000
O O14 0.957270 0.000000 0.174857
#
# Coordination Sequence:
#
# PCOD9183864 Si02
#       6
#     8   8   8   8   8   8
#     4   9  18  38  55  82 112 143 174 224 272 323
#     4   9  20  34  57  77 111 146 179 215 272 321
#     4  10  21  36  57  81 109 141 183 228 275 320
#     4  11  20  36  56  82 110 144 180 228 270 319
#     4  10  21  37  55  79 109 148 184 222 269 326
#     4  10  19  33  56  83 108 140 179 221 267 319
#
# _framework density 18.591345
#
# number of rings (size 3 to 8) (size 9 to 14) (size 15 to 20)
#    0.000    2.167    1.667    1.500    0.000    1.333 
#    0.000   16.667    0.000    1.000    0.000    0.000 
#    0.000    0.000    0.000    0.000    0.000    0.000 
#
# Total GULP energy -133694.458090 kJ/mol
# GULP energy per Si atom -5570.602420 kJ/mol
# Density = 1.854903 g / cm^3
# Si number density = 18.591345 Si / 1000 Ang^3
#
#
#
# Elastic Constant Matrix: (Units=GPa)
#
#
# Indices 1 2 3 4 5 6 
#
# 1 58.9287 40.1539 32.5088 0.0000 10.1616 0.0000
# 2 40.1539 123.9513 56.9395 0.0000 9.7927 0.0000
# 3 32.5088 56.9395 80.4924 0.0000 5.2053 0.0000
# 4 0.0000 0.0000 0.0000 -2.7325 0.0000 0.9155
# 5 10.1616 9.7927 5.2053 0.0000 19.5246 0.0000
# 6 0.0000 0.0000 0.0000 0.9155 0.0000 12.8672
#
#
#
# Elastic Compliance Matrix: (Units=1/GPa)
#
#
# Indices 1 2 3 4 5 6 
#
# 1 0.025120 -0.004485 -0.006383 0.000000 -0.009123 0.000000
# 2 -0.004485 0.013037 -0.007264 0.000000 -0.002268 0.000000
# 3 -0.006383 -0.007264 0.020035 0.000000 0.001624 0.000000
# 4 0.000000 0.000000 0.000000 -0.357447 0.000000 0.025431
# 5 -0.009123 -0.002268 0.001624 0.000000 0.056670 0.000000
# 6 0.000000 0.000000 0.000000 0.025431 0.000000 0.075907
#
#
# Mechanical properties :
#
#
# Convention : Reuss Voigt Hill
#
# Bulk Modulus (GPa) = 45.60362 58.06409 51.83386
# Shear Modulus (GPa) = -40.61538 14.84987 -12.88275
#
# Velocity S-wave (km/s) = -4.67908 2.82929 -2.63524
# Velocity P-wave (km/s) = 2.14686 6.47864 4.32225
#
# Compressibility (1/GPa) = 0.02192808
#
# Stress axis : x y z
#
# Youngs Moduli (GPa) = 39.80919 76.70733 49.91300
#
# Poissons Ratio (x) = 0.34401 0.31859
# Poissons Ratio (y) = 0.17853 0.36257
# Poissons Ratio (z) = 0.25410 0.55720
#
# Static dielectric constant tensor:
#      x y z
#    x 1.639620 0.000000 0.003650 
#    y 0.000000 1.631120 0.000000 
#    z 0.003650 0.000000 1.671440 
# 
# From -- ./inp_files/111749.got.cif
#   From: 2010.05.17/outbox.cif.g08.bks.cpg/sg12_56_cif.got.tgz:111749.got - 2010.06.03 13:09:07.
