data_PCOD9183412
_publ_section_title
;
Structure prediction by ZEFSAII (Michael W. Deem and Ramdas Pophale) SiO2 
 PCOD9183412
Probable space group: C 2/M
;
_chemical_formula_sum "Si O2"
_cell_formula_units_Z 64
_cell_length_a 23.199594
_cell_length_b 11.200830
_cell_length_c 21.538191
_cell_angle_alpha 90.000000
_cell_angle_beta 141.381850
_cell_angle_gamma 90.000000
_cell_volume 3493.114954
_symmetry_space_group_name_H-M "C 2/M"
_symmetry_group_IT_number 12
_symmetry_cell_setting 'monoclinic'
loop_
_space_group_symop_operation_xyz
x,y,z
-x,y,-z
-x,-y,-z
x,-y,z
1/2+x,1/2+y,z
1/2-x,1/2+y,-z
1/2-x,1/2-y,-z
1/2+x,1/2-y,z
loop_
_atom_site_type_symbol
_atom_site_label
_atom_site_fract_x
_atom_site_fract_y
_atom_site_fract_z
Si Si1 0.272286 0.782871 0.122684
Si Si2 0.291252 0.140141 0.677820
Si Si3 0.249076 0.863565 0.781008
Si Si4 0.948154 0.744006 0.722836
Si Si5 0.808482 0.864789 0.525335
Si Si6 0.526502 0.367041 0.594439
Si Si7 0.972766 0.368924 0.327116
Si Si8 0.866266 0.134793 0.095879
O O1 0.222974 0.724056 0.140247
O O2 0.363164 0.855123 0.220526
O O3 0.312659 0.678638 0.112184
O O4 0.201962 0.852750 0.019688
O O5 0.274731 0.181236 0.733896
O O6 0.373931 0.203865 0.711007
O O7 0.201035 0.148549 0.557222
O O8 0.313175 0.000000 0.700058
O O9 0.137865 0.868786 0.691175
O O10 0.282994 0.000000 0.817769
O O11 0.903363 0.847876 0.642254
O O12 0.973643 0.644239 0.693139
O O13 0.043310 0.784243 0.833604
O O14 0.750000 0.750000 0.500000
O O15 0.772916 0.000000 0.508623
O O16 0.500000 0.358039 0.500000
O O17 0.494600 0.500000 0.590249
O O18 0.500168 0.246601 0.609092
O O19 0.990982 0.500000 0.369724
O O20 0.895982 0.000000 0.128958
#
# Coordination Sequence:
#
# PCOD9183412 Si02
#       8
#     8   8   8   8   8   8   8   8
#     4   9  19  34  53  78 104 134 174 218 271 324
#     4   9  18  33  53  75 104 141 176 211 261 318
#     4   9  17  32  54  76 103 137 174 218 265 318
#     4  10  20  32  51  79 109 137 179 222 263 314
#     4   9  18  32  52  75 103 139 178 219 262 311
#     4   9  19  33  52  78 105 135 178 223 268 321
#     4  10  20  33  52  76 108 142 174 219 271 317
#     4  10  19  33  55  78 103 135 174 223 271 321
#
# _framework density 18.321755
#
# number of rings (size 3 to 8) (size 9 to 14) (size 15 to 20)
#    0.000    2.625    0.000    1.500    1.750    4.250 
#    0.000    2.500    0.000   15.750    0.000    0.000 
#    0.000    0.000    0.000    0.000    0.000    0.000 
#
# Total GULP energy -178228.385674 kJ/mol
# GULP energy per Si atom -5569.637052 kJ/mol
# Density = 1.828005 g / cm^3
# Si number density = 18.321755 Si / 1000 Ang^3
#
#
#
# Elastic Constant Matrix: (Units=GPa)
#
#
# Indices 1 2 3 4 5 6 
#
# 1 89.1223 39.3538 18.2277 0.0000 -17.6200 0.0000
# 2 39.3538 112.5853 25.3967 0.0000 -14.2649 0.0000
# 3 18.2277 25.3967 58.5259 0.0000 -5.3036 0.0000
# 4 0.0000 0.0000 0.0000 9.5670 0.0000 -0.7396
# 5 -17.6200 -14.2649 -5.3036 0.0000 25.6461 0.0000
# 6 0.0000 0.0000 0.0000 -0.7396 0.0000 12.9953
#
#
#
# Elastic Compliance Matrix: (Units=1/GPa)
#
#
# Indices 1 2 3 4 5 6 
#
# 1 0.014841 -0.003692 -0.002326 0.000000 0.007662 0.000000
# 2 -0.003692 0.011349 -0.003498 0.000000 0.003052 0.000000
# 3 -0.002326 -0.003498 0.019371 0.000000 0.000462 0.000000
# 4 0.000000 0.000000 0.000000 0.104988 0.000000 0.005975
# 5 0.007662 0.003052 0.000462 0.000000 0.046050 0.000000
# 6 0.000000 0.000000 0.000000 0.005975 0.000000 0.077291
#
#
# Mechanical properties :
#
#
# Convention : Reuss Voigt Hill
#
# Bulk Modulus (GPa) = 37.69545 47.35444 42.52494
# Shear Modulus (GPa) = 16.56920 21.45869 19.01395
#
# Velocity S-wave (km/s) = 3.01050 3.42601 3.22495
# Velocity P-wave (km/s) = 5.71865 6.44610 6.09324
#
# Compressibility (1/GPa) = 0.02652840
#
# Stress axis : x y z
#
# Youngs Moduli (GPa) = 67.37876 88.11664 51.62456
#
# Poissons Ratio (x) = 0.32536 0.12007
# Poissons Ratio (y) = 0.24879 0.18059
# Poissons Ratio (z) = 0.15671 0.30824
#
# Static dielectric constant tensor:
#      x y z
#    x 1.647110 0.000000 0.010090 
#    y 0.000000 1.638320 0.000000 
#    z 0.010090 0.000000 1.651820 
# 
# From -- ./inp_files/324968.got.cif
#   From: 2010.05.17/outbox.cif.g08.bks.cpg/sg12_163_cif.got.tgz:324968.got - 2010.06.03 13:09:07.
