data_PCOD9183025
_publ_section_title
;
Structure prediction by ZEFSAII (Michael W. Deem and Ramdas Pophale) SiO2 
 PCOD9183025
Probable space group: C 2/M
;
_chemical_formula_sum "Si O2"
_cell_formula_units_Z 64
_cell_length_a 8.588717
_cell_length_b 19.379558
_cell_length_c 23.054036
_cell_angle_alpha 90.000000
_cell_angle_beta 111.872665
_cell_angle_gamma 90.000000
_cell_volume 3561.014157
_symmetry_space_group_name_H-M "C 2/M"
_symmetry_group_IT_number 12
_symmetry_cell_setting 'monoclinic'
loop_
_space_group_symop_operation_xyz
x,y,z
-x,y,-z
-x,-y,-z
x,-y,z
1/2+x,1/2+y,z
1/2-x,1/2+y,-z
1/2-x,1/2-y,-z
1/2+x,1/2-y,z
loop_
_atom_site_type_symbol
_atom_site_label
_atom_site_fract_x
_atom_site_fract_y
_atom_site_fract_z
Si Si1 0.318954 0.920206 0.631336
Si Si2 0.439268 0.327155 0.251987
Si Si3 0.935296 0.672844 0.748013
Si Si4 0.443717 0.579794 0.631337
Si Si5 0.929516 0.172629 0.116743
Si Si6 0.689816 0.579160 1.000000
Si Si7 0.196028 0.327373 0.883257
Si Si8 0.185008 0.418191 0.500001
O O1 0.428167 0.876061 0.691126
O O2 0.313277 0.891031 0.565282
O O3 0.129328 0.920248 0.629329
O O4 0.377536 0.000000 0.637543
O O5 0.249434 0.325632 0.249435
O O6 0.512375 0.249999 0.262377
O O7 0.545913 0.376061 0.308873
O O8 0.435628 0.350044 0.184551
O O9 0.066527 0.649954 0.815449
O O10 0.397551 0.500000 0.637545
O O11 0.317285 0.608969 0.565283
O O12 0.118325 0.175419 0.118324
O O13 0.824209 0.121362 0.061630
O O14 0.855211 0.250001 0.105208
O O15 0.743298 0.500000 0.999999
O O16 0.500000 0.578166 0.000000
O O17 0.799052 0.621360 0.061630
O O18 0.226550 0.500000 0.500001
O O19 0.000000 0.411655 0.500000
#
# Coordination Sequence:
#
# PCOD9183025 Si02
#       8
#     8   8   8   8   8   8   8   8
#     4   9  18  33  52  72  97 131 166 201 245 295
#     4  10  20  34  52  74 101 131 165 204 245 292
#     4  10  20  34  52  74 101 131 165 204 245 292
#     4   9  18  33  52  72  97 131 166 201 245 295
#     4  10  19  33  54  74  97 131 167 203 242 291
#     4   9  19  34  51  75 104 131 162 202 248 293
#     4  10  19  33  54  74  97 131 167 203 242 291
#     4   9  17  29  48  75 102 127 161 205 246 289
#
# _framework density 17.972408999999999
#
# number of rings (size 3 to 8) (size 9 to 14) (size 15 to 20)
#    0.000    2.500    0.000    3.750    0.000    4.500 
#    0.000    2.500    0.000    5.250    0.000    0.000 
#    0.000    0.000    0.000    0.000    0.000    0.000 
#
# Total GULP energy -178486.978474 kJ/mol
# GULP energy per Si atom -5577.718077 kJ/mol
# Density = 1.793150 g / cm^3
# Si number density = 17.972409 Si / 1000 Ang^3
#
#
#
# Elastic Constant Matrix: (Units=GPa)
#
#
# Indices 1 2 3 4 5 6 
#
# 1 29.8969 20.0669 38.3872 0.0000 -1.1946 0.0000
# 2 20.0669 75.3564 107.1553 0.0000 -3.2169 0.0000
# 3 38.3872 107.1553 219.6648 0.0000 -5.8149 0.0000
# 4 0.0000 0.0000 0.0000 37.5281 0.0000 -0.7252
# 5 -1.1946 -3.2169 -5.8149 0.0000 12.1107 0.0000
# 6 0.0000 0.0000 0.0000 -0.7252 0.0000 17.9244
#
#
#
# Elastic Compliance Matrix: (Units=1/GPa)
#
#
# Indices 1 2 3 4 5 6 
#
# 1 0.043274 -0.002505 -0.006325 0.000000 0.000566 0.000000
# 2 -0.002505 0.043486 -0.020740 0.000000 0.001346 0.000000
# 3 -0.006325 -0.020740 0.015814 0.000000 0.001460 0.000000
# 4 0.000000 0.000000 0.000000 0.026668 0.000000 0.001079
# 5 0.000566 0.001346 0.001460 0.000000 0.083686 0.000000
# 6 0.000000 0.000000 0.000000 0.001079 0.000000 0.055833
#
#
# Mechanical properties :
#
#
# Convention : Reuss Voigt Hill
#
# Bulk Modulus (GPa) = 23.02357 72.90412 47.96384
# Shear Modulus (GPa) = 14.60369 24.13322 19.36846
#
# Velocity S-wave (km/s) = 2.85364 3.66839 3.28636
# Velocity P-wave (km/s) = 4.86785 7.65476 6.41449
#
# Compressibility (1/GPa) = 0.04343375
#
# Stress axis : x y z
#
# Youngs Moduli (GPa) = 23.10866 22.99566 63.23661
#
# Poissons Ratio (x) = 0.05760 0.40000
# Poissons Ratio (y) = 0.05788 1.31152
# Poissons Ratio (z) = 0.14617 0.47693
#
# Static dielectric constant tensor:
#      x y z
#    x 1.606820 0.000000 -0.000430 
#    y 0.000000 1.601110 0.000000 
#    z -0.000430 0.000000 1.618480 
# 
# From -- ./inp_files/301741.got.cif
#   From: 2010.05.17/outbox.cif.g08.bks.cpg/sg12_151_cif.got.tgz:301741.got - 2010.06.03 13:09:07.
