data_PCOD9183728
_publ_section_title
;
Structure prediction by ZEFSAII (Michael W. Deem and Ramdas Pophale) SiO2 
 PCOD9183728
Probable space group: C 2/M
;
_chemical_formula_sum "Si O2"
_cell_formula_units_Z 64
_cell_length_a 28.751069
_cell_length_b 15.557220
_cell_length_c 9.537448
_cell_angle_alpha 90.000000
_cell_angle_beta 130.115508
_cell_angle_gamma 90.000000
_cell_volume 3262.390718
_symmetry_space_group_name_H-M "C 2/M"
_symmetry_group_IT_number 12
_symmetry_cell_setting 'monoclinic'
loop_
_space_group_symop_operation_xyz
x,y,z
-x,y,-z
-x,-y,-z
x,-y,z
1/2+x,1/2+y,z
1/2-x,1/2+y,-z
1/2-x,1/2-y,-z
1/2+x,1/2-y,z
loop_
_atom_site_type_symbol
_atom_site_label
_atom_site_fract_x
_atom_site_fract_y
_atom_site_fract_z
Si Si1 0.361827 0.721402 0.910671
Si Si2 0.566393 0.269417 0.697005
Si Si3 0.310514 0.900900 0.710077
Si Si4 0.771692 0.098158 0.908419
Si Si5 0.071469 0.405700 0.600644
Si Si6 0.172634 0.834198 0.456458
Si Si7 0.348245 0.141869 0.477517
Si Si8 0.145946 0.094293 0.689058
O O1 0.344317 0.821979 0.854908
O O2 0.310970 0.669275 0.901284
O O3 0.361165 0.677805 0.756498
O O4 0.423490 0.710808 0.120066
O O5 0.500000 0.268659 0.500000
O O6 0.595209 0.175025 0.733176
O O7 0.603732 0.335675 0.676961
O O8 0.241506 0.864862 0.561181
O O9 0.338644 0.902544 0.608261
O O10 0.311259 0.000000 0.766241
O O11 0.702365 0.111035 0.731332
O O12 0.788682 0.000000 0.898918
O O13 0.788807 0.105904 0.106096
O O14 0.096974 0.500000 0.679645
O O15 0.087792 0.379849 0.472138
O O16 0.000000 0.410002 0.500000
O O17 0.166246 0.741394 0.519112
O O18 0.148274 0.897330 0.527746
O O19 0.123648 0.000000 0.685241
#
# Coordination Sequence:
#
# PCOD9183728 Si02
#       8
#     8   8   8   8   8   8   8   8
#     4  10  21  37  58  88 120 158 209 241 300 373
#     4  10  22  42  64  84 114 157 205 267 313 350
#     4  11  21  34  57  90 134 167 195 241 300 370
#     4  10  19  33  55  86 121 160 199 241 300 365
#     4  10  21  37  60  86 114 154 209 258 299 349
#     4  11  20  36  57  88 126 165 197 238 299 367
#     4  11  19  35  58  86 121 164 205 246 301 365
#     4  10  22  37  58  88 121 154 197 253 308 365
#
# _framework density 19.617515000000001
#
# number of rings (size 3 to 8) (size 9 to 14) (size 15 to 20)
#    0.000    1.625    3.750    2.250    0.000    2.750 
#    0.000    0.625    0.000    0.750    0.000    7.000 
#    0.000    0.000    0.000    0.000    0.000    0.000 
#
# Total GULP energy -178253.142752 kJ/mol
# GULP energy per Si atom -5570.410711 kJ/mol
# Density = 1.957286 g / cm^3
# Si number density = 19.617515 Si / 1000 Ang^3
#
#
#
# Elastic Constant Matrix: (Units=GPa)
#
#
# Indices 1 2 3 4 5 6 
#
# 1 78.6197 37.1446 39.1517 0.0000 -12.4085 0.0000
# 2 37.1446 103.4897 30.4484 0.0000 -8.6441 0.0000
# 3 39.1517 30.4484 138.1451 0.0000 -8.7212 0.0000
# 4 0.0000 0.0000 0.0000 23.3735 0.0000 -16.5579
# 5 -12.4085 -8.6441 -8.7212 0.0000 21.6123 0.0000
# 6 0.0000 0.0000 0.0000 -16.5579 0.0000 44.2824
#
#
#
# Elastic Compliance Matrix: (Units=1/GPa)
#
#
# Indices 1 2 3 4 5 6 
#
# 1 0.017842 -0.004778 -0.003568 0.000000 0.006893 0.000000
# 2 -0.004778 0.011847 -0.001161 0.000000 0.001527 0.000000
# 3 -0.003568 -0.001161 0.008565 0.000000 0.000944 0.000000
# 4 0.000000 0.000000 0.000000 0.058200 0.000000 0.021762
# 5 0.006893 0.001527 0.000944 0.000000 0.051219 0.000000
# 6 0.000000 0.000000 0.000000 0.021762 0.000000 0.030719
#
#
# Mechanical properties :
#
#
# Convention : Reuss Voigt Hill
#
# Bulk Modulus (GPa) = 51.97533 59.30489 55.64011
# Shear Modulus (GPa) = 24.53159 32.08763 28.30961
#
# Velocity S-wave (km/s) = 3.54007 4.04872 3.80291
# Velocity P-wave (km/s) = 6.57733 7.22166 6.90701
#
# Compressibility (1/GPa) = 0.01923990
#
# Stress axis : x y z
#
# Youngs Moduli (GPa) = 56.04820 84.41122 116.74877
#
# Poissons Ratio (x) = 0.40334 0.41659
# Poissons Ratio (y) = 0.26781 0.13549
# Poissons Ratio (z) = 0.19999 0.09796
#
# Static dielectric constant tensor:
#      x y z
#    x 1.713040 0.000000 0.002140 
#    y 0.000000 1.734350 0.000000 
#    z 0.002140 0.000000 1.710310 
# 
# From -- ./inp_files/111646.got.cif
#   From: 2010.05.17/outbox.cif.g08.bks.cpg/sg12_56_cif.got.tgz:111646.got - 2010.06.03 13:09:07.
