data_PCOD9183640
_publ_section_title
;
Structure prediction by ZEFSAII (Michael W. Deem and Ramdas Pophale) SiO2 
 PCOD9183640
Probable space group: C 2/M
;
_chemical_formula_sum "Si O2"
_cell_formula_units_Z 64
_cell_length_a 24.924874
_cell_length_b 8.897969
_cell_length_c 20.920079
_cell_angle_alpha 90.000000
_cell_angle_beta 52.297787
_cell_angle_gamma 90.000000
_cell_volume 3670.907243
_symmetry_space_group_name_H-M "C 2/M"
_symmetry_group_IT_number 12
_symmetry_cell_setting 'monoclinic'
loop_
_space_group_symop_operation_xyz
x,y,z
-x,y,-z
-x,-y,-z
x,-y,z
1/2+x,1/2+y,z
1/2-x,1/2+y,-z
1/2-x,1/2-y,-z
1/2+x,1/2-y,z
loop_
_atom_site_type_symbol
_atom_site_label
_atom_site_fract_x
_atom_site_fract_y
_atom_site_fract_z
Si Si1 0.174137 0.820825 0.982486
Si Si2 0.819092 0.178947 0.370713
Si Si3 0.815788 0.179841 0.875207
Si Si4 0.463698 0.819186 0.961230
Si Si5 0.826074 0.179044 0.517732
Si Si6 0.954638 0.680376 0.226571
Si Si7 0.961190 0.819430 0.717439
Si Si8 0.464971 0.179619 0.457750
O O1 0.169606 0.778524 0.061276
O O2 0.110185 0.751230 0.993539
O O3 0.172376 0.000000 0.979623
O O4 0.246408 0.759641 0.906180
O O5 0.833779 0.206729 0.435630
O O6 0.745429 0.248208 0.410714
O O7 0.878813 0.256105 0.287567
O O8 0.818614 0.000000 0.361352
O O9 0.882041 0.217130 0.785938
O O10 0.805845 0.000000 0.880606
O O11 0.509289 0.779914 0.866406
O O12 0.456965 0.000000 0.967233
O O13 0.500000 0.771192 0.000000
O O14 0.889881 0.251576 0.506560
O O15 0.824553 0.000000 0.528362
O O16 0.953993 0.500000 0.233667
O O17 0.997413 0.752610 0.253059
O O18 0.991098 0.751077 0.631186
O O19 0.968978 0.000000 0.711692
O O20 0.500000 0.212026 0.500000
O O21 0.461259 0.000000 0.452087
#
# Coordination Sequence:
#
# PCOD9183640 Si02
#       8
#     8   8   8   8   8   8   8   8
#     4  10  19  33  55  83 113 145 185 231 280 331
#     4  10  20  34  56  85 116 146 182 235 284 331
#     4   9  19  34  54  82 114 144 181 231 281 330
#     4  10  22  39  57  80 114 154 191 228 278 337
#     4  10  20  35  57  84 114 149 187 230 280 334
#     4  11  21  34  57  85 113 147 189 236 281 331
#     4  11  21  36  58  85 114 146 188 235 281 331
#     4  11  24  40  58  83 117 153 188 230 280 335
#
# _framework density 17.434380999999998
#
# number of rings (size 3 to 8) (size 9 to 14) (size 15 to 20)
#    0.000    1.750    2.500    2.250    0.000    4.250 
#    0.000    1.250    0.000    1.500    0.000    0.000 
#    0.000    0.000    0.000    0.000    0.000    0.000 
#
# Total GULP energy -178734.538912 kJ/mol
# GULP energy per Si atom -5585.454341 kJ/mol
# Density = 1.739470 g / cm^3
# Si number density = 17.434381 Si / 1000 Ang^3
#
#
#
# Elastic Constant Matrix: (Units=GPa)
#
#
# Indices 1 2 3 4 5 6 
#
# 1 162.9501 70.6096 91.6840 -0.0004 -22.0689 0.0001
# 2 70.6096 59.9949 55.5850 -0.0007 -7.5791 0.0006
# 3 91.6840 55.5850 118.4233 -0.0003 -16.6769 0.0004
# 4 -0.0004 -0.0007 -0.0003 21.8642 0.0002 -12.1974
# 5 -22.0689 -7.5791 -16.6769 0.0002 30.9425 -0.0001
# 6 0.0001 0.0006 0.0004 -12.1974 -0.0001 27.1744
#
#
#
# Elastic Compliance Matrix: (Units=1/GPa)
#
#
# Indices 1 2 3 4 5 6 
#
# 1 0.015043 -0.012271 -0.005193 0.000000 0.004924 0.000000
# 2 -0.012271 0.039506 -0.009645 0.000001 -0.004273 0.000000
# 3 -0.005193 -0.009645 0.017463 0.000000 0.003346 0.000000
# 4 0.000000 0.000001 0.000000 0.061016 0.000000 0.027387
# 5 0.004924 -0.004273 0.003346 0.000000 0.036587 0.000000
# 6 0.000000 0.000000 0.000000 0.027387 0.000000 0.049092
#
#
# Mechanical properties :
#
#
# Convention : Reuss Voigt Hill
#
# Bulk Modulus (GPa) = 56.19784 86.34728 71.27256
# Shear Modulus (GPa) = 17.93042 24.22885 21.07963
#
# Velocity S-wave (km/s) = 3.21043 3.73193 3.48096
# Velocity P-wave (km/s) = 6.78575 8.25859 7.55813
#
# Compressibility (1/GPa) = 0.01779428
#
# Stress axis : x y z
#
# Youngs Moduli (GPa) = 66.47620 25.31263 57.26364
#
# Poissons Ratio (x) = 0.31061 0.29738
# Poissons Ratio (y) = 0.81572 0.55229
# Poissons Ratio (z) = 0.34523 0.24413
#
# Static dielectric constant tensor:
#      x y z
#    x 1.569340 0.000000 -0.004660 
#    y 0.000000 1.578900 0.000000 
#    z -0.004660 0.000000 1.580860 
# 
# From -- ./inp_files/324095.got.cif
#   From: 2010.05.17/outbox.cif.g08.bks.cpg/sg12_163_cif.got.tgz:324095.got - 2010.06.03 13:09:07.
