data_PCOD9183207
_publ_section_title
;
Structure prediction by ZEFSAII (Michael W. Deem and Ramdas Pophale) SiO2 
 PCOD9183207
Probable space group: C 2/M
;
_chemical_formula_sum "Si O2"
_cell_formula_units_Z 56
_cell_length_a 22.240075
_cell_length_b 7.850147
_cell_length_c 28.523787
_cell_angle_alpha 90.000000
_cell_angle_beta 148.328742
_cell_angle_gamma 90.000000
_cell_volume 2614.674120
_symmetry_space_group_name_H-M "C 2/M"
_symmetry_group_IT_number 12
_symmetry_cell_setting 'monoclinic'
loop_
_space_group_symop_operation_xyz
x,y,z
-x,y,-z
-x,-y,-z
x,-y,z
1/2+x,1/2+y,z
1/2-x,1/2+y,-z
1/2-x,1/2-y,-z
1/2+x,1/2-y,z
loop_
_atom_site_type_symbol
_atom_site_label
_atom_site_fract_x
_atom_site_fract_y
_atom_site_fract_z
Si Si1 0.078465 0.799278 0.358150
Si Si2 0.675586 0.206805 0.820787
Si Si3 0.085885 0.800243 0.190269
Si Si4 0.170743 0.205514 0.991297
Si Si5 0.455175 0.705384 0.557279
Si Si6 0.707712 0.795061 0.735348
Si Si7 0.277957 0.197003 0.631646
O O1 0.068985 0.734318 0.405301
O O2 0.170916 0.710403 0.386711
O O3 0.952009 0.770836 0.252902
O O4 0.104042 0.000000 0.376075
O O5 0.705073 0.264580 0.787579
O O6 0.672060 0.000000 0.818560
O O7 0.766865 0.264250 0.919829
O O8 0.183798 0.727097 0.221138
O O9 0.136642 0.786696 0.276033
O O10 0.958474 0.727479 0.100753
O O11 0.076274 0.000000 0.172159
O O12 0.165688 0.000000 0.990133
O O13 0.250000 0.250000 0.000000
O O14 0.448106 0.500000 0.553406
O O15 0.584980 0.751152 0.631395
O O16 0.351404 0.767047 0.455963
O O17 0.714470 0.000000 0.740792
O O18 0.274428 0.000000 0.643484
#
# Coordination Sequence:
#
# PCOD9183207 Si02
#       7
#     8   8   8   8   8   8   8
#     4  10  19  33  54  80 108 137 171 217 266 313
#     4   9  18  34  56  80 105 138 175 214 259 310
#     4  10  22  38  54  77 107 139 175 218 262 307
#     4  10  21  36  55  79 108 138 171 211 259 312
#     4   9  20  36  54  77 106 139 175 215 263 313
#     4   9  19  36  57  79 104 135 176 219 260 307
#     4  11  22  35  52  76 106 142 179 217 261 311
#
# _framework density 21.417584000000002
#
# number of rings (size 3 to 8) (size 9 to 14) (size 15 to 20)
#    0.000    2.286    0.000    2.143    0.000    6.857 
#    0.000    5.714    0.000    0.000    0.000    6.000 
#    0.000    0.000    0.000    0.000    0.000    0.000 
#
# Total GULP energy -156387.747536 kJ/mol
# GULP energy per Si atom -5585.276698 kJ/mol
# Density = 2.136884 g / cm^3
# Si number density = 21.417584 Si / 1000 Ang^3
#
#
#
# Elastic Constant Matrix: (Units=GPa)
#
#
# Indices 1 2 3 4 5 6 
#
# 1 64.0765 -0.7275 38.3979 0.0000 30.2751 0.0000
# 2 -0.7275 26.3097 4.7996 -0.0004 0.0287 -0.0003
# 3 38.3979 4.7996 173.4694 0.0002 24.4637 -0.0001
# 4 0.0000 -0.0004 0.0002 21.4409 0.0000 3.8313
# 5 30.2751 0.0287 24.4637 0.0000 28.9697 0.0000
# 6 0.0000 -0.0003 -0.0001 3.8313 0.0000 15.3478
#
#
#
# Elastic Compliance Matrix: (Units=1/GPa)
#
#
# Indices 1 2 3 4 5 6 
#
# 1 0.031940 0.001415 -0.002726 0.000000 -0.031079 0.000000
# 2 0.001415 0.038288 -0.001315 0.000001 -0.000405 0.000001
# 3 -0.002726 -0.001315 0.006814 0.000000 -0.002904 0.000000
# 4 0.000000 0.000001 0.000000 0.048817 0.000000 -0.012187
# 5 -0.031079 -0.000405 -0.002904 0.000000 0.069451 0.000000
# 6 0.000000 0.000001 0.000000 -0.012187 0.000000 0.068198
#
#
# Mechanical properties :
#
#
# Convention : Reuss Voigt Hill
#
# Bulk Modulus (GPa) = 13.92980 38.75507 26.34243
# Shear Modulus (GPa) = 17.08277 27.91072 22.49675
#
# Velocity S-wave (km/s) = 2.82725 3.61386 3.24448
# Velocity P-wave (km/s) = 4.14438 5.96218 5.13436
#
# Compressibility (1/GPa) = 0.07178856
#
# Stress axis : x y z
#
# Youngs Moduli (GPa) = 31.30835 26.11766 146.75507
#
# Poissons Ratio (x) = -0.03694 0.40010
# Poissons Ratio (y) = -0.04429 0.19303
# Poissons Ratio (z) = 0.08536 0.03435
#
# Static dielectric constant tensor:
#      x y z
#    x 1.772560 0.000000 -0.002950 
#    y 0.000000 1.776800 0.000000 
#    z -0.002950 0.000000 1.781940 
# 
# From -- ./inp_files/237467.got.cif
#   From: 2010.05.17/outbox.cif.g08.bks.cpg/sg12_119_cif.got.tgz:237467.got - 2010.06.03 13:09:07.
