data_PCOD9183555
_publ_section_title
;
Structure prediction by ZEFSAII (Michael W. Deem and Ramdas Pophale) SiO2 
 PCOD9183555
Probable space group: C 2/M
;
_chemical_formula_sum "Si O2"
_cell_formula_units_Z 64
_cell_length_a 14.858062
_cell_length_b 8.823392
_cell_length_c 22.044642
_cell_angle_alpha 90.000000
_cell_angle_beta 82.739394
_cell_angle_gamma 90.000000
_cell_volume 2866.846204
_symmetry_space_group_name_H-M "C 2/M"
_symmetry_group_IT_number 12
_symmetry_cell_setting 'monoclinic'
loop_
_space_group_symop_operation_xyz
x,y,z
-x,y,-z
-x,-y,-z
x,-y,z
1/2+x,1/2+y,z
1/2-x,1/2+y,-z
1/2-x,1/2-y,-z
1/2+x,1/2-y,z
loop_
_atom_site_type_symbol
_atom_site_label
_atom_site_fract_x
_atom_site_fract_y
_atom_site_fract_z
Si Si1 0.614383 0.177040 0.540306
Si Si2 0.674341 0.324655 0.090069
Si Si3 0.157099 0.679681 0.290035
Si Si4 0.166651 0.681959 0.763596
Si Si5 0.511246 0.820123 0.870827
Si Si6 0.684250 0.674920 0.417694
Si Si7 0.039311 0.315413 0.669054
Si Si8 0.861904 0.825324 0.051337
O O1 0.620344 0.267781 0.477608
O O2 0.714045 0.182819 0.563240
O O3 0.548483 0.235916 0.598940
O O4 0.595300 0.000000 0.528910
O O5 0.690133 0.500000 0.104910
O O6 0.585641 0.257844 0.129537
O O7 0.767522 0.232486 0.088502
O O8 0.651137 0.316991 0.019902
O O9 0.161201 0.500000 0.282238
O O10 0.232883 0.753399 0.241307
O O11 0.176485 0.724626 0.358362
O O12 0.053322 0.731060 0.290507
O O13 0.172083 0.500000 0.765408
O O14 0.090224 0.729747 0.817802
O O15 0.124864 0.728583 0.702157
O O16 0.555975 0.775427 0.931189
O O17 0.499331 0.000000 0.866461
O O18 0.666764 0.500000 0.403045
O O19 0.039333 0.500000 0.666635
O O20 0.879789 0.000000 0.065891
#
# Coordination Sequence:
#
# PCOD9183555 Si02
#       8
#     8   8   8   8   8   8   8   8
#     4   9  17  33  57  79 105 145 185 223 275 341
#     4  10  21  38  61  90 124 159 198 245 295 348
#     4  11  22  36  59  86 109 142 191 237 282 341
#     4  10  22  43  61  79 112 152 193 236 287 335
#     4  11  23  37  60  89 119 159 201 245 296 356
#     4  10  19  33  55  81 113 146 177 225 285 341
#     4   9  19  38  60  79 106 147 187 227 280 342
#     4  10  21  38  61  89 124 162 198 242 294 349
#
# _framework density 22.324183000000001
#
# number of rings (size 3 to 8) (size 9 to 14) (size 15 to 20)
#    0.000    2.000    1.250    2.250    0.000    6.000 
#    0.000    6.250    0.000    0.000    0.000    0.000 
#    0.000    0.000    0.000    0.000    0.000    0.000 
#
# Total GULP energy -178923.519615 kJ/mol
# GULP energy per Si atom -5591.359988 kJ/mol
# Density = 2.227337 g / cm^3
# Si number density = 22.324183 Si / 1000 Ang^3
#
#
#
# Elastic Constant Matrix: (Units=GPa)
#
#
# Indices 1 2 3 4 5 6 
#
# 1 88.5928 6.8433 21.1035 0.0000 -27.8275 0.0000
# 2 6.8433 26.4025 15.3482 0.0000 -20.3183 0.0000
# 3 21.1035 15.3482 81.5665 0.0000 -33.1052 0.0000
# 4 0.0000 0.0000 0.0000 26.7018 0.0000 -9.6110
# 5 -27.8275 -20.3183 -33.1052 0.0000 44.9935 0.0000
# 6 0.0000 0.0000 0.0000 -9.6110 0.0000 21.0833
#
#
#
# Elastic Compliance Matrix: (Units=1/GPa)
#
#
# Indices 1 2 3 4 5 6 
#
# 1 0.014395 0.004787 -0.000192 0.000000 0.010923 0.000000
# 2 0.004787 0.059649 -0.000468 0.000000 0.029553 0.000000
# 3 -0.000192 -0.000468 0.017485 0.000000 0.012535 0.000000
# 4 0.000000 0.000000 0.000000 0.044802 0.000000 0.020423
# 5 0.010923 0.029553 0.012535 0.000000 0.051550 0.000000
# 6 0.000000 0.000000 0.000000 0.020423 0.000000 0.056741
#
#
# Mechanical properties :
#
#
# Convention : Reuss Voigt Hill
#
# Bulk Modulus (GPa) = 10.02173 31.46130 20.74152
# Shear Modulus (GPa) = 18.54401 28.77351 23.65876
#
# Velocity S-wave (km/s) = 2.88526 3.59401 3.25896
# Velocity P-wave (km/s) = 3.94950 5.59876 4.84482
#
# Compressibility (1/GPa) = 0.09978314
#
# Stress axis : x y z
#
# Youngs Moduli (GPa) = 69.47065 16.76468 57.19084
#
# Poissons Ratio (x) = -0.08025 0.01095
# Poissons Ratio (y) = -0.33253 0.02677
# Poissons Ratio (z) = 0.01330 0.00785
#
# Static dielectric constant tensor:
#      x y z
#    x 1.829740 0.000000 0.002530 
#    y 0.000000 1.751630 0.000000 
#    z 0.002530 0.000000 1.866850 
# 
# From -- ./inp_files/359719.got.cif
#   From: 2010.05.17/outbox.cif.g08.bks.cpg/sg12_180_cif.got.tgz:359719.got - 2010.06.03 13:09:07.
