data_PCOD9183215
_publ_section_title
;
Structure prediction by ZEFSAII (Michael W. Deem and Ramdas Pophale) SiO2 
 PCOD9183215
Probable space group: C 2/M
;
_chemical_formula_sum "Si O2"
_cell_formula_units_Z 64
_cell_length_a 25.684361
_cell_length_b 7.639680
_cell_length_c 19.369133
_cell_angle_alpha 90.000000
_cell_angle_beta 130.359258
_cell_angle_gamma 90.000000
_cell_volume 2896.066336
_symmetry_space_group_name_H-M "C 2/M"
_symmetry_group_IT_number 12
_symmetry_cell_setting 'monoclinic'
loop_
_space_group_symop_operation_xyz
x,y,z
-x,y,-z
-x,-y,-z
x,-y,z
1/2+x,1/2+y,z
1/2-x,1/2+y,-z
1/2-x,1/2-y,-z
1/2+x,1/2-y,z
loop_
_atom_site_type_symbol
_atom_site_label
_atom_site_fract_x
_atom_site_fract_y
_atom_site_fract_z
Si Si1 0.719948 0.285845 0.265323
Si Si2 0.927795 0.287818 0.650648
Si Si3 0.339202 0.300253 0.018655
Si Si4 0.546179 0.198540 0.978394
Si Si5 0.420056 0.295220 0.797231
Si Si6 0.082309 0.296802 0.777638
Si Si7 0.283828 0.215434 0.175038
Si Si8 0.793199 0.710162 0.467997
O O1 0.719409 0.500000 0.265282
O O2 0.640901 0.232387 0.206053
O O3 0.754667 0.230003 0.224030
O O4 0.759160 0.225161 0.367960
O O5 0.929367 0.500000 0.652238
O O6 0.899471 0.229184 0.700558
O O7 0.871315 0.230039 0.546878
O O8 0.005796 0.221215 0.711156
O O9 0.329806 0.500000 0.032038
O O10 0.387923 0.295313 0.992827
O O11 0.380658 0.210998 0.115847
O O12 0.267344 0.226743 0.930264
O O13 0.490703 0.197131 0.869436
O O14 0.564790 0.000000 0.012543
O O15 0.500000 0.276397 0.000000
O O16 0.432484 0.500000 0.820113
O O17 0.073854 0.500000 0.752107
O O18 0.139602 0.223802 0.775089
O O19 0.282675 0.000000 0.172418
O O20 0.794592 0.500000 0.463505
O O21 0.750000 0.750000 0.500000
#
# Coordination Sequence:
#
# PCOD9183215 Si02
#       8
#     8   8   8   8   8   8   8   8
#     4   9  18  33  53  79 109 140 178 224 273 319
#     4  10  20  33  52  79 110 138 173 221 271 323
#     4  11  21  34  55  80 105 139 186 231 266 314
#     4  11  23  36  50  74 111 148 178 218 272 325
#     4  11  20  32  54  79 106 142 179 219 267 319
#     4  10  20  36  56  77 107 146 182 223 273 318
#     4   9  19  35  54  77 107 142 182 229 272 315
#     4  10  19  33  54  80 109 140 177 223 271 328
#
# _framework density 22.098942000000001
#
# number of rings (size 3 to 8) (size 9 to 14) (size 15 to 20)
#    0.000    1.875    2.500    2.250    0.000    2.000 
#    0.000    1.250    0.000    6.750    0.000    0.000 
#    0.000    3.000    0.000    0.000    0.000    0.000 
#
# Total GULP energy -178755.990236 kJ/mol
# GULP energy per Si atom -5586.124695 kJ/mol
# Density = 2.204864 g / cm^3
# Si number density = 22.098942 Si / 1000 Ang^3
#
#
#
# Elastic Constant Matrix: (Units=GPa)
#
#
# Indices 1 2 3 4 5 6 
#
# 1 144.8961 7.0595 37.3359 0.0000 20.9320 0.0000
# 2 7.0595 54.8885 8.2825 0.0000 4.5099 -0.0002
# 3 37.3359 8.2825 98.8372 0.0000 16.9538 0.0000
# 4 0.0000 0.0000 0.0000 12.6991 0.0000 -5.7295
# 5 20.9320 4.5099 16.9538 0.0000 32.7889 0.0000
# 6 0.0000 -0.0002 0.0000 -5.7295 0.0000 11.6300
#
#
#
# Elastic Compliance Matrix: (Units=1/GPa)
#
#
# Indices 1 2 3 4 5 6 
#
# 1 0.008089 -0.000365 -0.002357 0.000000 -0.003895 0.000000
# 2 -0.000365 0.018578 -0.001120 0.000000 -0.001743 0.000000
# 3 -0.002357 -0.001120 0.011870 0.000000 -0.004479 0.000000
# 4 0.000000 0.000000 0.000000 0.101250 0.000000 0.049880
# 5 -0.003895 -0.001743 -0.004479 0.000000 0.035540 0.000000
# 6 0.000000 0.000000 0.000000 0.049880 0.000000 0.110558
#
#
# Mechanical properties :
#
#
# Convention : Reuss Voigt Hill
#
# Bulk Modulus (GPa) = 32.41081 44.88638 38.64860
# Shear Modulus (GPa) = 16.45527 27.81986 22.13757
#
# Velocity S-wave (km/s) = 2.73173 3.55192 3.16847
# Velocity P-wave (km/s) = 4.96466 6.09730 5.55990
#
# Compressibility (1/GPa) = 0.03085390
#
# Stress axis : x y z
#
# Youngs Moduli (GPa) = 123.61966 53.82740 84.24506
#
# Poissons Ratio (x) = 0.01963 0.19857
# Poissons Ratio (y) = 0.04508 0.09436
# Poissons Ratio (z) = 0.29138 0.06029
#
# Static dielectric constant tensor:
#      x y z
#    x 1.817740 0.000000 -0.001990 
#    y 0.000000 1.826500 0.000000 
#    z -0.001990 0.000000 1.848380 
# 
# From -- ./inp_files/324104.got.cif
#   From: 2010.05.17/outbox.cif.g08.bks.cpg/sg12_163_cif.got.tgz:324104.got - 2010.06.03 13:09:07.
