data_PCOD9183331
_publ_section_title
;
Structure prediction by ZEFSAII (Michael W. Deem and Ramdas Pophale) SiO2 
 PCOD9183331
Probable space group: C 2/M
;
_chemical_formula_sum "Si O2"
_cell_formula_units_Z 40
_cell_length_a 12.446718
_cell_length_b 21.234533
_cell_length_c 9.254615
_cell_angle_alpha 90.000000
_cell_angle_beta 80.986695
_cell_angle_gamma 90.000000
_cell_volume 2415.793802
_symmetry_space_group_name_H-M "C 2/M"
_symmetry_group_IT_number 12
_symmetry_cell_setting 'monoclinic'
loop_
_space_group_symop_operation_xyz
x,y,z
-x,y,-z
-x,-y,-z
x,-y,z
1/2+x,1/2+y,z
1/2-x,1/2+y,-z
1/2-x,1/2-y,-z
1/2+x,1/2-y,z
loop_
_atom_site_type_symbol
_atom_site_label
_atom_site_fract_x
_atom_site_fract_y
_atom_site_fract_z
Si Si1 0.212495 0.692830 0.303066
Si Si2 0.775299 0.664583 0.360120
Si Si3 0.003674 0.690448 0.824509
Si Si4 0.950876 0.833512 0.169078
Si Si5 0.422603 0.427828 0.656275
O O1 0.206322 0.672425 0.471905
O O2 0.227821 0.769018 0.307811
O O3 0.108295 0.673499 0.231163
O O4 0.320844 0.663825 0.208764
O O5 0.687979 0.610177 0.351023
O O6 0.890969 0.654585 0.258176
O O7 0.021710 0.763837 0.777064
O O8 0.000000 0.686222 0.000000
O O9 0.009203 0.888492 0.242499
O O10 0.000000 0.834507 0.000000
O O11 0.500000 0.427841 0.500000
O O12 0.401634 0.500000 0.702817
#
# Coordination Sequence:
#
# PCOD9183331 Si02
#       5
#     8   8   8   8   8
#     4  10  19  33  54  83 112 140 177 224 276 328
#     4  10  20  33  56  79 111 144 180 221 270 326
#     4  10  21  32  54  86 114 142 172 225 282 323
#     4  10  21  33  54  83 116 141 176 224 276 324
#     4  11  22  38  57  79 110 144 187 223 261 319
#
# _framework density 16.557704000000001
#
# number of rings (size 3 to 8) (size 9 to 14) (size 15 to 20)
#    0.000    1.800    4.000    0.600    2.800    2.800 
#    0.000    0.000    0.000    4.200    0.000    0.000 
#    0.000    0.000    0.000    0.000    0.000    0.000 
#
# Total GULP energy -111529.135011 kJ/mol
# GULP energy per Si atom -5576.456751 kJ/mol
# Density = 1.652002 g / cm^3
# Si number density = 16.557704 Si / 1000 Ang^3
#
#
#
# Elastic Constant Matrix: (Units=GPa)
#
#
# Indices 1 2 3 4 5 6 
#
# 1 184.5814 59.5520 61.8766 0.0000 -7.5956 0.0000
# 2 59.5520 87.3842 30.4132 0.0000 2.9876 0.0000
# 3 61.8766 30.4132 52.7067 0.0000 -21.4135 0.0000
# 4 0.0000 0.0000 0.0000 15.5737 0.0000 -3.2148
# 5 -7.5956 2.9876 -21.4135 0.0000 23.3968 0.0000
# 6 0.0000 0.0000 0.0000 -3.2148 0.0000 21.3602
#
#
#
# Elastic Compliance Matrix: (Units=1/GPa)
#
#
# Indices 1 2 3 4 5 6 
#
# 1 0.011058 -0.001137 -0.017207 0.000000 -0.012013 0.000000
# 2 -0.001137 0.018699 -0.016835 0.000000 -0.018165 0.000000
# 3 -0.017207 -0.016835 0.075604 0.000000 0.065759 0.000000
# 4 0.000000 0.000000 0.000000 0.066270 0.000000 0.009974
# 5 -0.012013 -0.018165 0.065759 0.000000 0.101345 0.000000
# 6 0.000000 0.000000 0.000000 0.009974 0.000000 0.048317
#
#
# Mechanical properties :
#
#
# Convention : Reuss Voigt Hill
#
# Bulk Modulus (GPa) = 28.56847 69.81731 49.19289
# Shear Modulus (GPa) = 12.39718 23.58818 17.99268
#
# Velocity S-wave (km/s) = 2.73925 3.77849 3.30004
# Velocity P-wave (km/s) = 5.22456 7.82902 6.65543
#
# Compressibility (1/GPa) = 0.03500363
#
# Stress axis : x y z
#
# Youngs Moduli (GPa) = 90.42976 53.47973 13.22682
#
# Poissons Ratio (x) = 0.06079 0.22759
# Poissons Ratio (y) = 0.10280 0.22267
# Poissons Ratio (z) = 1.55602 0.90033
#
# Static dielectric constant tensor:
#      x y z
#    x 1.555890 0.000000 0.005420 
#    y 0.000000 1.540770 0.000000 
#    z 0.005420 0.000000 1.515920 
# 
# From -- ./inp_files/46921.got.cif
#   From: 2010.05.17/outbox.cif.g08.bks.cpg/sg12_24_cif.got.tgz:46921.got - 2010.06.03 13:09:07.
