data_PCOD9183873
_publ_section_title
;
Structure prediction by ZEFSAII (Michael W. Deem and Ramdas Pophale) SiO2 
 PCOD9183873
Probable space group: C 2/M
;
_chemical_formula_sum "Si O2"
_cell_formula_units_Z 64
_cell_length_a 16.038595
_cell_length_b 8.256278
_cell_length_c 26.036198
_cell_angle_alpha 90.000000
_cell_angle_beta 132.636308
_cell_angle_gamma 90.000000
_cell_volume 2536.355144
_symmetry_space_group_name_H-M "C 2/M"
_symmetry_group_IT_number 12
_symmetry_cell_setting 'monoclinic'
loop_
_space_group_symop_operation_xyz
x,y,z
-x,y,-z
-x,-y,-z
x,-y,z
1/2+x,1/2+y,z
1/2-x,1/2+y,-z
1/2-x,1/2-y,-z
1/2+x,1/2-y,z
loop_
_atom_site_type_symbol
_atom_site_label
_atom_site_fract_x
_atom_site_fract_y
_atom_site_fract_z
Si Si1 0.029563 0.681794 0.951197
Si Si2 0.730793 0.810781 0.288019
Si Si3 0.238171 0.308970 0.922902
Si Si4 0.288521 0.305086 0.459367
Si Si5 0.971206 0.191389 0.416784
Si Si6 0.201145 0.814008 0.169446
Si Si7 0.455190 0.191516 0.662780
Si Si8 0.016806 0.188447 0.794706
O O1 0.007517 0.500000 0.923225
O O2 0.936017 0.798447 0.887794
O O3 0.162787 0.721611 0.004212
O O4 0.000000 0.686127 0.000000
O O5 0.842205 0.746361 0.364185
O O6 0.752107 0.794383 0.235767
O O7 0.613690 0.717249 0.245592
O O8 0.713511 0.000000 0.294325
O O9 0.254010 0.500000 0.936114
O O10 0.263759 0.267548 0.873529
O O11 0.106625 0.263199 0.871798
O O12 0.296882 0.500000 0.461406
O O13 0.250000 0.250000 0.500000
O O14 0.417586 0.244085 0.506575
O O15 0.176536 0.262169 0.380565
O O16 0.006308 0.214525 0.371729
O O17 0.961643 0.000000 0.424101
O O18 0.234082 0.000000 0.192511
O O19 0.526148 0.227511 0.742899
O O20 0.458785 0.000000 0.652603
O O21 0.040921 0.000000 0.800242
#
# Coordination Sequence:
#
# PCOD9183873 Si02
#       8
#     8   8   8   8   8   8   8   8
#     4   9  17  31  54  84 114 142 176 217 261 310
#     4  11  23  38  55  76 106 143 182 224 270 319
#     4  10  20  36  59  85 112 141 177 220 266 317
#     4   8  15  29  51  80 109 136 170 215 265 316
#     4   9  18  34  57  83 109 139 177 220 267 320
#     4  10  20  35  57  84 112 142 177 218 265 316
#     4  10  19  33  56  83 110 140 176 219 267 319
#     4  12  25  39  54  74 106 145 184 225 269 318
#
# _framework density 25.233060999999999
#
# number of rings (size 3 to 8) (size 9 to 14) (size 15 to 20)
#    0.000    2.125    0.000    3.750    0.000    6.500 
#    0.000    1.250    0.000    3.750    0.000    0.000 
#    0.000    0.000    0.000    0.000    0.000    0.000 
#
# Total GULP energy -179011.547295 kJ/mol
# GULP energy per Si atom -5594.110853 kJ/mol
# Density = 2.517563 g / cm^3
# Si number density = 25.233061 Si / 1000 Ang^3
#
#
#
# Elastic Constant Matrix: (Units=GPa)
#
#
# Indices 1 2 3 4 5 6 
#
# 1 93.0692 -2.9549 26.4841 0.0000 23.5575 0.0000
# 2 -2.9549 38.8081 19.5904 0.0000 -5.2710 0.0000
# 3 26.4841 19.5904 180.2687 0.0000 29.0098 0.0000
# 4 0.0000 0.0000 0.0000 19.2957 0.0000 4.3037
# 5 23.5575 -5.2710 29.0098 0.0000 53.7633 0.0000
# 6 0.0000 0.0000 0.0000 4.3037 0.0000 21.5583
#
#
#
# Elastic Compliance Matrix: (Units=1/GPa)
#
#
# Indices 1 2 3 4 5 6 
#
# 1 0.012283 0.000879 -0.001148 0.000000 -0.004677 0.000000
# 2 0.000879 0.028445 -0.003950 0.000000 0.004535 0.000000
# 3 -0.001148 -0.003950 0.006709 0.000000 -0.003505 0.000000
# 4 0.000000 0.000000 0.000000 0.054240 0.000000 -0.010828
# 5 -0.004677 0.004535 -0.003505 0.000000 0.022985 0.000000
# 6 0.000000 0.000000 0.000000 -0.010828 0.000000 0.048547
#
#
# Mechanical properties :
#
#
# Convention : Reuss Voigt Hill
#
# Bulk Modulus (GPa) = 25.64099 44.26503 34.95301
# Shear Modulus (GPa) = 25.68769 36.85856 31.27312
#
# Velocity S-wave (km/s) = 3.19410 3.82609 3.52429
# Velocity P-wave (km/s) = 4.87717 6.09091 5.51751
#
# Compressibility (1/GPa) = 0.03900005
#
# Stress axis : x y z
#
# Youngs Moduli (GPa) = 81.41414 35.15588 149.05091
#
# Poissons Ratio (x) = -0.03091 0.17104
# Poissons Ratio (y) = -0.07159 0.58877
# Poissons Ratio (z) = 0.09342 0.13887
#
# Static dielectric constant tensor:
#      x y z
#    x 2.193410 0.000000 0.026780 
#    y 0.000000 1.855110 0.000000 
#    z 0.026780 0.000000 1.993460 
# 
# From -- ./inp_files/378411.got.cif
#   From: 2010.05.17/outbox.cif.g08.bks.cpg/sg12_190_cif.got.tgz:378411.got - 2010.06.03 13:09:07.
