data_PCOD9183402
_publ_section_title
;
Structure prediction by ZEFSAII (Michael W. Deem and Ramdas Pophale) SiO2 
 PCOD9183402
Probable space group: C 2/M
;
_chemical_formula_sum "Si O2"
_cell_formula_units_Z 48
_cell_length_a 15.567754
_cell_length_b 28.320578
_cell_length_c 7.959789
_cell_angle_alpha 90.000000
_cell_angle_beta 143.499763
_cell_angle_gamma 90.000000
_cell_volume 2087.467168
_symmetry_space_group_name_H-M "C 2/M"
_symmetry_group_IT_number 12
_symmetry_cell_setting 'monoclinic'
loop_
_space_group_symop_operation_xyz
x,y,z
-x,y,-z
-x,-y,-z
x,-y,z
1/2+x,1/2+y,z
1/2-x,1/2+y,-z
1/2-x,1/2-y,-z
1/2+x,1/2-y,z
loop_
_atom_site_type_symbol
_atom_site_label
_atom_site_fract_x
_atom_site_fract_y
_atom_site_fract_z
Si Si1 0.441445 0.552523 0.219237
Si Si2 0.430888 0.150300 0.199833
Si Si3 0.310231 0.199673 0.531787
Si Si4 0.380839 0.051163 0.168716
Si Si5 0.064325 0.150481 0.286369
Si Si6 0.314500 0.700708 0.038793
O O1 0.500000 0.550717 0.500000
O O2 0.464576 0.500000 0.179294
O O3 0.518879 0.597297 0.258320
O O4 0.270136 0.560501 0.972193
O O5 0.500000 0.150942 0.500000
O O6 0.521356 0.187291 0.230234
O O7 0.429055 0.096281 0.137352
O O8 0.265161 0.164182 0.965470
O O9 0.250000 0.250000 0.500000
O O10 0.232457 0.161454 0.528327
O O11 0.249406 0.194784 0.247920
O O12 0.500000 0.047372 0.500000
O O13 0.366582 0.000000 0.059978
O O14 0.000000 0.159768 0.000000
O O15 0.982410 0.187769 0.280139
O O16 0.250000 0.750000 0.000000
#
# Coordination Sequence:
#
# PCOD9183402 Si02
#       6
#     8   8   8   8   8   8
#     4  10  21  38  61  90 122 155 196 248 300 355
#     4   9  17  32  54  78 106 146 190 236 280 335
#     4  10  21  35  51  80 119 149 186 249 304 340
#     4   9  17  32  59  89 112 144 198 243 278 341
#     4  10  21  36  55  84 119 153 194 250 300 351
#     4  10  19  33  55  77 105 149 202 239 279 351
#
# _framework density 22.994375999999999
#
# number of rings (size 3 to 8) (size 9 to 14) (size 15 to 20)
#    0.000    2.333    1.667    1.000    2.333    1.667 
#    0.000    0.833    0.000    0.000    0.000    3.500 
#    0.000    0.000    0.000    0.000    0.000    0.000 
#
# Total GULP energy -133875.073577 kJ/mol
# GULP energy per Si atom -5578.128066 kJ/mol
# Density = 2.294204 g / cm^3
# Si number density = 22.994376 Si / 1000 Ang^3
#
#
#
# Elastic Constant Matrix: (Units=GPa)
#
#
# Indices 1 2 3 4 5 6 
#
# 1 122.5190 64.5469 31.8354 0.0000 22.0635 0.0000
# 2 64.5469 165.3598 -4.8193 0.0000 26.6820 0.0000
# 3 31.8354 -4.8193 41.2447 0.0000 14.1047 0.0000
# 4 0.0000 0.0000 0.0000 16.2684 0.0000 6.2484
# 5 22.0635 26.6820 14.1047 0.0000 40.5111 0.0000
# 6 0.0000 0.0000 0.0000 6.2484 0.0000 55.4831
#
#
#
# Elastic Compliance Matrix: (Units=1/GPa)
#
#
# Indices 1 2 3 4 5 6 
#
# 1 0.014356 -0.005992 -0.011870 0.000000 0.000260 0.000000
# 2 -0.005992 0.009528 0.007683 0.000000 -0.005687 0.000000
# 3 -0.011870 0.007683 0.038397 0.000000 -0.011964 0.000000
# 4 0.000000 0.000000 0.000000 0.064248 0.000000 -0.007235
# 5 0.000260 -0.005687 -0.011964 0.000000 0.032454 0.000000
# 6 0.000000 0.000000 0.000000 -0.007235 0.000000 0.018838
#
#
# Mechanical properties :
#
#
# Convention : Reuss Voigt Hill
#
# Bulk Modulus (GPa) = 23.85333 56.91660 40.38496
# Shear Modulus (GPa) = 23.56786 38.28988 30.92887
#
# Velocity S-wave (km/s) = 3.20494 4.08509 3.67149
# Velocity P-wave (km/s) = 4.90832 6.85980 5.96441
#
# Compressibility (1/GPa) = 0.04192287
#
# Stress axis : x y z
#
# Youngs Moduli (GPa) = 69.65683 104.95583 26.04376
#
# Poissons Ratio (x) = 0.62887 0.30914
# Poissons Ratio (y) = 0.41737 -0.20009
# Poissons Ratio (z) = 0.82684 -0.80637
#
# Static dielectric constant tensor:
#      x y z
#    x 1.819170 0.000000 -0.002210 
#    y 0.000000 1.985530 0.000000 
#    z -0.002210 0.000000 1.865690 
# 
# From -- ./inp_files/67428.got.cif
#   From: 2010.05.17/outbox.cif.g08.bks.cpg/sg12_34_cif.got.tgz:67428.got - 2010.06.03 13:09:07.
