data_PCOD9183469
_publ_section_title
;
Structure prediction by ZEFSAII (Michael W. Deem and Ramdas Pophale) SiO2 
 PCOD9183469
Probable space group: C 2/M
;
_chemical_formula_sum "Si O2"
_cell_formula_units_Z 56
_cell_length_a 20.674558
_cell_length_b 7.444854
_cell_length_c 16.833145
_cell_angle_alpha 90.000000
_cell_angle_beta 89.960598
_cell_angle_gamma 90.000000
_cell_volume 2590.941341
_symmetry_space_group_name_H-M "C 2/M"
_symmetry_group_IT_number 12
_symmetry_cell_setting 'monoclinic'
loop_
_space_group_symop_operation_xyz
x,y,z
-x,y,-z
-x,-y,-z
x,-y,z
1/2+x,1/2+y,z
1/2-x,1/2+y,-z
1/2-x,1/2-y,-z
1/2+x,1/2-y,z
loop_
_atom_site_type_symbol
_atom_site_label
_atom_site_fract_x
_atom_site_fract_y
_atom_site_fract_z
Si Si1 0.235923 0.220175 0.755555
Si Si2 0.496781 0.283127 0.237841
Si Si3 0.698220 0.714665 0.931639
Si Si4 0.447714 0.280439 0.064666
Si Si5 0.116147 0.783194 0.646047
Si Si6 0.070204 0.290013 0.476868
Si Si7 0.370511 0.209942 0.684923
O O1 0.221293 0.280946 0.845266
O O2 0.178178 0.273980 0.696635
O O3 0.304815 0.283708 0.722361
O O4 0.236187 0.000000 0.757534
O O5 0.496208 0.500000 0.238426
O O6 0.469501 0.225515 0.152832
O O7 0.448496 0.222027 0.307695
O O8 0.569398 0.224158 0.255276
O O9 0.692851 0.500000 0.924355
O O10 0.625719 0.779836 0.950877
O O11 0.750000 0.750000 0.000000
O O12 0.447947 0.500000 0.063423
O O13 0.500000 0.220800 0.000000
O O14 0.113667 0.723145 0.555265
O O15 0.115626 0.000000 0.645871
O O16 0.058587 0.500000 0.458531
O O17 0.104126 0.211712 0.398726
O O18 0.000000 0.211077 0.500000
O O19 0.356607 0.000000 0.670197
#
# Coordination Sequence:
#
# PCOD9183469 Si02
#       7
#     8   8   8   8   8   8   8
#     4   9  19  37  56  75 104 142 176 207 256 316
#     4  10  19  33  55  80 104 134 176 218 254 301
#     4  10  20  36  56  78 107 139 172 211 258 310
#     4   9  18  33  54  79 106 137 171 211 259 306
#     4  10  19  34  57  78 100 136 178 216 255 304
#     4  10  20  34  51  76 108 138 170 211 264 314
#     4  10  21  36  54  75 105 143 174 207 260 317
#
# _framework density 21.613766999999999
#
# number of rings (size 3 to 8) (size 9 to 14) (size 15 to 20)
#    0.000    2.286    2.857    0.000    2.000    1.429 
#    0.000    2.143    0.000    0.857    0.000    0.000 
#    0.000    0.000    0.000    0.000    0.000    0.000 
#
# Total GULP energy -156433.763874 kJ/mol
# GULP energy per Si atom -5586.920138 kJ/mol
# Density = 2.156457 g / cm^3
# Si number density = 21.613767 Si / 1000 Ang^3
#
#
#
# Elastic Constant Matrix: (Units=GPa)
#
#
# Indices 1 2 3 4 5 6 
#
# 1 193.4219 -0.4365 90.2635 0.0000 -10.2784 0.0000
# 2 -0.4365 64.6157 -1.6877 0.0000 -11.6308 0.0000
# 3 90.2635 -1.6877 146.4668 0.0000 2.3551 0.0000
# 4 0.0000 0.0000 0.0000 1.3522 0.0000 16.1617
# 5 -10.2784 -11.6308 2.3551 0.0000 38.0843 0.0000
# 6 0.0000 0.0000 0.0000 16.1617 0.0000 8.7553
#
#
#
# Elastic Compliance Matrix: (Units=1/GPa)
#
#
# Indices 1 2 3 4 5 6 
#
# 1 0.007461 0.000363 -0.004632 0.000000 0.002411 0.000000
# 2 0.000363 0.016396 -0.000117 0.000000 0.005113 0.000000
# 3 -0.004632 -0.000117 0.009711 0.000000 -0.001887 0.000000
# 4 0.000000 0.000000 0.000000 -0.035111 0.000000 0.064812
# 5 0.002411 0.005113 -0.001887 0.000000 0.028586 0.000000
# 6 0.000000 0.000000 0.000000 0.064812 0.000000 -0.005423
#
#
# Mechanical properties :
#
#
# Convention : Reuss Voigt Hill
#
# Bulk Modulus (GPa) = 40.33025 64.53144 52.43084
# Shear Modulus (GPa) = 129.33751 30.72937 80.03344
#
# Velocity S-wave (km/s) = 7.74405 3.77470 6.09174
# Velocity P-wave (km/s) = 9.93279 6.99423 8.59010
#
# Compressibility (1/GPa) = 0.02479528
#
# Stress axis : x y z
#
# Youngs Moduli (GPa) = 134.03380 60.99135 102.97246
#
# Poissons Ratio (x) = -0.02216 0.47702
# Poissons Ratio (y) = -0.04871 0.01207
# Poissons Ratio (z) = 0.62091 0.00715
#
# Static dielectric constant tensor:
#      x y z
#    x 1.756280 0.000000 -0.019980 
#    y 0.000000 1.846210 0.000000 
#    z -0.019980 0.000000 1.750430 
# 
# From -- ./inp_files/230873.got.cif
#   From: 2010.05.17/outbox.cif.g08.bks.cpg/sg12_116_cif.got.tgz:230873.got - 2010.06.03 13:09:07.
