data_PCOD9183838
_publ_section_title
;
Structure prediction by ZEFSAII (Michael W. Deem and Ramdas Pophale) SiO2 
 PCOD9183838
Probable space group: C 2/M
;
_chemical_formula_sum "Si O2"
_cell_formula_units_Z 56
_cell_length_a 31.658529
_cell_length_b 9.150305
_cell_length_c 12.074622
_cell_angle_alpha 90.000000
_cell_angle_beta 117.028189
_cell_angle_gamma 90.000000
_cell_volume 3115.815935
_symmetry_space_group_name_H-M "C 2/M"
_symmetry_group_IT_number 12
_symmetry_cell_setting 'monoclinic'
loop_
_space_group_symop_operation_xyz
x,y,z
-x,y,-z
-x,-y,-z
x,-y,z
1/2+x,1/2+y,z
1/2-x,1/2+y,-z
1/2-x,1/2-y,-z
1/2+x,1/2-y,z
loop_
_atom_site_type_symbol
_atom_site_label
_atom_site_fract_x
_atom_site_fract_y
_atom_site_fract_z
Si Si1 0.913941 0.825292 0.714666
Si Si2 0.984077 0.674558 0.174458
Si Si3 0.550704 0.170061 0.621199
Si Si4 0.897066 0.675132 0.918900
Si Si5 0.191388 0.325624 0.030913
Si Si6 0.869765 0.825781 0.425484
Si Si7 0.210594 0.673951 0.801021
O O1 0.890709 0.757114 0.796188
O O2 0.885983 0.786812 0.569088
O O3 0.966856 0.759918 0.770372
O O4 0.916140 0.000000 0.725356
O O5 0.993772 0.500000 0.180545
O O6 0.957880 0.701881 0.260086
O O7 0.947929 0.712713 0.033293
O O8 0.500000 0.184304 0.500000
O O9 0.588909 0.270374 0.607271
O O10 0.565978 0.000000 0.629461
O O11 0.896635 0.500000 0.901022
O O12 0.855882 0.710136 0.957747
O O13 0.199823 0.500000 0.051291
O O14 0.236720 0.239655 0.130858
O O15 0.187919 0.294481 0.895581
O O16 0.821734 0.748663 0.329589
O O17 0.864955 0.000000 0.412407
O O18 0.211971 0.500000 0.788312
#
# Coordination Sequence:
#
# PCOD9183838 Si02
#       7
#     8   8   8   8   8   8   8
#     4  11  24  38  52  76 112 150 190 233 271 318
#     4  10  20  36  57  82 110 144 186 228 275 328
#     4  10  19  33  56  82 109 142 181 226 272 327
#     4  10  21  37  58  80 107 146 187 227 272 327
#     4   9  19  38  61  87 116 140 174 226 280 329
#     4  11  23  37  54  79 115 152 185 226 278 327
#     4  10  20  36  62  90 114 141 178 222 274 336
#
# _framework density 17.972819000000001
#
# number of rings (size 3 to 8) (size 9 to 14) (size 15 to 20)
#    0.000    1.857    1.429    2.571    0.000    8.286 
#    0.000    2.143    0.000    0.000    0.000    0.000 
#    0.000    0.000    0.000    0.000    0.000    0.000 
#
# Total GULP energy -156435.573774 kJ/mol
# GULP energy per Si atom -5586.984778 kJ/mol
# Density = 1.793191 g / cm^3
# Si number density = 17.972819 Si / 1000 Ang^3
#
#
#
# Elastic Constant Matrix: (Units=GPa)
#
#
# Indices 1 2 3 4 5 6 
#
# 1 65.6034 39.2442 58.1643 0.0000 5.3580 0.0000
# 2 39.2442 46.1691 59.7526 0.0000 6.4925 0.0000
# 3 58.1643 59.7526 121.2411 0.0000 10.6036 0.0000
# 4 0.0000 0.0000 0.0000 26.9356 0.0000 2.0670
# 5 5.3580 6.4925 10.6036 0.0000 18.4579 0.0000
# 6 0.0000 0.0000 0.0000 2.0670 0.0000 30.8644
#
#
#
# Elastic Compliance Matrix: (Units=1/GPa)
#
#
# Indices 1 2 3 4 5 6 
#
# 1 0.032268 -0.020489 -0.005468 0.000000 0.000981 0.000000
# 2 -0.020489 0.073146 -0.025785 0.000000 -0.004968 0.000000
# 3 -0.005468 -0.025785 0.023845 0.000000 -0.003041 0.000000
# 4 0.000000 0.000000 0.000000 0.037317 0.000000 -0.002499
# 5 0.000981 -0.004968 -0.003041 0.000000 0.057387 0.000000
# 6 0.000000 0.000000 0.000000 -0.002499 0.000000 0.032567
#
#
# Mechanical properties :
#
#
# Convention : Reuss Voigt Hill
#
# Bulk Modulus (GPa) = 38.79896 60.81509 49.80702
# Shear Modulus (GPa) = 13.56461 20.30840 16.93650
#
# Velocity S-wave (km/s) = 2.75021 3.36512 3.07309
# Velocity P-wave (km/s) = 5.63199 7.00067 6.35330
#
# Compressibility (1/GPa) = 0.02577389
#
# Stress axis : x y z
#
# Youngs Moduli (GPa) = 30.99093 13.67137 41.93679
#
# Poissons Ratio (x) = 0.28011 0.22932
# Poissons Ratio (y) = 0.63497 1.08136
# Poissons Ratio (z) = 0.16946 0.35252
#
# Static dielectric constant tensor:
#      x y z
#    x 1.595570 0.000000 -0.006240 
#    y 0.000000 1.594890 0.000000 
#    z -0.006240 0.000000 1.608470 
# 
# From -- ./inp_files/180856.got.cif
#   From: 2010.05.17/outbox.cif.g08.bks.cpg/sg12_91_cif.got.tgz:180856.got - 2010.06.03 13:09:07.
