data_PCOD9183839
_publ_section_title
;
Structure prediction by ZEFSAII (Michael W. Deem and Ramdas Pophale) SiO2 
 PCOD9183839
Probable space group: C 2/M
;
_chemical_formula_sum "Si O2"
_cell_formula_units_Z 48
_cell_length_a 14.444772
_cell_length_b 8.753143
_cell_length_c 20.678420
_cell_angle_alpha 90.000000
_cell_angle_beta 71.011106
_cell_angle_gamma 90.000000
_cell_volume 2472.242735
_symmetry_space_group_name_H-M "C 2/M"
_symmetry_group_IT_number 12
_symmetry_cell_setting 'monoclinic'
loop_
_space_group_symop_operation_xyz
x,y,z
-x,y,-z
-x,-y,-z
x,-y,z
1/2+x,1/2+y,z
1/2-x,1/2+y,-z
1/2-x,1/2-y,-z
1/2+x,1/2-y,z
loop_
_atom_site_type_symbol
_atom_site_label
_atom_site_fract_x
_atom_site_fract_y
_atom_site_fract_z
Si Si1 0.606500 0.184189 0.501113
Si Si2 0.389482 0.678762 0.847851
Si Si3 0.429279 0.175942 0.249213
Si Si4 0.793182 0.819220 0.056042
Si Si5 0.805261 0.817898 0.389168
Si Si6 0.459392 0.176325 0.098852
O O1 0.500000 0.228283 0.500000
O O2 0.693098 0.224705 0.431235
O O3 0.633145 0.260729 0.563013
O O4 0.608674 0.000000 0.509024
O O5 0.367902 0.500000 0.849508
O O6 0.467953 0.731588 0.776071
O O7 0.291552 0.777498 0.872671
O O8 0.449346 0.719245 0.900485
O O9 0.350499 0.244772 0.314992
O O10 0.398463 0.179421 0.180558
O O11 0.448885 0.000000 0.261551
O O12 0.892322 0.738937 0.057493
O O13 0.805837 0.000000 0.047888
O O14 0.750000 0.750000 0.000000
O O15 0.810978 0.000000 0.383003
O O16 0.489687 0.000000 0.081862
#
# Coordination Sequence:
#
# PCOD9183839 Si02
#       6
#     8   8   8   8   8   8
#     4   9  19  36  55  78 110 147 186 229 277 332
#     4  10  20  38  60  84 114 145 185 234 282 338
#     4   9  19  37  59  81 112 150 186 230 286 335
#     4  12  24  39  60  86 115 151 190 233 284 339
#     4  10  19  33  56  82 109 144 186 232 279 331
#     4   9  20  39  59  83 113 147 187 233 281 335
#
# _framework density 19.415569999999999
#
# number of rings (size 3 to 8) (size 9 to 14) (size 15 to 20)
#    1.000    1.167    0.000    4.000    0.000    1.667 
#    3.000    3.333    0.000    0.000    0.000    0.000 
#    0.000    0.000    0.000    0.000    0.000    0.000 
#
# Total GULP energy -133844.706186 kJ/mol
# GULP energy per Si atom -5576.862758 kJ/mol
# Density = 1.937138 g / cm^3
# Si number density = 19.415570 Si / 1000 Ang^3
#
#
#
# Elastic Constant Matrix: (Units=GPa)
#
#
# Indices 1 2 3 4 5 6 
#
# 1 73.8173 7.3523 2.7963 0.0000 -10.7573 0.0000
# 2 7.3523 84.6490 11.1846 0.0000 -2.2462 0.0000
# 3 2.7963 11.1846 84.3888 0.0000 -15.2578 0.0000
# 4 0.0000 0.0000 0.0000 34.7298 0.0000 -0.9797
# 5 -10.7573 -2.2462 -15.2578 0.0000 13.0002 0.0000
# 6 0.0000 0.0000 0.0000 -0.9797 0.0000 27.9384
#
#
#
# Elastic Compliance Matrix: (Units=1/GPa)
#
#
# Indices 1 2 3 4 5 6 
#
# 1 0.015895 -0.001292 0.002516 0.000000 0.015882 0.000000
# 2 -0.001292 0.012130 -0.001751 0.000000 -0.001028 0.000000
# 3 0.002516 -0.001751 0.015639 0.000000 0.020134 0.000000
# 4 0.000000 0.000000 0.000000 0.028822 0.000000 0.001011
# 5 0.015882 -0.001028 0.020134 0.000000 0.113517 0.000000
# 6 0.000000 0.000000 0.000000 0.001011 0.000000 0.035828
#
#
# Mechanical properties :
#
#
# Convention : Reuss Voigt Hill
#
# Bulk Modulus (GPa) = 23.46805 31.72461 27.59633
# Shear Modulus (GPa) = 21.08933 29.90182 25.49557
#
# Velocity S-wave (km/s) = 3.29934 3.92866 3.62767
# Velocity P-wave (km/s) = 5.16020 6.07902 5.63836
#
# Compressibility (1/GPa) = 0.04261113
#
# Stress axis : x y z
#
# Youngs Moduli (GPa) = 62.91362 82.44220 63.94320
#
# Poissons Ratio (x) = 0.10648 -0.16089
# Poissons Ratio (y) = 0.08126 0.11194
# Poissons Ratio (z) = -0.15829 0.14433
#
# Static dielectric constant tensor:
#      x y z
#    x 1.668610 0.000000 -0.029640 
#    y 0.000000 1.644970 0.000000 
#    z -0.029640 0.000000 1.719710 
# 
# From -- ./inp_files/337547.got.cif
#   From: 2010.05.17/outbox.cif.g08.bks.cpg/sg12_169_cif.got.tgz:337547.got - 2010.06.03 13:09:07.
