data_PCOD9183704
_publ_section_title
;
Structure prediction by ZEFSAII (Michael W. Deem and Ramdas Pophale) SiO2 
 PCOD9183704
Probable space group: C 2/M
;
_chemical_formula_sum "Si O2"
_cell_formula_units_Z 56
_cell_length_a 7.958094
_cell_length_b 30.006158
_cell_length_c 11.927001
_cell_angle_alpha 90.000000
_cell_angle_beta 59.276128
_cell_angle_gamma 90.000000
_cell_volume 2448.313717
_symmetry_space_group_name_H-M "C 2/M"
_symmetry_group_IT_number 12
_symmetry_cell_setting 'monoclinic'
loop_
_space_group_symop_operation_xyz
x,y,z
-x,y,-z
-x,-y,-z
x,-y,z
1/2+x,1/2+y,z
1/2-x,1/2+y,-z
1/2-x,1/2-y,-z
1/2+x,1/2-y,z
loop_
_atom_site_type_symbol
_atom_site_label
_atom_site_fract_x
_atom_site_fract_y
_atom_site_fract_z
Si Si1 0.805303 0.590941 0.103106
Si Si2 0.236842 0.652967 0.303260
Si Si3 0.296442 0.578510 0.102102
Si Si4 0.206017 0.314619 0.788027
Si Si5 0.344183 0.049871 0.303498
Si Si6 0.726390 0.859137 0.557363
Si Si7 0.506446 0.273010 0.864531
O O1 0.855901 0.636708 0.148584
O O2 0.726251 0.559352 0.227257
O O3 0.720902 0.603073 0.011965
O O4 0.000000 0.565397 0.000000
O O5 0.318240 0.614297 0.194411
O O6 0.311133 0.646288 0.404680
O O7 0.302806 0.701319 0.242500
O O8 0.004697 0.650219 0.375587
O O9 0.082937 0.556265 0.202493
O O10 0.500000 0.552472 0.000000
O O11 0.292815 0.326286 0.635186
O O12 0.340869 0.293594 0.840012
O O13 0.030708 0.279583 0.837166
O O14 0.267692 0.089187 0.408960
O O15 0.312519 0.000000 0.354439
O O16 0.500000 0.281212 0.000000
#
# Coordination Sequence:
#
# PCOD9183704 Si02
#       7
#     8   8   8   8   8   8   8
#     4   9  18  33  55  79 112 149 186 227 279 342
#     4  10  20  38  58  81 112 152 195 239 286 334
#     4  10  19  33  55  85 117 148 182 231 292 344
#     4  11  22  37  55  84 116 152 192 235 284 335
#     4   9  19  36  59  84 110 148 193 236 283 344
#     4   9  21  40  60  81 112 153 198 242 284 335
#     4  12  24  36  59  88 119 151 190 238 286 346
#
# _framework density 22.872886000000001
#
# number of rings (size 3 to 8) (size 9 to 14) (size 15 to 20)
#    0.000    2.000    0.000    4.714    0.000    4.000 
#    0.000    5.714    0.000    0.000    0.000   13.000 
#    0.000    0.000    0.000    0.000    0.000    0.000 
#
# Total GULP energy -155919.235790 kJ/mol
# GULP energy per Si atom -5568.544135 kJ/mol
# Density = 2.282083 g / cm^3
# Si number density = 22.872886 Si / 1000 Ang^3
#
#
#
# Elastic Constant Matrix: (Units=GPa)
#
#
# Indices 1 2 3 4 5 6 
#
# 1 81.5533 15.4229 45.4521 0.0000 23.5527 0.0000
# 2 15.4229 81.8744 17.7357 0.0000 14.7670 0.0000
# 3 45.4521 17.7357 110.6410 0.0000 41.8790 0.0000
# 4 0.0000 0.0000 0.0000 1.3978 0.0000 -0.0405
# 5 23.5527 14.7670 41.8790 0.0000 37.5677 0.0000
# 6 0.0000 0.0000 0.0000 -0.0405 0.0000 -2.5326
#
#
#
# Elastic Compliance Matrix: (Units=1/GPa)
#
#
# Indices 1 2 3 4 5 6 
#
# 1 0.016506 -0.001255 -0.004929 0.000000 -0.004360 0.000000
# 2 -0.001255 0.013246 0.000113 0.000000 -0.004545 0.000000
# 3 -0.004929 0.000113 0.017113 0.000000 -0.016031 0.000000
# 4 0.000000 0.000000 0.000000 0.715100 0.000000 -0.011440
# 5 -0.004360 -0.004545 -0.016031 0.000000 0.049009 0.000000
# 6 0.000000 0.000000 0.000000 -0.011440 0.000000 -0.394668
#
#
# Mechanical properties :
#
#
# Convention : Reuss Voigt Hill
#
# Bulk Modulus (GPa) = 28.80071 47.92112 38.36092
# Shear Modulus (GPa) = 11.36306 20.31711 15.84009
#
# Velocity S-wave (km/s) = 2.23130 2.98361 2.63445
# Velocity P-wave (km/s) = 4.38831 5.73287 5.10505
#
# Compressibility (1/GPa) = 0.03472136
#
# Stress axis : x y z
#
# Youngs Moduli (GPa) = 60.58562 75.49655 58.43513
#
# Poissons Ratio (x) = 0.09476 0.28804
# Poissons Ratio (y) = 0.07604 -0.00659
# Poissons Ratio (z) = 0.29864 -0.00852
#
# Static dielectric constant tensor:
#      x y z
#    x 2.033530 0.000000 -0.022160 
#    y 0.000000 1.783750 0.000000 
#    z -0.022160 0.000000 1.880580 
# 
# From -- ./inp_files/125609.got.cif
#   From: 2010.05.17/outbox.cif.g08.bks.cpg/sg12_63_cif.got.tgz:125609.got - 2010.06.03 13:09:07.
