data_PCOD9183763
_publ_section_title
;
Structure prediction by ZEFSAII (Michael W. Deem and Ramdas Pophale) SiO2 
 PCOD9183763
Probable space group: C 2/M
;
_chemical_formula_sum "Si O2"
_cell_formula_units_Z 56
_cell_length_a 8.504052
_cell_length_b 29.000610
_cell_length_c 17.144969
_cell_angle_alpha 90.000000
_cell_angle_beta 141.128852
_cell_angle_gamma 90.000000
_cell_volume 2653.582957
_symmetry_space_group_name_H-M "C 2/M"
_symmetry_group_IT_number 12
_symmetry_cell_setting 'monoclinic'
loop_
_space_group_symop_operation_xyz
x,y,z
-x,y,-z
-x,-y,-z
x,-y,z
1/2+x,1/2+y,z
1/2-x,1/2+y,-z
1/2-x,1/2-y,-z
1/2+x,1/2-y,z
loop_
_atom_site_type_symbol
_atom_site_label
_atom_site_fract_x
_atom_site_fract_y
_atom_site_fract_z
Si Si1 0.084931 0.362765 0.345994
Si Si2 0.998778 0.739904 0.718592
Si Si3 0.769371 0.053714 0.804771
Si Si4 0.307255 0.129014 0.795840
Si Si5 0.504122 0.224200 0.113349
Si Si6 0.283606 0.333151 0.578418
Si Si7 0.169771 0.552429 0.954020
O O1 0.177437 0.371657 0.293315
O O2 0.282650 0.353802 0.490763
O O3 0.961227 0.311547 0.298116
O O4 0.907199 0.406156 0.297316
O O5 0.268940 0.757897 0.849981
O O6 0.869028 0.733463 0.752337
O O7 0.849321 0.778678 0.613069
O O8 0.717323 0.054054 0.878239
O O9 0.727759 0.000000 0.763538
O O10 0.061652 0.066112 0.906583
O O11 0.501199 0.169447 0.895011
O O12 0.428211 0.083152 0.876051
O O13 0.024925 0.142232 0.711226
O O14 0.250000 0.250000 0.000000
O O15 0.000000 0.340629 0.500000
O O16 0.122452 0.500000 0.957335
#
# Coordination Sequence:
#
# PCOD9183763 Si02
#       7
#     8   8   8   8   8   8   8
#     4  10  19  33  56  79 106 137 180 224 260 309
#     4  10  21  34  50  77 103 143 182 213 262 313
#     4   8  15  28  52  85 112 134 167 216 278 326
#     4   9  20  34  53  82 105 137 178 218 271 317
#     4  10  20  33  50  75 112 139 170 215 266 319
#     4  11  22  37  52  71 108 146 188 221 256 306
#     4   8  14  29  53  82 112 135 165 219 276 332
#
# _framework density 21.103542999999998
#
# number of rings (size 3 to 8) (size 9 to 14) (size 15 to 20)
#    0.000    2.571    0.000    3.000    2.000    2.286 
#    0.000    0.714    0.000    5.143    0.000    2.000 
#    0.000    0.000    0.000    0.000    0.000    0.000 
#
# Total GULP energy -155876.475311 kJ/mol
# GULP energy per Si atom -5567.016975 kJ/mol
# Density = 2.105551 g / cm^3
# Si number density = 21.103543 Si / 1000 Ang^3
#
#
#
# Elastic Constant Matrix: (Units=GPa)
#
#
# Indices 1 2 3 4 5 6 
#
# 1 48.6325 26.8103 26.8184 0.0000 20.8590 0.0000
# 2 26.8103 123.6027 68.3326 0.0000 22.7619 0.0000
# 3 26.8184 68.3326 82.4000 0.0000 15.0071 0.0000
# 4 0.0000 0.0000 0.0000 111.4306 0.0000 55.7711
# 5 20.8590 22.7619 15.0071 0.0000 32.4079 0.0000
# 6 0.0000 0.0000 0.0000 55.7711 0.0000 49.1803
#
#
#
# Elastic Compliance Matrix: (Units=1/GPa)
#
#
# Indices 1 2 3 4 5 6 
#
# 1 0.031960 0.000496 -0.007648 0.000000 -0.017377 0.000000
# 2 0.000496 0.015793 -0.012210 0.000000 -0.005758 0.000000
# 3 -0.007648 -0.012210 0.024345 0.000000 0.002225 0.000000
# 4 0.000000 0.000000 0.000000 0.020753 0.000000 -0.023534
# 5 -0.017377 -0.005758 0.002225 0.000000 0.045055 0.000000
# 6 0.000000 0.000000 0.000000 -0.023534 0.000000 0.047022
#
#
# Mechanical properties :
#
#
# Convention : Reuss Voigt Hill
#
# Bulk Modulus (GPa) = 29.96316 55.39530 42.67923
# Shear Modulus (GPa) = 21.29676 47.44870 34.37273
#
# Velocity S-wave (km/s) = 3.18017 4.74685 4.04018
# Velocity P-wave (km/s) = 5.26437 7.50664 6.48318
#
# Compressibility (1/GPa) = 0.03337431
#
# Stress axis : x y z
#
# Youngs Moduli (GPa) = 31.28913 63.31825 41.07553
#
# Poissons Ratio (x) = -0.03142 0.31417
# Poissons Ratio (y) = -0.01552 0.50153
# Poissons Ratio (z) = 0.23931 0.77311
#
# Static dielectric constant tensor:
#      x y z
#    x 1.874070 0.000000 -0.034070 
#    y 0.000000 1.770840 0.000000 
#    z -0.034070 0.000000 1.793250 
# 
# From -- ./inp_files/260172.got.cif
#   From: 2010.05.17/outbox.cif.g08.bks.cpg/sg12_131_cif.got.tgz:260172.got - 2010.06.03 13:09:07.
