data_PCOD9183326
_publ_section_title
;
Structure prediction by ZEFSAII (Michael W. Deem and Ramdas Pophale) SiO2 
 PCOD9183326
Probable space group: C 2/M
;
_chemical_formula_sum "Si O2"
_cell_formula_units_Z 56
_cell_length_a 18.453175
_cell_length_b 26.929897
_cell_length_c 8.949613
_cell_angle_alpha 90.000000
_cell_angle_beta 136.124000
_cell_angle_gamma 90.000000
_cell_volume 3082.520065
_symmetry_space_group_name_H-M "C 2/M"
_symmetry_group_IT_number 12
_symmetry_cell_setting 'monoclinic'
loop_
_space_group_symop_operation_xyz
x,y,z
-x,y,-z
-x,-y,-z
x,-y,z
1/2+x,1/2+y,z
1/2-x,1/2+y,-z
1/2-x,1/2-y,-z
1/2+x,1/2-y,z
loop_
_atom_site_type_symbol
_atom_site_label
_atom_site_fract_x
_atom_site_fract_y
_atom_site_fract_z
Si Si1 0.683047 0.442000 0.122799
Si Si2 0.695103 0.445835 0.497049
Si Si3 0.266731 0.307473 0.995330
Si Si4 0.052099 0.845133 0.915810
Si Si5 0.615735 0.105378 0.742091
Si Si6 0.094897 0.139540 0.544404
Si Si7 0.415238 0.056407 0.984125
O O1 0.661016 0.500000 0.055289
O O2 0.694275 0.437131 0.318739
O O3 0.791977 0.425530 0.205733
O O4 0.591722 0.402375 0.948284
O O5 0.645365 0.500000 0.449821
O O6 0.644908 0.402640 0.518279
O O7 0.812116 0.447668 0.732069
O O8 0.342605 0.315177 0.965035
O O9 0.326488 0.333262 0.225731
O O10 0.250000 0.250000 0.000000
O O11 0.161366 0.338794 0.812567
O O12 0.966720 0.827167 0.667861
O O13 0.000000 0.841514 0.000000
O O14 0.500000 0.101382 0.500000
O O15 0.606901 0.085242 0.897368
O O16 0.000000 0.117775 0.500000
O O17 0.450273 0.000000 0.075933
O O18 0.500000 0.079969 0.000000
#
# Coordination Sequence:
#
# PCOD9183326 Si02
#       7
#     8   8   8   8   8   8   8
#     4  10  21  35  56  89 125 161 196 230 276 342
#     4  10  19  33  54  82 120 157 192 229 273 339
#     4  10  23  43  63  83 111 148 194 251 307 354
#     4  10  20  37  63  88 119 153 190 235 289 344
#     4  11  22  37  59  83 113 152 198 248 299 350
#     4  10  20  37  59  83 115 156 185 234 288 343
#     4  10  20  34  53  80 116 157 195 234 282 339
#
# _framework density 18.166954
#
# number of rings (size 3 to 8) (size 9 to 14) (size 15 to 20)
#    0.000    1.857    2.857    1.286    0.000    5.143 
#    0.000    1.429    0.000    0.000    0.000    0.000 
#    0.000    0.000    0.000    0.000    0.000    0.000 
#
# Total GULP energy -156026.348729 kJ/mol
# GULP energy per Si atom -5572.369597 kJ/mol
# Density = 1.812561 g / cm^3
# Si number density = 18.166954 Si / 1000 Ang^3
#
#
#
# Elastic Constant Matrix: (Units=GPa)
#
#
# Indices 1 2 3 4 5 6 
#
# 1 126.3541 44.3509 13.7858 0.0000 -5.0158 0.0000
# 2 44.3509 93.5977 2.9097 0.0000 -0.6956 0.0000
# 3 13.7858 2.9097 74.1609 0.0000 -3.2317 0.0000
# 4 0.0000 0.0000 0.0000 -29.6178 0.0000 30.7118
# 5 -5.0158 -0.6956 -3.2317 0.0000 23.0669 0.0000
# 6 0.0000 0.0000 0.0000 30.7118 0.0000 -19.3830
#
#
#
# Elastic Compliance Matrix: (Units=1/GPa)
#
#
# Indices 1 2 3 4 5 6 
#
# 1 0.009755 -0.004561 -0.001558 0.000000 0.001765 0.000000
# 2 -0.004561 0.012831 0.000320 0.000000 -0.000560 0.000000
# 3 -0.001558 0.000320 0.013831 0.000000 0.001609 0.000000
# 4 0.000000 0.000000 0.000000 0.052510 0.000000 0.083200
# 5 0.001765 -0.000560 0.001609 0.000000 0.043945 0.000000
# 6 0.000000 0.000000 0.000000 0.083200 0.000000 0.080237
#
#
# Mechanical properties :
#
#
# Convention : Reuss Voigt Hill
#
# Bulk Modulus (GPa) = 40.28895 46.24505 43.26700
# Shear Modulus (GPa) = 21.46117 10.35097 15.90607
#
# Velocity S-wave (km/s) = 3.44078 2.38957 2.96218
# Velocity P-wave (km/s) = 6.16526 5.75537 5.96384
#
# Compressibility (1/GPa) = 0.02482070
#
# Stress axis : x y z
#
# Youngs Moduli (GPa) = 102.50955 77.93571 72.29990
#
# Poissons Ratio (x) = 0.35546 0.11261
# Poissons Ratio (y) = 0.46754 -0.02314
# Poissons Ratio (z) = 0.15966 -0.02494
#
# Static dielectric constant tensor:
#      x y z
#    x 1.642740 0.000000 0.023170 
#    y 0.000000 1.630310 0.000000 
#    z 0.023170 0.000000 1.661500 
# 
# From -- ./inp_files/53136.got.cif
#   From: 2010.05.17/outbox.cif.g08.bks.cpg/sg12_27_cif.got.tgz:53136.got - 2010.06.03 13:09:07.
