data_PCOD9183844
_publ_section_title
;
Structure prediction by ZEFSAII (Michael W. Deem and Ramdas Pophale) SiO2 
 PCOD9183844
Probable space group: C 2/M
;
_chemical_formula_sum "Si O2"
_cell_formula_units_Z 56
_cell_length_a 18.556288
_cell_length_b 7.688057
_cell_length_c 31.098989
_cell_angle_alpha 90.000000
_cell_angle_beta 138.941173
_cell_angle_gamma 90.000000
_cell_volume 2914.132573
_symmetry_space_group_name_H-M "C 2/M"
_symmetry_group_IT_number 12
_symmetry_cell_setting 'monoclinic'
loop_
_space_group_symop_operation_xyz
x,y,z
-x,y,-z
-x,-y,-z
x,-y,z
1/2+x,1/2+y,z
1/2-x,1/2+y,-z
1/2-x,1/2-y,-z
1/2+x,1/2-y,z
loop_
_atom_site_type_symbol
_atom_site_label
_atom_site_fract_x
_atom_site_fract_y
_atom_site_fract_z
Si Si1 0.779201 0.709941 0.691708
Si Si2 0.875399 0.290767 0.567137
Si Si3 0.447875 0.211388 0.694025
Si Si4 0.802804 0.197948 0.172999
Si Si5 0.865288 0.705500 0.824310
Si Si6 0.318254 0.500000 0.925209
Si Si7 0.028775 0.293862 0.559954
Si Si8 0.005859 0.000000 0.074206
O O1 0.776846 0.500000 0.690010
O O2 0.860885 0.768877 0.690838
O O3 0.823695 0.760530 0.758606
O O4 0.656120 0.771241 0.627926
O O5 0.886699 0.500000 0.573574
O O6 0.750000 0.250000 0.500000
O O7 0.911172 0.227377 0.630296
O O8 0.953814 0.221757 0.564618
O O9 0.569756 0.272137 0.760174
O O10 0.449099 0.000000 0.694632
O O11 0.734004 0.226778 0.186128
O O12 0.756304 0.332206 0.117294
O O13 0.783507 0.000000 0.150816
O O14 0.894153 0.500000 0.836520
O O15 0.962597 0.829192 0.884415
O O16 0.409734 0.500000 0.928326
O O17 0.385301 0.500000 0.999572
O O18 0.004948 0.500000 0.547444
O O19 0.000000 0.220367 0.500000
#
# Coordination Sequence:
#
# PCOD9183844 Si02
#       8
#     8   8   8   8   8   4   8   4
#     4  10  21  35  53  78 105 141 182 233 277 323
#     4  10  21  35  53  76 105 144 183 228 281 331
#     4  10  20  35  53  76 107 144 184 233 278 328
#     4  10  19  33  56  82 110 146 181 226 279 325
#     4   9  19  34  53  83 112 139 186 230 268 333
#     4   9  18  34  54  86 118 138 182 227 267 337
#     4  10  21  35  51  75 108 142 182 233 278 329
#     4   9  18  32  58  84 111 152 173 217 291 321
#
# _framework density 19.216695000000001
#
# number of rings (size 3 to 8) (size 9 to 14) (size 15 to 20)
#    0.000    2.286    0.714    1.714    1.000    2.571 
#    0.000    2.857    0.000    0.857    0.000    0.000 
#    0.000    0.000    0.000    0.000    0.000    0.000 
#
# Total GULP energy -156345.174266 kJ/mol
# GULP energy per Si atom -5583.756224 kJ/mol
# Density = 1.917296 g / cm^3
# Si number density = 19.216695 Si / 1000 Ang^3
#
#
#
# Elastic Constant Matrix: (Units=GPa)
#
#
# Indices 1 2 3 4 5 6 
#
# 1 115.9334 40.8059 84.6335 0.0000 -1.3149 0.0002
# 2 40.8059 57.4385 44.9816 -0.0002 -4.4465 0.0005
# 3 84.6335 44.9816 186.9010 0.0000 -3.6970 0.0000
# 4 0.0000 -0.0002 0.0000 20.1970 0.0000 -0.6275
# 5 -1.3149 -4.4465 -3.6970 0.0000 25.4241 0.0000
# 6 0.0002 0.0005 0.0000 -0.6275 0.0000 0.4206
#
#
#
# Elastic Compliance Matrix: (Units=1/GPa)
#
#
# Indices 1 2 3 4 5 6 
#
# 1 0.014598 -0.006486 -0.005072 0.000000 -0.001117 0.000002
# 2 -0.006486 0.024567 -0.002906 -0.000001 0.003539 -0.000029
# 3 -0.005072 -0.002906 0.008355 0.000000 0.000444 0.000006
# 4 0.000000 -0.000001 0.000000 0.051919 0.000000 0.077454
# 5 -0.001117 0.003539 0.000444 0.000000 0.039959 -0.000002
# 6 0.000002 -0.000029 0.000006 0.077454 -0.000002 2.493038
#
#
# Mechanical properties :
#
#
# Convention : Reuss Voigt Hill
#
# Bulk Modulus (GPa) = 53.77993 77.90167 65.84080
# Shear Modulus (GPa) = 1.87437 21.86512 11.86975
#
# Velocity S-wave (km/s) = 0.98869 3.37682 2.48801
# Velocity P-wave (km/s) = 5.41758 7.47197 6.52612
#
# Compressibility (1/GPa) = 0.01859430
#
# Stress axis : x y z
#
# Youngs Moduli (GPa) = 68.50184 40.70504 119.68777
#
# Poissons Ratio (x) = 0.26400 0.60701
# Poissons Ratio (y) = 0.44428 0.34777
# Poissons Ratio (z) = 0.34741 0.11828
#
# Static dielectric constant tensor:
#      x y z
#    x 1.663220 0.000000 -0.021180 
#    y 0.000000 1.687840 0.000000 
#    z -0.021180 0.000000 1.621010 
# 
# From -- ./inp_files/377781.got.cif
#   From: 2010.05.17/outbox.cif.g08.bks.cpg/sg12_189_cif.got.tgz:377781.got - 2010.06.03 13:09:07.
