data_PCOD9183964
_publ_section_title
;
Structure prediction by ZEFSAII (Michael W. Deem and Ramdas Pophale) SiO2 
 PCOD9183964
Probable space group: C 2/M
;
_chemical_formula_sum "Si O2"
_cell_formula_units_Z 64
_cell_length_a 23.471314
_cell_length_b 13.710907
_cell_length_c 12.784232
_cell_angle_alpha 90.000000
_cell_angle_beta 110.641612
_cell_angle_gamma 90.000000
_cell_volume 3850.020277
_symmetry_space_group_name_H-M "C 2/M"
_symmetry_group_IT_number 12
_symmetry_cell_setting 'monoclinic'
loop_
_space_group_symop_operation_xyz
x,y,z
-x,y,-z
-x,-y,-z
x,-y,z
1/2+x,1/2+y,z
1/2-x,1/2+y,-z
1/2-x,1/2-y,-z
1/2+x,1/2-y,z
loop_
_atom_site_type_symbol
_atom_site_label
_atom_site_fract_x
_atom_site_fract_y
_atom_site_fract_z
Si Si1 0.929135 0.316953 0.991836
Si Si2 0.885865 0.889749 0.668289
Si Si3 0.642571 0.115387 0.626336
Si Si4 0.558974 0.115110 0.764578
Si Si5 0.347324 0.888258 0.751076
Si Si6 0.263738 0.717600 0.627487
Si Si7 0.570154 0.191285 0.385149
Si Si8 0.071458 0.105776 0.068573
O O1 0.887464 0.373041 0.881210
O O2 0.907219 0.204144 0.973242
O O3 0.926872 0.357609 0.106999
O O4 0.000000 0.320733 0.000000
O O5 0.816246 0.863697 0.650689
O O6 0.911687 0.805094 0.611131
O O7 0.919782 0.880968 0.801742
O O8 0.891980 0.000000 0.633196
O O9 0.614940 0.133617 0.722828
O O10 0.703446 0.175082 0.640523
O O11 0.591983 0.146787 0.508399
O O12 0.654355 0.000000 0.622396
O O13 0.500008 0.173328 0.686136
O O14 0.544111 0.000000 0.748899
O O15 0.293259 0.809329 0.707386
O O16 0.390889 0.861338 0.681305
O O17 0.326935 0.000000 0.729636
O O18 0.250000 0.750000 0.500000
O O19 0.098893 0.000000 0.057384
O O20 0.000000 0.100628 0.000000
#
# Coordination Sequence:
#
# PCOD9183964 Si02
#       8
#     8   8   8   8   8   8   8   8
#     4  11  19  34  56  86 118 143 181 234 284 340
#     4  10  19  33  56  86 112 139 184 232 277 326
#     4  11  23  39  57  81 115 153 191 228 274 335
#     4  11  23  36  57  85 116 153 182 223 287 345
#     4  11  21  33  56  87 116 141 180 237 290 328
#     4  11  21  37  55  82 110 144 190 233 274 319
#     4  11  19  35  56  87 117 144 181 231 284 333
#     4   9  16  29  50  78 110 141 174 220 275 324
#
# _framework density 16.623289
#
# number of rings (size 3 to 8) (size 9 to 14) (size 15 to 20)
#    0.000    1.375    6.250    3.000    0.000    2.000 
#    0.000    0.625    0.000    3.750    0.000    0.000 
#    0.000    0.000    0.000    0.000    0.000    0.000 
#
# Total GULP energy -178516.466987 kJ/mol
# GULP energy per Si atom -5578.639593 kJ/mol
# Density = 1.658545 g / cm^3
# Si number density = 16.623289 Si / 1000 Ang^3
#
#
#
# Elastic Constant Matrix: (Units=GPa)
#
#
# Indices 1 2 3 4 5 6 
#
# 1 52.9785 39.2657 37.2198 0.0000 -12.1563 0.0000
# 2 39.2657 111.5748 26.2876 0.0000 -9.3414 0.0000
# 3 37.2198 26.2876 98.3384 0.0000 -4.9606 0.0000
# 4 0.0000 0.0000 0.0000 61.1445 0.0000 72.5496
# 5 -12.1563 -9.3414 -4.9606 0.0000 22.8199 0.0000
# 6 0.0000 0.0000 0.0000 72.5496 0.0000 165.6987
#
#
#
# Elastic Compliance Matrix: (Units=1/GPa)
#
#
# Indices 1 2 3 4 5 6 
#
# 1 0.036058 -0.009100 -0.010550 0.000000 0.013190 0.000000
# 2 -0.009100 0.012129 0.000210 0.000000 0.000163 0.000000
# 3 -0.010550 0.000210 0.013980 0.000000 -0.002495 0.000000
# 4 0.000000 0.000000 0.000000 0.034038 0.000000 -0.014903
# 5 0.013190 0.000163 -0.002495 0.000000 0.050372 0.000000
# 6 0.000000 0.000000 0.000000 -0.014903 0.000000 0.012560
#
#
# Mechanical properties :
#
#
# Convention : Reuss Voigt Hill
#
# Bulk Modulus (GPa) = 42.93980 52.04866 47.49423
# Shear Modulus (GPa) = 24.29788 60.60718 42.45253
#
# Velocity S-wave (km/s) = 3.82734 6.04470 5.05899
# Velocity P-wave (km/s) = 6.73933 8.94966 7.92196
#
# Compressibility (1/GPa) = 0.02328842
#
# Stress axis : x y z
#
# Youngs Moduli (GPa) = 27.73291 82.44553 71.53140
#
# Poissons Ratio (x) = 0.75024 0.75463
# Poissons Ratio (y) = 0.25237 -0.01503
# Poissons Ratio (z) = 0.29257 -0.01732
#
# Static dielectric constant tensor:
#      x y z
#    x 1.520200 0.000000 -0.008940 
#    y 0.000000 1.598880 0.000000 
#    z -0.008940 0.000000 1.519430 
# 
# From -- ./inp_files/167303.got.cif
#   From: 2010.05.17/outbox.cif.g08.bks.cpg/sg12_84_cif.got.tgz:167303.got - 2010.06.03 13:09:07.
