data_PCOD9183617
_publ_section_title
;
Structure prediction by ZEFSAII (Michael W. Deem and Ramdas Pophale) SiO2 
 PCOD9183617
Probable space group: C 2/M
;
_chemical_formula_sum "Si O2"
_cell_formula_units_Z 48
_cell_length_a 9.539946
_cell_length_b 14.737551
_cell_length_c 14.886655
_cell_angle_alpha 90.000000
_cell_angle_beta 125.562428
_cell_angle_gamma 90.000000
_cell_volume 1702.615088
_symmetry_space_group_name_H-M "C 2/M"
_symmetry_group_IT_number 12
_symmetry_cell_setting 'monoclinic'
loop_
_space_group_symop_operation_xyz
x,y,z
-x,y,-z
-x,-y,-z
x,-y,z
1/2+x,1/2+y,z
1/2-x,1/2+y,-z
1/2-x,1/2-y,-z
1/2+x,1/2-y,z
loop_
_atom_site_type_symbol
_atom_site_label
_atom_site_fract_x
_atom_site_fract_y
_atom_site_fract_z
Si Si1 0.188267 0.843057 0.105334
Si Si2 0.439542 0.305332 0.599595
Si Si3 0.629609 0.892222 0.388333
Si Si4 0.178036 0.653432 0.207664
Si Si5 0.265347 0.097752 0.956242
Si Si6 0.370860 0.598744 0.740716
O O1 0.161762 0.749771 0.149913
O O2 0.241130 0.902671 0.210314
O O3 0.297293 0.836950 0.053827
O O4 0.000000 0.872888 0.000000
O O5 0.458324 0.196461 0.595526
O O6 0.326770 0.360486 0.486112
O O7 0.622292 0.349130 0.688119
O O8 0.338643 0.323182 0.656788
O O9 0.592227 0.876723 0.268394
O O10 0.606417 0.000000 0.402765
O O11 0.140830 0.595461 0.104939
O O12 0.067532 0.110516 0.848535
O O13 0.274593 0.000000 0.004382
O O14 0.355178 0.500000 0.690508
#
# Coordination Sequence:
#
# PCOD9183617 Si02
#       6
#     8   8   8   8   8   8
#     4  10  19  33  55  82 117 159 197 242 295 348
#     4  10  22  39  62  89 121 154 197 250 305 360
#     4  11  23  41  65  91 121 157 199 250 307 367
#     4  11  21  37  61  86 120 159 203 245 298 356
#     4   9  18  31  51  82 111 146 197 247 285 339
#     4   9  16  31  55  83 112 146 192 243 294 346
#
# _framework density 28.191925999999999
#
# number of rings (size 3 to 8) (size 9 to 14) (size 15 to 20)
#    0.000    2.000    1.667    2.500    0.000    4.667 
#    0.000    1.667    0.000    3.000    0.000    0.000 
#    0.000    0.000    0.000    0.000    0.000    0.000 
#
# Total GULP energy -133857.011678 kJ/mol
# GULP energy per Si atom -5577.375487 kJ/mol
# Density = 2.812776 g / cm^3
# Si number density = 28.191926 Si / 1000 Ang^3
#
#
#
# Elastic Constant Matrix: (Units=GPa)
#
#
# Indices 1 2 3 4 5 6 
#
# 1 63.0359 -7.7036 51.9130 0.0000 -15.2061 0.0000
# 2 -7.7036 190.6146 46.9073 0.0000 -13.2276 0.0000
# 3 51.9130 46.9073 184.3410 0.0000 -20.6777 0.0000
# 4 0.0000 0.0000 0.0000 37.2530 0.0000 -0.6296
# 5 -15.2061 -13.2276 -20.6777 0.0000 65.0317 0.0000
# 6 0.0000 0.0000 0.0000 -0.6296 0.0000 -44.6563
#
#
#
# Elastic Compliance Matrix: (Units=1/GPa)
#
#
# Indices 1 2 3 4 5 6 
#
# 1 0.022593 0.002811 -0.006658 0.000000 0.003737 0.000000
# 2 0.002811 0.005978 -0.002180 0.000000 0.001180 0.000000
# 3 -0.006658 -0.002180 0.007912 0.000000 0.000515 0.000000
# 4 0.000000 0.000000 0.000000 0.026837 0.000000 -0.000378
# 5 0.003737 0.001180 0.000515 0.000000 0.016655 0.000000
# 6 0.000000 0.000000 0.000000 -0.000378 0.000000 -0.022388
#
#
# Mechanical properties :
#
#
# Convention : Reuss Voigt Hill
#
# Bulk Modulus (GPa) = 40.93757 68.91388 54.92573
# Shear Modulus (GPa) = 64.27907 34.65067 49.46487
#
# Velocity S-wave (km/s) = 4.78017 3.50965 4.19331
# Velocity P-wave (km/s) = 6.70964 6.39697 6.55517
#
# Compressibility (1/GPa) = 0.02442744
#
# Stress axis : x y z
#
# Youngs Moduli (GPa) = 44.26229 167.27293 126.38232
#
# Poissons Ratio (x) = -0.47020 0.84151
# Poissons Ratio (y) = -0.12442 0.27557
# Poissons Ratio (z) = 0.29472 0.36473
#
# Static dielectric constant tensor:
#      x y z
#    x 2.462800 0.000000 -0.059230 
#    y 0.000000 2.320210 0.000000 
#    z -0.059230 0.000000 2.135450 
# 
# From -- ./inp_files/214993.got.cif
#   From: 2010.05.17/outbox.cif.g08.bks.cpg/sg12_108_cif.got.tgz:214993.got - 2010.06.03 13:09:07.
