data_PCOD9183698
_publ_section_title
;
Structure prediction by ZEFSAII (Michael W. Deem and Ramdas Pophale) SiO2 
 PCOD9183698
Probable space group: C 2/M
;
_chemical_formula_sum "Si O2"
_cell_formula_units_Z 40
_cell_length_a 14.293142
_cell_length_b 31.459733
_cell_length_c 9.367682
_cell_angle_alpha 90.000000
_cell_angle_beta 27.177881
_cell_angle_gamma 90.000000
_cell_volume 1923.967572
_symmetry_space_group_name_H-M "C 2/M"
_symmetry_group_IT_number 12
_symmetry_cell_setting 'monoclinic'
loop_
_space_group_symop_operation_xyz
x,y,z
-x,y,-z
-x,-y,-z
x,-y,z
1/2+x,1/2+y,z
1/2-x,1/2+y,-z
1/2-x,1/2-y,-z
1/2+x,1/2-y,z
loop_
_atom_site_type_symbol
_atom_site_label
_atom_site_fract_x
_atom_site_fract_y
_atom_site_fract_z
Si Si1 0.292533 0.355500 0.336599
Si Si2 0.077902 0.000000 0.732522
Si Si3 0.834864 0.785650 0.495569
Si Si4 0.852505 0.500000 0.842028
Si Si5 0.934646 0.568298 0.251252
Si Si6 0.740778 0.223129 0.189074
O O1 0.298462 0.331927 0.481857
O O2 0.115438 0.389683 0.589812
O O3 0.282659 0.316019 0.240563
O O4 0.500000 0.377993 0.000000
O O5 0.227280 0.040483 0.513964
O O6 0.000000 0.000000 0.000000
O O7 0.880960 0.000000 0.896417
O O8 0.750000 0.750000 0.500000
O O9 0.728924 0.769771 0.782318
O O10 0.082124 0.781008 0.168095
O O11 0.000000 0.500000 0.500000
O O12 0.909991 0.539826 0.865959
O O13 0.000000 0.577630 0.000000
O O14 0.500000 0.218581 0.500000
#
# Coordination Sequence:
#
# PCOD9183698 Si02
#       6
#     8   4   8   4   8   8
#     4   9  20  37  56  80 117 161 199 239 299 366
#     4  11  21  43  70  91 122 161 201 246 303 379
#     4   9  18  34  55  77 107 154 195 234 297 353
#     4  11  23  41  70  97 114 161 209 242 305 379
#     4  11  24  40  63  97 127 159 202 255 310 358
#     4  10  19  33  55  85 113 151 202 254 296 348
#
# _framework density 20.790372000000001
#
# number of rings (size 3 to 8) (size 9 to 14) (size 15 to 20)
#    0.000    2.000    2.000    4.200    0.000    5.600 
#    3.600    0.000    0.000    0.000    0.000    0.000 
#    0.000    0.000    0.000    0.000    0.000    0.000 
#
# Total GULP energy -111389.337145 kJ/mol
# GULP energy per Si atom -5569.466857 kJ/mol
# Density = 2.074305 g / cm^3
# Si number density = 20.790372 Si / 1000 Ang^3
#
#
#
# Elastic Constant Matrix: (Units=GPa)
#
#
# Indices 1 2 3 4 5 6 
#
# 1 88.4614 8.6217 19.2350 0.0000 -19.3933 0.0000
# 2 8.6217 71.9419 27.4631 0.0000 2.2372 0.0000
# 3 19.2350 27.4631 75.4522 0.0000 -0.0167 0.0000
# 4 0.0000 0.0000 0.0000 14.4914 0.0000 -9.4330
# 5 -19.3933 2.2372 -0.0167 0.0000 45.7619 0.0000
# 6 0.0000 0.0000 0.0000 -9.4330 0.0000 -6.4541
#
#
#
# Elastic Compliance Matrix: (Units=1/GPa)
#
#
# Indices 1 2 3 4 5 6 
#
# 1 0.013292 -0.000553 -0.003186 0.000000 0.005659 0.000000
# 2 -0.000553 0.016195 -0.005754 0.000000 -0.001028 0.000000
# 3 -0.003186 -0.005754 0.016160 0.000000 -0.001063 0.000000
# 4 0.000000 0.000000 0.000000 0.035363 0.000000 -0.051685
# 5 0.005659 -0.001028 -0.001063 0.000000 0.024300 0.000000
# 6 0.000000 0.000000 0.000000 -0.051685 0.000000 -0.079401
#
#
# Mechanical properties :
#
#
# Convention : Reuss Voigt Hill
#
# Bulk Modulus (GPa) = 37.50810 38.49946 38.00378
# Shear Modulus (GPa) = 92.97116 22.79556 57.88336
#
# Velocity S-wave (km/s) = 6.69443 3.31486 5.28222
# Velocity P-wave (km/s) = 8.82237 5.76274 7.45129
#
# Compressibility (1/GPa) = 0.02666091
#
# Stress axis : x y z
#
# Youngs Moduli (GPa) = 75.23589 61.74812 61.88231
#
# Poissons Ratio (x) = 0.03412 0.19716
# Poissons Ratio (y) = 0.04158 0.35607
# Poissons Ratio (z) = 0.23970 0.35529
#
# Static dielectric constant tensor:
#      x y z
#    x 1.857640 0.000000 -0.000810 
#    y 0.000000 1.733730 0.000000 
#    z -0.000810 0.000000 1.772630 
# 
# From -- ./inp_files/68503.got.cif
#   From: 2010.05.17/outbox.cif.g08.bks.cpg/sg12_35_cif.got.tgz:68503.got - 2010.06.03 13:09:07.
