data_PCOD9183246
_publ_section_title
;
Structure prediction by ZEFSAII (Michael W. Deem and Ramdas Pophale) SiO2 
 PCOD9183246
Probable space group: C 2/M
;
_chemical_formula_sum "Si O2"
_cell_formula_units_Z 64
_cell_length_a 12.880503
_cell_length_b 13.395816
_cell_length_c 17.416362
_cell_angle_alpha 90.000000
_cell_angle_beta 85.729107
_cell_angle_gamma 90.000000
_cell_volume 2996.758650
_symmetry_space_group_name_H-M "C 2/M"
_symmetry_group_IT_number 12
_symmetry_cell_setting 'monoclinic'
loop_
_space_group_symop_operation_xyz
x,y,z
-x,y,-z
-x,-y,-z
x,-y,z
1/2+x,1/2+y,z
1/2-x,1/2+y,-z
1/2-x,1/2-y,-z
1/2+x,1/2-y,z
loop_
_atom_site_type_symbol
_atom_site_label
_atom_site_fract_x
_atom_site_fract_y
_atom_site_fract_z
Si Si1 0.701322 0.614936 0.882133
Si Si2 0.405983 0.305275 0.720114
Si Si3 0.970257 0.884402 0.869494
Si Si4 0.658358 0.884991 0.522836
Si Si5 0.255387 0.379705 0.955068
Si Si6 0.606188 0.675251 0.451708
Si Si7 0.474561 0.884160 0.312313
Si Si8 0.311129 0.190118 0.197301
O O1 0.726471 0.500000 0.862441
O O2 0.578169 0.619969 0.908735
O O3 0.709760 0.691623 0.812238
O O4 0.761587 0.649052 0.955461
O O5 0.481666 0.333539 0.785922
O O6 0.416408 0.349804 0.635436
O O7 0.427064 0.188581 0.702119
O O8 0.296432 0.343238 0.758446
O O9 0.870059 0.846211 0.920195
O O10 0.950353 0.000000 0.854392
O O11 0.624287 0.794388 0.468792
O O12 0.782782 0.872644 0.530429
O O13 0.593202 0.868272 0.605772
O O14 0.637562 0.000000 0.498689
O O15 0.256119 0.500000 0.957172
O O16 0.178999 0.346611 0.891252
O O17 0.500000 0.645505 0.500000
O O18 0.399844 0.852493 0.246130
O O19 0.501860 0.000000 0.306897
#
# Coordination Sequence:
#
# PCOD9183246 Si02
#       8
#     8   8   8   8   8   8   8   8
#     4  10  19  33  54  80 116 149 185 235 290 343
#     4  11  22  37  58  87 114 151 191 239 287 341
#     4   9  18  33  55  82 111 144 187 236 285 339
#     4  10  23  41  62  88 115 151 194 237 288 345
#     4   9  18  32  54  84 109 145 193 238 283 339
#     4  11  22  39  64  86 121 150 190 240 290 339
#     4  11  22  39  61  84 115 154 196 240 284 343
#     4  11  21  36  58  83 116 153 196 237 290 341
#
# _framework density 21.356407999999998
#
# number of rings (size 3 to 8) (size 9 to 14) (size 15 to 20)
#    0.000    1.750    3.750    1.125    0.000    4.000 
#    0.000    0.000    0.000    0.000    0.000    4.375 
#    0.000    0.000    0.000    0.000    0.000    0.000 
#
# Total GULP energy -178362.189178 kJ/mol
# GULP energy per Si atom -5573.818412 kJ/mol
# Density = 2.130780 g / cm^3
# Si number density = 21.356408 Si / 1000 Ang^3
#
#
#
# Elastic Constant Matrix: (Units=GPa)
#
#
# Indices 1 2 3 4 5 6 
#
# 1 37.8323 -1.7170 -4.6442 0.0000 0.1677 0.0000
# 2 -1.7170 64.6424 18.8515 0.0000 -2.3400 0.0000
# 3 -4.6442 18.8515 71.3434 0.0000 17.2932 0.0000
# 4 0.0000 0.0000 0.0000 28.1136 0.0000 -3.1432
# 5 0.1677 -2.3400 17.2932 0.0000 21.0923 0.0000
# 6 0.0000 0.0000 0.0000 -3.1432 0.0000 21.9722
#
#
#
# Elastic Compliance Matrix: (Units=1/GPa)
#
#
# Indices 1 2 3 4 5 6 
#
# 1 0.026716 -0.000018 0.002241 0.000000 -0.002052 0.000000
# 2 -0.000018 0.017594 -0.006394 0.000000 0.007195 0.000000
# 3 0.002241 -0.006394 0.020004 0.000000 -0.017128 0.000000
# 4 0.000000 0.000000 0.000000 0.036148 0.000000 0.005171
# 5 -0.002052 0.007195 -0.017128 0.000000 0.062268 0.000000
# 6 0.000000 0.000000 0.000000 0.005171 0.000000 0.046252
#
#
# Mechanical properties :
#
#
# Convention : Reuss Voigt Hill
#
# Bulk Modulus (GPa) = 17.86611 22.08875 19.97743
# Shear Modulus (GPa) = 21.18809 24.99082 23.08946
#
# Velocity S-wave (km/s) = 3.15321 3.42450 3.29165
# Velocity P-wave (km/s) = 4.65197 5.09918 4.88070
#
# Compressibility (1/GPa) = 0.05597190
#
# Stress axis : x y z
#
# Youngs Moduli (GPa) = 37.43097 56.83631 49.99021
#
# Poissons Ratio (x) = 0.00104 -0.11205
# Poissons Ratio (y) = 0.00069 0.31965
# Poissons Ratio (z) = -0.08390 0.36342
#
# Static dielectric constant tensor:
#      x y z
#    x 1.791840 0.000000 0.019320 
#    y 0.000000 1.811200 0.000000 
#    z 0.019320 0.000000 1.783670 
# 
# From -- ./inp_files/269847.got.cif
#   From: 2010.05.17/outbox.cif.g08.bks.cpg/sg12_135_cif.got.tgz:269847.got - 2010.06.03 13:09:07.
