data_PCOD9183660
_publ_section_title
;
Structure prediction by ZEFSAII (Michael W. Deem and Ramdas Pophale) SiO2 
 PCOD9183660
Probable space group: C 2/M
;
_chemical_formula_sum "Si O2"
_cell_formula_units_Z 48
_cell_length_a 10.550481
_cell_length_b 14.329482
_cell_length_c 15.092593
_cell_angle_alpha 90.000000
_cell_angle_beta 69.541723
_cell_angle_gamma 90.000000
_cell_volume 2137.825972
_symmetry_space_group_name_H-M "C 2/M"
_symmetry_group_IT_number 12
_symmetry_cell_setting 'monoclinic'
loop_
_space_group_symop_operation_xyz
x,y,z
-x,y,-z
-x,-y,-z
x,-y,z
1/2+x,1/2+y,z
1/2-x,1/2+y,-z
1/2-x,1/2-y,-z
1/2+x,1/2-y,z
loop_
_atom_site_type_symbol
_atom_site_label
_atom_site_fract_x
_atom_site_fract_y
_atom_site_fract_z
Si Si1 0.425902 0.607995 0.697868
Si Si2 0.123769 0.392005 0.302132
Si Si3 0.907974 0.829458 0.896754
Si Si4 0.327012 0.113807 0.345975
Si Si5 0.716607 0.385906 0.566788
Si Si6 0.304728 0.329458 0.103246
O O1 0.425391 0.500000 0.670016
O O2 0.431156 0.612432 0.802462
O O3 0.283944 0.648435 0.697442
O O4 0.563712 0.647243 0.622352
O O5 0.095406 0.500000 0.329984
O O6 0.186063 0.352757 0.377648
O O7 0.233619 0.387568 0.197538
O O8 0.981386 0.351566 0.302557
O O9 0.802320 0.750000 0.895360
O O10 0.054009 0.791809 0.891983
O O11 0.845133 0.877531 0.000000
O O12 0.271551 0.137748 0.456899
O O13 0.331994 0.000000 0.336010
O O14 0.714273 0.500000 0.571454
#
# Coordination Sequence:
#
# PCOD9183660 Si02
#       6
#     8   8   8   8   8   8
#     4  10  19  33  55  84 110 137 177 222 264 305
#     4  10  19  33  55  84 110 137 177 222 264 305
#     4  10  22  39  58  78 103 140 179 216 266 324
#     4   9  18  30  50  81 114 144 173 211 262 315
#     4   9  16  30  52  79 110 142 177 215 258 311
#     4  10  22  39  58  78 103 140 179 216 266 324
#
# _framework density 22.452718000000001
#
# number of rings (size 3 to 8) (size 9 to 14) (size 15 to 20)
#    0.000    2.333    1.667    1.000    2.333    4.667 
#    0.000    1.667    0.000    9.000    0.000    0.000 
#    0.000    0.000    0.000    0.000    0.000    0.000 
#
# Total GULP energy -133967.893539 kJ/mol
# GULP energy per Si atom -5581.995564 kJ/mol
# Density = 2.240161 g / cm^3
# Si number density = 22.452718 Si / 1000 Ang^3
#
#
#
# Elastic Constant Matrix: (Units=GPa)
#
#
# Indices 1 2 3 4 5 6 
#
# 1 215.5189 3.2395 62.9060 0.0000 -1.8352 0.0000
# 2 3.2395 40.5043 -20.7340 0.0000 -0.5780 0.0000
# 3 62.9060 -20.7340 108.3350 0.0000 -0.7483 0.0000
# 4 0.0000 0.0000 0.0000 20.2143 0.0000 0.2909
# 5 -1.8352 -0.5780 -0.7483 0.0000 38.2685 0.0000
# 6 0.0000 0.0000 0.0000 0.2909 0.0000 8.1489
#
#
#
# Elastic Compliance Matrix: (Units=1/GPa)
#
#
# Indices 1 2 3 4 5 6 
#
# 1 0.005795 -0.002420 -0.003827 0.000000 0.000167 0.000000
# 2 -0.002420 0.028391 0.006842 0.000000 0.000447 0.000000
# 3 -0.003827 0.006842 0.012763 0.000000 0.000169 0.000000
# 4 0.000000 0.000000 0.000000 0.049495 0.000000 -0.001767
# 5 0.000167 0.000447 0.000169 0.000000 0.026149 0.000000
# 6 0.000000 0.000000 0.000000 -0.001767 0.000000 0.122779
#
#
# Mechanical properties :
#
#
# Convention : Reuss Voigt Hill
#
# Bulk Modulus (GPa) = 20.77295 50.57570 35.67433
# Shear Modulus (GPa) = 19.21390 34.58946 26.90168
#
# Velocity S-wave (km/s) = 2.92849 3.92924 3.46518
# Velocity P-wave (km/s) = 4.55046 6.56959 5.65094
#
# Compressibility (1/GPa) = 0.04813953
#
# Stress axis : x y z
#
# Youngs Moduli (GPa) = 172.57065 35.22235 78.34940
#
# Poissons Ratio (x) = 0.08524 0.29983
# Poissons Ratio (y) = 0.41762 -0.53607
# Poissons Ratio (z) = 0.66039 -0.24099
#
# Static dielectric constant tensor:
#      x y z
#    x 1.843340 0.000000 -0.001130 
#    y 0.000000 1.848430 0.000000 
#    z -0.001130 0.000000 1.796490 
# 
# From -- ./inp_files/122573.got.cif
#   From: 2010.05.17/outbox.cif.g08.bks.cpg/sg12_62_cif.got.tgz:122573.got - 2010.06.03 13:09:07.
