data_PCOD9183176
_publ_section_title
;
Structure prediction by ZEFSAII (Michael W. Deem and Ramdas Pophale) SiO2 
 PCOD9183176
Probable space group: C 2/M
;
_chemical_formula_sum "Si O2"
_cell_formula_units_Z 64
_cell_length_a 29.901526
_cell_length_b 7.707331
_cell_length_c 19.415702
_cell_angle_alpha 90.000000
_cell_angle_beta 138.422324
_cell_angle_gamma 90.000000
_cell_volume 2969.474585
_symmetry_space_group_name_H-M "C 2/M"
_symmetry_group_IT_number 12
_symmetry_cell_setting 'monoclinic'
loop_
_space_group_symop_operation_xyz
x,y,z
-x,y,-z
-x,-y,-z
x,-y,z
1/2+x,1/2+y,z
1/2-x,1/2+y,-z
1/2-x,1/2-y,-z
1/2+x,1/2-y,z
loop_
_atom_site_type_symbol
_atom_site_label
_atom_site_fract_x
_atom_site_fract_y
_atom_site_fract_z
Si Si1 0.462815 0.209378 0.309806
Si Si2 0.439728 0.293048 0.131965
Si Si3 0.212070 0.208780 0.027478
Si Si4 0.182126 0.203444 0.509972
Si Si5 0.834409 0.706758 0.663872
Si Si6 0.663203 0.787635 0.749200
Si Si7 0.027971 0.209189 0.105937
Si Si8 0.907997 0.699951 0.468762
O O1 0.475285 0.262519 0.245969
O O2 0.389642 0.264648 0.252359
O O3 0.520287 0.277462 0.427265
O O4 0.464483 0.000000 0.313582
O O5 0.434868 0.500000 0.116796
O O6 0.481545 0.224288 0.115371
O O7 0.363651 0.222289 0.052357
O O8 0.262284 0.270923 0.145316
O O9 0.207732 0.000000 0.025914
O O10 0.250000 0.250000 0.000000
O O11 0.154019 0.223900 0.400130
O O12 0.259598 0.268884 0.599215
O O13 0.137180 0.295431 0.515004
O O14 0.182181 0.000000 0.527298
O O15 0.894805 0.749985 0.785237
O O16 0.669866 0.000000 0.347125
O O17 0.633009 0.724743 0.642378
O O18 0.665334 0.000000 0.750691
O O19 0.023252 0.000000 0.099316
O O20 0.000000 0.272054 0.000000
O O21 0.921793 0.500000 0.465021
#
# Coordination Sequence:
#
# PCOD9183176 Si02
#       8
#     8   8   8   8   8   8   8   8
#     4  10  19  33  54  79 107 141 183 224 268 323
#     4  10  21  35  54  81 109 140 182 227 271 323
#     4  10  19  34  55  77 104 139 180 224 268 317
#     4  10  21  37  57  82 112 144 181 230 283 335
#     4  10  21  38  60  83 108 143 188 232 277 332
#     4   9  18  33  53  77 107 142 179 224 271 316
#     4  10  22  39  58  83 116 151 186 229 283 339
#     4  10  20  33  53  81 110 141 181 225 272 330
#
# _framework density 21.552634999999999
#
# number of rings (size 3 to 8) (size 9 to 14) (size 15 to 20)
#    0.000    2.125    1.250    1.875    0.000    7.250 
#    0.000    3.750    0.000    1.500    0.000    0.000 
#    0.000    0.000    0.000    0.000    0.000    0.000 
#
# Total GULP energy -178718.934143 kJ/mol
# GULP energy per Si atom -5584.966692 kJ/mol
# Density = 2.150358 g / cm^3
# Si number density = 21.552635 Si / 1000 Ang^3
#
#
#
# Elastic Constant Matrix: (Units=GPa)
#
#
# Indices 1 2 3 4 5 6 
#
# 1 21.3289 -3.8093 13.9674 0.0000 2.0559 0.0000
# 2 -3.8093 39.1601 -2.3833 -0.0001 2.7817 0.0000
# 3 13.9674 -2.3833 153.5045 0.0000 4.1540 0.0000
# 4 0.0000 -0.0001 0.0000 17.9977 0.0000 -0.9365
# 5 2.0559 2.7817 4.1540 0.0000 28.0441 0.0000
# 6 0.0000 0.0000 0.0000 -0.9365 0.0000 16.5680
#
#
#
# Elastic Compliance Matrix: (Units=1/GPa)
#
#
# Indices 1 2 3 4 5 6 
#
# 1 0.051040 0.004946 -0.004471 0.000000 -0.003570 0.000000
# 2 0.004946 0.026231 0.000038 0.000000 -0.002970 0.000000
# 3 -0.004471 0.000038 0.006941 0.000000 -0.000704 0.000000
# 4 0.000000 0.000000 0.000000 0.055727 0.000000 0.003150
# 5 -0.003570 -0.002970 -0.000704 0.000000 0.036319 0.000000
# 6 0.000000 0.000000 0.000000 0.003150 0.000000 0.060536
#
#
# Mechanical properties :
#
#
# Convention : Reuss Voigt Hill
#
# Bulk Modulus (GPa) = 11.73185 25.50477 18.61831
# Shear Modulus (GPa) = 18.92661 26.26989 22.59825
#
# Velocity S-wave (km/s) = 2.96659 3.49502 3.24159
# Velocity P-wave (km/s) = 4.14600 5.30531 4.76107
#
# Compressibility (1/GPa) = 0.08523805
#
# Stress axis : x y z
#
# Youngs Moduli (GPa) = 19.59248 38.12343 144.07365
#
# Poissons Ratio (x) = -0.18858 0.64411
# Poissons Ratio (y) = -0.09691 -0.00541
# Poissons Ratio (z) = 0.08759 -0.00143
#
# Static dielectric constant tensor:
#      x y z
#    x 1.760570 0.000000 0.018590 
#    y 0.000000 1.810220 0.000000 
#    z 0.018590 0.000000 1.788350 
# 
# From -- ./inp_files/295782.got.cif
#   From: 2010.05.17/outbox.cif.g08.bks.cpg/sg12_148_cif.got.tgz:295782.got - 2010.06.03 13:09:07.
