data_PCOD9183829
_publ_section_title
;
Structure prediction by ZEFSAII (Michael W. Deem and Ramdas Pophale) SiO2 
 PCOD9183829
Probable space group: C 2/M
;
_chemical_formula_sum "Si O2"
_cell_formula_units_Z 48
_cell_length_a 29.404842
_cell_length_b 7.966953
_cell_length_c 15.371788
_cell_angle_alpha 90.000000
_cell_angle_beta 31.261386
_cell_angle_gamma 90.000000
_cell_volume 1868.767471
_symmetry_space_group_name_H-M "C 2/M"
_symmetry_group_IT_number 12
_symmetry_cell_setting 'monoclinic'
loop_
_space_group_symop_operation_xyz
x,y,z
-x,y,-z
-x,-y,-z
x,-y,z
1/2+x,1/2+y,z
1/2-x,1/2+y,-z
1/2-x,1/2-y,-z
1/2+x,1/2-y,z
loop_
_atom_site_type_symbol
_atom_site_label
_atom_site_fract_x
_atom_site_fract_y
_atom_site_fract_z
Si Si1 0.598213 0.205390 0.856541
Si Si2 0.262389 0.192962 0.245589
Si Si3 0.010701 0.811243 0.247890
Si Si4 0.897637 0.304719 0.592320
Si Si5 0.147940 0.305887 0.589595
Si Si6 0.151017 0.300263 0.142465
O O1 0.645805 0.260480 0.867038
O O2 0.651184 0.254434 0.683158
O O3 0.598277 0.000000 0.858490
O O4 0.500000 0.263332 0.000000
O O5 0.203856 0.291689 0.272494
O O6 0.202422 0.199167 0.431478
O O7 0.271468 0.000000 0.201496
O O8 0.952646 0.795081 0.431435
O O9 0.954713 0.700764 0.272355
O O10 0.106161 0.762395 0.127565
O O11 0.009553 0.000000 0.217693
O O12 0.924667 0.500000 0.542730
O O13 0.901171 0.244192 0.685370
O O14 0.175594 0.500000 0.537318
O O15 0.146043 0.500000 0.149007
O O16 0.250000 0.250000 0.000000
#
# Coordination Sequence:
#
# PCOD9183829 Si02
#       6
#     8   8   8   8   8   8
#     4   9  19  34  52  78 109 142 181 223 270 325
#     4  10  19  33  56  82 108 140 181 227 271 322
#     4  11  22  37  59  85 112 143 185 231 274 326
#     4  10  21  38  59  83 111 143 183 229 276 326
#     4  10  19  34  57  80 107 143 181 225 274 322
#     4  11  24  40  58  82 114 149 184 225 274 329
#
# _framework density 25.685378
#
# number of rings (size 3 to 8) (size 9 to 14) (size 15 to 20)
#    0.000    1.833    0.000    6.500    0.000    6.000 
#    0.000    4.167    0.000    7.000    0.000    0.000 
#    0.000    0.000    0.000    0.000    0.000    0.000 
#
# Total GULP energy -134360.562078 kJ/mol
# GULP energy per Si atom -5598.356753 kJ/mol
# Density = 2.562692 g / cm^3
# Si number density = 25.685378 Si / 1000 Ang^3
#
#
#
# Elastic Constant Matrix: (Units=GPa)
#
#
# Indices 1 2 3 4 5 6 
#
# 1 156.9384 -2.5698 11.5538 0.0000 -18.1890 0.0000
# 2 -2.5698 67.1416 -5.4604 -0.0005 -0.9859 0.0000
# 3 11.5538 -5.4604 73.6880 -0.0002 -19.2280 0.0000
# 4 0.0000 -0.0005 -0.0002 19.2138 0.0000 -1.8841
# 5 -18.1890 -0.9859 -19.2280 0.0000 56.8911 0.0000
# 6 0.0000 0.0000 0.0000 -1.8841 0.0000 19.3866
#
#
#
# Elastic Compliance Matrix: (Units=1/GPa)
#
#
# Indices 1 2 3 4 5 6 
#
# 1 0.006640 0.000241 -0.000513 0.000000 0.001954 0.000000
# 2 0.000241 0.015018 0.001276 0.000000 0.000768 0.000000
# 3 -0.000513 0.001276 0.015035 0.000000 0.004939 0.000000
# 4 0.000000 0.000000 0.000000 0.052547 0.000000 0.005107
# 5 0.001954 0.000768 0.004939 0.000000 0.019885 0.000000
# 6 0.000000 0.000000 0.000000 0.005107 0.000000 0.052078
#
#
# Mechanical properties :
#
#
# Convention : Reuss Voigt Hill
#
# Bulk Modulus (GPa) = 25.84035 33.86837 29.85436
# Shear Modulus (GPa) = 29.05358 38.71461 33.88409
#
# Velocity S-wave (km/s) = 3.36688 3.88656 3.63602
# Velocity P-wave (km/s) = 5.01963 5.77537 5.41071
#
# Compressibility (1/GPa) = 0.03869917
#
# Stress axis : x y z
#
# Youngs Moduli (GPa) = 150.60032 66.58610 66.51308
#
# Poissons Ratio (x) = -0.01605 0.03415
# Poissons Ratio (y) = -0.03630 -0.08484
# Poissons Ratio (z) = 0.07733 -0.08494
#
# Static dielectric constant tensor:
#      x y z
#    x 2.008420 0.000000 -0.050840 
#    y 0.000000 1.859290 0.000000 
#    z -0.050840 0.000000 2.167380 
# 
# From -- ./inp_files/295344.got.cif
#   From: 2010.05.17/outbox.cif.g08.bks.cpg/sg12_148_cif.got.tgz:295344.got - 2010.06.03 13:09:07.
