data_PCOD9183900
_publ_section_title
;
Structure prediction by ZEFSAII (Michael W. Deem and Ramdas Pophale) SiO2 
 PCOD9183900
Probable space group: C 2/M
;
_chemical_formula_sum "Si O2"
_cell_formula_units_Z 48
_cell_length_a 22.492619
_cell_length_b 9.071207
_cell_length_c 12.364387
_cell_angle_alpha 90.000000
_cell_angle_beta 108.918367
_cell_angle_gamma 90.000000
_cell_volume 2386.493882
_symmetry_space_group_name_H-M "C 2/M"
_symmetry_group_IT_number 12
_symmetry_cell_setting 'monoclinic'
loop_
_space_group_symop_operation_xyz
x,y,z
-x,y,-z
-x,-y,-z
x,-y,z
1/2+x,1/2+y,z
1/2-x,1/2+y,-z
1/2-x,1/2-y,-z
1/2+x,1/2-y,z
loop_
_atom_site_type_symbol
_atom_site_label
_atom_site_fract_x
_atom_site_fract_y
_atom_site_fract_z
Si Si1 0.574117 0.666897 0.573862
Si Si2 0.404950 0.826574 0.630942
Si Si3 0.230723 0.673831 0.377021
Si Si4 0.258514 0.174626 0.174266
Si Si5 0.045460 0.324380 0.775815
Si Si6 0.848980 0.825803 0.051823
O O1 0.500000 0.661351 0.500000
O O2 0.595882 0.500000 0.607380
O O3 0.604811 0.736808 0.485686
O O4 0.576481 0.765391 0.682413
O O5 0.345037 0.808158 0.671783
O O6 0.471632 0.785060 0.723508
O O7 0.409660 0.000000 0.604409
O O8 0.244863 0.500000 0.387755
O O9 0.250000 0.750000 0.500000
O O10 0.261637 0.751078 0.292560
O O11 0.305427 0.250746 0.117574
O O12 0.271144 0.000000 0.187207
O O13 0.188887 0.195827 0.081838
O O14 0.051282 0.500000 0.785402
O O15 0.083272 0.248325 0.894895
O O16 0.853470 0.000000 0.074373
#
# Coordination Sequence:
#
# PCOD9183900 Si02
#       6
#     8   8   8   8   8   8
#     4   9  17  29  48  76 110 146 185 231 279 329
#     4   9  20  37  54  78 113 153 193 233 282 342
#     4  11  24  41  61  84 116 156 197 238 285 344
#     4  10  22  41  62  86 116 151 193 239 288 343
#     4  10  19  33  56  83 113 149 190 236 286 340
#     4  10  21  38  62  89 116 148 190 240 291 343
#
# _framework density 20.113189999999999
#
# number of rings (size 3 to 8) (size 9 to 14) (size 15 to 20)
#    0.000    2.167    0.000    2.500    2.333    6.000 
#    0.000    0.833    0.000    5.000    0.000    0.000 
#    0.000    0.000    0.000    0.000    0.000    0.000 
#
# Total GULP energy -134080.697378 kJ/mol
# GULP energy per Si atom -5586.695724 kJ/mol
# Density = 2.006741 g / cm^3
# Si number density = 20.113190 Si / 1000 Ang^3
#
#
#
# Elastic Constant Matrix: (Units=GPa)
#
#
# Indices 1 2 3 4 5 6 
#
# 1 51.6909 23.9070 17.7095 0.0000 11.0402 0.0000
# 2 23.9070 91.9169 46.6831 0.0000 8.2117 0.0000
# 3 17.7095 46.6831 87.9151 0.0000 11.3047 0.0000
# 4 0.0000 0.0000 0.0000 32.2202 0.0000 5.5179
# 5 11.0402 8.2117 11.3047 0.0000 35.4450 0.0000
# 6 0.0000 0.0000 0.0000 5.5179 0.0000 22.9331
#
#
#
# Elastic Compliance Matrix: (Units=1/GPa)
#
#
# Indices 1 2 3 4 5 6 
#
# 1 0.023274 -0.004841 -0.001386 0.000000 -0.005686 0.000000
# 2 -0.004841 0.015936 -0.007514 0.000000 0.000213 0.000000
# 3 -0.001386 -0.007514 0.016022 0.000000 -0.002937 0.000000
# 4 0.000000 0.000000 0.000000 0.032370 0.000000 -0.007789
# 5 -0.005686 0.000213 -0.002937 0.000000 0.030871 0.000000
# 6 0.000000 0.000000 0.000000 -0.007789 0.000000 0.045479
#
#
# Mechanical properties :
#
#
# Convention : Reuss Voigt Hill
#
# Bulk Modulus (GPa) = 36.03884 45.34690 40.69287
# Shear Modulus (GPa) = 24.91462 27.66787 26.29124
#
# Velocity S-wave (km/s) = 3.52336 3.71294 3.61940
# Velocity P-wave (km/s) = 5.87444 6.40125 6.14350
#
# Compressibility (1/GPa) = 0.02774784
#
# Stress axis : x y z
#
# Youngs Moduli (GPa) = 42.96602 62.75142 62.41581
#
# Poissons Ratio (x) = 0.30380 0.08654
# Poissons Ratio (y) = 0.20801 0.46900
# Poissons Ratio (z) = 0.05957 0.47152
#
# Static dielectric constant tensor:
#      x y z
#    x 1.746690 0.000000 0.057970 
#    y 0.000000 1.676660 0.000000 
#    z 0.057970 0.000000 1.700560 
# 
# From -- ./inp_files/173052.got.cif
#   From: 2010.05.17/outbox.cif.g08.bks.cpg/sg12_87_cif.got.tgz:173052.got - 2010.06.03 13:09:07.
