data_PCOD9183815
_publ_section_title
;
Structure prediction by ZEFSAII (Michael W. Deem and Ramdas Pophale) SiO2 
 PCOD9183815
Probable space group: C 2/M
;
_chemical_formula_sum "Si O2"
_cell_formula_units_Z 56
_cell_length_a 15.092113
_cell_length_b 18.369288
_cell_length_c 11.289473
_cell_angle_alpha 90.000000
_cell_angle_beta 111.148936
_cell_angle_gamma 90.000000
_cell_volume 2918.990919
_symmetry_space_group_name_H-M "C 2/M"
_symmetry_group_IT_number 12
_symmetry_cell_setting 'monoclinic'
loop_
_space_group_symop_operation_xyz
x,y,z
-x,y,-z
-x,-y,-z
x,-y,z
1/2+x,1/2+y,z
1/2-x,1/2+y,-z
1/2-x,1/2-y,-z
1/2+x,1/2-y,z
loop_
_atom_site_type_symbol
_atom_site_label
_atom_site_fract_x
_atom_site_fract_y
_atom_site_fract_z
Si Si1 0.468090 0.711043 0.180661
Si Si2 0.322167 0.217750 0.940363
Si Si3 0.319902 0.337327 0.771423
Si Si4 0.356333 0.913744 0.410061
Si Si5 0.491761 0.854954 0.677869
Si Si6 0.404851 0.918453 0.876932
Si Si7 0.399669 0.417606 0.026222
O O1 0.574739 0.679702 0.224105
O O2 0.472199 0.772328 0.283580
O O3 0.407084 0.636914 0.140875
O O4 0.423030 0.753960 0.044663
O O5 0.290998 0.258247 0.805248
O O6 0.334279 0.133806 0.915626
O O7 0.250000 0.250000 0.000000
O O8 0.246619 0.377588 0.652311
O O9 0.327681 0.386623 0.893831
O O10 0.416089 0.870384 0.537781
O O11 0.415769 0.901032 0.317028
O O12 0.353408 0.000000 0.434431
O O13 0.439844 0.881024 0.772254
O O14 0.368358 0.000000 0.837772
O O15 0.500000 0.923512 0.000000
O O16 0.380108 0.500000 0.049938
O O17 0.500000 0.415913 0.000000
#
# Coordination Sequence:
#
# PCOD9183815 Si02
#       7
#     8   8   8   8   8   8   8
#     4  10  19  35  57  82 121 154 191 238 298 362
#     4  11  20  36  56  87 121 155 192 243 297 364
#     4  10  19  33  56  81 116 156 196 240 287 358
#     4  11  24  39  59  88 120 157 204 258 298 346
#     4  11  21  40  59  84 121 158 199 248 308 358
#     4  11  21  36  61  86 116 155 195 244 305 362
#     4   8  15  28  50  79 110 144 183 231 284 339
#
# _framework density 19.184711
#
# number of rings (size 3 to 8) (size 9 to 14) (size 15 to 20)
#    0.000    1.714    2.857    4.286    0.000    1.143 
#    0.000    2.857    0.000    0.000    0.000    2.000 
#    0.000    0.286    0.000    0.000    0.000    0.000 
#
# Total GULP energy -155873.138836 kJ/mol
# GULP energy per Si atom -5566.897816 kJ/mol
# Density = 1.914105 g / cm^3
# Si number density = 19.184711 Si / 1000 Ang^3
#
#
#
# Elastic Constant Matrix: (Units=GPa)
#
#
# Indices 1 2 3 4 5 6 
#
# 1 67.9176 13.4452 21.6829 0.0000 6.3413 0.0000
# 2 13.4452 152.3338 32.8974 0.0000 8.2394 0.0000
# 3 21.6829 32.8974 66.9485 0.0000 14.2497 0.0000
# 4 0.0000 0.0000 0.0000 17.8531 0.0000 3.7677
# 5 6.3413 8.2394 14.2497 0.0000 24.4762 0.0000
# 6 0.0000 0.0000 0.0000 3.7677 0.0000 22.3867
#
#
#
# Elastic Compliance Matrix: (Units=1/GPa)
#
#
# Indices 1 2 3 4 5 6 
#
# 1 0.016474 -0.000326 -0.004897 0.000000 -0.001307 0.000000
# 2 -0.000326 0.007354 -0.003423 0.000000 -0.000398 0.000000
# 3 -0.004897 -0.003423 0.020192 0.000000 -0.009334 0.000000
# 4 0.000000 0.000000 0.000000 0.058075 0.000000 -0.009774
# 5 -0.001307 -0.000398 -0.009334 0.000000 0.046763 0.000000
# 6 0.000000 0.000000 0.000000 -0.009774 0.000000 0.046314
#
#
# Mechanical properties :
#
#
# Convention : Reuss Voigt Hill
#
# Bulk Modulus (GPa) = 37.41515 47.02787 42.22151
# Shear Modulus (GPa) = 22.58621 27.55483 25.07052
#
# Velocity S-wave (km/s) = 3.43491 3.79395 3.61889
# Velocity P-wave (km/s) = 5.93939 6.61502 6.28629
#
# Compressibility (1/GPa) = 0.02672714
#
# Stress axis : x y z
#
# Youngs Moduli (GPa) = 60.70296 135.97792 49.52487
#
# Poissons Ratio (x) = 0.04429 0.24253
# Poissons Ratio (y) = 0.01977 0.16955
# Poissons Ratio (z) = 0.29727 0.46552
#
# Static dielectric constant tensor:
#      x y z
#    x 1.763650 0.000000 -0.007520 
#    y 0.000000 1.709650 0.000000 
#    z -0.007520 0.000000 1.670830 
# 
# From -- ./inp_files/145686.got.cif
#   From: 2010.05.17/outbox.cif.g08.bks.cpg/sg12_73_cif.got.tgz:145686.got - 2010.06.03 13:09:07.
