data_PCOD9183432
_publ_section_title
;
Structure prediction by ZEFSAII (Michael W. Deem and Ramdas Pophale) SiO2 
 PCOD9183432
Probable space group: C 2/M
;
_chemical_formula_sum "Si O2"
_cell_formula_units_Z 40
_cell_length_a 16.063189
_cell_length_b 7.988746
_cell_length_c 16.502660
_cell_angle_alpha 90.000000
_cell_angle_beta 132.418219
_cell_angle_gamma 90.000000
_cell_volume 1563.372360
_symmetry_space_group_name_H-M "C 2/M"
_symmetry_group_IT_number 12
_symmetry_cell_setting 'monoclinic'
loop_
_space_group_symop_operation_xyz
x,y,z
-x,y,-z
-x,-y,-z
x,-y,z
1/2+x,1/2+y,z
1/2-x,1/2+y,-z
1/2-x,1/2-y,-z
1/2+x,1/2-y,z
loop_
_atom_site_type_symbol
_atom_site_label
_atom_site_fract_x
_atom_site_fract_y
_atom_site_fract_z
Si Si1 0.122919 0.299317 0.936351
Si Si2 0.416613 0.201852 0.333027
Si Si3 0.173685 0.799977 0.142440
Si Si4 0.154219 0.300868 0.526298
Si Si5 0.396813 0.192389 0.726591
O O1 0.116272 0.500000 0.930203
O O2 0.023340 0.232678 0.812299
O O3 0.250000 0.250000 0.000000
O O4 0.105356 0.237522 0.016681
O O5 0.304160 0.254518 0.212424
O O6 0.381283 0.234399 0.403458
O O7 0.544468 0.266649 0.405462
O O8 0.422751 0.000000 0.327574
O O9 0.135206 0.710672 0.199064
O O10 0.172527 0.000000 0.157484
O O11 0.154738 0.500000 0.517617
O O12 0.284547 0.249104 0.605682
O O13 0.408974 0.000000 0.711945
#
# Coordination Sequence:
#
# PCOD9183432 Si02
#       5
#     8   8   8   8   8
#     4  11  24  39  53  71  99 133 169 212 257 299
#     4   7  12  24  44  72 102 129 159 198 242 286
#     4  10  19  33  55  79 103 133 168 204 245 297
#     4   8  13  25  46  71 100 132 164 197 239 293
#     4  10  20  33  50  76 107 133 163 208 253 291
#
# _framework density 25.585718
#
# number of rings (size 3 to 8) (size 9 to 14) (size 15 to 20)
#    0.000    2.800    0.000    4.800    0.000    5.600 
#    0.000    9.000    0.000    1.200    0.000    0.000 
#    0.000    0.000    0.000    0.000    0.000    0.000 
#
# Total GULP energy -111706.099087 kJ/mol
# GULP energy per Si atom -5585.304954 kJ/mol
# Density = 2.552748 g / cm^3
# Si number density = 25.585718 Si / 1000 Ang^3
#
#
#
# Elastic Constant Matrix: (Units=GPa)
#
#
# Indices 1 2 3 4 5 6 
#
# 1 122.1462 -6.8804 48.3346 0.0000 31.3867 0.0000
# 2 -6.8804 19.6316 10.0149 0.0000 3.4931 0.0000
# 3 48.3346 10.0149 245.4867 0.0000 26.1811 0.0000
# 4 0.0000 0.0000 0.0000 26.0901 0.0000 11.5707
# 5 31.3867 3.4931 26.1811 0.0000 63.4556 0.0000
# 6 0.0000 0.0000 0.0000 11.5707 0.0000 12.1601
#
#
#
# Elastic Compliance Matrix: (Units=1/GPa)
#
#
# Indices 1 2 3 4 5 6 
#
# 1 0.010399 0.005383 -0.001765 0.000000 -0.004712 0.000000
# 2 0.005383 0.055071 -0.002824 0.000000 -0.004529 0.000000
# 3 -0.001765 -0.002824 0.004630 0.000000 -0.000882 0.000000
# 4 0.000000 0.000000 0.000000 0.066312 0.000000 -0.063097
# 5 -0.004712 -0.004529 -0.000882 0.000000 0.018703 0.000000
# 6 0.000000 0.000000 0.000000 -0.063097 0.000000 0.142275
#
#
# Mechanical properties :
#
#
# Convention : Reuss Voigt Hill
#
# Bulk Modulus (GPa) = 13.94876 54.46696 34.20786
# Shear Modulus (GPa) = 15.63981 42.72753 29.18367
#
# Velocity S-wave (km/s) = 2.47507 4.09097 3.38098
# Velocity P-wave (km/s) = 3.69210 6.60673 5.35166
#
# Compressibility (1/GPa) = 0.07169095
#
# Stress axis : x y z
#
# Youngs Moduli (GPa) = 96.16103 18.15829 215.97096
#
# Poissons Ratio (x) = -0.09775 0.38111
# Poissons Ratio (y) = -0.51766 0.60981
# Poissons Ratio (z) = 0.16969 0.05127
#
# Static dielectric constant tensor:
#      x y z
#    x 2.109760 0.000000 0.052960 
#    y 0.000000 1.914140 0.000000 
#    z 0.052960 0.000000 2.050700 
# 
# From -- ./inp_files/220227.got.cif
#   From: 2010.05.17/outbox.cif.g08.bks.cpg/sg12_111_cif.got.tgz:220227.got - 2010.06.03 13:09:07.
