data_PCOD9183184
_publ_section_title
;
Structure prediction by ZEFSAII (Michael W. Deem and Ramdas Pophale) SiO2 
 PCOD9183184
Probable space group: C 2/M
;
_chemical_formula_sum "Si O2"
_cell_formula_units_Z 44
_cell_length_a 13.370509
_cell_length_b 19.777002
_cell_length_c 11.256706
_cell_angle_alpha 90.000000
_cell_angle_beta 137.015803
_cell_angle_gamma 90.000000
_cell_volume 2029.432276
_symmetry_space_group_name_H-M "C 2/M"
_symmetry_group_IT_number 12
_symmetry_cell_setting 'monoclinic'
loop_
_space_group_symop_operation_xyz
x,y,z
-x,y,-z
-x,-y,-z
x,-y,z
1/2+x,1/2+y,z
1/2-x,1/2+y,-z
1/2-x,1/2-y,-z
1/2+x,1/2-y,z
loop_
_atom_site_type_symbol
_atom_site_label
_atom_site_fract_x
_atom_site_fract_y
_atom_site_fract_z
Si Si1 0.509784 0.421008 0.653550
Si Si2 0.732273 0.421801 0.347926
Si Si3 0.500000 0.648360 0.000000
Si Si4 0.865836 0.269301 0.763435
Si Si5 0.926650 0.695283 0.574141
Si Si6 0.805582 0.210383 0.162799
O O1 0.500000 0.411523 0.500000
O O2 0.553089 0.500000 0.708705
O O3 0.366498 0.411712 0.615754
O O4 0.621477 0.362686 0.792005
O O5 0.766860 0.500000 0.371574
O O6 0.874756 0.374993 0.475260
O O7 0.636365 0.399698 0.148741
O O8 0.531520 0.703244 0.131718
O O9 0.930102 0.316357 0.719137
O O10 0.709643 0.243784 0.577065
O O11 0.824225 0.298448 0.854430
O O12 0.073528 0.737235 0.678051
O O13 0.750000 0.250000 0.000000
#
# Coordination Sequence:
#
# PCOD9183184 Si02
#       6
#     8   8   4   8   8   8
#     4  10  20  35  56  81 107 138 180 226 271 321
#     4  10  20  35  55  79 110 145 181 225 275 325
#     4  10  19  34  56  82 107 140 182 228 273 322
#     4  10  19  33  54  79 109 136 178 231 269 316
#     4  10  20  34  54  79 105 142 184 220 267 323
#     4  12  22  34  55  82 111 144 181 225 275 323
#
# _framework density 21.68094
#
# number of rings (size 3 to 8) (size 9 to 14) (size 15 to 20)
#    0.000    1.636    0.000    8.455    0.000    0.000 
#    0.000    0.909    0.000    9.818    0.000    7.636 
#    0.000    0.000    0.000    0.000    0.000    0.000 
#
# Total GULP energy -122514.294105 kJ/mol
# GULP energy per Si atom -5568.831550 kJ/mol
# Density = 2.163159 g / cm^3
# Si number density = 21.680940 Si / 1000 Ang^3
#
#
#
# Elastic Constant Matrix: (Units=GPa)
#
#
# Indices 1 2 3 4 5 6 
#
# 1 120.4626 33.5470 28.2395 0.0000 -5.6918 0.0000
# 2 33.5470 126.7941 32.9675 0.0000 18.2714 0.0000
# 3 28.2395 32.9675 101.6873 0.0000 -10.0805 0.0000
# 4 0.0000 0.0000 0.0000 21.3183 0.0000 8.8276
# 5 -5.6918 18.2714 -10.0805 0.0000 20.1074 0.0000
# 6 0.0000 0.0000 0.0000 8.8276 0.0000 18.8957
#
#
#
# Elastic Compliance Matrix: (Units=1/GPa)
#
#
# Indices 1 2 3 4 5 6 
#
# 1 0.009629 -0.002900 -0.001265 0.000000 0.004726 0.000000
# 2 -0.002900 0.011763 -0.004367 0.000000 -0.013699 0.000000
# 3 -0.001265 -0.004367 0.012584 0.000000 0.009919 0.000000
# 4 0.000000 0.000000 0.000000 0.058159 0.000000 -0.027170
# 5 0.004726 -0.013699 0.009919 0.000000 0.068491 0.000000
# 6 0.000000 0.000000 0.000000 -0.027170 0.000000 0.065615
#
#
# Mechanical properties :
#
#
# Convention : Reuss Voigt Hill
#
# Bulk Modulus (GPa) = 59.12455 59.82803 59.47629
# Shear Modulus (GPa) = 20.08494 29.01029 24.54761
#
# Velocity S-wave (km/s) = 3.04696 3.66191 3.36850
# Velocity P-wave (km/s) = 6.30144 6.74790 6.52849
#
# Compressibility (1/GPa) = 0.01691345
#
# Stress axis : x y z
#
# Youngs Moduli (GPa) = 103.85529 85.00961 79.46357
#
# Poissons Ratio (x) = 0.24649 0.10056
# Poissons Ratio (y) = 0.30114 0.34698
# Poissons Ratio (z) = 0.13142 0.37120
#
# Static dielectric constant tensor:
#      x y z
#    x 1.967350 0.000000 -0.053060 
#    y 0.000000 1.738840 0.000000 
#    z -0.053060 0.000000 1.854550 
# 
# From -- ./inp_files/147783.got.cif
#   From: 2010.05.17/outbox.cif.g08.bks.cpg/sg12_74_cif.got.tgz:147783.got - 2010.06.03 13:09:07.
