data_PCOD9183251
_publ_section_title
;
Structure prediction by ZEFSAII (Michael W. Deem and Ramdas Pophale) SiO2 
 PCOD9183251
Probable space group: C 2/M
;
_chemical_formula_sum "Si O2"
_cell_formula_units_Z 64
_cell_length_a 33.610015
_cell_length_b 8.641396
_cell_length_c 12.584221
_cell_angle_alpha 90.000000
_cell_angle_beta 91.042011
_cell_angle_gamma 90.000000
_cell_volume 3654.324631
_symmetry_space_group_name_H-M "C 2/M"
_symmetry_group_IT_number 12
_symmetry_cell_setting 'monoclinic'
loop_
_space_group_symop_operation_xyz
x,y,z
-x,y,-z
-x,-y,-z
x,-y,z
1/2+x,1/2+y,z
1/2-x,1/2+y,-z
1/2-x,1/2-y,-z
1/2+x,1/2-y,z
loop_
_atom_site_type_symbol
_atom_site_label
_atom_site_fract_x
_atom_site_fract_y
_atom_site_fract_z
Si Si1 0.985716 0.688896 0.116843
Si Si2 0.117329 0.813819 0.419543
Si Si3 0.853855 0.187094 0.350930
Si Si4 0.689014 0.684966 0.264955
Si Si5 0.262888 0.685249 0.386115
Si Si6 0.061973 0.314004 0.244932
Si Si7 0.394781 0.812837 0.142569
Si Si8 0.366186 0.813560 0.911036
O O1 0.985716 0.500000 0.116335
O O2 0.940841 0.738755 0.138110
O O3 0.018694 0.739002 0.204005
O O4 0.000000 0.736626 0.000000
O O5 0.123206 0.762344 0.540793
O O6 0.156232 0.766786 0.352486
O O7 0.079155 0.751710 0.355122
O O8 0.116240 0.000000 0.417954
O O9 0.807755 0.234843 0.360739
O O10 0.873557 0.251448 0.246071
O O11 0.854781 0.000000 0.348034
O O12 0.692056 0.500000 0.267856
O O13 0.730863 0.757696 0.298948
O O14 0.670752 0.739722 0.152554
O O15 0.262442 0.500000 0.391912
O O16 0.250000 0.750000 0.500000
O O17 0.061479 0.500000 0.251876
O O18 0.094187 0.272927 0.154914
O O19 0.394791 0.000000 0.144168
O O20 0.372762 0.764893 0.032641
O O21 0.362480 0.000000 0.907477
#
# Coordination Sequence:
#
# PCOD9183251 Si02
#       8
#     8   8   8   8   8   8   8   8
#     4   9  15  29  53  80 109 137 171 221 270 307
#     4   9  18  34  51  72 106 141 171 212 265 315
#     4  10  22  39  54  73 108 146 174 211 268 321
#     4  10  19  33  54  81 108 136 175 220 267 314
#     4  11  21  36  57  81 107 137 177 223 268 314
#     4   9  16  28  52  81 104 133 173 218 265 309
#     4  10  20  34  55  81 108 141 181 220 262 317
#     4   9  17  31  51  79 109 137 174 218 266 314
#
# _framework density 17.513496
#
# number of rings (size 3 to 8) (size 9 to 14) (size 15 to 20)
#    0.000    2.375    2.500    0.750    0.000    2.500 
#    0.000    1.875    0.000    4.500    0.000    0.000 
#    0.000    0.000    0.000    0.000    0.000    0.000 
#
# Total GULP energy -178495.153933 kJ/mol
# GULP energy per Si atom -5577.973560 kJ/mol
# Density = 1.747363 g / cm^3
# Si number density = 17.513496 Si / 1000 Ang^3
#
#
#
# Elastic Constant Matrix: (Units=GPa)
#
#
# Indices 1 2 3 4 5 6 
#
# 1 136.0038 28.5047 99.5070 0.0000 18.4839 0.0000
# 2 28.5047 12.9192 30.3027 0.0000 5.0330 0.0000
# 3 99.5070 30.3027 167.8354 0.0000 20.1912 0.0000
# 4 0.0000 0.0000 0.0000 28.2988 0.0000 0.7734
# 5 18.4839 5.0330 20.1912 0.0000 33.3951 0.0000
# 6 0.0000 0.0000 0.0000 0.7734 0.0000 19.3074
#
#
#
# Elastic Compliance Matrix: (Units=1/GPa)
#
#
# Indices 1 2 3 4 5 6 
#
# 1 0.016281 -0.022588 -0.005284 0.000000 -0.002412 0.000000
# 2 -0.022588 0.166732 -0.016384 0.000000 -0.002720 0.000000
# 3 -0.005284 -0.016384 0.012295 0.000000 -0.002039 0.000000
# 4 0.000000 0.000000 0.000000 0.035376 0.000000 -0.001417
# 5 -0.002412 -0.002720 -0.002039 0.000000 0.032923 0.000000
# 6 0.000000 0.000000 0.000000 -0.001417 0.000000 0.051850
#
#
# Mechanical properties :
#
#
# Convention : Reuss Voigt Hill
#
# Bulk Modulus (GPa) = 9.36374 70.37635 39.87004
# Shear Modulus (GPa) = 11.37482 26.76319 19.06900
#
# Velocity S-wave (km/s) = 2.55127 3.91339 3.30330
# Velocity P-wave (km/s) = 3.74658 7.79043 6.11260
#
# Compressibility (1/GPa) = 0.10679495
#
# Stress axis : x y z
#
# Youngs Moduli (GPa) = 61.42154 5.99765 81.33571
#
# Poissons Ratio (x) = 0.13547 0.42980
# Poissons Ratio (y) = 1.38738 1.33262
# Poissons Ratio (z) = 0.32457 0.09827
#
# Static dielectric constant tensor:
#      x y z
#    x 1.589090 0.000000 0.017520 
#    y 0.000000 1.599590 0.000000 
#    z 0.017520 0.000000 1.583270 
# 
# From -- ./inp_files/187539.got.cif
#   From: 2010.05.17/outbox.cif.g08.bks.cpg/sg12_94_cif.got.tgz:187539.got - 2010.06.03 13:09:07.
