data_PCOD9183730
_publ_section_title
;
Structure prediction by ZEFSAII (Michael W. Deem and Ramdas Pophale) SiO2 
 PCOD9183730
Probable space group: C 2/M
;
_chemical_formula_sum "Si O2"
_cell_formula_units_Z 44
_cell_length_a 21.166059
_cell_length_b 12.586706
_cell_length_c 14.643644
_cell_angle_alpha 90.000000
_cell_angle_beta 35.786301
_cell_angle_gamma 90.000000
_cell_volume 2281.296252
_symmetry_space_group_name_H-M "C 2/M"
_symmetry_group_IT_number 12
_symmetry_cell_setting 'monoclinic'
loop_
_space_group_symop_operation_xyz
x,y,z
-x,y,-z
-x,-y,-z
x,-y,z
1/2+x,1/2+y,z
1/2-x,1/2+y,-z
1/2-x,1/2-y,-z
1/2+x,1/2-y,z
loop_
_atom_site_type_symbol
_atom_site_label
_atom_site_fract_x
_atom_site_fract_y
_atom_site_fract_z
Si Si1 0.062114 0.500000 0.217885
Si Si2 0.902697 0.274923 0.188210
Si Si3 0.104126 0.500000 0.446044
Si Si4 0.534359 0.000000 0.852842
Si Si5 0.247579 0.697794 0.224429
Si Si6 0.636951 0.764964 0.182250
Si Si7 0.040939 0.872874 0.144080
O O1 0.109880 0.389918 0.200429
O O2 0.941129 0.500000 0.398706
O O3 0.062685 0.500000 0.107313
O O4 0.904508 0.389275 0.234099
O O5 0.796264 0.257956 0.253733
O O6 0.938604 0.180021 0.212920
O O7 0.000000 0.277738 0.000000
O O8 0.177767 0.600170 0.340599
O O9 0.000000 0.500000 0.500000
O O10 0.500000 0.000000 0.000000
O O11 0.165963 0.759539 0.252805
O O12 0.351732 0.656640 0.042875
O O13 0.556097 0.688583 0.222529
O O14 0.750000 0.750000 0.000000
O O15 0.034527 0.000000 0.159543
#
# Coordination Sequence:
#
# PCOD9183730 Si02
#       7
#     4   8   4   4   8   8   8
#     4  12  22  40  60  88 115 154 207 232 297 350
#     4   9  19  33  57  83 115 153 191 247 299 348
#     4  12  22  36  61  84 120 163 197 251 270 356
#     4  10  20  38  58  84 117 152 193 236 308 361
#     4  10  20  36  52  88 114 153 204 235 297 341
#     4  10  21  33  55  84 121 146 190 252 288 349
#     4  10  19  33  55  86 122 151 184 246 309 350
#
# _framework density 19.287281
#
# number of rings (size 3 to 8) (size 9 to 14) (size 15 to 20)
#    0.000    1.818    4.545    0.000    7.636    1.091 
#    1.636    0.909    0.000    0.000    0.000    1.909 
#    0.000    0.000    0.000    0.000    0.000    0.000 
#
# Total GULP energy -122546.377079 kJ/mol
# GULP energy per Si atom -5570.289867 kJ/mol
# Density = 1.924338 g / cm^3
# Si number density = 19.287281 Si / 1000 Ang^3
#
#
#
# Elastic Constant Matrix: (Units=GPa)
#
#
# Indices 1 2 3 4 5 6 
#
# 1 156.6978 65.6235 2.1023 0.0000 -0.8513 0.0000
# 2 65.6235 137.9036 -1.6911 0.0000 -6.0559 0.0000
# 3 2.1023 -1.6911 26.0535 0.0000 1.0124 0.0000
# 4 0.0000 0.0000 0.0000 -4.8275 0.0000 -4.3261
# 5 -0.8513 -6.0559 1.0124 0.0000 12.5382 0.0000
# 6 0.0000 0.0000 0.0000 -4.3261 0.0000 17.7384
#
#
#
# Elastic Compliance Matrix: (Units=1/GPa)
#
#
# Indices 1 2 3 4 5 6 
#
# 1 0.008010 -0.003877 -0.000849 0.000000 -0.001260 0.000000
# 2 -0.003877 0.009289 0.000754 0.000000 0.004162 0.000000
# 3 -0.000849 0.000754 0.038609 0.000000 -0.002811 0.000000
# 4 0.000000 0.000000 0.000000 -0.169995 0.000000 -0.041459
# 5 -0.001260 0.004162 -0.002811 0.000000 0.081908 0.000000
# 6 0.000000 0.000000 0.000000 -0.041459 0.000000 0.046264
#
#
# Mechanical properties :
#
#
# Convention : Reuss Voigt Hill
#
# Bulk Modulus (GPa) = 20.84941 50.30268 35.57605
# Shear Modulus (GPa) = 131.51758 22.06451 76.79104
#
# Velocity S-wave (km/s) = 8.26661 3.38597 6.31671
# Velocity P-wave (km/s) = 10.09699 6.43613 8.46678
#
# Compressibility (1/GPa) = 0.04796299
#
# Stress axis : x y z
#
# Youngs Moduli (GPa) = 124.84220 107.65843 25.90054
#
# Poissons Ratio (x) = 0.41744 0.02199
# Poissons Ratio (y) = 0.48407 -0.01953
# Poissons Ratio (z) = 0.10600 -0.08118
#
# Static dielectric constant tensor:
#      x y z
#    x 1.824380 0.000000 0.035240 
#    y 0.000000 1.678780 0.000000 
#    z 0.035240 0.000000 1.661940 
# 
# From -- ./inp_files/154144.got.cif
#   From: 2010.05.17/outbox.cif.g08.bks.cpg/sg12_78_cif.got.tgz:154144.got - 2010.06.03 13:09:07.
