data_PCOD9183544
_publ_section_title
;
Structure prediction by ZEFSAII (Michael W. Deem and Ramdas Pophale) SiO2 
 PCOD9183544
Probable space group: C 2/M
;
_chemical_formula_sum "Si O2"
_cell_formula_units_Z 56
_cell_length_a 23.961337
_cell_length_b 7.567345
_cell_length_c 15.490866
_cell_angle_alpha 90.000000
_cell_angle_beta 63.860385
_cell_angle_gamma 90.000000
_cell_volume 2521.579811
_symmetry_space_group_name_H-M "C 2/M"
_symmetry_group_IT_number 12
_symmetry_cell_setting 'monoclinic'
loop_
_space_group_symop_operation_xyz
x,y,z
-x,y,-z
-x,-y,-z
x,-y,z
1/2+x,1/2+y,z
1/2-x,1/2+y,-z
1/2-x,1/2-y,-z
1/2+x,1/2-y,z
loop_
_atom_site_type_symbol
_atom_site_label
_atom_site_fract_x
_atom_site_fract_y
_atom_site_fract_z
Si Si1 0.246326 0.707989 0.627699
Si Si2 0.179888 0.788396 0.022006
Si Si3 0.438805 0.714041 0.796202
Si Si4 0.016880 0.708049 0.582282
Si Si5 0.834435 0.786739 0.163354
Si Si6 0.529598 0.715399 0.887966
Si Si7 0.854272 0.702809 0.438402
O O1 0.252811 0.500000 0.605212
O O2 0.224453 0.732256 0.740043
O O3 0.190008 0.781403 0.605971
O O4 0.310412 0.792609 0.552942
O O5 0.128469 0.724346 0.124923
O O6 0.172231 0.000000 0.023568
O O7 0.250000 0.750000 0.000000
O O8 0.167232 0.722214 0.933805
O O9 0.439258 0.500000 0.794358
O O10 0.461041 0.774990 0.687815
O O11 0.488570 0.772904 0.834966
O O12 0.030635 0.500000 0.559634
O O13 0.079256 0.784650 0.584336
O O14 0.000000 0.782823 0.500000
O O15 0.898896 0.726628 0.163013
O O16 0.835564 0.000000 0.160918
O O17 0.528713 0.500000 0.887975
O O18 0.500000 0.768725 0.000000
O O19 0.865203 0.500000 0.404143
#
# Coordination Sequence:
#
# PCOD9183544 Si02
#       7
#     8   8   8   8   8   8   8
#     4  10  20  33  54  82 111 140 176 226 276 321
#     4  10  22  38  55  78 110 147 183 219 262 318
#     4  10  20  36  59  85 110 138 179 231 276 317
#     4  10  22  39  58  79 107 145 185 224 271 328
#     4  10  19  33  55  81 109 143 180 217 267 329
#     4   9  15  29  56  84 108 136 175 221 268 321
#     4   9  19  37  56  77 108 143 181 224 273 328
#
# _framework density 22.208300999999999
#
# number of rings (size 3 to 8) (size 9 to 14) (size 15 to 20)
#    0.000    2.286    1.429    1.286    0.000    3.714 
#    0.000    4.286    0.000    0.857    0.000    0.000 
#    0.000    0.000    0.000    0.000    0.000    0.000 
#
# Total GULP energy -156417.605803 kJ/mol
# GULP energy per Si atom -5586.343064 kJ/mol
# Density = 2.215775 g / cm^3
# Si number density = 22.208301 Si / 1000 Ang^3
#
#
#
# Elastic Constant Matrix: (Units=GPa)
#
#
# Indices 1 2 3 4 5 6 
#
# 1 95.3197 -0.7251 42.2908 0.0000 -12.2822 0.0000
# 2 -0.7251 54.1554 -13.6124 -0.0001 4.9133 -0.0002
# 3 42.2908 -13.6124 150.9808 0.0000 -7.8449 0.0000
# 4 0.0000 -0.0001 0.0000 11.7175 0.0000 -5.7380
# 5 -12.2822 4.9133 -7.8449 0.0000 28.2575 0.0000
# 6 0.0000 -0.0002 0.0000 -5.7380 0.0000 8.5593
#
#
#
# Elastic Compliance Matrix: (Units=1/GPa)
#
#
# Indices 1 2 3 4 5 6 
#
# 1 0.012592 -0.001110 -0.003382 0.000000 0.004727 0.000000
# 2 -0.001110 0.019221 0.001872 0.000001 -0.003305 0.000001
# 3 -0.003382 0.001872 0.007758 0.000000 0.000358 0.000000
# 4 0.000000 0.000001 0.000000 0.127050 0.000000 0.085172
# 5 0.004727 -0.003305 0.000358 0.000000 0.038118 0.000000
# 6 0.000000 0.000001 0.000000 0.085172 0.000000 0.173930
#
#
# Mechanical properties :
#
#
# Convention : Reuss Voigt Hill
#
# Bulk Modulus (GPa) = 29.12761 39.59584 34.36172
# Shear Modulus (GPa) = 12.64694 27.87369 20.26032
#
# Velocity S-wave (km/s) = 2.38894 3.54659 3.02368
# Velocity P-wave (km/s) = 4.55560 5.88549 5.26273
#
# Compressibility (1/GPa) = 0.03433169
#
# Stress axis : x y z
#
# Youngs Moduli (GPa) = 79.41542 52.02650 128.89940
#
# Poissons Ratio (x) = 0.05776 0.43588
# Poissons Ratio (y) = 0.08817 -0.24133
# Poissons Ratio (z) = 0.26855 -0.09741
#
# Static dielectric constant tensor:
#      x y z
#    x 1.819470 0.000000 0.003800 
#    y 0.000000 1.858160 0.000000 
#    z 0.003800 0.000000 1.799210 
# 
# From -- ./inp_files/238282.got.cif
#   From: 2010.05.17/outbox.cif.g08.bks.cpg/sg12_120_cif.got.tgz:238282.got - 2010.06.03 13:09:07.
