data_PCOD9183381
_publ_section_title
;
Structure prediction by ZEFSAII (Michael W. Deem and Ramdas Pophale) SiO2 
 PCOD9183381
Probable space group: C 2/M
;
_chemical_formula_sum "Si O2"
_cell_formula_units_Z 48
_cell_length_a 17.678286
_cell_length_b 12.837437
_cell_length_c 9.459254
_cell_angle_alpha 90.000000
_cell_angle_beta 66.966128
_cell_angle_gamma 90.000000
_cell_volume 1975.569804
_symmetry_space_group_name_H-M "C 2/M"
_symmetry_group_IT_number 12
_symmetry_cell_setting 'monoclinic'
loop_
_space_group_symop_operation_xyz
x,y,z
-x,y,-z
-x,-y,-z
x,-y,z
1/2+x,1/2+y,z
1/2-x,1/2+y,-z
1/2-x,1/2-y,-z
1/2+x,1/2-y,z
loop_
_atom_site_type_symbol
_atom_site_label
_atom_site_fract_x
_atom_site_fract_y
_atom_site_fract_z
Si Si1 0.305883 0.117824 0.287247
Si Si2 0.735809 0.120463 0.007990
Si Si3 0.879170 0.827662 0.556507
Si Si4 0.483840 0.176521 0.166620
Si Si5 0.025094 0.111934 0.244535
Si Si6 0.595455 0.890093 0.336961
O O1 0.302422 0.113559 0.119694
O O2 0.216731 0.157524 0.402442
O O3 0.386464 0.183729 0.262529
O O4 0.317419 0.000000 0.331482
O O5 0.779152 0.000000 0.985185
O O6 0.750000 0.250000 0.000000
O O7 0.678545 0.113897 0.186457
O O8 0.941941 0.877014 0.399081
O O9 0.904342 0.708494 0.562535
O O10 0.901414 0.876797 0.694574
O O11 0.525962 0.290424 0.141021
O O12 0.527189 0.118790 0.264168
O O13 0.500000 0.129686 0.000000
O O14 0.026590 0.000000 0.174379
O O15 0.589749 0.000000 0.416393
#
# Coordination Sequence:
#
# PCOD9183381 Si02
#       6
#     8   8   8   8   8   8
#     4  11  21  34  59  88 118 154 196 240 292 355
#     4  10  19  33  54  88 122 154 196 247 297 350
#     4  10  20  39  64  87 113 145 202 247 292 353
#     4  11  23  38  56  84 123 156 196 236 292 357
#     4  10  22  42  63  83 113 155 197 249 298 351
#     4  10  20  36  59  85 121 156 189 239 297 352
#
# _framework density 24.296786999999998
#
# number of rings (size 3 to 8) (size 9 to 14) (size 15 to 20)
#    0.000    1.667    3.333    2.500    0.000    1.667 
#    0.000    9.167    0.000    0.000    0.000    0.000 
#    0.000    0.000    0.000    0.000    0.000    0.000 
#
# Total GULP energy -133868.582598 kJ/mol
# GULP energy per Si atom -5577.857608 kJ/mol
# Density = 2.424149 g / cm^3
# Si number density = 24.296787 Si / 1000 Ang^3
#
#
#
# Elastic Constant Matrix: (Units=GPa)
#
#
# Indices 1 2 3 4 5 6 
#
# 1 88.4252 27.8774 9.3505 0.0000 -15.4911 0.0000
# 2 27.8774 209.2234 8.2571 0.0000 -0.3918 0.0000
# 3 9.3505 8.2571 63.1562 0.0000 -1.6060 0.0000
# 4 0.0000 0.0000 0.0000 15.7746 0.0000 -15.6397
# 5 -15.4911 -0.3918 -1.6060 0.0000 34.7829 0.0000
# 6 0.0000 0.0000 0.0000 -15.6397 0.0000 -10.7890
#
#
#
# Elastic Compliance Matrix: (Units=1/GPa)
#
#
# Indices 1 2 3 4 5 6 
#
# 1 0.012995 -0.001659 -0.001562 0.000000 0.005697 0.000000
# 2 -0.001659 0.005016 -0.000428 0.000000 -0.000702 0.000000
# 3 -0.001562 -0.000428 0.016122 0.000000 0.000044 0.000000
# 4 0.000000 0.000000 0.000000 0.026011 0.000000 -0.037705
# 5 0.005697 -0.000702 0.000044 0.000000 0.031281 0.000000
# 6 0.000000 0.000000 0.000000 -0.037705 0.000000 -0.038030
#
#
# Mechanical properties :
#
#
# Convention : Reuss Voigt Hill
#
# Bulk Modulus (GPa) = 37.26511 50.19720 43.73116
# Shear Modulus (GPa) = 71.79883 28.97502 50.38693
#
# Velocity S-wave (km/s) = 5.44196 3.45707 4.55885
# Velocity P-wave (km/s) = 7.40657 6.05310 6.76377
#
# Compressibility (1/GPa) = 0.02683475
#
# Stress axis : x y z
#
# Youngs Moduli (GPa) = 76.95089 199.35275 62.02661
#
# Poissons Ratio (x) = 0.33077 0.09690
# Poissons Ratio (y) = 0.12768 0.02655
# Poissons Ratio (z) = 0.12021 0.08533
#
# Static dielectric constant tensor:
#      x y z
#    x 1.939590 0.000000 -0.057510 
#    y 0.000000 2.016670 0.000000 
#    z -0.057510 0.000000 1.900420 
# 
# From -- ./inp_files/154212.got.cif
#   From: 2010.05.17/outbox.cif.g08.bks.cpg/sg12_78_cif.got.tgz:154212.got - 2010.06.03 13:09:07.
