data_PCOD9183316
_publ_section_title
;
Structure prediction by ZEFSAII (Michael W. Deem and Ramdas Pophale) SiO2 
 PCOD9183316
Probable space group: C 2/M
;
_chemical_formula_sum "Si O2"
_cell_formula_units_Z 56
_cell_length_a 19.476243
_cell_length_b 8.883914
_cell_length_c 30.765023
_cell_angle_alpha 90.000000
_cell_angle_beta 147.434653
_cell_angle_gamma 90.000000
_cell_volume 2865.232181
_symmetry_space_group_name_H-M "C 2/M"
_symmetry_group_IT_number 12
_symmetry_cell_setting 'monoclinic'
loop_
_space_group_symop_operation_xyz
x,y,z
-x,y,-z
-x,-y,-z
x,-y,z
1/2+x,1/2+y,z
1/2-x,1/2+y,-z
1/2-x,1/2-y,-z
1/2+x,1/2-y,z
loop_
_atom_site_type_symbol
_atom_site_label
_atom_site_fract_x
_atom_site_fract_y
_atom_site_fract_z
Si Si1 0.248993 0.320303 0.093152
Si Si2 0.706318 0.318655 0.312990
Si Si3 0.549949 0.176345 0.855979
Si Si4 0.398742 0.826571 0.486063
Si Si5 0.294642 0.821648 0.207309
Si Si6 0.974392 0.676282 0.916591
Si Si7 0.094190 0.821203 0.649486
O O1 0.259321 0.500000 0.099772
O O2 0.320853 0.256688 0.089552
O O3 0.312917 0.247315 0.169404
O O4 0.098635 0.283126 0.010969
O O5 0.709539 0.500000 0.310764
O O6 0.566199 0.255141 0.231277
O O7 0.768439 0.279321 0.392858
O O8 0.796577 0.248804 0.323657
O O9 0.518652 0.188427 0.890232
O O10 0.556711 0.000000 0.848811
O O11 0.500000 0.824517 0.500000
O O12 0.460257 0.726045 0.556242
O O13 0.389437 0.000000 0.495816
O O14 0.383808 0.747357 0.291342
O O15 0.149495 0.776026 0.142253
O O16 0.309831 0.000000 0.215292
O O17 0.941270 0.500000 0.907456
O O18 0.109038 0.000000 0.658341
#
# Coordination Sequence:
#
# PCOD9183316 Si02
#       7
#     8   8   8   8   8   8   8
#     4  11  24  41  59  81 115 153 191 236 289 340
#     4  10  19  33  54  82 114 150 188 229 280 332
#     4  11  22  37  59  86 117 151 192 235 280 338
#     4   8  16  30  49  77 113 146 182 228 277 330
#     4  12  24  38  59  84 114 151 193 237 285 340
#     4  10  22  40  61  85 113 148 189 239 288 335
#     4  11  20  32  53  82 114 147 187 232 283 335
#
# _framework density 19.544663
#
# number of rings (size 3 to 8) (size 9 to 14) (size 15 to 20)
#    0.000    1.571    1.429    5.571    0.000    6.571 
#    0.000    0.000    0.000    0.857    0.000    0.000 
#    0.000    0.000    0.000    0.000    0.000    0.000 
#
# Total GULP energy -156482.211375 kJ/mol
# GULP energy per Si atom -5588.650406 kJ/mol
# Density = 1.950018 g / cm^3
# Si number density = 19.544663 Si / 1000 Ang^3
#
#
#
# Elastic Constant Matrix: (Units=GPa)
#
#
# Indices 1 2 3 4 5 6 
#
# 1 31.5157 14.0767 -0.5977 0.0000 -8.4649 0.0000
# 2 14.0767 95.0218 40.7260 0.0000 -14.9837 0.0000
# 3 -0.5977 40.7260 102.1350 0.0000 -20.0672 0.0000
# 4 0.0000 0.0000 0.0000 29.8767 0.0000 0.2281
# 5 -8.4649 -14.9837 -20.0672 0.0000 23.2960 0.0000
# 6 0.0000 0.0000 0.0000 0.2281 0.0000 20.6293
#
#
#
# Elastic Compliance Matrix: (Units=1/GPa)
#
#
# Indices 1 2 3 4 5 6 
#
# 1 0.038379 -0.005646 0.005420 0.000000 0.014983 0.000000
# 2 -0.005646 0.013943 -0.005096 0.000000 0.002526 0.000000
# 3 0.005420 -0.005096 0.013960 0.000000 0.010717 0.000000
# 4 0.000000 0.000000 0.000000 0.033474 0.000000 -0.000370
# 5 0.014983 0.002526 0.010717 0.000000 0.059226 0.000000
# 6 0.000000 0.000000 0.000000 -0.000370 0.000000 0.048479
#
#
# Mechanical properties :
#
#
# Convention : Reuss Voigt Hill
#
# Bulk Modulus (GPa) = 17.97360 37.45360 27.71360
# Shear Modulus (GPa) = 21.12808 26.39158 23.75983
#
# Velocity S-wave (km/s) = 3.29145 3.67866 3.49043
# Velocity P-wave (km/s) = 4.86425 6.10312 5.51856
#
# Compressibility (1/GPa) = 0.05563716
#
# Stress axis : x y z
#
# Youngs Moduli (GPa) = 26.05600 71.72095 71.63098
#
# Poissons Ratio (x) = 0.40492 -0.38821
# Poissons Ratio (y) = 0.14711 0.36506
# Poissons Ratio (z) = -0.14121 0.36551
#
# Static dielectric constant tensor:
#      x y z
#    x 1.689860 0.000000 -0.008020 
#    y 0.000000 1.647980 0.000000 
#    z -0.008020 0.000000 1.705510 
# 
# From -- ./inp_files/380820.got.cif
#   From: 2010.05.17/outbox.cif.g08.bks.cpg/sg12_191_cif.got.tgz:380820.got - 2010.06.03 13:09:07.
