data_PCOD9183347
_publ_section_title
;
Structure prediction by ZEFSAII (Michael W. Deem and Ramdas Pophale) SiO2 
 PCOD9183347
Probable space group: C 2/M
;
_chemical_formula_sum "Si O2"
_cell_formula_units_Z 64
_cell_length_a 31.175884
_cell_length_b 8.241918
_cell_length_c 14.767224
_cell_angle_alpha 90.000000
_cell_angle_beta 50.047916
_cell_angle_gamma 90.000000
_cell_volume 2908.736597
_symmetry_space_group_name_H-M "C 2/M"
_symmetry_group_IT_number 12
_symmetry_cell_setting 'monoclinic'
loop_
_space_group_symop_operation_xyz
x,y,z
-x,y,-z
-x,-y,-z
x,-y,z
1/2+x,1/2+y,z
1/2-x,1/2+y,-z
1/2-x,1/2-y,-z
1/2+x,1/2-y,z
loop_
_atom_site_type_symbol
_atom_site_label
_atom_site_fract_x
_atom_site_fract_y
_atom_site_fract_z
Si Si1 0.137237 0.695397 0.294236
Si Si2 0.241168 0.804684 0.909613
Si Si3 0.159327 0.806119 0.872282
Si Si4 0.581506 0.309258 0.734858
Si Si5 0.540317 0.305393 0.066848
Si Si6 0.556363 0.309689 0.258382
Si Si7 0.798420 0.689341 0.367447
Si Si8 0.939303 0.690101 0.436211
O O1 0.134091 0.500000 0.293486
O O2 0.201556 0.741743 0.218872
O O3 0.112366 0.764383 0.234906
O O4 0.099000 0.748400 0.429727
O O5 0.188410 0.741896 0.924142
O O6 0.237153 0.000000 0.916041
O O7 0.250000 0.750000 0.000000
O O8 0.199322 0.773633 0.733455
O O9 0.153505 0.000000 0.890318
O O10 0.096039 0.743363 0.941342
O O11 0.587752 0.500000 0.749495
O O12 0.523414 0.245640 0.859041
O O13 0.639567 0.222950 0.677501
O O14 0.571074 0.288794 0.641632
O O15 0.536002 0.500000 0.057529
O O16 0.555912 0.278855 0.151595
O O17 0.545536 0.500000 0.285118
O O18 0.504613 0.211342 0.370291
O O19 0.790401 0.500000 0.364657
O O20 0.750000 0.750000 0.500000
O O21 0.927543 0.500000 0.434770
#
# Coordination Sequence:
#
# PCOD9183347 Si02
#       8
#     8   8   8   8   8   8   8   8
#     4  10  21  34  50  77 115 159 204 253 311 372
#     4  10  22  39  60  88 123 164 207 255 311 370
#     4  10  21  41  67  93 124 168 213 258 313 374
#     4  10  21  40  64  93 125 161 206 254 305 368
#     4   8  17  35  61  90 122 159 203 251 307 368
#     4  10  19  33  54  83 117 158 207 256 307 364
#     4  12  27  46  67  94 126 163 207 260 318 377
#     4  10  20  34  54  82 119 161 203 252 312 372
#
# _framework density 22.002680000000002
#
# number of rings (size 3 to 8) (size 9 to 14) (size 15 to 20)
#    0.000    2.000    0.000    4.125    1.750    5.000 
#    0.000    6.250    0.000    0.000    0.000    0.000 
#    0.000    0.000    0.000    0.000    0.000    0.000 
#
# Total GULP energy -178760.827038 kJ/mol
# GULP energy per Si atom -5586.275845 kJ/mol
# Density = 2.195260 g / cm^3
# Si number density = 22.002680 Si / 1000 Ang^3
#
#
#
# Elastic Constant Matrix: (Units=GPa)
#
#
# Indices 1 2 3 4 5 6 
#
# 1 119.2790 -0.8805 39.2156 0.0000 -15.3249 0.0000
# 2 -0.8805 9.0212 5.4468 0.0000 -9.5331 0.0001
# 3 39.2156 5.4468 119.2327 0.0000 -20.6884 0.0000
# 4 0.0000 0.0000 0.0000 19.9163 0.0000 1.6767
# 5 -15.3249 -9.5331 -20.6884 0.0000 30.4876 0.0000
# 6 0.0000 0.0001 0.0000 1.6767 0.0000 26.5194
#
#
#
# Elastic Compliance Matrix: (Units=1/GPa)
#
#
# Indices 1 2 3 4 5 6 
#
# 1 0.010115 0.009045 -0.002683 0.000000 0.006092 0.000000
# 2 0.009045 0.173914 -0.000788 0.000000 0.058392 -0.000001
# 3 -0.002683 -0.000788 0.010234 0.000000 0.005349 0.000000
# 4 0.000000 0.000000 0.000000 0.050479 0.000000 -0.003192
# 5 0.006092 0.058392 0.005349 0.000000 0.057751 0.000000
# 6 0.000000 -0.000001 0.000000 -0.003192 0.000000 0.037910
#
#
# Mechanical properties :
#
#
# Convention : Reuss Voigt Hill
#
# Bulk Modulus (GPa) = 4.86829 37.23298 21.05063
# Shear Modulus (GPa) = 12.57152 28.96806 20.76979
#
# Velocity S-wave (km/s) = 2.39291 3.63239 3.07574
# Velocity P-wave (km/s) = 3.13881 5.87802 4.71186
#
# Compressibility (1/GPa) = 0.20541084
#
# Stress axis : x y z
#
# Youngs Moduli (GPa) = 98.86013 5.74998 97.71747
#
# Poissons Ratio (x) = -0.05201 0.26218
# Poissons Ratio (y) = -0.89419 0.07698
# Poissons Ratio (z) = 0.26525 0.00453
#
# Static dielectric constant tensor:
#      x y z
#    x 1.827660 0.000000 -0.025350 
#    y 0.000000 1.768430 0.000000 
#    z -0.025350 0.000000 1.873200 
# 
# From -- ./inp_files/249849.got.cif
#   From: 2010.05.17/outbox.cif.g08.bks.cpg/sg12_125_cif.got.tgz:249849.got - 2010.06.03 13:09:07.
