data_PCOD9183542
_publ_section_title
;
Structure prediction by ZEFSAII (Michael W. Deem and Ramdas Pophale) SiO2 
 PCOD9183542
Probable space group: C 2/M
;
_chemical_formula_sum "Si O2"
_cell_formula_units_Z 48
_cell_length_a 28.389062
_cell_length_b 7.441612
_cell_length_c 20.847361
_cell_angle_alpha 90.000000
_cell_angle_beta 150.980916
_cell_angle_gamma 90.000000
_cell_volume 2136.491859
_symmetry_space_group_name_H-M "C 2/M"
_symmetry_group_IT_number 12
_symmetry_cell_setting 'monoclinic'
loop_
_space_group_symop_operation_xyz
x,y,z
-x,y,-z
-x,-y,-z
x,-y,z
1/2+x,1/2+y,z
1/2-x,1/2+y,-z
1/2-x,1/2-y,-z
1/2+x,1/2-y,z
loop_
_atom_site_type_symbol
_atom_site_label
_atom_site_fract_x
_atom_site_fract_y
_atom_site_fract_z
Si Si1 0.233262 0.294280 0.169957
Si Si2 0.746071 0.285017 0.571406
Si Si3 0.467827 0.280231 0.646031
Si Si4 0.569708 0.297167 0.642237
Si Si5 0.663013 0.713862 0.948593
Si Si6 0.389206 0.779968 0.854142
O O1 0.257152 0.500000 0.218129
O O2 0.333933 0.205322 0.268689
O O3 0.174946 0.221221 0.160883
O O4 0.177703 0.295130 0.036363
O O5 0.746273 0.500000 0.579287
O O6 0.750000 0.250000 0.500000
O O7 0.640489 0.216766 0.468562
O O8 0.834308 0.221909 0.722983
O O9 0.462120 0.500000 0.639317
O O10 0.508176 0.216718 0.625959
O O11 0.556520 0.229527 0.797901
O O12 0.500000 0.315367 0.500000
O O13 0.598814 0.500000 0.700252
O O14 0.662501 0.500000 0.955464
O O15 0.750000 0.750000 0.000000
O O16 0.391967 0.000000 0.856552
O O17 0.500000 0.722056 0.000000
#
# Coordination Sequence:
#
# PCOD9183542 Si02
#       6
#     8   8   8   8   8   8
#     4  10  19  33  55  81 109 141 182 229 278 333
#     4  10  21  38  59  83 112 147 188 234 281 333
#     4   9  18  32  50  76 109 140 178 225 271 326
#     4   9  15  26  49  77 100 131 175 220 268 325
#     4  11  21  35  54  81 114 147 184 226 275 334
#     4   9  19  35  56  84 114 144 185 236 285 332
#
# _framework density 22.466736999999998
#
# number of rings (size 3 to 8) (size 9 to 14) (size 15 to 20)
#    0.000    2.333    1.667    1.500    2.333    4.000 
#    0.000    1.667    0.000    1.500    0.000    0.000 
#    0.000    0.000    0.000    0.000    0.000    0.000 
#
# Total GULP energy -133835.881217 kJ/mol
# GULP energy per Si atom -5576.495051 kJ/mol
# Density = 2.241560 g / cm^3
# Si number density = 22.466737 Si / 1000 Ang^3
#
#
#
# Elastic Constant Matrix: (Units=GPa)
#
#
# Indices 1 2 3 4 5 6 
#
# 1 187.3246 0.2506 108.4383 0.0000 9.1489 0.0000
# 2 0.2506 74.3817 4.3575 0.0000 4.7488 0.0000
# 3 108.4383 4.3575 202.5289 0.0000 5.4133 0.0000
# 4 0.0000 0.0000 0.0000 10.9809 0.0000 -7.5612
# 5 9.1489 4.7488 5.4133 0.0000 42.4704 0.0000
# 6 0.0000 0.0000 0.0000 -7.5612 0.0000 13.3086
#
#
#
# Elastic Compliance Matrix: (Units=1/GPa)
#
#
# Indices 1 2 3 4 5 6 
#
# 1 0.007798 0.000292 -0.004150 0.000000 -0.001184 0.000000
# 2 0.000292 0.013565 -0.000408 0.000000 -0.001528 0.000000
# 3 -0.004150 -0.000408 0.007168 0.000000 0.000026 0.000000
# 4 0.000000 0.000000 0.000000 0.149587 0.000000 0.084986
# 5 -0.001184 -0.001528 0.000026 0.000000 0.023968 0.000000
# 6 0.000000 0.000000 0.000000 0.084986 0.000000 0.123423
#
#
# Mechanical properties :
#
#
# Convention : Reuss Voigt Hill
#
# Bulk Modulus (GPa) = 49.99976 76.70311 63.35144
# Shear Modulus (GPa) = 14.67544 36.76456 25.72000
#
# Velocity S-wave (km/s) = 2.55857 4.04963 3.38717
# Velocity P-wave (km/s) = 5.57061 7.48872 6.59972
#
# Compressibility (1/GPa) = 0.02000009
#
# Stress axis : x y z
#
# Youngs Moduli (GPa) = 128.23757 73.72132 139.51705
#
# Poissons Ratio (x) = -0.02156 0.57898
# Poissons Ratio (y) = -0.03750 0.05686
# Poissons Ratio (z) = 0.53217 0.03005
#
# Static dielectric constant tensor:
#      x y z
#    x 1.830250 0.000000 -0.023240 
#    y 0.000000 1.835780 0.000000 
#    z -0.023240 0.000000 1.901140 
# 
# From -- ./inp_files/327338.got.cif
#   From: 2010.05.17/outbox.cif.g08.bks.cpg/sg12_164_cif.got.tgz:327338.got - 2010.06.03 13:09:07.
