data_PCOD9183190
_publ_section_title
;
Structure prediction by ZEFSAII (Michael W. Deem and Ramdas Pophale) SiO2 
 PCOD9183190
Probable space group: C 2/M
;
_chemical_formula_sum "Si O2"
_cell_formula_units_Z 56
_cell_length_a 32.224870
_cell_length_b 7.411157
_cell_length_c 12.126368
_cell_angle_alpha 90.000000
_cell_angle_beta 49.468053
_cell_angle_gamma 90.000000
_cell_volume 2201.134145
_symmetry_space_group_name_H-M "C 2/M"
_symmetry_group_IT_number 12
_symmetry_cell_setting 'monoclinic'
loop_
_space_group_symop_operation_xyz
x,y,z
-x,y,-z
-x,-y,-z
x,-y,z
1/2+x,1/2+y,z
1/2-x,1/2+y,-z
1/2-x,1/2-y,-z
1/2+x,1/2-y,z
loop_
_atom_site_type_symbol
_atom_site_label
_atom_site_fract_x
_atom_site_fract_y
_atom_site_fract_z
Si Si1 0.338517 0.796053 0.619886
Si Si2 0.005404 0.203730 0.117616
Si Si3 0.220266 0.717091 0.900878
Si Si4 0.627486 0.217753 0.885168
Si Si5 0.688155 0.783697 0.568821
Si Si6 0.509410 0.709936 0.356900
Si Si7 0.372471 0.219148 0.781562
O O1 0.278233 0.802941 0.777773
O O2 0.328193 0.707167 0.520980
O O3 0.376098 0.714774 0.649598
O O4 0.358632 0.000000 0.567758
O O5 0.988442 0.279276 0.270781
O O6 0.982699 0.000000 0.150537
O O7 0.070638 0.198841 0.014926
O O8 0.000000 0.283727 0.000000
O O9 0.227646 0.500000 0.892297
O O10 0.179110 0.759329 0.872181
O O11 0.184735 0.778324 0.066452
O O12 0.645275 0.275816 0.733336
O O13 0.620728 0.000000 0.901377
O O14 0.750000 0.750000 0.500000
O O15 0.684697 0.000000 0.567900
O O16 0.500000 0.786074 0.500000
O O17 0.493569 0.500000 0.387498
O O18 0.575326 0.723498 0.240518
O O19 0.371564 0.000000 0.783889
#
# Coordination Sequence:
#
# PCOD9183190 Si02
#       7
#     8   8   8   8   8   8   8
#     4  10  21  34  52  80 113 147 186 227 268 319
#     4  10  22  40  61  85 111 140 181 231 280 333
#     4  10  19  33  54  79 110 144 181 222 265 318
#     4  10  20  35  56  81 109 143 182 223 270 324
#     4  10  20  34  51  75 109 146 183 224 268 317
#     4  10  22  40  61  84 111 144 182 228 282 337
#     4  10  21  37  55  80 112 145 183 227 273 325
#
# _framework density 25.441431999999999
#
# number of rings (size 3 to 8) (size 9 to 14) (size 15 to 20)
#    0.000    2.000    2.857    0.429    0.000    4.000 
#    0.000    0.000    0.000    0.000    0.000    0.000 
#    0.000    0.000    0.000    0.000    0.000    0.000 
#
# Total GULP energy -156264.894567 kJ/mol
# GULP energy per Si atom -5580.889092 kJ/mol
# Density = 2.538353 g / cm^3
# Si number density = 25.441432 Si / 1000 Ang^3
#
#
#
# Elastic Constant Matrix: (Units=GPa)
#
#
# Indices 1 2 3 4 5 6 
#
# 1 113.0164 9.3726 38.0144 0.0000 52.9924 0.0000
# 2 9.3726 87.2042 8.9430 0.0000 7.9576 0.0000
# 3 38.0144 8.9430 136.5194 0.0000 56.7414 0.0000
# 4 0.0000 0.0000 0.0000 2.4988 0.0000 -11.9141
# 5 52.9924 7.9576 56.7414 0.0000 64.0273 0.0000
# 6 0.0000 0.0000 0.0000 -11.9141 0.0000 4.5587
#
#
#
# Elastic Compliance Matrix: (Units=1/GPa)
#
#
# Indices 1 2 3 4 5 6 
#
# 1 0.014679 -0.000508 0.001534 0.000000 -0.013445 0.000000
# 2 -0.000508 0.011622 -0.000308 0.000000 -0.000751 0.000000
# 3 0.001534 -0.000308 0.011762 0.000000 -0.011655 0.000000
# 4 0.000000 0.000000 0.000000 -0.034918 0.000000 -0.091257
# 5 -0.013445 -0.000751 -0.011655 0.000000 0.037169 0.000000
# 6 0.000000 0.000000 0.000000 -0.091257 0.000000 -0.019140
#
#
# Mechanical properties :
#
#
# Convention : Reuss Voigt Hill
#
# Bulk Modulus (GPa) = 25.31636 49.93334 37.62485
# Shear Modulus (GPa) = 151.96116 32.91099 92.43607
#
# Velocity S-wave (km/s) = 7.73689 3.60056 6.03422
# Velocity P-wave (km/s) = 9.47550 6.07905 7.96052
#
# Compressibility (1/GPa) = 0.03950015
#
# Stress axis : x y z
#
# Youngs Moduli (GPa) = 68.12557 86.04333 85.01830
#
# Poissons Ratio (x) = 0.04372 -0.13044
# Poissons Ratio (y) = 0.03461 0.02615
# Poissons Ratio (z) = -0.10452 0.02646
#
# Static dielectric constant tensor:
#      x y z
#    x 2.001520 0.000000 0.103210 
#    y 0.000000 1.976950 0.000000 
#    z 0.103210 0.000000 2.088500 
# 
# From -- ./inp_files/187235.got.cif
#   From: 2010.05.17/outbox.cif.g08.bks.cpg/sg12_94_cif.got.tgz:187235.got - 2010.06.03 13:09:07.
