data_PCOD9183521
_publ_section_title
;
Structure prediction by ZEFSAII (Michael W. Deem and Ramdas Pophale) SiO2 
 PCOD9183521
Probable space group: C 2/M
;
_chemical_formula_sum "Si O2"
_cell_formula_units_Z 64
_cell_length_a 24.993192
_cell_length_b 8.574025
_cell_length_c 20.900949
_cell_angle_alpha 90.000000
_cell_angle_beta 43.542003
_cell_angle_gamma 90.000000
_cell_volume 3085.460092
_symmetry_space_group_name_H-M "C 2/M"
_symmetry_group_IT_number 12
_symmetry_cell_setting 'monoclinic'
loop_
_space_group_symop_operation_xyz
x,y,z
-x,y,-z
-x,-y,-z
x,-y,z
1/2+x,1/2+y,z
1/2-x,1/2+y,-z
1/2-x,1/2-y,-z
1/2+x,1/2-y,z
loop_
_atom_site_type_symbol
_atom_site_label
_atom_site_fract_x
_atom_site_fract_y
_atom_site_fract_z
Si Si1 0.565685 0.186950 0.147714
Si Si2 0.662380 0.810225 0.942633
Si Si3 0.580746 0.685962 0.657890
Si Si4 0.125794 0.820083 0.355044
Si Si5 0.187215 0.681052 0.782706
Si Si6 0.658588 0.310121 0.187965
Si Si7 0.715765 0.314081 0.626126
Si Si8 0.891322 0.314282 0.496438
O O1 0.483860 0.262206 0.235927
O O2 0.621760 0.237262 0.157126
O O3 0.558680 0.000000 0.152639
O O4 0.602387 0.240109 0.048703
O O5 0.648653 0.758566 0.881490
O O6 0.750316 0.767987 0.886329
O O7 0.661381 0.000000 0.941188
O O8 0.583403 0.500000 0.651627
O O9 0.663148 0.747319 0.613950
O O10 0.561343 0.750401 0.604582
O O11 0.219717 0.815672 0.283940
O O12 0.117253 0.758144 0.290230
O O13 0.089507 0.738296 0.448329
O O14 0.101251 0.000000 0.377127
O O15 0.165889 0.500000 0.790677
O O16 0.174464 0.774874 0.729105
O O17 0.652971 0.500000 0.190508
O O18 0.721272 0.500000 0.614465
O O19 0.803439 0.253221 0.557438
O O20 0.891709 0.500000 0.494620
#
# Coordination Sequence:
#
# PCOD9183521 Si02
#       8
#     8   8   8   8   8   8   8   8
#     4  11  22  35  51  74 105 137 173 216 255 291
#     4   8  16  32  54  79 105 134 169 208 250 300
#     4  11  23  38  52  69 101 141 175 206 249 306
#     4   8  15  29  51  78 105 132 162 199 247 304
#     4   8  14  28  52  78 102 130 165 204 247 298
#     4   9  17  33  56  79 104 135 170 205 248 305
#     4   9  19  34  53  78 104 130 164 209 256 301
#     4  10  19  33  55  81 104 126 162 212 258 299
#
# _framework density 20.742449000000001
#
# number of rings (size 3 to 8) (size 9 to 14) (size 15 to 20)
#    0.000    2.750    0.000    3.375    0.000    2.000 
#    0.000    5.000    0.000    7.500    0.000    0.000 
#    0.000    0.000    0.000    0.000    0.000    0.000 
#
# Total GULP energy -178522.030161 kJ/mol
# GULP energy per Si atom -5578.813443 kJ/mol
# Density = 2.069524 g / cm^3
# Si number density = 20.742449 Si / 1000 Ang^3
#
#
#
# Elastic Constant Matrix: (Units=GPa)
#
#
# Indices 1 2 3 4 5 6 
#
# 1 -1203.2750 305.2604 1385.3346 -0.0261 28.9379 -0.0195
# 2 305.2604 -59.0574 -323.2943 0.0041 -3.7442 0.0069
# 3 1385.3346 -323.2943-1356.3005 0.0272 2.7554 0.0227
# 4 -0.0261 0.0041 0.0272 27.2745 0.0018 5.2982
# 5 28.9379 -3.7442 2.7554 0.0018 27.8875 0.0007
# 6 -0.0195 0.0069 0.0227 5.2982 0.0007 19.3546
#
#
#
# Elastic Compliance Matrix: (Units=1/GPa)
#
#
# Indices 1 2 3 4 5 6 
#
# 1 0.006554 0.007551 0.004881 0.000001 -0.006269 -0.000002
# 2 0.007551 0.066470 -0.008128 0.000007 0.001892 -0.000008
# 3 0.004881 -0.008128 0.006172 0.000000 -0.006766 0.000001
# 4 0.000001 0.000007 0.000000 0.038723 -0.000002 -0.010600
# 5 -0.006269 0.001892 -0.006766 -0.000002 0.043286 0.000000
# 6 -0.000002 -0.000008 0.000001 -0.010600 0.000000 0.054569
#
#
# Mechanical properties :
#
#
# Convention : Reuss Voigt Hill
#
# Bulk Modulus (GPa) = 11.38896 12.88538 12.13717
# Shear Modulus (GPa) = 21.14770 -250.82557 -114.83894
#
# Velocity S-wave (km/s) = 3.19648 -11.00847 -7.44879
# Velocity P-wave (km/s) = 4.37332 12.46420 8.25319
#
# Compressibility (1/GPa) = 0.08780435
#
# Stress axis : x y z
#
# Youngs Moduli (GPa) = 152.58966 15.04445 162.02281
#
# Poissons Ratio (x) = -0.11360 -0.79086
# Poissons Ratio (y) = -1.15220 1.31685
# Poissons Ratio (z) = -0.74482 0.12228
#
# Static dielectric constant tensor:
#      x y z
#    x 1.771830 0.000000 -0.017020 
#    y 0.000000 1.706510 0.000000 
#    z -0.017020 0.000000 1.777360 
# 
# From -- ./inp_files/326871.got.cif
#   From: 2010.05.17/outbox.cif.g08.bks.cpg/sg12_164_cif.got.tgz:326871.got - 2010.06.03 13:09:07.
