data_PCOD9183759
_publ_section_title
;
Structure prediction by ZEFSAII (Michael W. Deem and Ramdas Pophale) SiO2 
 PCOD9183759
Probable space group: C 2/M
;
_chemical_formula_sum "Si O2"
_cell_formula_units_Z 32
_cell_length_a 19.011933
_cell_length_b 8.344339
_cell_length_c 11.615780
_cell_angle_alpha 90.000000
_cell_angle_beta 114.124937
_cell_angle_gamma 90.000000
_cell_volume 1681.798199
_symmetry_space_group_name_H-M "C 2/M"
_symmetry_group_IT_number 12
_symmetry_cell_setting 'monoclinic'
loop_
_space_group_symop_operation_xyz
x,y,z
-x,y,-z
-x,-y,-z
x,-y,z
1/2+x,1/2+y,z
1/2-x,1/2+y,-z
1/2-x,1/2-y,-z
1/2+x,1/2-y,z
loop_
_atom_site_type_symbol
_atom_site_label
_atom_site_fract_x
_atom_site_fract_y
_atom_site_fract_z
Si Si1 0.424898 0.195873 0.878328
Si Si2 0.954750 0.308035 0.638567
Si Si3 0.263565 0.193907 0.879339
Si Si4 0.614351 0.691909 0.639124
O O1 0.431474 0.247693 0.750108
O O2 0.345826 0.248849 0.885144
O O3 0.424688 0.000000 0.878335
O O4 0.500000 0.247176 0.000000
O O5 0.955765 0.500000 0.638664
O O6 0.898429 0.250858 0.499473
O O7 0.040113 0.249544 0.661491
O O8 0.192904 0.248180 0.751387
O O9 0.263844 0.000000 0.878711
O O10 0.250000 0.250000 0.000000
O O11 0.613759 0.500000 0.637724
#
# Coordination Sequence:
#
# PCOD9183759 Si02
#       4
#     8   8   8   8
#     4   9  18  33  53  76 102 132 170 216 257 296
#     4  10  19  33  56  79 100 135 179 212 245 302
#     4  10  21  36  54  77 104 136 172 211 258 306
#     4  10  20  34  52  76 109 139 164 208 264 306
#
# _framework density 19.027253999999999
#
# number of rings (size 3 to 8) (size 9 to 14) (size 15 to 20)
#    0.000    2.250    0.000    4.500    0.000    5.000 
#    0.000    2.500    0.000    6.750    0.000    0.000 
#    0.000    0.000    0.000    0.000    0.000    0.000 
#
# Total GULP energy -89342.925105 kJ/mol
# GULP energy per Si atom -5583.932819 kJ/mol
# Density = 1.898395 g / cm^3
# Si number density = 19.027254 Si / 1000 Ang^3
#
#
#
# Elastic Constant Matrix: (Units=GPa)
#
#
# Indices 1 2 3 4 5 6 
#
# 1 167.6595 18.9943 152.3074 0.0000 -1.1370 0.0000
# 2 18.9943 25.4644 23.7698 0.0000 1.5499 0.0000
# 3 152.3074 23.7698 211.4600 0.0000 1.1739 0.0000
# 4 0.0000 0.0000 0.0000 20.8376 0.0000 -7.3002
# 5 -1.1370 1.5499 1.1739 0.0000 44.0358 0.0000
# 6 0.0000 0.0000 0.0000 -7.3002 0.0000 10.5340
#
#
#
# Elastic Compliance Matrix: (Units=1/GPa)
#
#
# Indices 1 2 3 4 5 6 
#
# 1 0.017330 -0.001476 -0.012321 0.000000 0.000828 0.000000
# 2 -0.001476 0.044088 -0.003884 0.000000 -0.001486 0.000000
# 3 -0.012321 -0.003884 0.014043 0.000000 -0.000556 0.000000
# 4 0.000000 0.000000 0.000000 0.063377 0.000000 0.043921
# 5 0.000828 -0.001486 -0.000556 0.000000 0.022797 0.000000
# 6 0.000000 0.000000 0.000000 0.043921 0.000000 0.125369
#
#
# Mechanical properties :
#
#
# Convention : Reuss Voigt Hill
#
# Bulk Modulus (GPa) = 24.93874 88.30300 56.62087
# Shear Modulus (GPa) = 14.89277 29.04896 21.97086
#
# Velocity S-wave (km/s) = 2.80073 3.91154 3.40178
# Velocity P-wave (km/s) = 4.85737 8.17983 6.72695
#
# Compressibility (1/GPa) = 0.04009825
#
# Stress axis : x y z
#
# Youngs Moduli (GPa) = 57.70335 22.68190 71.20964
#
# Poissons Ratio (x) = 0.03348 0.87736
# Poissons Ratio (y) = 0.08518 0.27660
# Poissons Ratio (z) = 0.71096 0.08810
#
# Static dielectric constant tensor:
#      x y z
#    x 1.636400 0.000000 0.008160 
#    y 0.000000 1.661830 0.000000 
#    z 0.008160 0.000000 1.647930 
# 
# From -- ./inp_files/138611.got.cif
#   From: 2010.05.17/outbox.cif.g08.bks.cpg/sg12_70_cif.got.tgz:138611.got - 2010.06.03 13:09:07.
