data_PCOD9183266
_publ_section_title
;
Structure prediction by ZEFSAII (Michael W. Deem and Ramdas Pophale) SiO2 
 PCOD9183266
Probable space group: C 2/M
;
_chemical_formula_sum "Si O2"
_cell_formula_units_Z 56
_cell_length_a 17.684869
_cell_length_b 13.290426
_cell_length_c 13.146350
_cell_angle_alpha 90.000000
_cell_angle_beta 66.128009
_cell_angle_gamma 90.000000
_cell_volume 2825.574780
_symmetry_space_group_name_H-M "C 2/M"
_symmetry_group_IT_number 12
_symmetry_cell_setting 'monoclinic'
loop_
_space_group_symop_operation_xyz
x,y,z
-x,y,-z
-x,-y,-z
x,-y,z
1/2+x,1/2+y,z
1/2-x,1/2+y,-z
1/2-x,1/2-y,-z
1/2+x,1/2-y,z
loop_
_atom_site_type_symbol
_atom_site_label
_atom_site_fract_x
_atom_site_fract_y
_atom_site_fract_z
Si Si1 0.572828 0.318421 0.803564
Si Si2 0.678497 0.614549 0.555963
Si Si3 0.637278 0.824399 0.492838
Si Si4 0.140566 0.315599 0.255929
Si Si5 0.105066 0.885006 0.175895
Si Si6 0.317442 0.619884 0.078282
Si Si7 0.025116 0.612425 0.735242
O O1 0.640023 0.362990 0.688047
O O2 0.486405 0.370426 0.821625
O O3 0.606565 0.337697 0.897084
O O4 0.561071 0.200352 0.786394
O O5 0.659968 0.500000 0.535969
O O6 0.642257 0.703440 0.505761
O O7 0.776781 0.631455 0.510514
O O8 0.631561 0.848049 0.377509
O O9 0.564602 0.866645 0.602573
O O10 0.118706 0.197847 0.254529
O O11 0.232465 0.335587 0.166648
O O12 0.072866 0.372320 0.224240
O O13 0.115349 0.000000 0.203418
O O14 0.167159 0.861767 0.049057
O O15 0.316054 0.500000 0.094076
O O16 0.045175 0.500000 0.757659
#
# Coordination Sequence:
#
# PCOD9183266 Si02
#       7
#     8   8   8   8   8   8   8
#     4  10  20  36  59  84 109 140 184 232 275 322
#     4  10  19  33  54  81 111 141 179 228 274 322
#     4  10  21  34  52  82 111 144 186 221 268 328
#     4  11  22  37  56  82 114 146 184 226 271 328
#     4  10  22  38  57  82 112 146 183 228 279 325
#     4  11  21  36  60  84 107 143 189 232 274 320
#     4  10  22  38  56  82 115 147 181 222 272 332
#
# _framework density 19.818977
#
# number of rings (size 3 to 8) (size 9 to 14) (size 15 to 20)
#    0.000    1.714    1.429    3.429    0.000    4.000 
#    0.000    0.714    0.000   12.857    0.000    0.000 
#    0.000    0.000    0.000    0.000    0.000    0.000 
#
# Total GULP energy -156448.610144 kJ/mol
# GULP energy per Si atom -5587.450362 kJ/mol
# Density = 1.977387 g / cm^3
# Si number density = 19.818977 Si / 1000 Ang^3
#
#
#
# Elastic Constant Matrix: (Units=GPa)
#
#
# Indices 1 2 3 4 5 6 
#
# 1 44.0529 -1.9287 0.9447 0.0000 -10.0968 0.0000
# 2 -1.9287 99.9502 -6.2008 0.0000 1.3688 0.0000
# 3 0.9447 -6.2008 17.8704 0.0000 -4.0184 0.0000
# 4 0.0000 0.0000 0.0000 7.5427 0.0000 -3.7555
# 5 -10.0968 1.3688 -4.0184 0.0000 20.5566 0.0000
# 6 0.0000 0.0000 0.0000 -3.7555 0.0000 5.4826
#
#
#
# Elastic Compliance Matrix: (Units=1/GPa)
#
#
# Indices 1 2 3 4 5 6 
#
# 1 0.025638 0.000423 0.001691 0.000000 0.012895 0.000000
# 2 0.000423 0.010232 0.003579 0.000000 0.000226 0.000000
# 3 0.001691 0.003579 0.059876 0.000000 0.012297 0.000000
# 4 0.000000 0.000000 0.000000 0.201194 0.000000 0.137815
# 5 0.012895 0.000226 0.012297 0.000000 0.057368 0.000000
# 6 0.000000 0.000000 0.000000 0.137815 0.000000 0.276796
#
#
# Mechanical properties :
#
#
# Convention : Reuss Voigt Hill
#
# Bulk Modulus (GPa) = 9.33430 16.38933 12.86181
# Shear Modulus (GPa) = 7.62859 17.98694 12.80777
#
# Velocity S-wave (km/s) = 1.96405 3.01584 2.54488
# Velocity P-wave (km/s) = 3.14059 4.51825 3.89088
#
# Compressibility (1/GPa) = 0.10713180
#
# Stress axis : x y z
#
# Youngs Moduli (GPa) = 39.00505 97.73191 16.70115
#
# Poissons Ratio (x) = -0.04134 -0.02824
# Poissons Ratio (y) = -0.01650 -0.05977
# Poissons Ratio (z) = -0.06596 -0.34977
#
# Static dielectric constant tensor:
#      x y z
#    x 1.675350 0.000000 -0.012480 
#    y 0.000000 1.701810 0.000000 
#    z -0.012480 0.000000 1.693280 
# 
# From -- ./inp_files/223716.got.cif
#   From: 2010.05.17/outbox.cif.g08.bks.cpg/sg12_112_cif.got.tgz:223716.got - 2010.06.03 13:09:07.
