data_PCOD9183706
_publ_section_title
;
Structure prediction by ZEFSAII (Michael W. Deem and Ramdas Pophale) SiO2 
 PCOD9183706
Probable space group: C 2/M
;
_chemical_formula_sum "Si O2"
_cell_formula_units_Z 56
_cell_length_a 15.531305
_cell_length_b 8.638417
_cell_length_c 25.127847
_cell_angle_alpha 90.000000
_cell_angle_beta 120.711588
_cell_angle_gamma 90.000000
_cell_volume 2898.471739
_symmetry_space_group_name_H-M "C 2/M"
_symmetry_group_IT_number 12
_symmetry_cell_setting 'monoclinic'
loop_
_space_group_symop_operation_xyz
x,y,z
-x,y,-z
-x,-y,-z
x,-y,z
1/2+x,1/2+y,z
1/2-x,1/2+y,-z
1/2-x,1/2-y,-z
1/2+x,1/2-y,z
loop_
_atom_site_type_symbol
_atom_site_label
_atom_site_fract_x
_atom_site_fract_y
_atom_site_fract_z
Si Si1 0.164288 0.684937 0.433602
Si Si2 0.106795 0.313798 0.008300
Si Si3 0.328521 0.686491 0.789772
Si Si4 0.946642 0.186620 0.119998
Si Si5 0.752849 0.185773 0.649987
Si Si6 0.469865 0.315305 0.429028
Si Si7 0.779505 0.186591 0.145136
O O1 0.164664 0.500000 0.436720
O O2 0.250000 0.750000 0.500000
O O3 0.192819 0.739287 0.383469
O O4 0.057703 0.749307 0.419683
O O5 0.110727 0.500000 0.005638
O O6 0.194548 0.263772 0.075735
O O7 0.109309 0.244988 0.950237
O O8 0.000000 0.269580 0.000000
O O9 0.329297 0.500000 0.791735
O O10 0.438978 0.742642 0.841956
O O11 0.303178 0.732543 0.721660
O O12 0.248108 0.746239 0.806620
O O13 0.885157 0.233066 0.153005
O O14 0.947494 0.000000 0.118468
O O15 0.637347 0.238160 0.614551
O O16 0.757964 0.000000 0.646505
O O17 0.500000 0.286178 0.500000
O O18 0.462156 0.500000 0.419262
O O19 0.776310 0.000000 0.147450
#
# Coordination Sequence:
#
# PCOD9183706 Si02
#       7
#     8   8   8   8   8   8   8
#     4  12  24  40  65  96 127 161 200 246 303 362
#     4  10  19  33  55  85 117 149 195 250 302 351
#     4  10  23  41  59  84 118 156 198 244 293 354
#     4  10  21  37  58  84 115 153 198 244 297 354
#     4  11  24  42  63  90 126 163 204 254 306 365
#     4  11  23  40  65  95 124 157 201 249 303 363
#     4  10  21  37  58  84 116 156 199 246 299 356
#
# _framework density 19.320526999999998
#
# number of rings (size 3 to 8) (size 9 to 14) (size 15 to 20)
#    0.000    1.429    2.857    2.571    0.000    4.286 
#    0.000    1.429    0.000    0.000    0.000    0.000 
#    0.000    0.000    0.000    0.000    0.000    0.000 
#
# Total GULP energy -156512.794745 kJ/mol
# GULP energy per Si atom -5589.742669 kJ/mol
# Density = 1.927655 g / cm^3
# Si number density = 19.320527 Si / 1000 Ang^3
#
#
#
# Elastic Constant Matrix: (Units=GPa)
#
#
# Indices 1 2 3 4 5 6 
#
# 1 120.0637 19.9962 20.5350 0.0000 -31.8291 0.0000
# 2 19.9962 32.5976 21.4376 0.0000 -8.6186 0.0000
# 3 20.5350 21.4376 81.3966 0.0000 -30.4208 0.0000
# 4 0.0000 0.0000 0.0000 23.5076 0.0000 -8.2866
# 5 -31.8291 -8.6186 -30.4208 0.0000 33.3931 0.0000
# 6 0.0000 0.0000 0.0000 -8.2866 0.0000 30.1098
#
#
#
# Elastic Compliance Matrix: (Units=1/GPa)
#
#
# Indices 1 2 3 4 5 6 
#
# 1 0.012316 -0.006366 0.003552 0.000000 0.013332 0.000000
# 2 -0.006366 0.040417 -0.011232 0.000000 -0.005869 0.000000
# 3 0.003552 -0.011232 0.022030 0.000000 0.020556 0.000000
# 4 0.000000 0.000000 0.000000 0.047110 0.000000 0.012965
# 5 0.013332 -0.005869 0.020556 0.000000 0.059866 0.000000
# 6 0.000000 0.000000 0.000000 0.012965 0.000000 0.036780
#
#
# Mechanical properties :
#
#
# Convention : Reuss Voigt Hill
#
# Bulk Modulus (GPa) = 21.42636 39.77727 30.60181
# Shear Modulus (GPa) = 19.07172 28.87471 23.97322
#
# Velocity S-wave (km/s) = 3.14526 3.87008 3.52634
# Velocity P-wave (km/s) = 4.92993 6.37204 5.69680
#
# Compressibility (1/GPa) = 0.04667148
#
# Stress axis : x y z
#
# Youngs Moduli (GPa) = 81.19522 24.74188 45.39234
#
# Poissons Ratio (x) = 0.15751 -0.16124
# Poissons Ratio (y) = 0.51690 0.50985
# Poissons Ratio (z) = -0.28842 0.27790
#
# Static dielectric constant tensor:
#      x y z
#    x 1.665170 0.000000 0.006300 
#    y 0.000000 1.652480 0.000000 
#    z 0.006300 0.000000 1.652700 
# 
# From -- ./inp_files/339067.got.cif
#   From: 2010.05.17/outbox.cif.g08.bks.cpg/sg12_170_cif.got.tgz:339067.got - 2010.06.03 13:09:07.
