data_PCOD9183169
_publ_section_title
;
Structure prediction by ZEFSAII (Michael W. Deem and Ramdas Pophale) SiO2 
 PCOD9183169
Probable space group: C 2/M
;
_chemical_formula_sum "Si O2"
_cell_formula_units_Z 60
_cell_length_a 15.582099
_cell_length_b 14.717474
_cell_length_c 15.701763
_cell_angle_alpha 90.000000
_cell_angle_beta 134.994287
_cell_angle_gamma 90.000000
_cell_volume 2546.454708
_symmetry_space_group_name_H-M "C 2/M"
_symmetry_group_IT_number 12
_symmetry_cell_setting 'monoclinic'
loop_
_space_group_symop_operation_xyz
x,y,z
-x,y,-z
-x,-y,-z
x,-y,z
1/2+x,1/2+y,z
1/2-x,1/2+y,-z
1/2-x,1/2-y,-z
1/2+x,1/2-y,z
loop_
_atom_site_type_symbol
_atom_site_label
_atom_site_fract_x
_atom_site_fract_y
_atom_site_fract_z
Si Si1 0.616985 0.389184 0.635787
Si Si2 0.803545 0.660751 0.496831
Si Si3 0.873201 0.611682 0.100622
Si Si4 0.861660 0.396258 0.721506
Si Si5 0.129976 0.111127 0.838587
Si Si6 0.712176 0.103881 0.776582
Si Si7 0.500000 0.146386 0.500000
Si Si8 0.899346 0.893274 0.777506
O O1 0.500000 0.361630 0.500000
O O2 0.618693 0.500000 0.635422
O O3 0.742069 0.355332 0.681136
O O4 0.605509 0.359239 0.725019
O O5 0.750000 0.750000 0.500000
O O6 0.846347 0.603616 0.608456
O O7 0.697413 0.614246 0.367704
O O8 0.913119 0.686255 0.511561
O O9 0.880978 0.500000 0.108371
O O10 0.835774 0.644065 0.168907
O O11 0.006682 0.644894 0.168621
O O12 0.764291 0.636616 0.962019
O O13 0.865076 0.500000 0.754864
O O14 0.026779 0.142969 0.831955
O O15 0.124783 0.000000 0.834525
O O16 0.602194 0.099609 0.631406
O O17 0.828293 0.146072 0.809587
O O18 0.746535 0.000000 0.821971
O O19 0.918496 0.000000 0.808708
#
# Coordination Sequence:
#
# PCOD9183169 Si02
#       8
#     8   8   8   8   8   8   4   8
#     4   9  17  29  47  72 103 139 177 218 262 308
#     4  11  22  36  53  79 108 138 175 222 268 317
#     4   9  17  28  47  77 110 140 172 217 270 317
#     4  10  19  33  54  79 106 140 177 219 269 320
#     4   9  17  30  47  75 112 142 176 219 262 313
#     4   9  16  27  49  80 107 137 173 211 263 317
#     4  10  19  34  52  72 105 138 170 214 264 316
#     4   9  18  32  53  78 107 141 175 217 264 317
#
# _framework density 23.562170999999999
#
# number of rings (size 3 to 8) (size 9 to 14) (size 15 to 20)
#    0.000    2.533    1.333    1.400    0.000    4.267 
#    3.600    5.333    0.000    0.800    0.000    1.867 
#    0.000    0.000    0.000    0.000    0.000    0.000 
#
# Total GULP energy -167505.086875 kJ/mol
# GULP energy per Si atom -5583.502896 kJ/mol
# Density = 2.350854 g / cm^3
# Si number density = 23.562171 Si / 1000 Ang^3
#
#
#
# Elastic Constant Matrix: (Units=GPa)
#
#
# Indices 1 2 3 4 5 6 
#
# 1 200.9948 21.0086 52.4210 0.0000 38.9295 0.0000
# 2 21.0086 49.6866 -0.8043 0.0000 3.4650 0.0000
# 3 52.4210 -0.8043 104.7767 0.0000 26.0242 0.0000
# 4 0.0000 0.0000 0.0000 -7.7804 0.0000 4.1156
# 5 38.9295 3.4650 26.0242 0.0000 41.4699 0.0000
# 6 0.0000 0.0000 0.0000 4.1156 0.0000 3.0692
#
#
#
# Elastic Compliance Matrix: (Units=1/GPa)
#
#
# Indices 1 2 3 4 5 6 
#
# 1 0.006734 -0.002554 -0.002217 0.000000 -0.004717 0.000000
# 2 -0.002554 0.021254 0.001524 0.000000 -0.000335 0.000000
# 3 -0.002217 0.001524 0.012059 0.000000 -0.005614 0.000000
# 4 0.000000 0.000000 0.000000 -0.075193 0.000000 0.100828
# 5 -0.004717 -0.000335 -0.005614 0.000000 0.032093 0.000000
# 6 0.000000 0.000000 0.000000 0.100828 0.000000 0.190612
#
#
# Mechanical properties :
#
#
# Convention : Reuss Voigt Hill
#
# Bulk Modulus (GPa) = 29.80353 55.63430 42.71892
# Shear Modulus (GPa) = 24.36196 26.20727 25.28461
#
# Velocity S-wave (km/s) = 3.21899 3.33867 3.27938
# Velocity P-wave (km/s) = 5.14706 6.20687 5.70164
#
# Compressibility (1/GPa) = 0.03355307
#
# Stress axis : x y z
#
# Youngs Moduli (GPa) = 148.49915 47.04966 82.92255
#
# Poissons Ratio (x) = 0.12018 0.18386
# Poissons Ratio (y) = 0.37931 -0.12639
# Poissons Ratio (z) = 0.32925 -0.07171
#
# Static dielectric constant tensor:
#      x y z
#    x 1.880640 0.000000 -0.022640 
#    y 0.000000 1.902910 0.000000 
#    z -0.022640 0.000000 2.078820 
# 
# From -- ./inp_files/217922.got.cif
#   From: 2010.05.17/outbox.cif.g08.bks.cpg/sg12_109_cif.got.tgz:217922.got - 2010.06.03 13:09:07.
