data_PCOD9183643
_publ_section_title
;
Structure prediction by ZEFSAII (Michael W. Deem and Ramdas Pophale) SiO2 
 PCOD9183643
Probable space group: C 2/M
;
_chemical_formula_sum "Si O2"
_cell_formula_units_Z 56
_cell_length_a 15.817470
_cell_length_b 7.670758
_cell_length_c 25.314545
_cell_angle_alpha 90.000000
_cell_angle_beta 120.021264
_cell_angle_gamma 90.000000
_cell_volume 2659.395701
_symmetry_space_group_name_H-M "C 2/M"
_symmetry_group_IT_number 12
_symmetry_cell_setting 'monoclinic'
loop_
_space_group_symop_operation_xyz
x,y,z
-x,y,-z
-x,-y,-z
x,-y,z
1/2+x,1/2+y,z
1/2-x,1/2+y,-z
1/2-x,1/2-y,-z
1/2+x,1/2-y,z
loop_
_atom_site_type_symbol
_atom_site_label
_atom_site_fract_x
_atom_site_fract_y
_atom_site_fract_z
Si Si1 0.167169 0.790210 0.430878
Si Si2 0.102207 0.290039 0.007523
Si Si3 0.331742 0.709612 0.789967
Si Si4 0.949854 0.208446 0.125825
Si Si5 0.747190 0.209090 0.653044
Si Si6 0.478344 0.289767 0.433624
Si Si7 0.775023 0.209755 0.137310
O O1 0.250000 0.750000 0.500000
O O2 0.202285 0.723033 0.384826
O O3 0.063016 0.726179 0.420485
O O4 0.160530 0.000000 0.424864
O O5 0.102404 0.500000 0.011015
O O6 0.192011 0.224738 0.070686
O O7 0.102357 0.243034 0.946223
O O8 0.000000 0.226114 0.000000
O O9 0.337641 0.500000 0.788361
O O10 0.439766 0.777907 0.838547
O O11 0.295348 0.776250 0.722020
O O12 0.257361 0.748771 0.813832
O O13 0.880025 0.274619 0.150600
O O14 0.957402 0.000000 0.133522
O O15 0.631720 0.244053 0.615969
O O16 0.759471 0.000000 0.656531
O O17 0.500000 0.226586 0.500000
O O18 0.484872 0.500000 0.436746
O O19 0.776424 0.000000 0.133297
#
# Coordination Sequence:
#
# PCOD9183643 Si02
#       7
#     8   8   8   8   8   8   8
#     4  10  20  35  57  83 112 143 176 220 272 323
#     4  10  19  33  55  83 114 143 180 232 282 327
#     4  10  22  39  55  77 110 146 186 229 270 325
#     4  10  21  36  57  82 109 144 188 230 273 329
#     4  10  22  38  56  80 111 147 183 222 275 329
#     4  10  20  35  57  86 113 139 178 224 270 323
#     4  10  21  37  57  82 110 146 187 227 278 332
#
# _framework density 21.057414999999999
#
# number of rings (size 3 to 8) (size 9 to 14) (size 15 to 20)
#    0.000    2.000    2.857    0.429    0.000    4.000 
#    0.000    2.857    0.000    0.000    0.000    0.000 
#    0.000    0.000    0.000    0.000    0.000    0.000 
#
# Total GULP energy -156410.338435 kJ/mol
# GULP energy per Si atom -5586.083516 kJ/mol
# Density = 2.100949 g / cm^3
# Si number density = 21.057415 Si / 1000 Ang^3
#
#
#
# Elastic Constant Matrix: (Units=GPa)
#
#
# Indices 1 2 3 4 5 6 
#
# 1 142.1892 6.8971 45.4577 0.0000 -45.4391 0.0000
# 2 6.8971 34.4242 -3.1881 0.0000 0.7232 0.0000
# 3 45.4577 -3.1881 116.4208 0.0000 -37.1744 0.0000
# 4 0.0000 0.0000 0.0000 10.1584 0.0000 -2.0317
# 5 -45.4391 0.7232 -37.1744 0.0000 25.5350 0.0000
# 6 0.0000 0.0000 0.0000 -2.0317 0.0000 16.4786
#
#
#
# Elastic Compliance Matrix: (Units=1/GPa)
#
#
# Indices 1 2 3 4 5 6 
#
# 1 0.018929 -0.004121 0.006146 0.000000 0.042747 0.000000
# 2 -0.004121 0.030026 -0.000340 0.000000 -0.008679 0.000000
# 3 0.006146 -0.000340 0.018081 0.000000 0.037269 0.000000
# 4 0.000000 0.000000 0.000000 0.100930 0.000000 0.012444
# 5 0.042747 -0.008679 0.037269 0.000000 0.169733 0.000000
# 6 0.000000 0.000000 0.000000 0.012444 0.000000 0.062219
#
#
# Mechanical properties :
#
#
# Convention : Reuss Voigt Hill
#
# Bulk Modulus (GPa) = 14.20352 43.48529 28.84440
# Shear Modulus (GPa) = 11.90431 26.69222 19.29827
#
# Velocity S-wave (km/s) = 2.38024 3.56419 3.03059
# Velocity P-wave (km/s) = 3.78336 6.13462 5.09644
#
# Compressibility (1/GPa) = 0.07040510
#
# Stress axis : x y z
#
# Youngs Moduli (GPa) = 52.82995 33.30457 55.30729
#
# Poissons Ratio (x) = 0.13726 -0.33992
# Poissons Ratio (y) = 0.21773 0.01879
# Poissons Ratio (z) = -0.32469 0.01132
#
# Static dielectric constant tensor:
#      x y z
#    x 1.768050 0.000000 -0.002470 
#    y 0.000000 1.785150 0.000000 
#    z -0.002470 0.000000 1.724240 
# 
# From -- ./inp_files/309012.got.cif
#   From: 2010.05.17/outbox.cif.g08.bks.cpg/sg12_155_cif.got.tgz:309012.got - 2010.06.03 13:09:07.
