data_PCOD9183982
_publ_section_title
;
Structure prediction by ZEFSAII (Michael W. Deem and Ramdas Pophale) SiO2 
 PCOD9183982
Probable space group: C 2/M
;
_chemical_formula_sum "Si O2"
_cell_formula_units_Z 48
_cell_length_a 34.849216
_cell_length_b 8.730639
_cell_length_c 7.995984
_cell_angle_alpha 90.000000
_cell_angle_beta 89.951893
_cell_angle_gamma 90.000000
_cell_volume 2432.824645
_symmetry_space_group_name_H-M "C 2/M"
_symmetry_group_IT_number 12
_symmetry_cell_setting 'monoclinic'
loop_
_space_group_symop_operation_xyz
x,y,z
-x,y,-z
-x,-y,-z
x,-y,z
1/2+x,1/2+y,z
1/2-x,1/2+y,-z
1/2-x,1/2-y,-z
1/2+x,1/2-y,z
loop_
_atom_site_type_symbol
_atom_site_label
_atom_site_fract_x
_atom_site_fract_y
_atom_site_fract_z
Si Si1 0.161364 0.182657 0.186842
Si Si2 0.000069 0.678471 0.200088
Si Si3 0.338816 0.682662 0.188141
Si Si4 0.917000 0.680199 0.301775
Si Si5 0.207398 0.317625 0.499385
Si Si6 0.083144 0.319792 0.301244
O O1 0.185243 0.261140 0.334056
O O2 0.117099 0.231101 0.210710
O O3 0.164835 0.000000 0.203570
O O4 0.173912 0.226837 0.999189
O O5 0.000093 0.500000 0.257347
O O6 0.040541 0.742247 0.262947
O O7 0.959626 0.742236 0.263648
O O8 0.000000 0.681917 0.000000
O O9 0.335372 0.500000 0.204956
O O10 0.383095 0.731154 0.211066
O O11 0.315023 0.761133 0.335802
O O12 0.915740 0.500000 0.251243
O O13 0.910262 0.687412 0.500240
O O14 0.250000 0.250000 0.500000
O O15 0.291391 0.000000 0.500603
O O16 0.084452 0.500000 0.250730
#
# Coordination Sequence:
#
# PCOD9183982 Si02
#       6
#     8   8   8   8   8   8
#     4  11  24  42  65  94 130 170 210 256 310 372
#     4   9  17  29  48  79 120 163 211 264 312 365
#     4  11  24  42  65  94 130 170 210 256 310 372
#     4  10  19  33  56  86 120 164 214 264 314 367
#     4  12  26  46  72  99 128 163 202 254 311 372
#     4  10  19  33  56  86 120 164 214 264 314 367
#
# _framework density 19.730152
#
# number of rings (size 3 to 8) (size 9 to 14) (size 15 to 20)
#    0.000    1.500    1.667    4.000    0.000    6.667 
#    0.000    0.833    0.000    5.000    0.000    0.000 
#    0.000    0.000    0.000    0.000    0.000    0.000 
#
# Total GULP energy -134125.726067 kJ/mol
# GULP energy per Si atom -5588.571919 kJ/mol
# Density = 1.968525 g / cm^3
# Si number density = 19.730152 Si / 1000 Ang^3
#
#
#
# Elastic Constant Matrix: (Units=GPa)
#
#
# Indices 1 2 3 4 5 6 
#
# 1 138.8724 45.4364 73.8112 0.0000 1.2334 0.0000
# 2 45.4364 76.1463 63.5054 0.0000 0.7162 0.0000
# 3 73.8112 63.5054 138.4116 0.0000 1.4702 0.0000
# 4 0.0000 0.0000 0.0000 17.2042 0.0000 -0.0125
# 5 1.2334 0.7162 1.4702 0.0000 -0.0112 0.0000
# 6 0.0000 0.0000 0.0000 -0.0125 0.0000 30.1947
#
#
#
# Elastic Compliance Matrix: (Units=1/GPa)
#
#
# Indices 1 2 3 4 5 6 
#
# 1 0.009631 -0.002510 -0.005655 0.000000 0.157321 0.000000
# 2 -0.002510 0.021897 -0.008623 0.000000 -0.008056 0.000000
# 3 -0.005655 -0.008623 0.011142 0.000000 0.287645 0.000000
# 4 0.000000 0.000000 0.000000 0.058126 0.000000 0.000024
# 5 0.157321 -0.008056 0.287645 0.000000-34.631626 0.000000
# 6 0.000000 0.000000 0.000000 0.000024 0.000000 0.033118
#
#
# Mechanical properties :
#
#
# Convention : Reuss Voigt Hill
#
# Bulk Modulus (GPa) = 109.96414 79.88181 94.92298
# Shear Modulus (GPa) = -0.14509 20.85601 10.35546
#
# Velocity S-wave (km/s) = -0.27147 3.25478 2.29346
# Velocity P-wave (km/s) = 7.46705 7.39593 7.43158
#
# Compressibility (1/GPa) = 0.00909387
#
# Stress axis : x y z
#
# Youngs Moduli (GPa) = 103.83599 45.66748 89.75304
#
# Poissons Ratio (x) = 0.11461 0.50757
# Poissons Ratio (y) = 0.26060 0.77393
# Poissons Ratio (z) = 0.58722 0.39379
#
# Static dielectric constant tensor:
#      x y z
#    x 1.690270 0.000000 0.000030 
#    y 0.000000 1.677790 0.000000 
#    z 0.000030 0.000000 1.687330 
# 
# From -- ./inp_files/108665.got.cif
#   From: 2010.05.17/outbox.cif.g08.bks.cpg/sg12_55_cif.got.tgz:108665.got - 2010.06.03 13:09:07.
