data_PCOD9183134
_publ_section_title
;
Structure prediction by ZEFSAII (Michael W. Deem and Ramdas Pophale) SiO2 
 PCOD9183134
Probable space group: C 2/M
;
_chemical_formula_sum "Si O2"
_cell_formula_units_Z 52
_cell_length_a 15.853975
_cell_length_b 24.116564
_cell_length_c 7.122931
_cell_angle_alpha 90.000000
_cell_angle_beta 127.024849
_cell_angle_gamma 90.000000
_cell_volume 2174.297453
_symmetry_space_group_name_H-M "C 2/M"
_symmetry_group_IT_number 12
_symmetry_cell_setting 'monoclinic'
loop_
_space_group_symop_operation_xyz
x,y,z
-x,y,-z
-x,-y,-z
x,-y,z
1/2+x,1/2+y,z
1/2-x,1/2+y,-z
1/2-x,1/2-y,-z
1/2+x,1/2-y,z
loop_
_atom_site_type_symbol
_atom_site_label
_atom_site_fract_x
_atom_site_fract_y
_atom_site_fract_z
Si Si1 0.978563 0.180624 0.749531
Si Si2 0.024367 0.300491 0.252106
Si Si3 0.770613 0.438022 0.214696
Si Si4 0.244004 0.939657 0.739020
Si Si5 0.500000 0.895145 0.500000
Si Si6 0.989898 0.060272 0.758217
Si Si7 0.244319 0.347673 0.505276
O O1 0.015118 0.240553 0.728026
O O2 0.025939 0.122014 0.743747
O O3 0.851067 0.177705 0.565720
O O4 0.000000 0.181763 0.000000
O O5 0.151674 0.306800 0.442276
O O6 0.977937 0.352578 0.300399
O O7 0.000000 0.303071 0.000000
O O8 0.740777 0.500000 0.240919
O O9 0.896670 0.430932 0.397455
O O10 0.726779 0.388209 0.282159
O O11 0.739412 0.432227 0.955738
O O12 0.128696 0.940888 0.485417
O O13 0.301839 0.889649 0.712885
O O14 0.294142 0.000000 0.773284
O O15 0.036168 0.000000 0.760680
O O16 0.000000 0.060157 0.000000
#
# Coordination Sequence:
#
# PCOD9183134 Si02
#       7
#     8   8   8   8   4   8   8
#     4   9  18  33  53  77 105 139 180 223 267 319
#     4  10  20  35  54  77 107 141 181 227 271 321
#     4  10  20  34  54  81 111 142 180 224 271 326
#     4   9  17  30  50  76 105 137 173 216 266 318
#     4  10  21  36  54  78 109 146 182 222 274 322
#     4   8  14  27  49  73  96 127 165 206 257 310
#     4  10  19  33  54  78 106 143 182 223 272 322
#
# _framework density 23.915770999999999
#
# number of rings (size 3 to 8) (size 9 to 14) (size 15 to 20)
#    0.000    2.615    0.000    2.077    0.000    0.615 
#    0.000    6.154    0.000   35.077    0.000   50.077 
#    0.000    0.000    0.000    0.000    0.000    0.000 
#
# Total GULP energy -145138.561057 kJ/mol
# GULP energy per Si atom -5582.252348 kJ/mol
# Density = 2.386134 g / cm^3
# Si number density = 23.915771 Si / 1000 Ang^3
#
#
#
# Elastic Constant Matrix: (Units=GPa)
#
#
# Indices 1 2 3 4 5 6 
#
# 1 40.4916 7.5838 -4.4040 0.0000 14.4665 0.0000
# 2 7.5838 160.9051 28.0399 0.0000 1.5984 0.0000
# 3 -4.4040 28.0399 129.2454 0.0000 -21.3602 0.0000
# 4 0.0000 0.0000 0.0000 -62.8614 0.0000 41.4199
# 5 14.4665 1.5984 -21.3602 0.0000 33.6925 0.0000
# 6 0.0000 0.0000 0.0000 41.4199 0.0000 -22.1091
#
#
#
# Elastic Compliance Matrix: (Units=1/GPa)
#
#
# Indices 1 2 3 4 5 6 
#
# 1 0.029523 -0.001096 -0.000941 0.000000 -0.013221 0.000000
# 2 -0.001096 0.006554 -0.001601 0.000000 -0.000855 0.000000
# 3 -0.000941 -0.001601 0.009083 0.000000 0.006239 0.000000
# 4 0.000000 0.000000 0.000000 0.067861 0.000000 0.127133
# 5 -0.013221 -0.000855 0.006239 0.000000 0.039353 0.000000
# 6 0.000000 0.000000 0.000000 0.127133 0.000000 0.192946
#
#
# Mechanical properties :
#
#
# Convention : Reuss Voigt Hill
#
# Bulk Modulus (GPa) = 26.39602 43.67572 35.03587
# Shear Modulus (GPa) = 13.69025 9.70591 11.69808
#
# Velocity S-wave (km/s) = 2.39516 2.01673 2.21404
# Velocity P-wave (km/s) = 4.32552 4.87082 4.60624
#
# Compressibility (1/GPa) = 0.03788450
#
# Stress axis : x y z
#
# Youngs Moduli (GPa) = 33.87205 152.58063 110.09040
#
# Poissons Ratio (x) = 0.16725 0.10362
# Poissons Ratio (y) = 0.03713 0.17620
# Poissons Ratio (z) = 0.03188 0.24421
#
# Static dielectric constant tensor:
#      x y z
#    x 1.925860 0.000000 -0.013300 
#    y 0.000000 1.937300 0.000000 
#    z -0.013300 0.000000 1.908330 
# 
# From -- ./inp_files/21956.got.cif
#   From: 2010.05.17/outbox.cif.g08.bks.cpg/sg12_11_cif.got.tgz:21956.got - 2010.06.03 13:09:07.
