data_PCOD9183380
_publ_section_title
;
Structure prediction by ZEFSAII (Michael W. Deem and Ramdas Pophale) SiO2 
 PCOD9183380
Probable space group: C 2/M
;
_chemical_formula_sum "Si O2"
_cell_formula_units_Z 48
_cell_length_a 7.961169
_cell_length_b 22.111438
_cell_length_c 16.610155
_cell_angle_alpha 90.000000
_cell_angle_beta 116.791873
_cell_angle_gamma 90.000000
_cell_volume 2610.048696
_symmetry_space_group_name_H-M "C 2/M"
_symmetry_group_IT_number 12
_symmetry_cell_setting 'monoclinic'
loop_
_space_group_symop_operation_xyz
x,y,z
-x,y,-z
-x,-y,-z
x,-y,z
1/2+x,1/2+y,z
1/2-x,1/2+y,-z
1/2-x,1/2-y,-z
1/2+x,1/2-y,z
loop_
_atom_site_type_symbol
_atom_site_label
_atom_site_fract_x
_atom_site_fract_y
_atom_site_fract_z
Si Si1 0.678681 0.678870 0.594977
Si Si2 0.249848 0.928876 0.717711
Si Si3 0.506112 0.249297 0.698351
Si Si4 0.647718 0.133445 0.825190
Si Si5 0.288680 0.179947 0.988433
Si Si6 0.990353 0.133398 0.792759
O O1 0.500000 0.685329 0.500000
O O2 0.704842 0.609895 0.627760
O O3 0.650372 0.715540 0.672152
O O4 0.869464 0.711474 0.608995
O O5 0.458405 0.905989 0.787088
O O6 0.098849 0.909714 0.753601
O O7 0.246420 0.000000 0.704397
O O8 0.589720 0.199713 0.777399
O O9 0.426275 0.306616 0.730360
O O10 0.725376 0.143573 0.931253
O O11 0.808677 0.108517 0.800460
O O12 0.500000 0.174462 0.000000
O O13 0.250000 0.250000 0.000000
O O14 0.141400 0.156029 0.891177
#
# Coordination Sequence:
#
# PCOD9183380 Si02
#       6
#     8   8   8   8   8   8
#     4  10  20  35  59  87 117 150 187 242 306 358
#     4  10  24  42  60  82 115 160 208 247 282 341
#     4  10  19  33  54  88 122 148 182 233 301 366
#     4  11  21  37  58  86 121 157 195 236 294 349
#     4  12  22  32  54  92 127 153 190 240 291 352
#     4  11  21  37  58  86 121 157 195 236 294 349
#
# _framework density 18.390461999999999
#
# number of rings (size 3 to 8) (size 9 to 14) (size 15 to 20)
#    0.000    1.333    5.000    2.000    0.000    1.000 
#    0.000    1.667    0.000    2.000    0.000    4.667 
#    0.000    0.000    0.000    0.000    0.000    0.000 
#
# Total GULP energy -133842.116459 kJ/mol
# GULP energy per Si atom -5576.754852 kJ/mol
# Density = 1.834860 g / cm^3
# Si number density = 18.390462 Si / 1000 Ang^3
#
#
#
# Elastic Constant Matrix: (Units=GPa)
#
#
# Indices 1 2 3 4 5 6 
#
# 1 101.1695 26.4509 -11.5193 0.0000 3.2679 0.0000
# 2 26.4509 110.7606 14.6277 0.0000 -0.1048 0.0000
# 3 -11.5193 14.6277 53.4839 0.0000 9.9208 0.0000
# 4 0.0000 0.0000 0.0000 10.8001 0.0000 -0.8820
# 5 3.2679 -0.1048 9.9208 0.0000 16.4939 0.0000
# 6 0.0000 0.0000 0.0000 -0.8820 0.0000 21.1949
#
#
#
# Elastic Compliance Matrix: (Units=1/GPa)
#
#
# Indices 1 2 3 4 5 6 
#
# 1 0.011382 -0.003283 0.004245 0.000000 -0.004829 0.000000
# 2 -0.003283 0.010362 -0.004135 0.000000 0.003204 0.000000
# 3 0.004245 -0.004135 0.023529 0.000000 -0.015019 0.000000
# 4 0.000000 0.000000 0.000000 0.092907 0.000000 0.003866
# 5 -0.004829 0.003204 -0.015019 0.000000 0.070640 0.000000
# 6 0.000000 0.000000 0.000000 0.003866 0.000000 0.047342
#
#
# Mechanical properties :
#
#
# Convention : Reuss Voigt Hill
#
# Bulk Modulus (GPa) = 25.69003 36.05918 30.87461
# Shear Modulus (GPa) = 18.14988 25.42143 21.78566
#
# Velocity S-wave (km/s) = 3.14493 3.72198 3.44556
# Velocity P-wave (km/s) = 5.21412 6.17422 5.71437
#
# Compressibility (1/GPa) = 0.03892561
#
# Stress axis : x y z
#
# Youngs Moduli (GPa) = 87.85616 96.50848 42.50155
#
# Poissons Ratio (x) = 0.31688 -0.18043
# Poissons Ratio (y) = 0.28847 0.17576
# Poissons Ratio (z) = -0.37298 0.39910
#
# Static dielectric constant tensor:
#      x y z
#    x 1.740880 0.000000 0.010670 
#    y 0.000000 1.610140 0.000000 
#    z 0.010670 0.000000 1.625530 
# 
# From -- ./inp_files/196496.got.cif
#   From: 2010.05.17/outbox.cif.g08.bks.cpg/sg12_99_cif.got.tgz:196496.got - 2010.06.03 13:09:07.
