data_PCOD9183814
_publ_section_title
;
Structure prediction by ZEFSAII (Michael W. Deem and Ramdas Pophale) SiO2 
 PCOD9183814
Probable space group: C 2/M
;
_chemical_formula_sum "Si O2"
_cell_formula_units_Z 40
_cell_length_a 32.927035
_cell_length_b 10.785506
_cell_length_c 8.700808
_cell_angle_alpha 90.000000
_cell_angle_beta 39.773892
_cell_angle_gamma 90.000000
_cell_volume 1976.830860
_symmetry_space_group_name_H-M "C 2/M"
_symmetry_group_IT_number 12
_symmetry_cell_setting 'monoclinic'
loop_
_space_group_symop_operation_xyz
x,y,z
-x,y,-z
-x,-y,-z
x,-y,z
1/2+x,1/2+y,z
1/2-x,1/2+y,-z
1/2-x,1/2-y,-z
1/2+x,1/2-y,z
loop_
_atom_site_type_symbol
_atom_site_label
_atom_site_fract_x
_atom_site_fract_y
_atom_site_fract_z
Si Si1 0.779914 0.278532 0.577491
Si Si2 0.379413 0.637450 0.464185
Si Si3 0.349547 0.640712 0.911237
Si Si4 0.436651 0.141176 0.784342
Si Si5 0.582489 0.133363 0.811594
O O1 0.750000 0.250000 0.500000
O O2 0.813357 0.161821 0.564411
O O3 0.841538 0.364237 0.377454
O O4 0.724702 0.336154 0.841373
O O5 0.403488 0.500000 0.361076
O O6 0.365418 0.649272 0.684945
O O7 0.424919 0.747410 0.274133
O O8 0.365745 0.500000 0.916140
O O9 0.388130 0.749344 0.883641
O O10 0.500000 0.157915 0.500000
O O11 0.412577 0.000000 0.823330
O O12 0.449116 0.146967 0.930437
O O13 0.567258 0.000000 0.785062
#
# Coordination Sequence:
#
# PCOD9183814 Si02
#       5
#     8   8   8   8   8
#     4  10  19  33  56  81 113 147 174 222 267 328
#     4   9  21  35  53  83 117 148 178 220 272 331
#     4  11  21  37  57  83 115 145 182 224 274 328
#     4  10  22  40  59  81 108 142 188 234 275 323
#     4   9  19  35  55  79 108 143 182 224 270 323
#
# _framework density 20.234406
#
# number of rings (size 3 to 8) (size 9 to 14) (size 15 to 20)
#    1.200    1.000    2.000    1.200    0.000    6.000 
#    0.000    1.000    0.000    6.000    0.000    0.000 
#    0.000    0.000    0.000    0.000    0.000    0.000 
#
# Total GULP energy -111447.190773 kJ/mol
# GULP energy per Si atom -5572.359539 kJ/mol
# Density = 2.018835 g / cm^3
# Si number density = 20.234406 Si / 1000 Ang^3
#
#
#
# Elastic Constant Matrix: (Units=GPa)
#
#
# Indices 1 2 3 4 5 6 
#
# 1 49.1710 45.2099 8.8481 0.0000 -6.9379 0.0000
# 2 45.2099 170.8056 56.5555 0.0000 9.1900 0.0000
# 3 8.8481 56.5555 118.3382 0.0000 7.6716 0.0000
# 4 0.0000 0.0000 0.0000 -13.8752 0.0000 25.2882
# 5 -6.9379 9.1900 7.6716 0.0000 33.9576 0.0000
# 6 0.0000 0.0000 0.0000 25.2882 0.0000 16.2652
#
#
#
# Elastic Compliance Matrix: (Units=1/GPa)
#
#
# Indices 1 2 3 4 5 6 
#
# 1 0.029116 -0.008605 0.001420 0.000000 0.007957 0.000000
# 2 -0.008605 0.009543 -0.003690 0.000000 -0.003507 0.000000
# 3 0.001420 -0.003690 0.010173 0.000000 -0.001010 0.000000
# 4 0.000000 0.000000 0.000000 -0.018800 0.000000 0.029229
# 5 0.007957 -0.003507 -0.001010 0.000000 0.032251 0.000000
# 6 0.000000 0.000000 0.000000 0.029229 0.000000 0.016037
#
#
# Mechanical properties :
#
#
# Convention : Reuss Voigt Hill
#
# Bulk Modulus (GPa) = 36.92546 62.17132 49.54839
# Shear Modulus (GPa) = 45.83052 22.44962 34.14007
#
# Velocity S-wave (km/s) = 4.76434 3.33450 4.11204
# Velocity P-wave (km/s) = 6.96805 6.75407 6.86189
#
# Compressibility (1/GPa) = 0.02708159
#
# Stress axis : x y z
#
# Youngs Moduli (GPa) = 34.34547 104.79354 98.29857
#
# Poissons Ratio (x) = 0.90172 -0.13954
# Poissons Ratio (y) = 0.29553 0.36270
# Poissons Ratio (z) = -0.04875 0.38667
#
# Static dielectric constant tensor:
#      x y z
#    x 1.693610 0.000000 -0.011510 
#    y 0.000000 1.731310 0.000000 
#    z -0.011510 0.000000 1.701980 
# 
# From -- ./inp_files/109688.got.cif
#   From: 2010.05.17/outbox.cif.g08.bks.cpg/sg12_55_cif.got.tgz:109688.got - 2010.06.03 13:09:07.
