data_PCOD9183291
_publ_section_title
;
Structure prediction by ZEFSAII (Michael W. Deem and Ramdas Pophale) SiO2 
 PCOD9183291
Probable space group: C 2/M
;
_chemical_formula_sum "Si O2"
_cell_formula_units_Z 42
_cell_length_a 10.204905
_cell_length_b 28.368881
_cell_length_c 15.004292
_cell_angle_alpha 90.000000
_cell_angle_beta 155.734572
_cell_angle_gamma 90.000000
_cell_volume 1785.134017
_symmetry_space_group_name_H-M "C 2/M"
_symmetry_group_IT_number 12
_symmetry_cell_setting 'monoclinic'
loop_
_space_group_symop_operation_xyz
x,y,z
-x,y,-z
-x,-y,-z
x,-y,z
1/2+x,1/2+y,z
1/2-x,1/2+y,-z
1/2-x,1/2-y,-z
1/2+x,1/2-y,z
loop_
_atom_site_type_symbol
_atom_site_label
_atom_site_fract_x
_atom_site_fract_y
_atom_site_fract_z
Si Si1 0.173688 0.309361 0.851506
Si Si2 0.000000 0.000000 0.000000
Si Si3 0.160232 0.206978 0.838795
Si Si4 0.122805 0.587161 0.857210
Si Si5 0.662876 0.612766 0.339738
Si Si6 0.690358 0.446144 0.742077
O O1 0.019891 0.258817 0.732347
O O2 0.052814 0.362706 0.766426
O O3 0.500000 0.309326 0.000000
O O4 0.251293 0.300560 0.003140
O O5 0.752335 0.042450 0.882371
O O6 0.917000 0.164630 0.672322
O O7 0.500000 0.200652 0.000000
O O8 0.822333 0.575306 0.732885
O O9 0.410046 0.598901 0.105411
O O10 0.591660 0.577996 0.377503
O O11 0.000000 0.610148 0.500000
O O12 0.608107 0.500000 0.676578
O O13 0.000000 0.443788 0.000000
#
# Coordination Sequence:
#
# PCOD9183291 Si02
#       6
#     8   2   8   8   8   8
#     4   9  16  28  51  78 102 131 169 222 258 306
#     4  12  20  32  56  86  98 140 178 232 232 310
#     4   9  17  31  52  78 101 135 178 218 263 305
#     4  10  19  33  54  82 105 133 176 217 261 301
#     4  10  20  33  53  80 108 134 168 217 271 320
#     4   9  17  31  51  75 100 132 176 220 256 297
#
# _framework density 23.527646000000001
#
# number of rings (size 3 to 8) (size 9 to 14) (size 15 to 20)
#    0.000    2.476    1.905    2.857    1.333    0.381 
#    0.000    0.000    0.000   43.429    0.000    0.000 
#    0.000    0.000    0.000    0.000    0.000    0.000 
#
# Total GULP energy -117012.221201 kJ/mol
# GULP energy per Si atom -5572.010533 kJ/mol
# Density = 2.347410 g / cm^3
# Si number density = 23.527646 Si / 1000 Ang^3
#
#
#
# Elastic Constant Matrix: (Units=GPa)
#
#
# Indices 1 2 3 4 5 6 
#
# 1 140.2134 69.3572 67.8782 -0.0001 52.4041 0.0000
# 2 69.3572 252.2336 84.3563 -0.0003 45.3882 0.0001
# 3 67.8782 84.3563 113.4547 0.0020 20.7996 -0.0007
# 4 -0.0001 -0.0003 0.0020 -8.0375 -0.0003 22.0929
# 5 52.4041 45.3882 20.7996 -0.0003 45.6606 0.0001
# 6 0.0000 0.0001 -0.0007 22.0929 0.0001 40.3416
#
#
#
# Elastic Compliance Matrix: (Units=1/GPa)
#
#
# Indices 1 2 3 4 5 6 
#
# 1 0.016424 0.000946 -0.007530 -0.000001 -0.016360 0.000000
# 2 0.000946 0.006003 -0.004077 -0.000001 -0.005196 0.000000
# 3 -0.007530 -0.004077 0.015301 0.000002 0.005725 -0.000001
# 4 -0.000001 -0.000001 0.000002 -0.049661 0.000000 0.027197
# 5 -0.016360 -0.005196 0.005725 0.000000 0.043234 0.000000
# 6 0.000000 0.000000 -0.000001 0.027197 0.000000 0.009894
#
#
# Mechanical properties :
#
#
# Convention : Reuss Voigt Hill
#
# Bulk Modulus (GPa) = 60.95452 105.45391 83.20422
# Shear Modulus (GPa) = 73.54548 34.54693 54.04621
#
# Velocity S-wave (km/s) = 5.59706 3.83607 4.79804
# Velocity P-wave (km/s) = 8.23002 8.03363 8.13242
#
# Compressibility (1/GPa) = 0.01640567
#
# Stress axis : x y z
#
# Youngs Moduli (GPa) = 60.88707 166.58921 65.35498
#
# Poissons Ratio (x) = -0.15763 0.49215
# Poissons Ratio (y) = -0.05761 0.26644
# Poissons Ratio (z) = 0.45851 0.67915
#
# Static dielectric constant tensor:
#      x y z
#    x 1.857500 0.000000 -0.074830 
#    y 0.000000 1.926200 0.000000 
#    z -0.074830 0.000000 1.908950 
# 
# From -- ./inp_files/307519.got.cif
#   From: 2010.05.17/outbox.cif.g08.bks.cpg/sg12_154_cif.got.tgz:307519.got - 2010.06.03 13:09:07.
