data_PCOD9183769
_publ_section_title
;
Structure prediction by ZEFSAII (Michael W. Deem and Ramdas Pophale) SiO2 
 PCOD9183769
Probable space group: C 2/M
;
_chemical_formula_sum "Si O2"
_cell_formula_units_Z 56
_cell_length_a 19.158693
_cell_length_b 7.327306
_cell_length_c 28.512365
_cell_angle_alpha 90.000000
_cell_angle_beta 36.525937
_cell_angle_gamma 90.000000
_cell_volume 2382.300868
_symmetry_space_group_name_H-M "C 2/M"
_symmetry_group_IT_number 12
_symmetry_cell_setting 'monoclinic'
loop_
_space_group_symop_operation_xyz
x,y,z
-x,y,-z
-x,-y,-z
x,-y,z
1/2+x,1/2+y,z
1/2-x,1/2+y,-z
1/2-x,1/2-y,-z
1/2+x,1/2-y,z
loop_
_atom_site_type_symbol
_atom_site_label
_atom_site_fract_x
_atom_site_fract_y
_atom_site_fract_z
Si Si1 0.079251 0.276758 0.797886
Si Si2 0.627608 0.787376 0.671160
Si Si3 0.856228 0.716437 0.976807
Si Si4 0.281048 0.721229 0.756674
Si Si5 0.136248 0.721475 0.925310
Si Si6 0.053430 0.291569 0.610545
Si Si7 0.397001 0.779135 0.520283
O O1 0.076888 0.500000 0.798474
O O2 0.066522 0.213162 0.751173
O O3 0.203329 0.224390 0.753858
O O4 0.975568 0.214708 0.888451
O O5 0.597782 0.708862 0.635861
O O6 0.766326 0.773753 0.605779
O O7 0.593247 0.000000 0.686936
O O8 0.875630 0.500000 0.972003
O O9 0.750000 0.750000 0.000000
O O10 0.820672 0.784090 0.047285
O O11 0.287326 0.500000 0.753502
O O12 0.210179 0.783176 0.841032
O O13 0.412692 0.790852 0.686501
O O14 0.139396 0.500000 0.920511
O O15 0.000000 0.773617 0.000000
O O16 0.098595 0.500000 0.585543
O O17 0.088524 0.211627 0.541173
O O18 0.500000 0.717062 0.500000
O O19 0.403793 0.000000 0.515792
#
# Coordination Sequence:
#
# PCOD9183769 Si02
#       7
#     8   8   8   8   8   8   8
#     4   9  18  34  54  76 103 138 176 215 259 307
#     4  10  21  36  55  79 107 138 173 211 256 312
#     4  10  20  34  53  76 106 140 175 216 261 308
#     4  10  19  33  56  80 101 134 182 221 252 301
#     4   9  16  31  54  77 101 135 179 222 257 295
#     4  10  22  37  53  78 111 140 166 209 267 315
#     4  10  21  38  58  79 105 138 173 211 260 310
#
# _framework density 23.506686999999999
#
# number of rings (size 3 to 8) (size 9 to 14) (size 15 to 20)
#    0.000    2.286    1.429    1.286    2.000    1.429 
#    0.000    1.429    0.000    0.857    0.000    0.000 
#    0.000    0.000    0.000    0.000    0.000    0.000 
#
# Total GULP energy -156451.816355 kJ/mol
# GULP energy per Si atom -5587.564870 kJ/mol
# Density = 2.345318 g / cm^3
# Si number density = 23.506687 Si / 1000 Ang^3
#
#
#
# Elastic Constant Matrix: (Units=GPa)
#
#
# Indices 1 2 3 4 5 6 
#
# 1 118.9312 -2.6736 6.5895 -0.0011 27.0843 0.0207
# 2 -2.6736 93.7517 -7.5558 -0.0029 11.4349 0.0092
# 3 6.5895 -7.5558 84.0995 0.0001 25.1774 0.0012
# 4 -0.0011 -0.0029 0.0001 6.5653 -0.0007 -18.1036
# 5 27.0843 11.4349 25.1774 -0.0007 51.5779 0.0005
# 6 0.0207 0.0092 0.0012 -18.1036 0.0005 4.0569
#
#
#
# Elastic Compliance Matrix: (Units=1/GPa)
#
#
# Indices 1 2 3 4 5 6 
#
# 1 0.009709 0.001081 0.001094 0.000012 -0.005872 0.000004
# 2 0.001081 0.011380 0.002182 0.000007 -0.004156 0.000001
# 3 0.001094 0.002182 0.014426 0.000003 -0.008100 0.000001
# 4 0.000012 0.000007 0.000003 -0.013473 -0.000009 -0.060124
# 5 -0.005872 -0.004156 -0.008100 -0.000009 0.027347 -0.000003
# 6 0.000004 0.000001 0.000001 -0.060124 -0.000003 -0.021804
#
#
# Mechanical properties :
#
#
# Convention : Reuss Voigt Hill
#
# Bulk Modulus (GPa) = 22.60875 32.16695 27.38785
# Shear Modulus (GPa) = 148.75012 32.46817 90.60915
#
# Velocity S-wave (km/s) = 7.96350 3.72052 6.21529
# Velocity P-wave (km/s) = 9.70542 5.67188 7.94876
#
# Compressibility (1/GPa) = 0.04423067
#
# Stress axis : x y z
#
# Youngs Moduli (GPa) = 102.99481 87.87312 69.31921
#
# Poissons Ratio (x) = -0.09502 -0.07587
# Poissons Ratio (y) = -0.11137 -0.15125
# Poissons Ratio (z) = -0.11272 -0.19173
#
# Static dielectric constant tensor:
#      x y z
#    x 1.898320 0.000070 0.055900 
#    y 0.000070 1.749890 0.000090 
#    z 0.055900 0.000090 1.840510 
# 
# From -- ./inp_files/268864.got.cif
#   From: 2010.05.17/outbox.cif.g08.bks.cpg/sg12_135_cif.got.tgz:268864.got - 2010.06.03 13:09:07.
