data_PCOD9183394
_publ_section_title
;
Structure prediction by ZEFSAII (Michael W. Deem and Ramdas Pophale) SiO2 
 PCOD9183394
Probable space group: C 2/M
;
_chemical_formula_sum "Si O2"
_cell_formula_units_Z 40
_cell_length_a 9.386662
_cell_length_b 16.111591
_cell_length_c 16.697530
_cell_angle_alpha 90.000000
_cell_angle_beta 41.936938
_cell_angle_gamma 90.000000
_cell_volume 1687.645685
_symmetry_space_group_name_H-M "C 2/M"
_symmetry_group_IT_number 12
_symmetry_cell_setting 'monoclinic'
loop_
_space_group_symop_operation_xyz
x,y,z
-x,y,-z
-x,-y,-z
x,-y,z
1/2+x,1/2+y,z
1/2-x,1/2+y,-z
1/2-x,1/2-y,-z
1/2+x,1/2-y,z
loop_
_atom_site_type_symbol
_atom_site_label
_atom_site_fract_x
_atom_site_fract_y
_atom_site_fract_z
Si Si1 0.248563 0.181984 0.832560
Si Si2 0.203637 0.093435 0.001147
Si Si3 0.204563 0.710629 0.361204
Si Si4 0.670310 0.634639 0.192200
Si Si5 0.212524 0.091059 0.355785
O O1 0.365828 0.182127 0.698587
O O2 0.203880 0.278676 0.860652
O O3 0.032758 0.131643 0.906207
O O4 0.334190 0.146614 0.881127
O O5 0.246722 0.094007 0.077570
O O6 0.211120 0.000000 0.969436
O O7 0.420119 0.661011 0.291244
O O8 0.261186 0.809027 0.345726
O O9 0.000000 0.693480 0.500000
O O10 0.691460 0.589282 0.267703
O O11 0.000000 0.086527 0.500000
O O12 0.323486 0.000000 0.329192
#
# Coordination Sequence:
#
# PCOD9183394 Si02
#       5
#     8   8   8   8   8
#     4   9  18  31  51  77 102 131 168 209 249 299
#     4  10  19  34  55  77 105 133 165 212 261 302
#     4   9  19  33  52  76 104 136 171 210 251 297
#     4  10  19  33  55  77 100 136 176 206 246 308
#     4   9  18  32  49  71 100 132 167 207 251 295
#
# _framework density 23.701657999999998
#
# number of rings (size 3 to 8) (size 9 to 14) (size 15 to 20)
#    0.000    2.600    0.000    2.400    0.000    7.200 
#    0.000    2.000    0.000   31.200    0.000   22.400 
#    0.000    0.800    0.000    0.000    0.000    0.000 
#
# Total GULP energy -111346.970511 kJ/mol
# GULP energy per Si atom -5567.348526 kJ/mol
# Density = 2.364771 g / cm^3
# Si number density = 23.701658 Si / 1000 Ang^3
#
#
#
# Elastic Constant Matrix: (Units=GPa)
#
#
# Indices 1 2 3 4 5 6 
#
# 1 67.1064 4.0250 42.3390 -0.0019 10.8043 0.0005
# 2 4.0250 114.1923 40.9630 -0.0055 5.8269 0.0014
# 3 42.3390 40.9630 198.3393 -0.0160 29.9370 0.0035
# 4 -0.0019 -0.0055 -0.0160 135.0879 0.0125 -1.3978
# 5 10.8043 5.8269 29.9370 0.0125 37.1130 -0.0019
# 6 0.0005 0.0014 0.0035 -1.3978 -0.0019 13.9221
#
#
#
# Elastic Compliance Matrix: (Units=1/GPa)
#
#
# Indices 1 2 3 4 5 6 
#
# 1 0.017463 0.000772 -0.003531 0.000000 -0.002356 0.000000
# 2 0.000772 0.009492 -0.002125 0.000000 -0.000001 0.000000
# 3 -0.003531 -0.002125 0.006865 0.000001 -0.004176 -0.000002
# 4 0.000000 0.000000 0.000001 0.007410 -0.000003 0.000744
# 5 -0.002356 -0.000001 -0.004176 -0.000003 0.030999 0.000005
# 6 0.000000 0.000000 -0.000002 0.000744 0.000005 0.071903
#
#
# Mechanical properties :
#
#
# Convention : Reuss Voigt Hill
#
# Bulk Modulus (GPa) = 41.57977 61.58800 51.58388
# Shear Modulus (GPa) = 30.87965 56.71200 43.79583
#
# Velocity S-wave (km/s) = 3.61341 4.89688 4.30326
# Velocity P-wave (km/s) = 5.91524 7.61667 6.81923
#
# Compressibility (1/GPa) = 0.02405016
#
# Stress axis : x y z
#
# Youngs Moduli (GPa) = 57.26432 105.34868 145.66893
#
# Poissons Ratio (x) = -0.08128 0.51442
# Poissons Ratio (y) = -0.04418 0.30955
# Poissons Ratio (z) = 0.20223 0.22387
#
# Static dielectric constant tensor:
#      x y z
#    x 2.069030 0.000000 -0.057490 
#    y 0.000000 1.867150 0.000000 
#    z -0.057490 0.000000 1.962680 
# 
# From -- ./inp_files/129226.got.cif
#   From: 2010.05.17/outbox.cif.g08.bks.cpg/sg12_65_cif.got.tgz:129226.got - 2010.06.03 13:09:07.
