data_PCOD9183237
_publ_section_title
;
Structure prediction by ZEFSAII (Michael W. Deem and Ramdas Pophale) SiO2 
 PCOD9183237
Probable space group: C 2/M
;
_chemical_formula_sum "Si O2"
_cell_formula_units_Z 56
_cell_length_a 25.602218
_cell_length_b 8.812508
_cell_length_c 17.085075
_cell_angle_alpha 90.000000
_cell_angle_beta 120.406230
_cell_angle_gamma 90.000000
_cell_volume 3324.545513
_symmetry_space_group_name_H-M "C 2/M"
_symmetry_group_IT_number 12
_symmetry_cell_setting 'monoclinic'
loop_
_space_group_symop_operation_xyz
x,y,z
-x,y,-z
-x,-y,-z
x,-y,z
1/2+x,1/2+y,z
1/2-x,1/2+y,-z
1/2-x,1/2-y,-z
1/2+x,1/2-y,z
loop_
_atom_site_type_symbol
_atom_site_label
_atom_site_fract_x
_atom_site_fract_y
_atom_site_fract_z
Si Si1 0.129853 0.318624 0.618350
Si Si2 0.736434 0.819833 0.276049
Si Si3 0.695901 0.319208 0.406610
Si Si4 0.223714 0.819447 0.102424
Si Si5 0.339964 0.319400 0.106083
Si Si6 0.556117 0.182487 0.719354
Si Si7 0.082678 0.317899 0.409340
O O1 0.142425 0.500000 0.631098
O O2 0.193280 0.231739 0.669036
O O3 0.088176 0.279945 0.660867
O O4 0.096479 0.287521 0.511205
O O5 0.704328 0.742191 0.325396
O O6 0.710666 0.762971 0.173704
O O7 0.732414 0.000000 0.279605
O O8 0.700903 0.500000 0.411531
O O9 0.750000 0.250000 0.500000
O O10 0.632930 0.265286 0.396126
O O11 0.288628 0.762784 0.119201
O O12 0.226562 0.000000 0.116919
O O13 0.176600 0.786720 0.996737
O O14 0.334531 0.500000 0.113685
O O15 0.404585 0.260974 0.183642
O O16 0.485827 0.225918 0.663443
O O17 0.559502 0.000000 0.730781
O O18 0.088799 0.500000 0.403017
#
# Coordination Sequence:
#
# PCOD9183237 Si02
#       7
#     8   8   8   8   8   8   8
#     4  10  19  33  54  80 113 151 184 220 268 327
#     4  12  23  35  56  84 112 143 183 232 281 328
#     4  12  24  39  58  80 109 147 187 233 278 322
#     4  10  20  35  54  79 111 147 183 225 281 332
#     4  10  20  33  53  81 113 146 183 227 274 329
#     4  10  20  34  55  82 115 153 186 222 275 331
#     4  10  21  37  56  80 112 151 192 228 268 327
#
# _framework density 16.844408000000001
#
# number of rings (size 3 to 8) (size 9 to 14) (size 15 to 20)
#    0.000    1.429    2.857    3.857    0.000    4.000 
#    0.000    0.000    0.000    3.429    0.000    6.000 
#    0.000    0.000    0.000    0.000    0.000    0.000 
#
# Total GULP energy -156453.127744 kJ/mol
# GULP energy per Si atom -5587.611705 kJ/mol
# Density = 1.680607 g / cm^3
# Si number density = 16.844408 Si / 1000 Ang^3
#
#
#
# Elastic Constant Matrix: (Units=GPa)
#
#
# Indices 1 2 3 4 5 6 
#
# 1 108.4796 56.5999 69.1869 0.0000 6.8235 0.0000
# 2 56.5999 81.7845 64.0370 0.0000 3.2983 0.0000
# 3 69.1869 64.0370 133.3599 0.0000 2.1921 0.0000
# 4 0.0000 0.0000 0.0000 28.6900 0.0000 0.0861
# 5 6.8235 3.2983 2.1921 0.0000 21.3346 0.0000
# 6 0.0000 0.0000 0.0000 0.0861 0.0000 27.7619
#
#
#
# Elastic Compliance Matrix: (Units=1/GPa)
#
#
# Indices 1 2 3 4 5 6 
#
# 1 0.016433 -0.007369 -0.004928 0.000000 -0.003610 0.000000
# 2 -0.007369 0.022990 -0.007209 0.000000 -0.000457 0.000000
# 3 -0.004928 -0.007209 0.013495 0.000000 0.001304 0.000000
# 4 0.000000 0.000000 0.000000 0.034856 0.000000 -0.000108
# 5 -0.003610 -0.000457 0.001304 0.000000 0.047963 0.000000
# 6 0.000000 0.000000 0.000000 -0.000108 0.000000 0.036021
#
#
# Mechanical properties :
#
#
# Convention : Reuss Voigt Hill
#
# Bulk Modulus (GPa) = 71.90473 78.14127 75.02300
# Shear Modulus (GPa) = 23.21219 24.47732 23.84475
#
# Velocity S-wave (km/s) = 3.71622 3.81615 3.76651
# Velocity P-wave (km/s) = 7.82266 8.11838 7.97189
#
# Compressibility (1/GPa) = 0.01390729
#
# Stress axis : x y z
#
# Youngs Moduli (GPa) = 60.85373 43.49770 74.10037
#
# Poissons Ratio (x) = 0.32051 0.36515
# Poissons Ratio (y) = 0.44840 0.53419
# Poissons Ratio (z) = 0.29987 0.31357
#
# Static dielectric constant tensor:
#      x y z
#    x 1.535450 0.000000 0.000400 
#    y 0.000000 1.565020 0.000000 
#    z 0.000400 0.000000 1.573160 
# 
# From -- ./inp_files/237788.got.cif
#   From: 2010.05.17/outbox.cif.g08.bks.cpg/sg12_119_cif.got.tgz:237788.got - 2010.06.03 13:09:07.
