data_PCOD9183545
_publ_section_title
;
Structure prediction by ZEFSAII (Michael W. Deem and Ramdas Pophale) SiO2 
 PCOD9183545
Probable space group: C 2/M
;
_chemical_formula_sum "Si O2"
_cell_formula_units_Z 64
_cell_length_a 8.521459
_cell_length_b 18.245129
_cell_length_c 21.270666
_cell_angle_alpha 90.000000
_cell_angle_beta 89.083052
_cell_angle_gamma 90.000000
_cell_volume 3306.635828
_symmetry_space_group_name_H-M "C 2/M"
_symmetry_group_IT_number 12
_symmetry_cell_setting 'monoclinic'
loop_
_space_group_symop_operation_xyz
x,y,z
-x,y,-z
-x,-y,-z
x,-y,z
1/2+x,1/2+y,z
1/2-x,1/2+y,-z
1/2-x,1/2-y,-z
1/2+x,1/2-y,z
loop_
_atom_site_type_symbol
_atom_site_label
_atom_site_fract_x
_atom_site_fract_y
_atom_site_fract_z
Si Si1 0.785719 0.083890 0.243996
Si Si2 0.836182 0.082609 0.752390
Si Si3 0.188891 0.333106 0.494639
Si Si4 0.317117 0.674353 0.872548
Si Si5 0.812762 0.414935 0.009335
Si Si6 0.152487 0.322351 0.358637
Si Si7 0.778573 0.342542 0.369712
Si Si8 0.691691 0.338595 0.884532
O O1 0.715722 0.136684 0.297282
O O2 0.748772 0.113110 0.174549
O O3 0.974677 0.085559 0.248895
O O4 0.732538 0.000000 0.252510
O O5 0.777522 0.140106 0.804811
O O6 0.776637 0.103371 0.683991
O O7 0.788950 0.000000 0.770253
O O8 0.250000 0.250000 0.500000
O O9 0.224361 0.356484 0.422981
O O10 0.251682 0.369364 0.558342
O O11 0.000000 0.333400 0.500000
O O12 0.236574 0.627041 0.927504
O O13 0.504132 0.668331 0.880262
O O14 0.264636 0.758003 0.878732
O O15 0.764334 0.500000 0.012760
O O16 0.735711 0.375988 0.949778
O O17 0.000000 0.411576 0.000000
O O18 0.196592 0.236373 0.359133
O O19 0.964984 0.329923 0.362311
#
# Coordination Sequence:
#
# PCOD9183545 Si02
#       8
#     8   8   8   8   8   8   8   8
#     4  10  22  39  57  80 111 146 185 229 277 329
#     4  10  22  39  57  80 111 146 185 229 277 329
#     4   8  16  30  49  76 107 139 179 225 273 326
#     4  11  23  40  62  86 114 148 186 228 274 325
#     4  11  24  41  62  89 119 149 184 227 272 321
#     4  10  19  33  55  81 109 143 183 228 277 329
#     4  10  19  33  55  81 109 143 183 228 277 329
#     4  11  23  40  62  86 114 148 186 228 274 325
#
# _framework density 19.355018000000001
#
# number of rings (size 3 to 8) (size 9 to 14) (size 15 to 20)
#    0.000    1.875    0.000    3.750    0.000    7.500 
#    0.000    0.625    0.000    3.750    0.000    0.000 
#    0.000    0.000    0.000    0.000    0.000    0.000 
#
# Total GULP energy -178691.276367 kJ/mol
# GULP energy per Si atom -5584.102386 kJ/mol
# Density = 1.931097 g / cm^3
# Si number density = 19.355018 Si / 1000 Ang^3
#
#
#
# Elastic Constant Matrix: (Units=GPa)
#
#
# Indices 1 2 3 4 5 6 
#
# 1 15.9518 0.0068 -4.3770 0.0000 5.7323 0.0000
# 2 0.0068 40.2416 -20.3569 0.0000 10.5527 0.0000
# 3 -4.3770 -20.3569 62.7673 0.0000 10.8780 0.0000
# 4 0.0000 0.0000 0.0000 23.0432 0.0000 -0.9708
# 5 5.7323 10.5527 10.8780 0.0000 27.0552 0.0000
# 6 0.0000 0.0000 0.0000 -0.9708 0.0000 16.2095
#
#
#
# Elastic Compliance Matrix: (Units=1/GPa)
#
#
# Indices 1 2 3 4 5 6 
#
# 1 0.077011 0.015078 0.015164 0.000000 -0.028295 0.000000
# 2 0.015078 0.041768 0.019321 0.000000 -0.027255 0.000000
# 3 0.015164 0.019321 0.027000 0.000000 -0.021605 0.000000
# 4 0.000000 0.000000 0.000000 0.043506 0.000000 0.002606
# 5 -0.028295 -0.027255 -0.021605 0.000000 0.062273 0.000000
# 6 0.000000 0.000000 0.000000 0.002606 0.000000 0.061848
#
#
# Mechanical properties :
#
#
# Convention : Reuss Voigt Hill
#
# Bulk Modulus (GPa) = 4.08321 7.72293 5.90307
# Shear Modulus (GPa) = 16.89665 22.84076 19.86871
#
# Velocity S-wave (km/s) = 2.95784 3.43898 3.20744
# Velocity P-wave (km/s) = 3.71205 4.44607 4.09554
#
# Compressibility (1/GPa) = 0.24490564
#
# Stress axis : x y z
#
# Youngs Moduli (GPa) = 12.98517 23.94150 37.03709
#
# Poissons Ratio (x) = -0.36098 -0.56163
# Poissons Ratio (y) = -0.19579 -0.71561
# Poissons Ratio (z) = -0.19691 -0.46258
#
# Static dielectric constant tensor:
#      x y z
#    x 1.670270 0.000000 0.003510 
#    y 0.000000 1.637780 0.000000 
#    z 0.003510 0.000000 1.684140 
# 
# From -- ./inp_files/300823.got.cif
#   From: 2010.05.17/outbox.cif.g08.bks.cpg/sg12_151_cif.got.tgz:300823.got - 2010.06.03 13:09:07.
