data_PCOD9183988
_publ_section_title
;
Structure prediction by ZEFSAII (Michael W. Deem and Ramdas Pophale) SiO2 
 PCOD9183988
Probable space group: C 2/M
;
_chemical_formula_sum "Si O2"
_cell_formula_units_Z 56
_cell_length_a 25.757270
_cell_length_b 12.759166
_cell_length_c 8.948748
_cell_angle_alpha 90.000000
_cell_angle_beta 76.840978
_cell_angle_gamma 90.000000
_cell_volume 2863.705055
_symmetry_space_group_name_H-M "C 2/M"
_symmetry_group_IT_number 12
_symmetry_cell_setting 'monoclinic'
loop_
_space_group_symop_operation_xyz
x,y,z
-x,y,-z
-x,-y,-z
x,-y,z
1/2+x,1/2+y,z
1/2-x,1/2+y,-z
1/2-x,1/2-y,-z
1/2+x,1/2-y,z
loop_
_atom_site_type_symbol
_atom_site_label
_atom_site_fract_x
_atom_site_fract_y
_atom_site_fract_z
Si Si1 0.772798 0.823205 0.753067
Si Si2 0.434425 0.625876 0.720889
Si Si3 0.124174 0.805190 0.512959
Si Si4 0.549305 0.612535 0.792754
Si Si5 0.724804 0.382404 0.902110
Si Si6 0.114439 0.227865 0.964080
Si Si7 0.342075 0.878880 0.286903
O O1 0.824254 0.838408 0.616220
O O2 0.764933 0.700762 0.802103
O O3 0.720969 0.860811 0.696597
O O4 0.773564 0.875352 0.917475
O O5 0.419764 0.500000 0.720967
O O6 0.423667 0.687051 0.575121
O O7 0.495303 0.626703 0.736539
O O8 0.399277 0.692807 0.860629
O O9 0.100942 0.882175 0.653083
O O10 0.136882 0.698350 0.595626
O O11 0.547953 0.500000 0.870710
O O12 0.561761 0.698457 0.907050
O O13 0.735418 0.500000 0.847816
O O14 0.665970 0.344096 0.893449
O O15 0.132423 0.339918 0.888370
O O16 0.353312 0.000000 0.308798
#
# Coordination Sequence:
#
# PCOD9183988 Si02
#       7
#     8   8   8   8   8   8   8
#     4  10  21  36  55  84 115 151 195 234 281 342
#     4  11  21  36  60  90 121 151 183 230 292 353
#     4  11  22  37  56  83 118 154 192 233 281 344
#     4  10  21  35  56  88 122 152 183 224 289 359
#     4  10  19  33  56  87 119 147 184 235 287 342
#     4  10  20  36  60  87 116 150 189 234 285 341
#     4  10  23  41  58  80 115 157 199 242 282 329
#
# _framework density 19.555084999999998
#
# number of rings (size 3 to 8) (size 9 to 14) (size 15 to 20)
#    0.000    1.714    1.429    3.429    0.000    4.571 
#    0.000    1.429    0.000   13.714    0.000    0.000 
#    0.000    0.000    0.000    0.000    0.000    0.000 
#
# Total GULP energy -156017.278971 kJ/mol
# GULP energy per Si atom -5572.045678 kJ/mol
# Density = 1.951058 g / cm^3
# Si number density = 19.555085 Si / 1000 Ang^3
#
#
#
# Elastic Constant Matrix: (Units=GPa)
#
#
# Indices 1 2 3 4 5 6 
#
# 1 58.2340 19.7792 4.9141 0.0000 6.5317 0.0000
# 2 19.7792 92.6079 7.1564 0.0000 3.2017 0.0000
# 3 4.9141 7.1564 73.4095 0.0000 -5.8024 0.0000
# 4 0.0000 0.0000 0.0000 -4.9574 0.0000 1.3030
# 5 6.5317 3.2017 -5.8024 0.0000 41.9760 0.0000
# 6 0.0000 0.0000 0.0000 1.3030 0.0000 16.4237
#
#
#
# Elastic Compliance Matrix: (Units=1/GPa)
#
#
# Indices 1 2 3 4 5 6 
#
# 1 0.018888 -0.003852 -0.001110 0.000000 -0.002799 0.000000
# 2 -0.003852 0.011706 -0.000917 0.000000 -0.000420 0.000000
# 3 -0.001110 -0.000917 0.013958 0.000000 0.002172 0.000000
# 4 0.000000 0.000000 0.000000 -0.197600 0.000000 0.015677
# 5 -0.002799 -0.000420 0.002172 0.000000 0.024591 0.000000
# 6 0.000000 0.000000 0.000000 0.015677 0.000000 0.059644
#
#
# Mechanical properties :
#
#
# Convention : Reuss Voigt Hill
#
# Bulk Modulus (GPa) = 30.49234 31.99456 31.24345
# Shear Modulus (GPa) = -108.39978 23.51524 -42.44227
#
# Velocity S-wave (km/s) = -7.45341 3.47149 -4.66380
# Velocity P-wave (km/s) = 7.64489 5.69781 3.60411
#
# Compressibility (1/GPa) = 0.03279513
#
# Stress axis : x y z
#
# Youngs Moduli (GPa) = 52.94404 85.42488 71.64578
#
# Poissons Ratio (x) = 0.32902 0.07954
# Poissons Ratio (y) = 0.20392 0.06567
# Poissons Ratio (z) = 0.05877 0.07830
#
# Static dielectric constant tensor:
#      x y z
#    x 1.715970 0.000000 0.009090 
#    y 0.000000 1.661920 0.000000 
#    z 0.009090 0.000000 1.774530 
# 
# From -- ./inp_files/103161.got.cif
#   From: 2010.05.17/outbox.cif.g08.bks.cpg/sg12_52_cif.got.tgz:103161.got - 2010.06.03 13:09:07.
