data_PCOD9183880
_publ_section_title
;
Structure prediction by ZEFSAII (Michael W. Deem and Ramdas Pophale) SiO2 
 PCOD9183880
Probable space group: C 2/M
;
_chemical_formula_sum "Si O2"
_cell_formula_units_Z 64
_cell_length_a 33.476544
_cell_length_b 7.905580
_cell_length_c 25.511928
_cell_angle_alpha 90.000000
_cell_angle_beta 153.301364
_cell_angle_gamma 90.000000
_cell_volume 3033.554907
_symmetry_space_group_name_H-M "C 2/M"
_symmetry_group_IT_number 12
_symmetry_cell_setting 'monoclinic'
loop_
_space_group_symop_operation_xyz
x,y,z
-x,y,-z
-x,-y,-z
x,-y,z
1/2+x,1/2+y,z
1/2-x,1/2+y,-z
1/2-x,1/2-y,-z
1/2+x,1/2-y,z
loop_
_atom_site_type_symbol
_atom_site_label
_atom_site_fract_x
_atom_site_fract_y
_atom_site_fract_z
Si Si1 0.222129 0.298506 0.408689
Si Si2 0.069229 0.795102 0.037275
Si Si3 0.066106 0.700045 0.735685
Si Si4 0.367057 0.203334 0.491966
Si Si5 0.521789 0.199577 0.176543
Si Si6 0.208916 0.707753 0.820676
Si Si7 0.122692 0.197018 0.914123
Si Si8 0.271604 0.793387 0.275895
O O1 0.219249 0.500000 0.401141
O O2 0.250000 0.250000 0.500000
O O3 0.293934 0.239058 0.450586
O O4 0.121216 0.233810 0.282376
O O5 0.037381 0.730280 0.943950
O O6 0.067645 0.000000 0.033349
O O7 0.169670 0.743144 0.167158
O O8 0.000000 0.737925 0.000000
O O9 0.058471 0.500000 0.717397
O O10 0.126132 0.766768 0.758575
O O11 0.115660 0.722174 0.848937
O O12 0.965734 0.769491 0.620612
O O13 0.333255 0.265699 0.395681
O O14 0.372372 0.000000 0.495136
O O15 0.470620 0.281269 0.165196
O O16 0.527558 0.000000 0.194432
O O17 0.210560 0.500000 0.821817
O O18 0.205121 0.761978 0.755768
O O19 0.299106 0.762802 0.956201
O O20 0.140464 0.000000 0.926640
O O21 0.274294 0.000000 0.279015
#
# Coordination Sequence:
#
# PCOD9183880 Si02
#       8
#     8   8   8   8   8   8   8   8
#     4  11  24  40  58  81 113 151 190 233 281 335
#     4  10  19  33  56  83 111 146 187 228 272 330
#     4  10  21  36  56  85 116 147 187 238 290 335
#     4  10  21  37  59  85 114 150 191 234 282 334
#     4  11  23  37  55  82 114 145 182 232 285 334
#     4   9  18  34  57  84 115 147 188 238 283 334
#     4  11  21  36  59  84 113 151 191 233 284 342
#     4   9  17  33  56  83 115 148 188 232 274 331
#
# _framework density 21.097359000000001
#
# number of rings (size 3 to 8) (size 9 to 14) (size 15 to 20)
#    0.000    1.875    1.250    3.000    0.000    7.250 
#    0.000    3.750    0.000    0.000    0.000    1.750 
#    0.000    0.000    0.000    0.000    0.000    0.000 
#
# Total GULP energy -178792.510112 kJ/mol
# GULP energy per Si atom -5587.265941 kJ/mol
# Density = 2.104934 g / cm^3
# Si number density = 21.097359 Si / 1000 Ang^3
#
#
#
# Elastic Constant Matrix: (Units=GPa)
#
#
# Indices 1 2 3 4 5 6 
#
# 1 154.5864 0.5748 50.8182 0.0000 -1.0830 0.0000
# 2 0.5748 17.5888 9.2332 0.0000 4.4879 0.0000
# 3 50.8182 9.2332 103.4344 0.0000 -5.7308 0.0000
# 4 0.0000 0.0000 0.0000 4.1536 0.0000 -7.7369
# 5 -1.0830 4.4879 -5.7308 0.0000 35.5331 0.0000
# 6 0.0000 0.0000 0.0000 -7.7369 0.0000 14.4087
#
#
#
# Elastic Compliance Matrix: (Units=1/GPa)
#
#
# Indices 1 2 3 4 5 6 
#
# 1 0.007786 0.002041 -0.004045 -0.000012 -0.000673 -0.000006
# 2 0.002041 0.062822 -0.007110 -0.001602 -0.009019 -0.000860
# 3 -0.004045 -0.007110 0.012444 0.000094 0.002782 0.000050
# 4 -0.000012 -0.001602 0.000094********** 0.000082**********
# 5 -0.000673 -0.009019 0.002782 0.000082 0.029710 0.000044
# 6 -0.000006 -0.000860 0.000050********** 0.000044**********
#
#
# Mechanical properties :
#
#
# Convention : Reuss Voigt Hill
#
# Bulk Modulus (GPa) = 15.42661 44.09575 29.76118
# Shear Modulus (GPa) = -0.00348 25.15129 12.57390
#
# Velocity S-wave (km/s) = -0.04068 3.45650 2.44395
# Velocity P-wave (km/s) = 2.70662 6.07259 4.70118
#
# Compressibility (1/GPa) = 0.06482305
#
# Stress axis : x y z
#
# Youngs Moduli (GPa) = 128.43103 15.91811 80.35953
#
# Poissons Ratio (x) = -0.03248 0.32505
# Poissons Ratio (y) = -0.26207 0.57136
# Poissons Ratio (z) = 0.51949 0.11318
#
# Static dielectric constant tensor:
#      x y z
#    x 1.726490 0.000000 0.022030 
#    y 0.000000 1.754040 0.000000 
#    z 0.022030 0.000000 1.764420 
# 
# From -- ./inp_files/353589.got.cif
#   From: 2010.05.17/outbox.cif.g08.bks.cpg/sg12_177_cif.got.tgz:353589.got - 2010.06.03 13:09:07.
