data_PCOD9183242
_publ_section_title
;
Structure prediction by ZEFSAII (Michael W. Deem and Ramdas Pophale) SiO2 
 PCOD9183242
Probable space group: C 2/M
;
_chemical_formula_sum "Si O2"
_cell_formula_units_Z 40
_cell_length_a 17.700754
_cell_length_b 20.955107
_cell_length_c 6.411901
_cell_angle_alpha 90.000000
_cell_angle_beta 78.102599
_cell_angle_gamma 90.000000
_cell_volume 2327.219923
_symmetry_space_group_name_H-M "C 2/M"
_symmetry_group_IT_number 12
_symmetry_cell_setting 'monoclinic'
loop_
_space_group_symop_operation_xyz
x,y,z
-x,y,-z
-x,-y,-z
x,-y,z
1/2+x,1/2+y,z
1/2-x,1/2+y,-z
1/2-x,1/2-y,-z
1/2+x,1/2-y,z
loop_
_atom_site_type_symbol
_atom_site_label
_atom_site_fract_x
_atom_site_fract_y
_atom_site_fract_z
Si Si1 0.705775 0.809492 0.633579
Si Si2 0.576909 0.726075 0.821746
Si Si3 0.812239 0.851412 0.936009
Si Si4 0.731218 0.571217 0.656837
Si Si5 0.081797 0.890754 0.505359
O O1 0.750000 0.750000 0.500000
O O2 0.617086 0.788938 0.706176
O O3 0.745586 0.820059 0.835046
O O4 0.722509 0.873250 0.491210
O O5 0.564440 0.674305 0.645322
O O6 0.500000 0.735729 0.000000
O O7 0.642533 0.695703 0.934814
O O8 0.874759 0.875964 0.734396
O O9 0.777539 0.906954 0.099504
O O10 0.762678 0.500000 0.616125
O O11 0.644618 0.573061 0.609352
O O12 0.000000 0.921818 0.500000
#
# Coordination Sequence:
#
# PCOD9183242 Si02
#       5
#     8   8   8   8   8
#     4  11  20  35  59  84 108 142 188 237 276 326
#     4  11  20  31  54  87 115 139 178 230 286 329
#     4  10  19  33  55  76 113 142 183 221 280 322
#     4  10  23  37  53  78 112 152 193 225 270 330
#     4  10  19  33  54  80 115 148 179 224 271 332
#
# _framework density 17.187889999999999
#
# number of rings (size 3 to 8) (size 9 to 14) (size 15 to 20)
#    0.000    1.600    8.000    0.600    0.000    3.600 
#    0.000    1.000    0.000    0.600    0.000    1.400 
#    0.000    0.000    0.000    0.000    0.000    0.000 
#
# Total GULP energy -111527.948666 kJ/mol
# GULP energy per Si atom -5576.397433 kJ/mol
# Density = 1.714877 g / cm^3
# Si number density = 17.187890 Si / 1000 Ang^3
#
#
#
# Elastic Constant Matrix: (Units=GPa)
#
#
# Indices 1 2 3 4 5 6 
#
# 1 39.5084 35.5979 21.3680 0.0000 -14.0884 0.0000
# 2 35.5979 125.5462 48.9794 0.0000 -14.5177 0.0000
# 3 21.3680 48.9794 101.9847 0.0000 -2.0049 0.0000
# 4 0.0000 0.0000 0.0000 10.6816 0.0000 -4.9076
# 5 -14.0884 -14.5177 -2.0049 0.0000 32.8513 0.0000
# 6 0.0000 0.0000 0.0000 -4.9076 0.0000 8.5818
#
#
#
# Elastic Compliance Matrix: (Units=1/GPa)
#
#
# Indices 1 2 3 4 5 6 
#
# 1 0.039499 -0.008065 -0.004144 0.000000 0.013122 0.000000
# 2 -0.008065 0.012018 -0.004050 0.000000 0.001605 0.000000
# 3 -0.004144 -0.004050 0.012564 0.000000 -0.002800 0.000000
# 4 0.000000 0.000000 0.000000 0.126980 0.000000 0.072614
# 5 0.013122 0.001605 -0.002800 0.000000 0.036606 0.000000
# 6 0.000000 0.000000 0.000000 0.072614 0.000000 0.158050
#
#
# Mechanical properties :
#
#
# Convention : Reuss Voigt Hill
#
# Bulk Modulus (GPa) = 31.68530 53.21443 42.44986
# Shear Modulus (GPa) = 11.66162 21.16255 16.41208
#
# Velocity S-wave (km/s) = 2.60759 3.51272 3.09344
# Velocity P-wave (km/s) = 5.24792 6.89057 6.12457
#
# Compressibility (1/GPa) = 0.03156038
#
# Stress axis : x y z
#
# Youngs Moduli (GPa) = 25.31718 83.20974 79.59337
#
# Poissons Ratio (x) = 0.67112 0.32986
# Poissons Ratio (y) = 0.20419 0.32237
# Poissons Ratio (z) = 0.10492 0.33702
#
# Static dielectric constant tensor:
#      x y z
#    x 1.587830 0.000000 0.000950 
#    y 0.000000 1.602520 0.000000 
#    z 0.000950 0.000000 1.604870 
# 
# From -- ./inp_files/15742.got.cif
#   From: 2010.05.17/outbox.cif.g08.bks.cpg/sg12_8_cif.got.tgz:15742.got - 2010.06.03 13:09:07.
