data_PCOD9183075
_publ_section_title
;
Structure prediction by ZEFSAII (Michael W. Deem and Ramdas Pophale) SiO2 
 PCOD9183075
Probable space group: C 2/M
;
_chemical_formula_sum "Si O2"
_cell_formula_units_Z 56
_cell_length_a 19.844387
_cell_length_b 7.684912
_cell_length_c 21.323415
_cell_angle_alpha 90.000000
_cell_angle_beta 122.891724
_cell_angle_gamma 90.000000
_cell_volume 2730.590828
_symmetry_space_group_name_H-M "C 2/M"
_symmetry_group_IT_number 12
_symmetry_cell_setting 'monoclinic'
loop_
_space_group_symop_operation_xyz
x,y,z
-x,y,-z
-x,-y,-z
x,-y,z
1/2+x,1/2+y,z
1/2-x,1/2+y,-z
1/2-x,1/2-y,-z
1/2+x,1/2-y,z
loop_
_atom_site_type_symbol
_atom_site_label
_atom_site_fract_x
_atom_site_fract_y
_atom_site_fract_z
Si Si1 0.009351 0.711020 0.797106
Si Si2 0.140692 0.208519 0.192607
Si Si3 0.747439 0.291196 0.359792
Si Si4 0.080950 0.286598 0.505421
Si Si5 0.598690 0.209540 0.371186
Si Si6 0.339031 0.192769 0.061061
Si Si7 0.094280 0.207002 0.035407
O O1 0.012728 0.500000 0.796780
O O2 0.097196 0.781272 0.859707
O O3 0.945356 0.757022 0.818798
O O4 0.969159 0.772330 0.712038
O O5 0.206548 0.276881 0.275091
O O6 0.139965 0.271387 0.120816
O O7 0.149594 0.000000 0.193419
O O8 0.751856 0.500000 0.356242
O O9 0.836728 0.228340 0.419633
O O10 0.684814 0.254824 0.384423
O O11 0.081122 0.500000 0.505526
O O12 0.085438 0.229196 0.435206
O O13 0.000000 0.231901 0.500000
O O14 0.594507 0.000000 0.370254
O O15 0.329083 0.000000 0.081685
O O16 0.250000 0.250000 0.000000
O O17 0.382612 0.197692 0.016074
O O18 0.110653 0.000000 0.034668
O O19 0.000000 0.225200 0.000000
#
# Coordination Sequence:
#
# PCOD9183075 Si02
#       7
#     8   8   8   8   8   8   8
#     4   9  18  32  50  74  99 128 166 206 249 296
#     4   9  17  30  50  77 102 128 163 208 252 291
#     4   9  17  30  50  76 100 127 165 202 241 288
#     4   9  17  30  48  73 102 129 161 200 242 291
#     4   9  17  31  52  75  97 126 162 202 247 290
#     4  11  23  37  52  73 103 137 173 211 253 301
#     4  10  19  33  54  77 102 133 169 207 254 303
#
# _framework density 20.508382000000001
#
# number of rings (size 3 to 8) (size 9 to 14) (size 15 to 20)
#    0.000    2.571    1.429    0.857    0.000    1.429 
#    2.571    0.000    0.000    1.714    0.000    0.000 
#    0.000    0.000    0.000    0.000    0.000    0.000 
#
# Total GULP energy -156137.135825 kJ/mol
# GULP energy per Si atom -5576.326279 kJ/mol
# Density = 2.046170 g / cm^3
# Si number density = 20.508382 Si / 1000 Ang^3
#
#
#
# Elastic Constant Matrix: (Units=GPa)
#
#
# Indices 1 2 3 4 5 6 
#
# 1 75.5477 3.8276 66.2054 0.0000 31.5941 0.0000
# 2 3.8276 27.8372 4.6515 0.0000 4.1397 0.0000
# 3 66.2054 4.6515 153.3224 0.0000 29.6973 0.0000
# 4 0.0000 0.0000 0.0000 11.9572 0.0000 0.6302
# 5 31.5941 4.1397 29.6973 0.0000 35.3465 0.0000
# 6 0.0000 0.0000 0.0000 0.6302 0.0000 21.3991
#
#
#
# Elastic Compliance Matrix: (Units=1/GPa)
#
#
# Indices 1 2 3 4 5 6 
#
# 1 0.028529 0.000245 -0.008816 0.000000 -0.018122 0.000000
# 2 0.000245 0.036576 -0.000410 0.000000 -0.004158 0.000000
# 3 -0.008816 -0.000410 0.010517 0.000000 -0.000908 0.000000
# 4 0.000000 0.000000 0.000000 0.083762 0.000000 -0.002467
# 5 -0.018122 -0.004158 -0.000908 0.000000 0.045739 0.000000
# 6 0.000000 0.000000 0.000000 -0.002467 0.000000 0.046804
#
#
# Mechanical properties :
#
#
# Convention : Reuss Voigt Hill
#
# Bulk Modulus (GPa) = 17.34290 45.11959 31.23125
# Shear Modulus (GPa) = 17.29448 25.87541 21.58494
#
# Velocity S-wave (km/s) = 2.90709 3.55589 3.24774
# Velocity P-wave (km/s) = 4.44332 6.23759 5.41528
#
# Compressibility (1/GPa) = 0.05766047
#
# Stress axis : x y z
#
# Youngs Moduli (GPa) = 35.05227 27.34008 95.07984
#
# Poissons Ratio (x) = -0.00671 0.83825
# Poissons Ratio (y) = -0.00860 0.03900
# Poissons Ratio (z) = 0.30903 0.01121
#
# Static dielectric constant tensor:
#      x y z
#    x 1.687660 0.000000 0.028150 
#    y 0.000000 1.777590 0.000000 
#    z 0.028150 0.000000 1.781200 
# 
# From -- ./inp_files/314429.got.cif
#   From: 2010.05.17/outbox.cif.g08.bks.cpg/sg12_158_cif.got.tgz:314429.got - 2010.06.03 13:09:07.
