data_PCOD9183355
_publ_section_title
;
Structure prediction by ZEFSAII (Michael W. Deem and Ramdas Pophale) SiO2 
 PCOD9183355
Probable space group: C 2/M
;
_chemical_formula_sum "Si O2"
_cell_formula_units_Z 60
_cell_length_a 26.393170
_cell_length_b 16.229962
_cell_length_c 12.274668
_cell_angle_alpha 90.000000
_cell_angle_beta 139.411896
_cell_angle_gamma 90.000000
_cell_volume 3420.927935
_symmetry_space_group_name_H-M "C 2/M"
_symmetry_group_IT_number 12
_symmetry_cell_setting 'monoclinic'
loop_
_space_group_symop_operation_xyz
x,y,z
-x,y,-z
-x,-y,-z
x,-y,z
1/2+x,1/2+y,z
1/2-x,1/2+y,-z
1/2-x,1/2-y,-z
1/2+x,1/2-y,z
loop_
_atom_site_type_symbol
_atom_site_label
_atom_site_fract_x
_atom_site_fract_y
_atom_site_fract_z
Si Si1 0.301153 0.594274 0.328242
Si Si2 0.000000 0.223677 0.500000
Si Si3 0.125137 0.092752 0.958471
Si Si4 0.338864 0.593575 0.741202
Si Si5 0.810947 0.594367 0.656917
Si Si6 0.039890 0.848254 0.333759
Si Si7 0.573065 0.243693 0.195931
Si Si8 0.668896 0.290160 0.830373
O O1 0.296199 0.500000 0.281861
O O2 0.228909 0.611102 0.290538
O O3 0.378872 0.603920 0.528839
O O4 0.310758 0.656110 0.243590
O O5 0.981775 0.169847 0.576687
O O6 0.912461 0.260293 0.330134
O O7 0.146766 0.153476 0.897323
O O8 0.033616 0.104844 0.836307
O O9 0.137884 0.000000 0.941391
O O10 0.171089 0.106313 0.145563
O O11 0.371279 0.500000 0.780202
O O12 0.258266 0.596348 0.544456
O O13 0.390035 0.669507 0.782950
O O14 0.842157 0.500000 0.709256
O O15 0.869780 0.666837 0.723611
O O16 0.050325 0.763920 0.283310
O O17 0.500000 0.227462 0.000000
O O18 0.750000 0.250000 0.000000
#
# Coordination Sequence:
#
# PCOD9183355 Si02
#       8
#     8   4   8   8   8   8   8   8
#     4  10  20  35  56  80 109 147 189 231 283 345
#     4   8  20  36  49  80 113 138 186 230 276 336
#     4  10  20  34  53  80 117 145 177 228 287 353
#     4  10  21  35  54  82 113 144 180 229 287 344
#     4  10  23  39  56  80 112 151 196 242 280 337
#     4  10  19  33  54  84 112 146 178 226 287 351
#     4  12  23  35  57  82 112 151 190 235 288 348
#     4  10  21  34  56  81 111 150 190 234 282 340
#
# _framework density 17.539100999999999
#
# number of rings (size 3 to 8) (size 9 to 14) (size 15 to 20)
#    0.000    1.867    2.667    1.200    1.867    2.133 
#    0.000    4.000    0.000    0.000    0.000    2.333 
#    0.000    0.000    0.000    0.000    0.000    0.000 
#
# Total GULP energy -167043.993666 kJ/mol
# GULP energy per Si atom -5568.133122 kJ/mol
# Density = 1.749918 g / cm^3
# Si number density = 17.539101 Si / 1000 Ang^3
#
#
#
# Elastic Constant Matrix: (Units=GPa)
#
#
# Indices 1 2 3 4 5 6 
#
# 1 74.0557 44.6089 33.5978 0.0000 -7.4413 0.0000
# 2 44.6089 60.6491 42.0900 0.0000 2.2736 0.0000
# 3 33.5978 42.0900 100.9996 0.0000 5.0431 0.0000
# 4 0.0000 0.0000 0.0000 -5.2730 0.0000 -12.8385
# 5 -7.4413 2.2736 5.0431 0.0000 26.0119 0.0000
# 6 0.0000 0.0000 0.0000 -12.8385 0.0000 15.2838
#
#
#
# Elastic Compliance Matrix: (Units=1/GPa)
#
#
# Indices 1 2 3 4 5 6 
#
# 1 0.026432 -0.018805 -0.001430 0.000000 0.009482 0.000000
# 2 -0.018805 0.036576 -0.008643 0.000000 -0.006901 0.000000
# 3 -0.001430 -0.008643 0.014097 0.000000 -0.002387 0.000000
# 4 0.000000 0.000000 0.000000 -0.062277 0.000000 -0.052313
# 5 0.009482 -0.006901 -0.002387 0.000000 0.042223 0.000000
# 6 0.000000 0.000000 0.000000 -0.052313 0.000000 0.021486
#
#
# Mechanical properties :
#
#
# Convention : Reuss Voigt Hill
#
# Bulk Modulus (GPa) = 51.67447 52.92197 52.29822
# Shear Modulus (GPa) = 35.02819 14.89839 24.96329
#
# Velocity S-wave (km/s) = 4.47380 2.91768 3.77675
# Velocity P-wave (km/s) = 7.49752 6.44900 6.99294
#
# Compressibility (1/GPa) = 0.01935191
#
# Stress axis : x y z
#
# Youngs Moduli (GPa) = 37.83261 27.34011 70.93515
#
# Poissons Ratio (x) = 0.51413 0.10141
# Poissons Ratio (y) = 0.71144 0.61306
# Poissons Ratio (z) = 0.05408 0.23629
#
# Static dielectric constant tensor:
#      x y z
#    x 1.621800 0.000000 0.009150 
#    y 0.000000 1.583420 0.000000 
#    z 0.009150 0.000000 1.631960 
# 
# From -- ./inp_files/177391.got.cif
#   From: 2010.05.17/outbox.cif.g08.bks.cpg/sg12_89_cif.got.tgz:177391.got - 2010.06.03 13:09:07.
