data_PCOD9183113
_publ_section_title
;
Structure prediction by ZEFSAII (Michael W. Deem and Ramdas Pophale) SiO2 
 PCOD9183113
Probable space group: C 2/M
;
_chemical_formula_sum "Si O2"
_cell_formula_units_Z 50
_cell_length_a 8.198070
_cell_length_b 17.551023
_cell_length_c 17.648760
_cell_angle_alpha 90.000000
_cell_angle_beta 128.306436
_cell_angle_gamma 90.000000
_cell_volume 1992.671187
_symmetry_space_group_name_H-M "C 2/M"
_symmetry_group_IT_number 12
_symmetry_cell_setting 'monoclinic'
loop_
_space_group_symop_operation_xyz
x,y,z
-x,y,-z
-x,-y,-z
x,-y,z
1/2+x,1/2+y,z
1/2-x,1/2+y,-z
1/2-x,1/2-y,-z
1/2+x,1/2-y,z
loop_
_atom_site_type_symbol
_atom_site_label
_atom_site_fract_x
_atom_site_fract_y
_atom_site_fract_z
Si Si1 0.647838 0.417323 0.720147
Si Si2 0.084681 0.367297 0.419661
Si Si3 0.885286 0.417892 0.213282
Si Si4 0.679327 0.722535 0.642065
Si Si5 0.297408 0.864341 0.912735
Si Si6 0.500000 0.000000 0.500000
Si Si7 0.582475 0.282763 0.145077
O O1 0.566189 0.500000 0.674011
O O2 0.557193 0.341079 0.656931
O O3 0.655642 0.409820 0.812542
O O4 0.891307 0.414899 0.763888
O O5 0.938588 0.413193 0.317881
O O6 0.955729 0.295831 0.412200
O O7 0.247207 0.324728 0.410137
O O8 0.134020 0.431267 0.495046
O O9 0.788152 0.500000 0.167139
O O10 0.747586 0.343900 0.160907
O O11 0.856118 0.756776 0.750839
O O12 0.397902 0.794083 0.895695
O O13 0.136522 0.825186 0.922905
O O14 0.500000 0.908099 0.000000
#
# Coordination Sequence:
#
# PCOD9183113 Si02
#       7
#     8   8   8   8   8   2   8
#     4   9  18  33  55  81 107 142 188 237 280 331
#     4  10  20  36  59  86 115 149 186 225 284 331
#     4   9  17  34  57  80 104 137 189 239 272 319
#     4   9  18  35  61  83 107 146 196 237 265 319
#     4  11  21  33  49  75 111 148 180 233 297 346
#     4  12  24  36  60  90 122 152 178 218 284 360
#     4  10  19  33  54  78 102 141 198 238 273 331
#
# _framework density 25.091944999999999
#
# number of rings (size 3 to 8) (size 9 to 14) (size 15 to 20)
#    0.000    2.240    0.800    5.280    1.120    1.600 
#    0.000    0.000    1.760    3.360    0.000    0.000 
#    0.000    0.000    0.000    0.000    0.000    0.000 
#
# Total GULP energy -139381.628582 kJ/mol
# GULP energy per Si atom -5575.265143 kJ/mol
# Density = 2.503484 g / cm^3
# Si number density = 25.091945 Si / 1000 Ang^3
#
#
#
# Elastic Constant Matrix: (Units=GPa)
#
#
# Indices 1 2 3 4 5 6 
#
# 1 44.4367 29.0415 14.7453 0.0000 -3.7087 0.0000
# 2 29.0415 215.6773 22.3949 0.0000 -0.2644 0.0000
# 3 14.7453 22.3949 41.7605 0.0000 0.6605 0.0000
# 4 0.0000 0.0000 0.0000 7.6786 0.0000 -1.0838
# 5 -3.7087 -0.2644 0.6605 0.0000 20.9684 0.0000
# 6 0.0000 0.0000 0.0000 -1.0838 0.0000 15.1644
#
#
#
# Elastic Compliance Matrix: (Units=1/GPa)
#
#
# Indices 1 2 3 4 5 6 
#
# 1 0.027533 -0.002842 -0.008278 0.000000 0.005095 0.000000
# 2 -0.002842 0.005204 -0.001781 0.000000 -0.000381 0.000000
# 3 -0.008278 -0.001781 0.027862 0.000000 -0.002364 0.000000
# 4 0.000000 0.000000 0.000000 0.131559 0.000000 0.009402
# 5 0.005095 -0.000381 -0.002364 0.000000 0.048662 0.000000
# 6 0.000000 0.000000 0.000000 0.009402 0.000000 0.066616
#
#
# Mechanical properties :
#
#
# Convention : Reuss Voigt Hill
#
# Bulk Modulus (GPa) = 28.73886 48.24867 38.49376
# Shear Modulus (GPa) = 14.49963 24.47513 19.48738
#
# Velocity S-wave (km/s) = 2.40648 3.12656 2.78985
# Velocity P-wave (km/s) = 4.38176 5.68369 5.07465
#
# Compressibility (1/GPa) = 0.03479610
#
# Stress axis : x y z
#
# Youngs Moduli (GPa) = 36.31970 192.17215 35.89153
#
# Poissons Ratio (x) = 0.54607 0.29713
# Poissons Ratio (y) = 0.10321 0.06393
# Poissons Ratio (z) = 0.30067 0.34230
#
# Static dielectric constant tensor:
#      x y z
#    x 2.027900 0.000000 0.005240 
#    y 0.000000 1.933300 0.000000 
#    z 0.005240 0.000000 2.117910 
# 
# From -- ./inp_files/256511.got.cif
#   From: 2010.05.17/outbox.cif.g08.bks.cpg/sg12_129_cif.got.tgz:256511.got - 2010.06.03 13:09:07.
