data_PCOD9183848
_publ_section_title
;
Structure prediction by ZEFSAII (Michael W. Deem and Ramdas Pophale) SiO2 
 PCOD9183848
Probable space group: C 2/M
;
_chemical_formula_sum "Si O2"
_cell_formula_units_Z 56
_cell_length_a 31.431787
_cell_length_b 8.946621
_cell_length_c 12.031321
_cell_angle_alpha 90.000000
_cell_angle_beta 115.836789
_cell_angle_gamma 90.000000
_cell_volume 3045.108821
_symmetry_space_group_name_H-M "C 2/M"
_symmetry_group_IT_number 12
_symmetry_cell_setting 'monoclinic'
loop_
_space_group_symop_operation_xyz
x,y,z
-x,y,-z
-x,-y,-z
x,-y,z
1/2+x,1/2+y,z
1/2-x,1/2+y,-z
1/2-x,1/2-y,-z
1/2+x,1/2-y,z
loop_
_atom_site_type_symbol
_atom_site_label
_atom_site_fract_x
_atom_site_fract_y
_atom_site_fract_z
Si Si1 0.019912 0.322446 0.820072
Si Si2 0.367191 0.680232 0.445955
Si Si3 0.813208 0.179622 0.980454
Si Si4 0.716291 0.320076 0.806204
Si Si5 0.595580 0.320916 0.056806
Si Si6 0.409119 0.178782 0.711403
Si Si7 0.548184 0.675185 0.625510
O O1 0.024029 0.500000 0.838311
O O2 0.043111 0.269631 0.731125
O O3 0.964444 0.283244 0.753789
O O4 0.047179 0.242143 0.950845
O O5 0.368384 0.500000 0.461332
O O6 0.317454 0.723063 0.333780
O O7 0.379065 0.757991 0.574998
O O8 0.408302 0.717889 0.403750
O O9 0.808652 0.222722 0.105022
O O10 0.810097 0.000000 0.972035
O O11 0.767946 0.248614 0.867331
O O12 0.862065 0.223547 0.978537
O O13 0.720528 0.500000 0.810642
O O14 0.593630 0.500000 0.060696
O O15 0.604664 0.252419 0.187781
O O16 0.405062 0.000000 0.712897
O O17 0.500000 0.689088 0.500000
O O18 0.554176 0.500000 0.663240
#
# Coordination Sequence:
#
# PCOD9183848 Si02
#       7
#     8   8   8   8   8   8   8
#     4  11  23  37  55  81 115 149 184 231 282 329
#     4  10  20  36  57  83 114 149 189 227 270 327
#     4   9  19  37  59  85 113 138 176 228 277 327
#     4   9  18  34  59  87 114 141 173 221 277 331
#     4  11  23  39  60  81 106 145 192 234 274 327
#     4  11  24  39  54  78 114 150 187 231 277 328
#     4  10  19  33  56  82 111 147 185 225 268 321
#
# _framework density 18.390148
#
# number of rings (size 3 to 8) (size 9 to 14) (size 15 to 20)
#    0.000    1.857    1.429    2.571    0.000    8.286 
#    0.000    3.571    0.000    0.000    0.000    0.000 
#    0.000    0.000    0.000    0.000    0.000    0.000 
#
# Total GULP energy -156436.436812 kJ/mol
# GULP energy per Si atom -5587.015600 kJ/mol
# Density = 1.834829 g / cm^3
# Si number density = 18.390148 Si / 1000 Ang^3
#
#
#
# Elastic Constant Matrix: (Units=GPa)
#
#
# Indices 1 2 3 4 5 6 
#
# 1 37.6378 23.8300 40.5556 0.0000 3.0346 0.0000
# 2 23.8300 28.7416 41.3952 0.0000 2.3942 0.0000
# 3 40.5556 41.3952 132.2602 0.0000 14.6842 0.0000
# 4 0.0000 0.0000 0.0000 33.4816 0.0000 4.1249
# 5 3.0346 2.3942 14.6842 0.0000 23.8741 0.0000
# 6 0.0000 0.0000 0.0000 4.1249 0.0000 19.6236
#
#
#
# Elastic Compliance Matrix: (Units=1/GPa)
#
#
# Indices 1 2 3 4 5 6 
#
# 1 0.057655 -0.040706 -0.004914 0.000000 -0.000224 0.000000
# 2 -0.040706 0.092976 -0.017341 0.000000 0.006516 0.000000
# 3 -0.004914 -0.017341 0.015276 0.000000 -0.007032 0.000000
# 4 0.000000 0.000000 0.000000 0.030661 0.000000 -0.006445
# 5 -0.000224 0.006516 -0.007032 0.000000 0.045586 0.000000
# 6 0.000000 0.000000 0.000000 -0.006445 0.000000 0.052314
#
#
# Mechanical properties :
#
#
# Convention : Reuss Voigt Hill
#
# Bulk Modulus (GPa) = 25.01032 45.57790 35.29411
# Shear Modulus (GPa) = 11.52823 21.58647 16.55735
#
# Velocity S-wave (km/s) = 2.50645 3.42980 3.00382
# Velocity P-wave (km/s) = 4.69103 6.36572 5.59143
#
# Compressibility (1/GPa) = 0.03998350
#
# Stress axis : x y z
#
# Youngs Moduli (GPa) = 17.34468 10.75549 65.46308
#
# Poissons Ratio (x) = 0.43782 0.32166
# Poissons Ratio (y) = 0.70604 1.13521
# Poissons Ratio (z) = 0.08523 0.18651
#
# Static dielectric constant tensor:
#      x y z
#    x 1.621970 0.000000 0.002200 
#    y 0.000000 1.613640 0.000000 
#    z 0.002200 0.000000 1.616510 
# 
# From -- ./inp_files/180626.got.cif
#   From: 2010.05.17/outbox.cif.g08.bks.cpg/sg12_91_cif.got.tgz:180626.got - 2010.06.03 13:09:07.
