data_PCOD9183639
_publ_section_title
;
Structure prediction by ZEFSAII (Michael W. Deem and Ramdas Pophale) SiO2 
 PCOD9183639
Probable space group: C 2/M
;
_chemical_formula_sum "Si O2"
_cell_formula_units_Z 56
_cell_length_a 14.975335
_cell_length_b 8.209745
_cell_length_c 22.303812
_cell_angle_alpha 90.000000
_cell_angle_beta 59.809752
_cell_angle_gamma 90.000000
_cell_volume 2370.173699
_symmetry_space_group_name_H-M "C 2/M"
_symmetry_group_IT_number 12
_symmetry_cell_setting 'monoclinic'
loop_
_space_group_symop_operation_xyz
x,y,z
-x,y,-z
-x,-y,-z
x,-y,z
1/2+x,1/2+y,z
1/2-x,1/2+y,-z
1/2-x,1/2-y,-z
1/2+x,1/2-y,z
loop_
_atom_site_type_symbol
_atom_site_label
_atom_site_fract_x
_atom_site_fract_y
_atom_site_fract_z
Si Si1 0.155393 0.689508 0.456176
Si Si2 0.523101 0.686887 0.398802
Si Si3 0.443880 0.803538 0.875898
Si Si4 0.836232 0.304235 0.230080
Si Si5 0.707298 0.195965 0.170963
Si Si6 0.113709 0.195813 0.979949
Si Si7 0.875908 0.694940 0.351755
O O1 0.147480 0.500000 0.475465
O O2 0.076889 0.790038 0.524086
O O3 0.271951 0.750703 0.420925
O O4 0.111965 0.713146 0.402982
O O5 0.556297 0.500000 0.385997
O O6 0.478168 0.741650 0.350168
O O7 0.561882 0.745932 0.840348
O O8 0.396627 0.753339 0.827886
O O9 0.443189 0.000000 0.877954
O O10 0.376188 0.743271 0.954093
O O11 0.837299 0.500000 0.231679
O O12 0.735424 0.254048 0.227602
O O13 0.855042 0.246009 0.291190
O O14 0.798046 0.254408 0.094938
O O15 0.708028 0.000000 0.172280
O O16 0.113896 0.000000 0.976087
O O17 0.000000 0.257748 0.000000
O O18 0.882049 0.500000 0.349227
#
# Coordination Sequence:
#
# PCOD9183639 Si02
#       7
#     8   8   8   8   8   8   8
#     4  11  22  39  63  92 122 156 196 242 294 347
#     4  11  22  39  63  93 124 156 194 240 294 350
#     4  10  21  37  57  82 109 144 188 234 285 341
#     4  10  23  40  57  80 112 149 191 237 284 336
#     4  10  21  37  57  81 112 147 187 234 287 346
#     4  10  19  33  55  83 113 144 181 232 290 342
#     4  11  23  40  59  84 120 159 200 246 294 350
#
# _framework density 23.62696
#
# number of rings (size 3 to 8) (size 9 to 14) (size 15 to 20)
#    0.000    1.571    1.429    4.714    0.000    3.714 
#    0.000    1.429    0.000    0.000    0.000    0.000 
#    0.000    0.000    0.000    0.000    0.000    0.000 
#
# Total GULP energy -156621.060706 kJ/mol
# GULP energy per Si atom -5593.609311 kJ/mol
# Density = 2.357318 g / cm^3
# Si number density = 23.626960 Si / 1000 Ang^3
#
#
#
# Elastic Constant Matrix: (Units=GPa)
#
#
# Indices 1 2 3 4 5 6 
#
# 1 127.6365 -4.3774 10.5011 0.0000 26.7244 0.0000
# 2 -4.3774 29.7905 -9.9477 0.0000 0.8781 0.0000
# 3 10.5011 -9.9477 58.9228 0.0000 22.4485 0.0000
# 4 0.0000 0.0000 0.0000 18.4089 0.0000 11.1170
# 5 26.7244 0.8781 22.4485 0.0000 45.1334 0.0000
# 6 0.0000 0.0000 0.0000 11.1170 0.0000 31.6682
#
#
#
# Elastic Compliance Matrix: (Units=1/GPa)
#
#
# Indices 1 2 3 4 5 6 
#
# 1 0.009046 0.001810 0.000922 0.000000 -0.005850 0.000000
# 2 0.001810 0.036705 0.008087 0.000000 -0.005808 0.000000
# 3 0.000922 0.008087 0.022752 0.000000 -0.012019 0.000000
# 4 0.000000 0.000000 0.000000 0.068936 0.000000 -0.024200
# 5 -0.005850 -0.005808 -0.012019 0.000000 0.031712 0.000000
# 6 0.000000 0.000000 0.000000 -0.024200 0.000000 0.040073
#
#
# Mechanical properties :
#
#
# Convention : Reuss Voigt Hill
#
# Bulk Modulus (GPa) = 11.09387 23.18911 17.14149
# Shear Modulus (GPa) = 22.97457 33.72035 28.34746
#
# Velocity S-wave (km/s) = 3.12170 3.78193 3.46756
# Velocity P-wave (km/s) = 4.20701 5.37649 4.82729
#
# Compressibility (1/GPa) = 0.09013986
#
# Stress axis : x y z
#
# Youngs Moduli (GPa) = 110.54827 27.24409 43.95314
#
# Poissons Ratio (x) = -0.04930 -0.04053
# Poissons Ratio (y) = -0.20004 -0.35545
# Poissons Ratio (z) = -0.10194 -0.22032
#
# Static dielectric constant tensor:
#      x y z
#    x 1.899910 0.000000 0.027250 
#    y 0.000000 1.807300 0.000000 
#    z 0.027250 0.000000 1.949890 
# 
# From -- ./inp_files/338559.got.cif
#   From: 2010.05.17/outbox.cif.g08.bks.cpg/sg12_170_cif.got.tgz:338559.got - 2010.06.03 13:09:07.
