data_PCOD9183386
_publ_section_title
;
Structure prediction by ZEFSAII (Michael W. Deem and Ramdas Pophale) SiO2 
 PCOD9183386
Probable space group: C 2/M
;
_chemical_formula_sum "Si O2"
_cell_formula_units_Z 48
_cell_length_a 8.065203
_cell_length_b 25.019110
_cell_length_c 11.799800
_cell_angle_alpha 90.000000
_cell_angle_beta 112.010788
_cell_angle_gamma 90.000000
_cell_volume 2207.469031
_symmetry_space_group_name_H-M "C 2/M"
_symmetry_group_IT_number 12
_symmetry_cell_setting 'monoclinic'
loop_
_space_group_symop_operation_xyz
x,y,z
-x,y,-z
-x,-y,-z
x,-y,z
1/2+x,1/2+y,z
1/2-x,1/2+y,-z
1/2-x,1/2-y,-z
1/2+x,1/2-y,z
loop_
_atom_site_type_symbol
_atom_site_label
_atom_site_fract_x
_atom_site_fract_y
_atom_site_fract_z
Si Si1 0.500000 0.136920 0.500000
Si Si2 0.282798 0.000000 0.592801
Si Si3 0.296048 0.379733 0.431393
Si Si4 0.670778 0.612727 0.822259
Si Si5 0.707929 0.000000 0.147309
Si Si6 0.755916 0.111736 0.767508
Si Si7 0.289004 0.310099 0.972593
Si Si8 0.140252 0.500000 0.809171
O O1 0.335706 0.158946 0.532983
O O2 0.612212 0.109861 0.630231
O O3 0.226943 0.057954 0.530968
O O4 0.206345 0.000000 0.702021
O O5 0.495950 0.000000 0.667932
O O6 0.500000 0.364298 0.500000
O O7 0.257605 0.381566 0.287335
O O8 0.722748 0.554833 0.883751
O O9 0.455703 0.618840 0.769737
O O10 0.753311 0.655216 0.927889
O O11 0.503396 0.000000 0.879764
O O12 0.708237 0.160092 0.841612
O O13 0.747975 0.054664 0.828352
O O14 0.500000 0.314015 0.000000
O O15 0.250000 0.250000 0.000000
#
# Coordination Sequence:
#
# PCOD9183386 Si02
#       8
#     4   4   8   8   4   8   8   4
#     4  12  22  35  60  94 134 168 216 251 314 384
#     4   8  17  30  49  80 125 169 217 234 301 369
#     4  11  20  34  55  88 128 176 209 261 308 368
#     4  10  20  40  63  88 127 169 212 257 319 376
#     4   8  17  33  55  88 126 167 206 255 315 368
#     4  11  22  38  61  95 131 168 211 260 312 381
#     4  10  25  46  71  91 116 162 216 270 323 380
#     4  10  19  33  54  91 130 167 212 251 306 375
#
# _framework density 21.744358999999999
#
# number of rings (size 3 to 8) (size 9 to 14) (size 15 to 20)
#    0.500    1.333    3.333    0.750    0.000    4.667 
#    0.000    3.333    1.833    3.000    0.000    0.000 
#    0.000    0.000    0.000    0.000    0.000    0.000 
#
# Total GULP energy -133738.704772 kJ/mol
# GULP energy per Si atom -5572.446032 kJ/mol
# Density = 2.169487 g / cm^3
# Si number density = 21.744359 Si / 1000 Ang^3
#
#
#
# Elastic Constant Matrix: (Units=GPa)
#
#
# Indices 1 2 3 4 5 6 
#
# 1 93.3697 6.1667 28.7360 0.0000 -9.3669 0.0000
# 2 6.1667 114.9880 47.4600 0.0000 -11.1152 0.0000
# 3 28.7360 47.4600 108.2452 0.0000 -17.3369 0.0000
# 4 0.0000 0.0000 0.0000 -3.4584 0.0000 -7.6393
# 5 -9.3669 -11.1152 -17.3369 0.0000 25.1403 0.0000
# 6 0.0000 0.0000 0.0000 -7.6393 0.0000 24.4472
#
#
#
# Elastic Compliance Matrix: (Units=1/GPa)
#
#
# Indices 1 2 3 4 5 6 
#
# 1 0.011880 0.000911 -0.003125 0.000000 0.002674 0.000000
# 2 0.000911 0.010751 -0.004654 0.000000 0.001883 0.000000
# 3 -0.003125 -0.004654 0.013032 0.000000 0.005765 0.000000
# 4 0.000000 0.000000 0.000000 -0.171070 0.000000 -0.053456
# 5 0.002674 0.001883 0.005765 0.000000 0.045581 0.000000
# 6 0.000000 0.000000 0.000000 -0.053456 0.000000 0.024200
#
#
# Mechanical properties :
#
#
# Convention : Reuss Voigt Hill
#
# Bulk Modulus (GPa) = 45.60609 53.48092 49.54351
# Shear Modulus (GPa) = -112.15313 24.84182 -43.65566
#
# Velocity S-wave (km/s) = -7.18958 3.38368 -4.48557
# Velocity P-wave (km/s) = 6.92103 6.31779 1.99829
#
# Compressibility (1/GPa) = 0.02192689
#
# Stress axis : x y z
#
# Youngs Moduli (GPa) = 84.17529 93.01843 76.73621
#
# Poissons Ratio (x) = -0.08476 0.23980
# Poissons Ratio (y) = -0.07670 0.35712
# Poissons Ratio (z) = 0.26305 0.43289
#
# Static dielectric constant tensor:
#      x y z
#    x 1.826370 0.000000 -0.007800 
#    y 0.000000 1.879660 0.000000 
#    z -0.007800 0.000000 1.859900 
# 
# From -- ./inp_files/122644.got.cif
#   From: 2010.05.17/outbox.cif.g08.bks.cpg/sg12_62_cif.got.tgz:122644.got - 2010.06.03 13:09:07.
