data_PCOD9183189
_publ_section_title
;
Structure prediction by ZEFSAII (Michael W. Deem and Ramdas Pophale) SiO2 
 PCOD9183189
Probable space group: C 2/M
;
_chemical_formula_sum "Si O2"
_cell_formula_units_Z 56
_cell_length_a 30.675294
_cell_length_b 8.728845
_cell_length_c 17.297853
_cell_angle_alpha 90.000000
_cell_angle_beta 134.085808
_cell_angle_gamma 90.000000
_cell_volume 3326.923147
_symmetry_space_group_name_H-M "C 2/M"
_symmetry_group_IT_number 12
_symmetry_cell_setting 'monoclinic'
loop_
_space_group_symop_operation_xyz
x,y,z
-x,y,-z
-x,-y,-z
x,-y,z
1/2+x,1/2+y,z
1/2-x,1/2+y,-z
1/2-x,1/2-y,-z
1/2+x,1/2-y,z
loop_
_atom_site_type_symbol
_atom_site_label
_atom_site_fract_x
_atom_site_fract_y
_atom_site_fract_z
Si Si1 0.920710 0.683426 0.246327
Si Si2 0.694839 0.315603 0.982826
Si Si3 0.345077 0.181828 0.583279
Si Si4 0.785034 0.183944 0.655687
Si Si5 0.259883 0.313839 0.794705
Si Si6 0.618398 0.184899 0.627673
Si Si7 0.552545 0.681856 0.396668
O O1 0.917881 0.500000 0.236778
O O2 0.867848 0.755630 0.129343
O O3 0.907545 0.723211 0.319955
O O4 0.986791 0.743086 0.305539
O O5 0.696695 0.500000 0.982014
O O6 0.750000 0.250000 0.000000
O O7 0.706163 0.266330 0.085513
O O8 0.283684 0.215371 0.458521
O O9 0.330059 0.236216 0.651293
O O10 0.401064 0.265872 0.612703
O O11 0.354868 0.000000 0.592470
O O12 0.788665 0.235622 0.748973
O O13 0.793545 0.000000 0.661904
O O14 0.259706 0.500000 0.793341
O O15 0.189094 0.268254 0.711016
O O16 0.580954 0.260054 0.512567
O O17 0.615583 0.000000 0.614685
O O18 0.546981 0.500000 0.390834
#
# Coordination Sequence:
#
# PCOD9183189 Si02
#       7
#     8   8   8   8   8   8   8
#     4  11  23  39  57  77 108 151 190 226 274 327
#     4  11  21  36  57  82 110 146 189 231 270 316
#     4  10  19  33  54  79 110 144 178 218 271 330
#     4   9  17  32  54  79 108 141 179 221 267 322
#     4   9  17  33  56  80 110 146 181 218 270 325
#     4  10  19  36  56  78 109 150 185 216 270 332
#     4  12  24  36  53  81 113 145 184 228 273 325
#
# _framework density 16.832370000000001
#
# number of rings (size 3 to 8) (size 9 to 14) (size 15 to 20)
#    0.000    1.714    2.857    3.000    0.000    3.429 
#    0.000    1.429    0.000    0.857    0.000    6.000 
#    0.000    0.000    0.000    0.000    0.000    0.000 
#
# Total GULP energy -156370.274006 kJ/mol
# GULP energy per Si atom -5584.652643 kJ/mol
# Density = 1.679406 g / cm^3
# Si number density = 16.832370 Si / 1000 Ang^3
#
#
#
# Elastic Constant Matrix: (Units=GPa)
#
#
# Indices 1 2 3 4 5 6 
#
# 1 112.2067 39.1026 77.1849 0.0000 -16.6485 0.0000
# 2 39.1026 43.3104 38.2916 0.0000 -2.1339 0.0000
# 3 77.1849 38.2916 120.8965 0.0000 -1.5040 0.0000
# 4 0.0000 0.0000 0.0000 26.7727 0.0000 1.1903
# 5 -16.6485 -2.1339 -1.5040 0.0000 27.8376 0.0000
# 6 0.0000 0.0000 0.0000 1.1903 0.0000 26.6877
#
#
#
# Elastic Compliance Matrix: (Units=1/GPa)
#
#
# Indices 1 2 3 4 5 6 
#
# 1 0.020823 -0.009192 -0.010243 0.000000 0.011195 0.000000
# 2 -0.009192 0.036229 -0.005644 0.000000 -0.003025 0.000000
# 3 -0.010243 -0.005644 0.016528 0.000000 -0.005666 0.000000
# 4 0.000000 0.000000 0.000000 0.037426 0.000000 -0.001669
# 5 0.011195 -0.003025 -0.005666 0.000000 0.042080 0.000000
# 6 0.000000 0.000000 0.000000 -0.001669 0.000000 0.037545
#
#
# Mechanical properties :
#
#
# Convention : Reuss Voigt Hill
#
# Bulk Modulus (GPa) = 42.69561 65.06353 53.87957
# Shear Modulus (GPa) = 20.11297 24.38191 22.24744
#
# Velocity S-wave (km/s) = 3.46048 3.81006 3.63947
# Velocity P-wave (km/s) = 6.43326 7.62189 7.05266
#
# Compressibility (1/GPa) = 0.02342161
#
# Stress axis : x y z
#
# Youngs Moduli (GPa) = 48.02478 27.60235 60.50170
#
# Poissons Ratio (x) = 0.25371 0.61974
# Poissons Ratio (y) = 0.44143 0.34148
# Poissons Ratio (z) = 0.49194 0.15579
#
# Static dielectric constant tensor:
#      x y z
#    x 1.559680 0.000000 -0.015000 
#    y 0.000000 1.565820 0.000000 
#    z -0.015000 0.000000 1.545330 
# 
# From -- ./inp_files/287876.got.cif
#   From: 2010.05.17/outbox.cif.g08.bks.cpg/sg12_144_cif.got.tgz:287876.got - 2010.06.03 13:09:07.
