data_PCOD9183290
_publ_section_title
;
Structure prediction by ZEFSAII (Michael W. Deem and Ramdas Pophale) SiO2 
 PCOD9183290
Probable space group: C 2/M
;
_chemical_formula_sum "Si O2"
_cell_formula_units_Z 64
_cell_length_a 31.734879
_cell_length_b 10.171841
_cell_length_c 14.714808
_cell_angle_alpha 90.000000
_cell_angle_beta 134.763660
_cell_angle_gamma 90.000000
_cell_volume 3372.562980
_symmetry_space_group_name_H-M "C 2/M"
_symmetry_group_IT_number 12
_symmetry_cell_setting 'monoclinic'
loop_
_space_group_symop_operation_xyz
x,y,z
-x,y,-z
-x,-y,-z
x,-y,z
1/2+x,1/2+y,z
1/2-x,1/2+y,-z
1/2-x,1/2-y,-z
1/2+x,1/2-y,z
loop_
_atom_site_type_symbol
_atom_site_label
_atom_site_fract_x
_atom_site_fract_y
_atom_site_fract_z
Si Si1 0.966957 0.353212 0.710162
Si Si2 0.647233 0.344861 0.143460
Si Si3 0.567755 0.147403 0.135611
Si Si4 0.273266 0.858039 0.966509
Si Si5 0.937190 0.843344 0.365638
Si Si6 0.888659 0.844183 0.479457
Si Si7 0.255465 0.651827 0.286270
Si Si8 0.598305 0.765527 0.883910
O O1 0.955893 0.500000 0.656703
O O2 0.936499 0.342893 0.762314
O O3 0.937882 0.241991 0.603965
O O4 0.038102 0.335306 0.826466
O O5 0.652772 0.500000 0.171375
O O6 0.603794 0.264793 0.144469
O O7 0.708658 0.262756 0.243335
O O8 0.620977 0.326031 0.001165
O O9 0.590601 0.000000 0.145429
O O10 0.500000 0.153867 0.000000
O O11 0.343578 0.849417 0.053008
O O12 0.257871 0.000000 0.982230
O O13 0.250000 0.750000 0.000000
O O14 0.244821 0.846266 0.823899
O O15 0.891059 0.811717 0.375718
O O16 0.920067 0.797158 0.240025
O O17 0.000000 0.791970 0.500000
O O18 0.941957 0.000000 0.367314
O O19 0.822895 0.821100 0.418115
O O20 0.901928 0.000000 0.508288
O O21 0.239591 0.500000 0.288122
#
# Coordination Sequence:
#
# PCOD9183290 Si02
#       8
#     8   8   8   8   8   8   8   8
#     4  11  23  39  61  88 117 153 195 240 294 350
#     4  11  23  37  61  95 122 146 188 253 301 335
#     4  10  21  40  63  86 117 158 192 229 292 370
#     4  10  21  36  57  81 112 152 199 246 289 342
#     4  10  19  33  54  81 118 161 196 228 278 346
#     4  10  21  39  61  85 116 158 203 242 282 337
#     4   9  20  39  60  80 112 161 201 232 285 359
#     4  11  21  37  57  86 122 156 194 237 292 351
#
# _framework density 18.976666000000002
#
# number of rings (size 3 to 8) (size 9 to 14) (size 15 to 20)
#    0.000    1.750    2.500    1.875    0.000    6.250 
#    0.000    3.750    0.000    0.000    0.000    0.000 
#    0.000    0.000    0.000    0.000    0.000    0.000 
#
# Total GULP energy -178446.257572 kJ/mol
# GULP energy per Si atom -5576.445549 kJ/mol
# Density = 1.893347 g / cm^3
# Si number density = 18.976666 Si / 1000 Ang^3
#
#
#
# Elastic Constant Matrix: (Units=GPa)
#
#
# Indices 1 2 3 4 5 6 
#
# 1 86.7228 62.2565 19.7516 0.0000 12.7332 0.0000
# 2 62.2565 128.8993 18.0489 0.0000 12.4644 0.0000
# 3 19.7516 18.0489 51.9103 0.0000 16.6851 0.0000
# 4 0.0000 0.0000 0.0000 7.9882 0.0000 -0.4546
# 5 12.7332 12.4644 16.6851 0.0000 30.4981 0.0000
# 6 0.0000 0.0000 0.0000 -0.4546 0.0000 26.7623
#
#
#
# Elastic Compliance Matrix: (Units=1/GPa)
#
#
# Indices 1 2 3 4 5 6 
#
# 1 0.018612 -0.008269 -0.003392 0.000000 -0.002536 0.000000
# 2 -0.008269 0.011948 -0.000665 0.000000 -0.001067 0.000000
# 3 -0.003392 -0.000665 0.024562 0.000000 -0.011750 0.000000
# 4 0.000000 0.000000 0.000000 0.125306 0.000000 0.002129
# 5 -0.002536 -0.001067 -0.011750 0.000000 0.040712 0.000000
# 6 0.000000 0.000000 0.000000 0.002129 0.000000 0.037402
#
#
# Mechanical properties :
#
#
# Convention : Reuss Voigt Hill
#
# Bulk Modulus (GPa) = 32.81824 51.96071 42.38947
# Shear Modulus (GPa) = 17.04438 24.21475 20.62957
#
# Velocity S-wave (km/s) = 3.00021 3.57603 3.30070
# Velocity P-wave (km/s) = 5.41601 6.67019 6.07555
#
# Compressibility (1/GPa) = 0.03047086
#
# Stress axis : x y z
#
# Youngs Moduli (GPa) = 53.72855 83.69462 40.71268
#
# Poissons Ratio (x) = 0.69209 0.13808
# Poissons Ratio (y) = 0.44430 0.02707
# Poissons Ratio (z) = 0.18223 0.05566
#
# Static dielectric constant tensor:
#      x y z
#    x 1.685820 0.000000 0.023400 
#    y 0.000000 1.648310 0.000000 
#    z 0.023400 0.000000 1.663260 
# 
# From -- ./inp_files/249938.got.cif
#   From: 2010.05.17/outbox.cif.g08.bks.cpg/sg12_125_cif.got.tgz:249938.got - 2010.06.03 13:09:07.
