data_PCOD9183527
_publ_section_title
;
Structure prediction by ZEFSAII (Michael W. Deem and Ramdas Pophale) SiO2 
 PCOD9183527
Probable space group: C 2/M
;
_chemical_formula_sum "Si O2"
_cell_formula_units_Z 48
_cell_length_a 21.078828
_cell_length_b 8.460267
_cell_length_c 19.891457
_cell_angle_alpha 90.000000
_cell_angle_beta 49.053331
_cell_angle_gamma 90.000000
_cell_volume 2679.341431
_symmetry_space_group_name_H-M "C 2/M"
_symmetry_group_IT_number 12
_symmetry_cell_setting 'monoclinic'
loop_
_space_group_symop_operation_xyz
x,y,z
-x,y,-z
-x,-y,-z
x,-y,z
1/2+x,1/2+y,z
1/2-x,1/2+y,-z
1/2-x,1/2-y,-z
1/2+x,1/2-y,z
loop_
_atom_site_type_symbol
_atom_site_label
_atom_site_fract_x
_atom_site_fract_y
_atom_site_fract_z
Si Si1 0.096612 0.191148 0.432238
Si Si2 0.263076 0.189433 0.565980
Si Si3 0.530619 0.692642 0.052676
Si Si4 0.780152 0.189411 0.050726
Si Si5 0.637737 0.690890 0.768174
Si Si6 0.222944 0.189166 0.228280
O O1 0.152423 0.251536 0.455785
O O2 0.145646 0.239602 0.329981
O O3 0.000000 0.244442 0.500000
O O4 0.097128 0.000000 0.434330
O O5 0.250000 0.250000 0.500000
O O6 0.186100 0.243531 0.667597
O O7 0.264044 0.000000 0.564846
O O8 0.532788 0.500000 0.051232
O O9 0.458109 0.742515 0.155052
O O10 0.500000 0.741560 0.000000
O O11 0.624285 0.747156 0.003103
O O12 0.723961 0.247525 0.152070
O O13 0.780459 0.000000 0.050819
O O14 0.750000 0.250000 0.000000
O O15 0.638824 0.500000 0.768531
O O16 0.693858 0.748559 0.791665
O O17 0.224507 0.000000 0.225874
#
# Coordination Sequence:
#
# PCOD9183527 Si02
#       6
#     8   8   8   8   8   8
#     4   9  19  37  59  80 104 139 184 225 264 321
#     4  10  20  34  55  80 111 142 174 220 272 321
#     4   9  16  31  57  80  98 131 178 216 248 305
#     4  11  22  37  55  76 109 143 177 218 263 314
#     4   9  17  33  56  80 101 135 181 217 256 309
#     4  10  19  33  55  81 107 137 174 218 269 317
#
# _framework density 17.914850000000001
#
# number of rings (size 3 to 8) (size 9 to 14) (size 15 to 20)
#    0.000    2.333    1.667    1.500    0.000    1.667 
#    3.000    2.500    0.000    0.000    0.000    0.000 
#    0.000    0.000    0.000    0.000    0.000    0.000 
#
# Total GULP energy -133863.920536 kJ/mol
# GULP energy per Si atom -5577.663356 kJ/mol
# Density = 1.787407 g / cm^3
# Si number density = 17.914850 Si / 1000 Ang^3
#
#
#
# Elastic Constant Matrix: (Units=GPa)
#
#
# Indices 1 2 3 4 5 6 
#
# 1 129.2754 16.9473 95.6200 0.0000 3.2822 0.0000
# 2 16.9473 12.3011 22.0319 0.0003 0.1081 -0.0003
# 3 95.6200 22.0319 142.7116 0.0001 7.0458 -0.0001
# 4 0.0000 0.0003 0.0001 23.3202 0.0000 6.5495
# 5 3.2822 0.1081 7.0458 0.0000 38.5124 0.0000
# 6 0.0000 -0.0003 -0.0001 6.5495 0.0000 27.6711
#
#
#
# Elastic Compliance Matrix: (Units=1/GPa)
#
#
# Indices 1 2 3 4 5 6 
#
# 1 0.015472 -0.003746 -0.009812 0.000000 0.000487 0.000000
# 2 -0.003746 0.113587 -0.015163 -0.000002 0.002774 0.000002
# 3 -0.009812 -0.015163 0.016024 0.000000 -0.002053 0.000000
# 4 0.000000 -0.000002 0.000000 0.045935 0.000000 -0.010872
# 5 0.000487 0.002774 -0.002053 0.000000 0.026292 0.000000
# 6 0.000000 0.000002 0.000000 -0.010872 0.000000 0.038712
#
#
# Mechanical properties :
#
#
# Convention : Reuss Voigt Hill
#
# Bulk Modulus (GPa) = 11.41017 61.49851 36.45434
# Shear Modulus (GPa) = 14.59099 27.87999 21.23549
#
# Velocity S-wave (km/s) = 2.85698 3.94921 3.44664
# Velocity P-wave (km/s) = 4.15524 7.42952 6.01930
#
# Compressibility (1/GPa) = 0.08764112
#
# Stress axis : x y z
#
# Youngs Moduli (GPa) = 64.63352 8.80380 62.40706
#
# Poissons Ratio (x) = 0.03298 0.61236
# Poissons Ratio (y) = 0.24209 0.94628
# Poissons Ratio (z) = 0.63420 0.13349
#
# Static dielectric constant tensor:
#      x y z
#    x 1.579700 0.000000 -0.019420 
#    y 0.000000 1.615410 0.000000 
#    z -0.019420 0.000000 1.640680 
# 
# From -- ./inp_files/280762.got.cif
#   From: 2010.05.17/outbox.cif.g08.bks.cpg/sg12_141_cif.got.tgz:280762.got - 2010.06.03 13:09:07.
