data_PCOD9183167
_publ_section_title
;
Structure prediction by ZEFSAII (Michael W. Deem and Ramdas Pophale) SiO2 
 PCOD9183167
Probable space group: C 2/M
;
_chemical_formula_sum "Si O2"
_cell_formula_units_Z 48
_cell_length_a 19.010773
_cell_length_b 13.757784
_cell_length_c 17.496979
_cell_angle_alpha 90.000000
_cell_angle_beta 31.571494
_cell_angle_gamma 90.000000
_cell_volume 2395.959780
_symmetry_space_group_name_H-M "C 2/M"
_symmetry_group_IT_number 12
_symmetry_cell_setting 'monoclinic'
loop_
_space_group_symop_operation_xyz
x,y,z
-x,y,-z
-x,-y,-z
x,-y,z
1/2+x,1/2+y,z
1/2-x,1/2+y,-z
1/2-x,1/2-y,-z
1/2+x,1/2-y,z
loop_
_atom_site_type_symbol
_atom_site_label
_atom_site_fract_x
_atom_site_fract_y
_atom_site_fract_z
Si Si1 0.991953 0.729500 0.599051
Si Si2 0.842223 0.392251 0.129747
Si Si3 0.783764 0.178799 0.184769
Si Si4 0.744646 0.390085 0.624822
Si Si5 0.651610 0.387673 0.172473
Si Si6 0.551130 0.383023 0.107712
O O1 0.125501 0.677232 0.504877
O O2 0.000000 0.746517 0.500000
O O3 0.856659 0.664454 0.729779
O O4 0.952967 0.825207 0.681486
O O5 0.791036 0.500000 0.202492
O O6 0.788496 0.290215 0.212008
O O7 0.792871 0.383061 0.087162
O O8 0.000000 0.392650 0.000000
O O9 0.783835 0.110394 0.257474
O O10 0.901855 0.164038 0.014889
O O11 0.771772 0.500000 0.573756
O O12 0.600443 0.355865 0.727091
O O13 0.609592 0.500000 0.211454
O O14 0.648781 0.356011 0.087248
O O15 0.553403 0.500000 0.094565
#
# Coordination Sequence:
#
# PCOD9183167 Si02
#       6
#     8   8   8   8   8   8
#     4   9  20  34  51  76 101 135 176 213 261 308
#     4   9  17  30  49  72 100 133 167 207 253 300
#     4  10  19  33  54  79 106 137 174 213 256 308
#     4  10  20  34  52  77 108 139 174 214 256 307
#     4   9  19  35  53  76 105 135 173 218 261 307
#     4  10  20  33  53  79 106 138 173 214 261 306
#
# _framework density 20.033726000000001
#
# number of rings (size 3 to 8) (size 9 to 14) (size 15 to 20)
#    0.000    2.500    0.000    2.000    0.000    8.667 
#    0.000    2.500    0.000    4.000    0.000   21.000 
#    0.000    0.000    0.000    0.000    0.000    0.000 
#
# Total GULP energy -133608.575627 kJ/mol
# GULP energy per Si atom -5567.023984 kJ/mol
# Density = 1.998813 g / cm^3
# Si number density = 20.033726 Si / 1000 Ang^3
#
#
#
# Elastic Constant Matrix: (Units=GPa)
#
#
# Indices 1 2 3 4 5 6 
#
# 1 72.0564 20.8337 22.4643 0.0000 -18.1637 0.0000
# 2 20.8337 55.2917 17.3986 0.0000 -7.9994 0.0000
# 3 22.4643 17.3986 71.8565 0.0000 -23.2587 0.0000
# 4 0.0000 0.0000 0.0000 20.0298 0.0000 -9.0737
# 5 -18.1637 -7.9994 -23.2587 0.0000 27.9097 0.0000
# 6 0.0000 0.0000 0.0000 -9.0737 0.0000 16.4269
#
#
#
# Elastic Compliance Matrix: (Units=1/GPa)
#
#
# Indices 1 2 3 4 5 6 
#
# 1 0.018089 -0.005031 -0.001497 0.000000 0.009083 0.000000
# 2 -0.005031 0.021083 -0.003609 0.000000 -0.000239 0.000000
# 3 -0.001497 -0.003609 0.020004 0.000000 0.014662 0.000000
# 4 0.000000 0.000000 0.000000 0.066588 0.000000 0.036781
# 5 0.009083 -0.000239 0.014662 0.000000 0.053891 0.000000
# 6 0.000000 0.000000 0.000000 0.036781 0.000000 0.081192
#
#
# Mechanical properties :
#
#
# Convention : Reuss Voigt Hill
#
# Bulk Modulus (GPa) = 25.70590 35.62198 30.66394
# Shear Modulus (GPa) = 17.00170 22.10714 19.55442
#
# Velocity S-wave (km/s) = 2.91633 3.32549 3.12761
# Velocity P-wave (km/s) = 4.91926 5.70656 5.32747
#
# Compressibility (1/GPa) = 0.03890157
#
# Stress axis : x y z
#
# Youngs Moduli (GPa) = 55.28286 47.43251 49.98885
#
# Poissons Ratio (x) = 0.23862 0.07484
# Poissons Ratio (y) = 0.27811 0.18043
# Poissons Ratio (z) = 0.08276 0.17120
#
# Static dielectric constant tensor:
#      x y z
#    x 1.745840 0.000000 -0.055030 
#    y 0.000000 1.732550 0.000000 
#    z -0.055030 0.000000 1.710230 
# 
# From -- ./inp_files/111751.got.cif
#   From: 2010.05.17/outbox.cif.g08.bks.cpg/sg12_56_cif.got.tgz:111751.got - 2010.06.03 13:09:07.
