data_PCOD9183615
_publ_section_title
;
Structure prediction by ZEFSAII (Michael W. Deem and Ramdas Pophale) SiO2 
 PCOD9183615
Probable space group: C 2/M
;
_chemical_formula_sum "Si O2"
_cell_formula_units_Z 64
_cell_length_a 8.626877
_cell_length_b 25.835365
_cell_length_c 15.154320
_cell_angle_alpha 90.000000
_cell_angle_beta 64.301177
_cell_angle_gamma 90.000000
_cell_volume 3043.482925
_symmetry_space_group_name_H-M "C 2/M"
_symmetry_group_IT_number 12
_symmetry_cell_setting 'monoclinic'
loop_
_space_group_symop_operation_xyz
x,y,z
-x,y,-z
-x,-y,-z
x,-y,z
1/2+x,1/2+y,z
1/2-x,1/2+y,-z
1/2-x,1/2-y,-z
1/2+x,1/2-y,z
loop_
_atom_site_type_symbol
_atom_site_label
_atom_site_fract_x
_atom_site_fract_y
_atom_site_fract_z
Si Si1 0.277224 0.102471 0.125157
Si Si2 0.702616 0.059907 0.431886
Si Si3 0.973596 0.855392 0.410751
Si Si4 0.830187 0.770111 0.096917
Si Si5 0.646011 0.058376 0.245045
Si Si6 0.473401 0.689815 0.786373
Si Si7 0.644368 0.870129 0.082191
Si Si8 0.749108 0.444287 0.309420
O O1 0.100433 0.133313 0.173683
O O2 0.438463 0.136801 0.122503
O O3 0.273678 0.057137 0.197043
O O4 0.310402 0.095041 0.013957
O O5 0.500000 0.065263 0.500000
O O6 0.811882 0.105195 0.449498
O O7 0.727475 0.066547 0.320396
O O8 0.748782 0.000000 0.443318
O O9 0.000000 0.830382 0.500000
O O10 0.969769 0.815680 0.329635
O O11 0.133019 0.895164 0.358687
O O12 0.686466 0.728068 0.155294
O O13 0.743791 0.816112 0.060722
O O14 0.886868 0.793250 0.177156
O O15 0.000000 0.753094 0.000000
O O16 0.688519 0.099596 0.160152
O O17 0.437683 0.060283 0.305263
O O18 0.688130 0.000000 0.205229
O O19 0.674470 0.500000 0.353761
#
# Coordination Sequence:
#
# PCOD9183615 Si02
#       8
#     8   8   8   8   8   8   8   8
#     4   9  19  33  52  82 119 153 191 237 285 344
#     4  10  20  35  59  88 117 151 198 243 285 341
#     4  11  23  40  61  85 119 156 192 242 298 349
#     4  12  23  38  64  87 113 148 193 249 298 352
#     4   9  18  33  53  82 119 157 195 235 280 341
#     4  11  24  40  59  89 115 145 193 247 301 352
#     4  10  19  33  55  82 116 156 194 234 290 345
#     4   9  18  33  55  84 119 157 199 238 278 332
#
# _framework density 21.028538999999999
#
# number of rings (size 3 to 8) (size 9 to 14) (size 15 to 20)
#    0.000    1.875    1.250    3.000    1.750    2.500 
#    0.000    4.375    0.000    1.125    0.000    0.000 
#    0.000    0.000    0.000    0.000    0.000    0.000 
#
# Total GULP energy -178613.075430 kJ/mol
# GULP energy per Si atom -5581.658607 kJ/mol
# Density = 2.098068 g / cm^3
# Si number density = 21.028539 Si / 1000 Ang^3
#
#
#
# Elastic Constant Matrix: (Units=GPa)
#
#
# Indices 1 2 3 4 5 6 
#
# 1 65.8576 26.1187 28.1009 0.0000 12.6971 0.0000
# 2 26.1187 44.0684 22.7903 0.0000 7.0605 0.0000
# 3 28.1009 22.7903 111.7280 0.0000 23.6140 0.0000
# 4 0.0000 0.0000 0.0000 14.8474 0.0000 -4.7595
# 5 12.6971 7.0605 23.6140 0.0000 33.5968 0.0000
# 6 0.0000 0.0000 0.0000 -4.7595 0.0000 6.6023
#
#
#
# Elastic Compliance Matrix: (Units=1/GPa)
#
#
# Indices 1 2 3 4 5 6 
#
# 1 0.021211 -0.010732 -0.002264 0.000000 -0.004169 0.000000
# 2 -0.010732 0.030912 -0.003630 0.000000 0.000111 0.000000
# 3 -0.002264 -0.003630 0.011649 0.000000 -0.006569 0.000000
# 4 0.000000 0.000000 0.000000 0.087594 0.000000 0.063144
# 5 -0.004169 0.000111 -0.006569 0.000000 0.035934 0.000000
# 6 0.000000 0.000000 0.000000 0.063144 0.000000 0.196982
#
#
# Mechanical properties :
#
#
# Convention : Reuss Voigt Hill
#
# Bulk Modulus (GPa) = 32.76669 41.74153 37.25411
# Shear Modulus (GPa) = 11.69028 20.65224 16.17126
#
# Velocity S-wave (km/s) = 2.36036 3.13726 2.77612
# Velocity P-wave (km/s) = 4.80044 5.74597 5.29436
#
# Compressibility (1/GPa) = 0.03051879
#
# Stress axis : x y z
#
# Youngs Moduli (GPa) = 47.14628 32.34973 85.84779
#
# Poissons Ratio (x) = 0.34718 0.19439
# Poissons Ratio (y) = 0.50598 0.31159
# Poissons Ratio (z) = 0.10676 0.11742
#
# Static dielectric constant tensor:
#      x y z
#    x 1.764540 0.000000 -0.003470 
#    y 0.000000 1.745230 0.000000 
#    z -0.003470 0.000000 1.811010 
# 
# From -- ./inp_files/199775.got.cif
#   From: 2010.05.17/outbox.cif.g08.bks.cpg/sg12_100_cif.got.tgz:199775.got - 2010.06.03 13:09:07.
