data_PCOD9183429
_publ_section_title
;
Structure prediction by ZEFSAII (Michael W. Deem and Ramdas Pophale) SiO2 
 PCOD9183429
Probable space group: C 2/M
;
_chemical_formula_sum "Si O2"
_cell_formula_units_Z 56
_cell_length_a 21.679578
_cell_length_b 7.450993
_cell_length_c 23.317005
_cell_angle_alpha 90.000000
_cell_angle_beta 137.568039
_cell_angle_gamma 90.000000
_cell_volume 2541.309753
_symmetry_space_group_name_H-M "C 2/M"
_symmetry_group_IT_number 12
_symmetry_cell_setting 'monoclinic'
loop_
_space_group_symop_operation_xyz
x,y,z
-x,y,-z
-x,-y,-z
x,-y,z
1/2+x,1/2+y,z
1/2-x,1/2+y,-z
1/2-x,1/2-y,-z
1/2+x,1/2-y,z
loop_
_atom_site_type_symbol
_atom_site_label
_atom_site_fract_x
_atom_site_fract_y
_atom_site_fract_z
Si Si1 0.777362 0.782897 0.430598
Si Si2 0.107714 0.208470 0.382771
Si Si3 0.793966 0.214809 0.222776
Si Si4 0.099658 0.214698 0.048724
Si Si5 0.649803 0.285595 0.956908
Si Si6 0.399629 0.280938 0.408402
Si Si7 0.418483 0.720294 0.207299
O O1 0.839864 0.715283 0.526344
O O2 0.675812 0.720687 0.375682
O O3 0.824535 0.729106 0.404242
O O4 0.775403 0.000000 0.430720
O O5 0.010095 0.284582 0.300710
O O6 0.092193 0.000000 0.386258
O O7 0.685960 0.253829 0.150049
O O8 0.859507 0.279371 0.319479
O O9 0.834011 0.278005 0.189106
O O10 0.802177 0.000000 0.229245
O O11 0.128016 0.286369 0.005079
O O12 0.091310 0.000000 0.038508
O O13 0.000000 0.282547 0.000000
O O14 0.640258 0.500000 0.954229
O O15 0.750000 0.250000 0.000000
O O16 0.585855 0.220009 0.861257
O O17 0.500000 0.222806 0.500000
O O18 0.404186 0.500000 0.409540
O O19 0.418396 0.500000 0.206236
#
# Coordination Sequence:
#
# PCOD9183429 Si02
#       7
#     8   8   8   8   8   8   8
#     4   9  17  30  47  70 101 130 163 206 249 296
#     4   9  17  30  49  71  97 132 166 201 249 304
#     4  10  19  33  55  79 102 133 177 224 260 304
#     4  10  22  38  54  76 110 147 176 212 272 331
#     4  10  19  34  55  76 101 132 169 214 259 305
#     4   9  17  30  51  77 104 134 168 210 261 310
#     4   9  17  30  51  76  97 124 170 214 249 298
#
# _framework density 22.035879999999999
#
# number of rings (size 3 to 8) (size 9 to 14) (size 15 to 20)
#    0.000    2.571    1.429    0.857    0.000    4.857 
#    0.000    3.571    0.000    3.429    0.000    0.000 
#    0.000    0.000    0.000    0.000    0.000    0.000 
#
# Total GULP energy -156220.756280 kJ/mol
# GULP energy per Si atom -5579.312724 kJ/mol
# Density = 2.198573 g / cm^3
# Si number density = 22.035880 Si / 1000 Ang^3
#
#
#
# Elastic Constant Matrix: (Units=GPa)
#
#
# Indices 1 2 3 4 5 6 
#
# 1 105.0811 -5.8954 63.8184 0.0000 -0.8568 0.0000
# 2 -5.8954 66.3599 0.5558 0.0000 -4.1087 0.0003
# 3 63.8184 0.5558 128.0777 0.0000 9.3969 0.0000
# 4 0.0000 0.0000 0.0000 10.3813 0.0000 3.3967
# 5 -0.8568 -4.1087 9.3969 0.0000 38.7247 0.0000
# 6 0.0000 0.0003 0.0000 3.3967 0.0000 17.8551
#
#
#
# Elastic Compliance Matrix: (Units=1/GPa)
#
#
# Indices 1 2 3 4 5 6 
#
# 1 0.013932 0.001433 -0.007108 0.000000 0.002185 0.000000
# 2 0.001433 0.015321 -0.000918 0.000000 0.001880 0.000000
# 3 -0.007108 -0.000918 0.011579 0.000000 -0.003064 0.000000
# 4 0.000000 0.000000 0.000000 0.102721 0.000000 -0.019541
# 5 0.002185 0.001880 -0.003064 0.000000 0.026815 0.000000
# 6 0.000000 0.000000 0.000000 -0.019541 0.000000 0.059724
#
#
# Mechanical properties :
#
#
# Convention : Reuss Voigt Hill
#
# Bulk Modulus (GPa) = 36.17584 46.27517 41.22551
# Shear Modulus (GPa) = 19.80253 29.46154 24.63204
#
# Velocity S-wave (km/s) = 3.00100 3.66044 3.34700
# Velocity P-wave (km/s) = 5.33483 6.23784 5.80392
#
# Compressibility (1/GPa) = 0.02764276
#
# Stress axis : x y z
#
# Youngs Moduli (GPa) = 71.77825 65.27114 86.36647
#
# Poissons Ratio (x) = -0.09350 0.61393
# Poissons Ratio (y) = -0.10282 0.07930
# Poissons Ratio (z) = 0.51023 0.05993
#
# Static dielectric constant tensor:
#      x y z
#    x 1.792660 0.000000 -0.009640 
#    y 0.000000 1.844050 0.000000 
#    z -0.009640 0.000000 1.817200 
# 
# From -- ./inp_files/321034.got.cif
#   From: 2010.05.17/outbox.cif.g08.bks.cpg/sg12_161_cif.got.tgz:321034.got - 2010.06.03 13:09:07.
