data_PCOD9183399
_publ_section_title
;
Structure prediction by ZEFSAII (Michael W. Deem and Ramdas Pophale) SiO2 
 PCOD9183399
Probable space group: C 2/M
;
_chemical_formula_sum "Si O2"
_cell_formula_units_Z 64
_cell_length_a 25.038903
_cell_length_b 11.616695
_cell_length_c 26.134962
_cell_angle_alpha 90.000000
_cell_angle_beta 151.064858
_cell_angle_gamma 90.000000
_cell_volume 3677.925299
_symmetry_space_group_name_H-M "C 2/M"
_symmetry_group_IT_number 12
_symmetry_cell_setting 'monoclinic'
loop_
_space_group_symop_operation_xyz
x,y,z
-x,y,-z
-x,-y,-z
x,-y,z
1/2+x,1/2+y,z
1/2-x,1/2+y,-z
1/2-x,1/2-y,-z
1/2+x,1/2-y,z
loop_
_atom_site_type_symbol
_atom_site_label
_atom_site_fract_x
_atom_site_fract_y
_atom_site_fract_z
Si Si1 0.127605 0.634625 0.509086
Si Si2 0.265413 0.125909 0.950355
Si Si3 0.479191 0.868180 0.292632
Si Si4 0.624020 0.365699 0.244237
Si Si5 0.569317 0.721968 0.845980
Si Si6 0.122224 0.862070 0.125746
Si Si7 0.195075 0.227393 0.786228
Si Si8 0.495162 0.630759 0.557027
O O1 0.094775 0.500000 0.497946
O O2 0.091767 0.639717 0.419652
O O3 0.255901 0.645359 0.629669
O O4 0.071360 0.750638 0.485201
O O5 0.146974 0.133821 0.879671
O O6 0.248913 0.154613 0.877111
O O7 0.312773 0.000000 0.996895
O O8 0.346007 0.214954 0.045083
O O9 0.477952 0.802367 0.238430
O O10 0.385167 0.815957 0.250837
O O11 0.452953 0.000000 0.260887
O O12 0.599941 0.500000 0.217537
O O13 0.530193 0.320134 0.202815
O O14 0.624485 0.319464 0.186530
O O15 0.213755 0.794911 0.169843
O O16 0.146526 0.000000 0.144701
O O17 0.000000 0.846024 0.000000
O O18 0.114646 0.152292 0.682995
O O19 0.500000 0.628448 0.500000
O O20 0.456310 0.500000 0.540663
#
# Coordination Sequence:
#
# PCOD9183399 Si02
#       8
#     8   8   8   8   8   8   8   8
#     4   9  19  35  55  79 106 138 177 220 265 316
#     4  10  20  34  52  75 101 132 175 219 259 309
#     4   9  18  33  53  78 105 133 173 222 265 308
#     4  10  20  35  54  77 107 138 172 215 263 318
#     4  10  20  33  53  76 102 137 171 213 266 314
#     4  10  20  33  52  79 108 138 175 221 269 316
#     4  10  19  33  55  77 103 139 176 216 265 315
#     4  10  20  34  53  78 109 142 178 221 267 316
#
# _framework density 17.401114
#
# number of rings (size 3 to 8) (size 9 to 14) (size 15 to 20)
#    0.000    2.250    0.000    3.000    0.000    1.250 
#    0.000    5.625    0.000    9.750    0.000    0.000 
#    0.000    0.000    0.000    0.000    0.000    0.000 
#
# Total GULP energy -178141.344040 kJ/mol
# GULP energy per Si atom -5566.917001 kJ/mol
# Density = 1.736151 g / cm^3
# Si number density = 17.401114 Si / 1000 Ang^3
#
#
#
# Elastic Constant Matrix: (Units=GPa)
#
#
# Indices 1 2 3 4 5 6 
#
# 1 96.0992 24.7737 32.1529 0.0000 -4.4435 0.0000
# 2 24.7737 81.3386 20.1886 0.0001 5.0388 0.0000
# 3 32.1529 20.1886 67.8542 0.0000 -12.2917 0.0000
# 4 0.0000 0.0001 0.0000 18.1600 0.0000 2.1342
# 5 -4.4435 5.0388 -12.2917 0.0000 23.8711 0.0000
# 6 0.0000 0.0000 0.0000 2.1342 0.0000 -5.6540
#
#
#
# Elastic Compliance Matrix: (Units=1/GPa)
#
#
# Indices 1 2 3 4 5 6 
#
# 1 0.012856 -0.002622 -0.005269 0.000000 0.000233 0.000000
# 2 -0.002622 0.014455 -0.004080 0.000000 -0.005640 0.000000
# 3 -0.005269 -0.004080 0.020322 0.000000 0.010345 0.000000
# 4 0.000000 0.000000 0.000000 0.052727 0.000000 0.019903
# 5 0.000233 -0.005640 0.010345 0.000000 0.048452 0.000000
# 6 0.000000 0.000000 0.000000 0.019903 0.000000 -0.169354
#
#
# Mechanical properties :
#
#
# Convention : Reuss Voigt Hill
#
# Bulk Modulus (GPa) = 42.21180 44.39137 43.30158
# Shear Modulus (GPa) = 442.57044 18.48721 230.52882
#
# Velocity S-wave (km/s) = 15.96517 3.26301 11.52245
# Velocity P-wave (km/s) = 19.08297 6.30574 14.21130
#
# Compressibility (1/GPa) = 0.02369006
#
# Stress axis : x y z
#
# Youngs Moduli (GPa) = 77.78676 69.18026 49.20725
#
# Poissons Ratio (x) = 0.18140 0.25929
# Poissons Ratio (y) = 0.20396 0.20077
# Poissons Ratio (z) = 0.40988 0.28226
#
# Static dielectric constant tensor:
#      x y z
#    x 1.566620 0.000000 -0.010280 
#    y 0.000000 1.619690 0.000000 
#    z -0.010280 0.000000 1.589500 
# 
# From -- ./inp_files/349397.got.cif
#   From: 2010.05.17/outbox.cif.g08.bks.cpg/sg12_175_cif.got.tgz:349397.got - 2010.06.03 13:09:07.
