data_PCOD9183651
_publ_section_title
;
Structure prediction by ZEFSAII (Michael W. Deem and Ramdas Pophale) SiO2 
 PCOD9183651
Probable space group: C 2/M
;
_chemical_formula_sum "Si O2"
_cell_formula_units_Z 64
_cell_length_a 15.120675
_cell_length_b 7.646685
_cell_length_c 27.944542
_cell_angle_alpha 90.000000
_cell_angle_beta 129.434184
_cell_angle_gamma 90.000000
_cell_volume 2495.503549
_symmetry_space_group_name_H-M "C 2/M"
_symmetry_group_IT_number 12
_symmetry_cell_setting 'monoclinic'
loop_
_space_group_symop_operation_xyz
x,y,z
-x,y,-z
-x,-y,-z
x,-y,z
1/2+x,1/2+y,z
1/2-x,1/2+y,-z
1/2-x,1/2-y,-z
1/2+x,1/2-y,z
loop_
_atom_site_type_symbol
_atom_site_label
_atom_site_fract_x
_atom_site_fract_y
_atom_site_fract_z
Si Si1 0.319328 0.702417 0.975777
Si Si2 0.226843 0.789226 0.390490
Si Si3 0.242967 0.290154 0.702638
Si Si4 0.069410 0.792597 0.478547
Si Si5 0.732582 0.299642 0.844222
Si Si6 0.999686 0.794232 0.799047
Si Si7 0.029953 0.289353 0.106607
Si Si8 0.494732 0.290914 0.349091
O O1 0.298986 0.500000 0.957968
O O2 0.450974 0.732901 0.035574
O O3 0.250000 0.750000 0.000000
O O4 0.279804 0.803507 0.915124
O O5 0.285145 0.728790 0.361242
O O6 0.299013 0.731832 0.461028
O O7 0.094551 0.730351 0.347717
O O8 0.228578 0.000000 0.390524
O O9 0.249375 0.500000 0.705366
O O10 0.371281 0.219979 0.753534
O O11 0.139533 0.245172 0.702236
O O12 0.000000 0.717044 0.500000
O O13 0.033033 0.721052 0.414633
O O14 0.047190 0.000000 0.468888
O O15 0.719321 0.500000 0.822989
O O16 0.605535 0.219925 0.805019
O O17 0.839668 0.220219 0.852484
O O18 0.027704 0.778023 0.864729
O O19 0.992385 0.000000 0.783587
O O20 0.032591 0.500000 0.108581
O O21 0.504266 0.500000 0.352432
#
# Coordination Sequence:
#
# PCOD9183651 Si02
#       8
#     8   8   8   8   8   8   8   8
#     4  12  23  37  61  91 124 158 193 238 292 347
#     4  10  21  36  57  84 113 147 191 235 281 344
#     4  10  22  39  58  82 111 148 195 241 286 335
#     4  10  19  33  55  83 116 149 182 228 289 346
#     4  10  22  40  62  88 120 156 193 237 291 348
#     4  10  22  41  61  81 113 155 194 239 293 341
#     4  11  23  39  62  92 120 153 197 239 288 350
#     4  10  21  37  57  83 114 149 187 232 289 348
#
# _framework density 25.646127
#
# number of rings (size 3 to 8) (size 9 to 14) (size 15 to 20)
#    0.000    1.625    2.500    2.250    0.000    5.250 
#    0.000    2.500    0.000    0.000    0.000    0.000 
#    0.000    0.000    0.000    0.000    0.000    0.000 
#
# Total GULP energy -178975.730919 kJ/mol
# GULP energy per Si atom -5592.991591 kJ/mol
# Density = 2.558776 g / cm^3
# Si number density = 25.646127 Si / 1000 Ang^3
#
#
#
# Elastic Constant Matrix: (Units=GPa)
#
#
# Indices 1 2 3 4 5 6 
#
# 1 170.5095 -0.4806 17.0187 0.0000 30.2180 0.0000
# 2 -0.4806 71.8295 -12.2344 0.0000 0.2439 0.0000
# 3 17.0187 -12.2344 79.1273 0.0000 23.1856 0.0000
# 4 0.0000 0.0000 0.0000 18.4580 0.0000 6.2843
# 5 30.2180 0.2439 23.1856 0.0000 50.1349 0.0000
# 6 0.0000 0.0000 0.0000 6.2843 0.0000 18.6085
#
#
#
# Elastic Compliance Matrix: (Units=1/GPa)
#
#
# Indices 1 2 3 4 5 6 
#
# 1 0.006572 0.000007 -0.000291 0.000000 -0.003827 0.000000
# 2 0.000007 0.014368 0.002593 0.000000 -0.001274 0.000000
# 3 -0.000291 0.002593 0.015100 0.000000 -0.006820 0.000000
# 4 0.000000 0.000000 0.000000 0.061216 0.000000 -0.020673
# 5 -0.003827 -0.001274 -0.006820 0.000000 0.025413 0.000000
# 6 0.000000 0.000000 0.000000 -0.020673 0.000000 0.060721
#
#
# Mechanical properties :
#
#
# Convention : Reuss Voigt Hill
#
# Bulk Modulus (GPa) = 24.59509 36.67487 30.63498
# Shear Modulus (GPa) = 25.99793 38.58444 32.29119
#
# Velocity S-wave (km/s) = 3.18735 3.88299 3.55224
# Velocity P-wave (km/s) = 4.81213 5.86812 5.36616
#
# Compressibility (1/GPa) = 0.04065852
#
# Stress axis : x y z
#
# Youngs Moduli (GPa) = 152.16056 69.59960 66.22568
#
# Poissons Ratio (x) = -0.00051 0.01928
# Poissons Ratio (y) = -0.00112 -0.17173
# Poissons Ratio (z) = 0.04430 -0.18048
#
# Static dielectric constant tensor:
#      x y z
#    x 2.039250 0.000000 0.026540 
#    y 0.000000 1.942840 0.000000 
#    z 0.026540 0.000000 2.097600 
# 
# From -- ./inp_files/375641.got.cif
#   From: 2010.05.17/outbox.cif.g08.bks.cpg/sg12_188_cif.got.tgz:375641.got - 2010.06.03 13:09:07.
