data_PCOD9183493
_publ_section_title
;
Structure prediction by ZEFSAII (Michael W. Deem and Ramdas Pophale) SiO2 
 PCOD9183493
Probable space group: C 2/M
;
_chemical_formula_sum "Si O2"
_cell_formula_units_Z 48
_cell_length_a 18.703632
_cell_length_b 8.958799
_cell_length_c 24.876316
_cell_angle_alpha 90.000000
_cell_angle_beta 43.040060
_cell_angle_gamma 90.000000
_cell_volume 2844.923111
_symmetry_space_group_name_H-M "C 2/M"
_symmetry_group_IT_number 12
_symmetry_cell_setting 'monoclinic'
loop_
_space_group_symop_operation_xyz
x,y,z
-x,y,-z
-x,-y,-z
x,-y,z
1/2+x,1/2+y,z
1/2-x,1/2+y,-z
1/2-x,1/2-y,-z
1/2+x,1/2-y,z
loop_
_atom_site_type_symbol
_atom_site_label
_atom_site_fract_x
_atom_site_fract_y
_atom_site_fract_z
Si Si1 0.811161 0.823031 0.515962
Si Si2 0.558447 0.176879 0.782504
Si Si3 0.348194 0.674765 0.917955
Si Si4 0.560613 0.325325 0.241376
Si Si5 0.560175 0.676141 0.364040
Si Si6 0.272297 0.177349 0.652592
O O1 0.750000 0.750000 0.500000
O O2 0.781361 0.745799 0.588177
O O3 0.936012 0.804252 0.439400
O O4 0.789130 0.000000 0.530612
O O5 0.458846 0.244003 0.869413
O O6 0.529124 0.226197 0.737232
O O7 0.667600 0.253474 0.736351
O O8 0.563641 0.000000 0.784377
O O9 0.353954 0.500000 0.928099
O O10 0.346130 0.686948 0.853641
O O11 0.250000 0.750000 0.000000
O O12 0.526620 0.500000 0.260029
O O13 0.586124 0.284682 0.287932
O O14 0.583763 0.500000 0.359622
O O15 0.627508 0.771334 0.368310
O O16 0.264350 0.000000 0.654330
#
# Coordination Sequence:
#
# PCOD9183493 Si02
#       6
#     8   8   8   8   8   8
#     4  11  23  38  59  82 108 142 184 230 273 320
#     4  10  19  33  55  80 107 140 182 225 270 320
#     4   9  17  31  54  84 113 141 176 221 271 322
#     4   8  17  33  54  79 109 139 175 223 272 321
#     4  10  21  38  56  77 107 144 183 225 274 322
#     4  12  24  37  53  77 111 147 184 226 272 323
#
# _framework density 16.872160000000001
#
# number of rings (size 3 to 8) (size 9 to 14) (size 15 to 20)
#    1.000    1.000    0.000    5.000    0.000    5.333 
#    0.000    0.000    0.000    1.000    0.000    7.000 
#    0.000    0.000    0.000    0.000    0.000    0.000 
#
# Total GULP energy -133748.813411 kJ/mol
# GULP energy per Si atom -5572.867225 kJ/mol
# Density = 1.683376 g / cm^3
# Si number density = 16.872160 Si / 1000 Ang^3
#
#
#
# Elastic Constant Matrix: (Units=GPa)
#
#
# Indices 1 2 3 4 5 6 
#
# 1 82.2568 64.1876 32.7914 0.0000 -14.1816 0.0000
# 2 64.1876 140.5071 57.1820 0.0000 -15.5245 0.0000
# 3 32.7914 57.1820 85.0879 0.0000 -14.3954 0.0000
# 4 0.0000 0.0000 0.0000 27.1541 0.0000 -3.9419
# 5 -14.1816 -15.5245 -14.3954 0.0000 13.2261 0.0000
# 6 0.0000 0.0000 0.0000 -3.9419 0.0000 30.6476
#
#
#
# Elastic Compliance Matrix: (Units=1/GPa)
#
#
# Indices 1 2 3 4 5 6 
#
# 1 0.020612 -0.007808 -0.000622 0.000000 0.012258 0.000000
# 2 -0.007808 0.013069 -0.005632 0.000000 0.000838 0.000000
# 3 -0.000622 -0.005632 0.017829 0.000000 0.012128 0.000000
# 4 0.000000 0.000000 0.000000 0.037527 0.000000 0.004827
# 5 0.012258 0.000838 0.012128 0.000000 0.102935 0.000000
# 6 0.000000 0.000000 0.000000 0.004827 0.000000 0.033250
#
#
# Mechanical properties :
#
#
# Convention : Reuss Voigt Hill
#
# Bulk Modulus (GPa) = 42.76253 68.46376 55.61315
# Shear Modulus (GPa) = 19.14680 24.45161 21.79921
#
# Velocity S-wave (km/s) = 3.37236 3.81100 3.59837
# Velocity P-wave (km/s) = 6.36897 7.74797 7.09207
#
# Compressibility (1/GPa) = 0.02338496
#
# Stress axis : x y z
#
# Youngs Moduli (GPa) = 48.51649 76.51917 56.08934
#
# Poissons Ratio (x) = 0.59749 0.03488
# Poissons Ratio (y) = 0.37884 0.31587
# Poissons Ratio (z) = 0.03017 0.43093
#
# Static dielectric constant tensor:
#      x y z
#    x 1.552770 0.000000 -0.003970 
#    y 0.000000 1.562550 0.000000 
#    z -0.003970 0.000000 1.583110 
# 
# From -- ./inp_files/341896.got.cif
#   From: 2010.05.17/outbox.cif.g08.bks.cpg/sg12_171_cif.got.tgz:341896.got - 2010.06.03 13:09:07.
