data_PCOD9183022
_publ_section_title
;
Structure prediction by ZEFSAII (Michael W. Deem and Ramdas Pophale) SiO2 
 PCOD9183022
Probable space group: C 2/M
;
_chemical_formula_sum "Si O2"
_cell_formula_units_Z 48
_cell_length_a 18.636949
_cell_length_b 18.684655
_cell_length_c 12.697066
_cell_angle_alpha 90.000000
_cell_angle_beta 145.487530
_cell_angle_gamma 90.000000
_cell_volume 2505.121538
_symmetry_space_group_name_H-M "C 2/M"
_symmetry_group_IT_number 12
_symmetry_cell_setting 'monoclinic'
loop_
_space_group_symop_operation_xyz
x,y,z
-x,y,-z
-x,-y,-z
x,-y,z
1/2+x,1/2+y,z
1/2-x,1/2+y,-z
1/2-x,1/2-y,-z
1/2+x,1/2-y,z
loop_
_atom_site_type_symbol
_atom_site_label
_atom_site_fract_x
_atom_site_fract_y
_atom_site_fract_z
Si Si1 0.604227 0.582130 0.313162
Si Si2 0.440498 0.273918 0.632090
Si Si3 0.197649 0.081336 0.050636
Si Si4 0.917520 0.284439 0.986166
Si Si5 0.802717 0.814495 0.135926
Si Si6 0.757264 0.838010 0.697945
O O1 0.628274 0.500000 0.378068
O O2 0.624453 0.650343 0.415040
O O3 0.689694 0.601690 0.316049
O O4 0.453173 0.585168 0.104650
O O5 0.549690 0.294612 0.680558
O O6 0.350122 0.211851 0.481275
O O7 0.505083 0.242631 0.817668
O O8 0.274942 0.126623 0.229289
O O9 0.237497 0.000000 0.101116
O O10 0.209043 0.115305 0.949593
O O11 0.787600 0.318815 0.872932
O O12 0.869184 0.216552 0.861595
O O13 0.000000 0.327195 0.000000
O O14 0.750000 0.750000 0.000000
#
# Coordination Sequence:
#
# PCOD9183022 Si02
#       6
#     8   8   8   8   8   8
#     4  10  19  33  53  86 128 152 186 244 295 335
#     4  10  21  34  55  88 118 155 194 233 291 344
#     4  10  19  34  59  89 120 150 188 249 306 335
#     4  11  20  36  56  85 115 143 199 241 287 337
#     4   9  18  37  55  83 115 151 193 229 291 350
#     4  12  19  32  57  90 122 147 187 240 290 349
#
# _framework density 19.160744999999999
#
# number of rings (size 3 to 8) (size 9 to 14) (size 15 to 20)
#    0.000    1.667    6.667    1.500    0.000    2.000 
#    0.000    0.000    0.000   13.500    0.000    4.667 
#    0.000    0.000    0.000    0.000    0.000    0.000 
#
# Total GULP energy -133742.544415 kJ/mol
# GULP energy per Si atom -5572.606017 kJ/mol
# Density = 1.911713 g / cm^3
# Si number density = 19.160745 Si / 1000 Ang^3
#
#
#
# Elastic Constant Matrix: (Units=GPa)
#
#
# Indices 1 2 3 4 5 6 
#
# 1 136.9980 25.8917 27.2054 0.0000 17.5449 0.0000
# 2 25.8917 80.6954 30.0080 0.0000 1.6045 0.0000
# 3 27.2054 30.0080 61.0050 0.0000 -5.2386 0.0000
# 4 0.0000 0.0000 0.0000 18.7131 0.0000 -1.3578
# 5 17.5449 1.6045 -5.2386 0.0000 11.4963 0.0000
# 6 0.0000 0.0000 0.0000 -1.3578 0.0000 17.3607
#
#
#
# Elastic Compliance Matrix: (Units=1/GPa)
#
#
# Indices 1 2 3 4 5 6 
#
# 1 0.011274 -0.000873 -0.006312 0.000000 -0.019960 0.000000
# 2 -0.000873 0.015607 -0.007660 0.000000 -0.004336 0.000000
# 3 -0.006312 -0.007660 0.024867 0.000000 0.022034 0.000000
# 4 0.000000 0.000000 0.000000 0.053743 0.000000 0.004203
# 5 -0.019960 -0.004336 0.022034 0.000000 0.128092 0.000000
# 6 0.000000 0.000000 0.000000 0.004203 0.000000 0.057930
#
#
# Mechanical properties :
#
#
# Convention : Reuss Voigt Hill
#
# Bulk Modulus (GPa) = 45.33614 49.43428 47.38521
# Shear Modulus (GPa) = 15.21802 22.55358 18.88580
#
# Velocity S-wave (km/s) = 2.82126 3.43457 3.14291
# Velocity P-wave (km/s) = 5.85876 6.44858 6.16073
#
# Compressibility (1/GPa) = 0.02205746
#
# Stress axis : x y z
#
# Youngs Moduli (GPa) = 88.69835 64.07301 40.21374
#
# Poissons Ratio (x) = 0.05595 0.25384
# Poissons Ratio (y) = 0.07745 0.30804
# Poissons Ratio (z) = 0.55989 0.49080
#
# Static dielectric constant tensor:
#      x y z
#    x 1.771900 0.000000 0.023920 
#    y 0.000000 1.675570 0.000000 
#    z 0.023920 0.000000 1.704390 
# 
# From -- ./inp_files/234352.got.cif
#   From: 2010.05.17/outbox.cif.g08.bks.cpg/sg12_118_cif.got.tgz:234352.got - 2010.06.03 13:09:07.
