data_PCOD9183091
_publ_section_title
;
Structure prediction by ZEFSAII (Michael W. Deem and Ramdas Pophale) SiO2 
 PCOD9183091
Probable space group: C 2/M
;
_chemical_formula_sum "Si O2"
_cell_formula_units_Z 48
_cell_length_a 26.885822
_cell_length_b 7.606811
_cell_length_c 11.896096
_cell_angle_alpha 90.000000
_cell_angle_beta 89.254648
_cell_angle_gamma 90.000000
_cell_volume 2432.728574
_symmetry_space_group_name_H-M "C 2/M"
_symmetry_group_IT_number 12
_symmetry_cell_setting 'monoclinic'
loop_
_space_group_symop_operation_xyz
x,y,z
-x,y,-z
-x,-y,-z
x,-y,z
1/2+x,1/2+y,z
1/2-x,1/2+y,-z
1/2-x,1/2-y,-z
1/2+x,1/2-y,z
loop_
_atom_site_type_symbol
_atom_site_label
_atom_site_fract_x
_atom_site_fract_y
_atom_site_fract_z
Si Si1 0.307998 0.289649 0.996366
Si Si2 0.058171 0.715381 0.871189
Si Si3 0.346109 0.196784 0.236537
Si Si4 0.555614 0.214967 0.130610
Si Si5 0.849916 0.701774 0.755791
Si Si6 0.245475 0.294129 0.369709
O O1 0.316394 0.500000 0.997283
O O2 0.329586 0.203637 0.107271
O O3 0.250000 0.250000 0.000000
O O4 0.328855 0.206102 0.882890
O O5 0.060356 0.500000 0.871251
O O6 0.099137 0.781097 0.780410
O O7 0.001475 0.765175 0.846301
O O8 0.068006 0.770071 0.001176
O O9 0.297923 0.259283 0.306283
O O10 0.354199 0.000000 0.278158
O O11 0.595198 0.279331 0.222145
O O12 0.557650 0.000000 0.130150
O O13 0.857584 0.500000 0.717554
O O14 0.805144 0.785160 0.683672
O O15 0.238295 0.500000 0.357197
O O16 0.250000 0.250000 0.500000
#
# Coordination Sequence:
#
# PCOD9183091 Si02
#       6
#     8   8   8   8   8   8
#     4  12  22  31  47  75 109 142 173 207 257 314
#     4   8  14  24  46  78 110 140 168 201 248 302
#     4  11  20  33  54  79 108 140 173 213 259 312
#     4   8  13  25  46  77 110 138 169 205 246 300
#     4  10  19  33  54  77 104 136 173 216 261 308
#     4  11  24  39  55  75 100 135 178 225 271 317
#
# _framework density 19.730931000000002
#
# number of rings (size 3 to 8) (size 9 to 14) (size 15 to 20)
#    0.000    2.000    3.333    3.500    0.000    0.667 
#    0.000    0.000    0.000    4.000    0.000    7.000 
#    0.000    0.000    0.000    0.000    0.000    0.000 
#
# Total GULP energy -133659.898475 kJ/mol
# GULP energy per Si atom -5569.162436 kJ/mol
# Density = 1.968602 g / cm^3
# Si number density = 19.730931 Si / 1000 Ang^3
#
#
#
# Elastic Constant Matrix: (Units=GPa)
#
#
# Indices 1 2 3 4 5 6 
#
# 1 199.7014 4.6270 65.3873 0.0000 2.2117 0.0000
# 2 4.6270 57.3805 -6.4684 0.0000 -1.0114 0.0000
# 3 65.3873 -6.4684 83.5885 0.0000 8.1126 0.0000
# 4 0.0000 0.0000 0.0000 13.0815 0.0000 -2.7252
# 5 2.2117 -1.0114 8.1126 0.0000 11.1490 0.0000
# 6 0.0000 0.0000 0.0000 -2.7252 0.0000 10.4393
#
#
#
# Elastic Compliance Matrix: (Units=1/GPa)
#
#
# Indices 1 2 3 4 5 6 
#
# 1 0.006882 -0.001154 -0.005735 0.000000 0.002703 0.000000
# 2 -0.001154 0.017779 0.002259 0.000000 0.000198 0.000000
# 3 -0.005735 0.002259 0.017748 0.000000 -0.011571 0.000000
# 4 0.000000 0.000000 0.000000 0.080840 0.000000 0.021104
# 5 0.002703 0.000198 -0.011571 0.000000 0.097596 0.000000
# 6 0.000000 0.000000 0.000000 0.021104 0.000000 0.101302
#
#
# Mechanical properties :
#
#
# Convention : Reuss Voigt Hill
#
# Bulk Modulus (GPa) = 30.16703 51.97357 41.07030
# Shear Modulus (GPa) = 14.60044 25.40891 20.00468
#
# Velocity S-wave (km/s) = 2.72320 3.59245 3.18759
# Velocity P-wave (km/s) = 5.02097 6.60348 5.86584
#
# Compressibility (1/GPa) = 0.03314878
#
# Stress axis : x y z
#
# Youngs Moduli (GPa) = 145.30397 56.24696 56.34552
#
# Poissons Ratio (x) = 0.06490 0.32315
# Poissons Ratio (y) = 0.16766 -0.12729
# Poissons Ratio (z) = 0.83335 -0.12707
#
# Static dielectric constant tensor:
#      x y z
#    x 1.828150 0.000000 0.003930 
#    y 0.000000 1.772540 0.000000 
#    z 0.003930 0.000000 1.660290 
# 
# From -- ./inp_files/179211.got.cif
#   From: 2010.05.17/outbox.cif.g08.bks.cpg/sg12_90_cif.got.tgz:179211.got - 2010.06.03 13:09:07.
