data_PCOD9183605
_publ_section_title
;
Structure prediction by ZEFSAII (Michael W. Deem and Ramdas Pophale) SiO2 
 PCOD9183605
Probable space group: C 2/M
;
_chemical_formula_sum "Si O2"
_cell_formula_units_Z 32
_cell_length_a 8.102992
_cell_length_b 23.571591
_cell_length_c 11.109750
_cell_angle_alpha 90.000000
_cell_angle_beta 141.781554
_cell_angle_gamma 90.000000
_cell_volume 1312.778902
_symmetry_space_group_name_H-M "C 2/M"
_symmetry_group_IT_number 12
_symmetry_cell_setting 'monoclinic'
loop_
_space_group_symop_operation_xyz
x,y,z
-x,y,-z
-x,-y,-z
x,-y,z
1/2+x,1/2+y,z
1/2-x,1/2+y,-z
1/2-x,1/2-y,-z
1/2+x,1/2-y,z
loop_
_atom_site_type_symbol
_atom_site_label
_atom_site_fract_x
_atom_site_fract_y
_atom_site_fract_z
Si Si1 0.727019 0.600466 0.766860
Si Si2 0.836050 0.563606 0.557838
Si Si3 0.145238 0.719867 0.211717
Si Si4 0.213093 0.333134 0.781874
O O1 0.788247 0.571125 0.674581
O O2 0.458240 0.574239 0.666611
O O3 0.661763 0.666881 0.703584
O O4 0.000000 0.597707 0.000000
O O5 0.926481 0.500000 0.586300
O O6 0.049039 0.611906 0.651325
O O7 0.244049 0.783373 0.291403
O O8 0.953013 0.697467 0.205805
O O9 0.000000 0.726158 0.000000
O O10 0.500000 0.350271 0.000000
#
# Coordination Sequence:
#
# PCOD9183605 Si02
#       4
#     8   8   8   8
#     4   9  18  34  57  82 109 143 186 237 280 322
#     4  10  21  34  52  82 113 148 191 223 269 340
#     4   9  17  31  55  84 109 141 184 230 285 334
#     4  10  19  33  55  82 114 147 182 231 280 330
#
# _framework density 24.375772999999999
#
# number of rings (size 3 to 8) (size 9 to 14) (size 15 to 20)
#    0.000    2.500    0.000    4.500    0.000    3.500 
#    0.000    0.000    0.000   22.500    0.000   31.500 
#    0.000    1.000    0.000    0.000    0.000    0.000 
#
# Total GULP energy -89469.650090 kJ/mol
# GULP energy per Si atom -5591.853131 kJ/mol
# Density = 2.432029 g / cm^3
# Si number density = 24.375773 Si / 1000 Ang^3
#
#
#
# Elastic Constant Matrix: (Units=GPa)
#
#
# Indices 1 2 3 4 5 6 
#
# 1 90.5412 48.0429 36.3747 0.0000 18.6352 0.0000
# 2 48.0429 244.5395 76.1262 0.0000 28.7281 0.0000
# 3 36.3747 76.1262 177.5286 0.0000 -3.4322 0.0000
# 4 0.0000 0.0000 0.0000 93.5782 0.0000 53.1141
# 5 18.6352 28.7281 -3.4322 0.0000 22.8155 0.0000
# 6 0.0000 0.0000 0.0000 53.1141 0.0000 24.0557
#
#
#
# Elastic Compliance Matrix: (Units=1/GPa)
#
#
# Indices 1 2 3 4 5 6 
#
# 1 0.015064 -0.000594 -0.003064 0.000000 -0.012017 0.000000
# 2 -0.000594 0.005844 -0.002525 0.000000 -0.007253 0.000000
# 3 -0.003064 -0.002525 0.007475 0.000000 0.006806 0.000000
# 4 0.000000 0.000000 0.000000 -0.042202 0.000000 0.093180
# 5 -0.012017 -0.007253 0.006806 0.000000 0.063802 0.000000
# 6 0.000000 0.000000 0.000000 0.093180 0.000000 -0.164167
#
#
# Mechanical properties :
#
#
# Convention : Reuss Voigt Hill
#
# Bulk Modulus (GPa) = 62.43048 92.63300 77.53174
# Shear Modulus (GPa) = -51.82445 51.56091 -0.13177
#
# Velocity S-wave (km/s) = -4.61593 4.60418 -0.23275
# Velocity P-wave (km/s) = 1.65583 8.14550 5.63948
#
# Compressibility (1/GPa) = 0.01601782
#
# Stress axis : x y z
#
# Youngs Moduli (GPa) = 66.38221 171.11670 133.78168
#
# Poissons Ratio (x) = 0.10162 0.40994
# Poissons Ratio (y) = 0.03942 0.33773
# Poissons Ratio (z) = 0.20341 0.43198
#
# Static dielectric constant tensor:
#      x y z
#    x 1.968920 0.000000 0.032140 
#    y 0.000000 1.963770 0.000000 
#    z 0.032140 0.000000 2.008680 
# 
# From -- ./inp_files/200063.got.cif
#   From: 2010.05.17/outbox.cif.g08.bks.cpg/sg12_101_cif.got.tgz:200063.got - 2010.06.03 13:09:07.
