data_PCOD9183603
_publ_section_title
;
Structure prediction by ZEFSAII (Michael W. Deem and Ramdas Pophale) SiO2 
 PCOD9183603
Probable space group: C 2/M
;
_chemical_formula_sum "Si O2"
_cell_formula_units_Z 56
_cell_length_a 25.662107
_cell_length_b 8.772287
_cell_length_c 17.107382
_cell_angle_alpha 90.000000
_cell_angle_beta 121.145621
_cell_angle_gamma 90.000000
_cell_volume 3296.014836
_symmetry_space_group_name_H-M "C 2/M"
_symmetry_group_IT_number 12
_symmetry_cell_setting 'monoclinic'
loop_
_space_group_symop_operation_xyz
x,y,z
-x,y,-z
-x,-y,-z
x,-y,z
1/2+x,1/2+y,z
1/2-x,1/2+y,-z
1/2-x,1/2-y,-z
1/2+x,1/2-y,z
loop_
_atom_site_type_symbol
_atom_site_label
_atom_site_fract_x
_atom_site_fract_y
_atom_site_fract_z
Si Si1 0.583598 0.818747 0.904092
Si Si2 0.739772 0.181270 0.774802
Si Si3 0.336868 0.318062 0.608146
Si Si4 0.697215 0.318131 0.903718
Si Si5 0.950912 0.182312 0.801857
Si Si6 0.718644 0.319390 0.597241
Si Si7 0.875305 0.318104 0.885519
O O1 0.633095 0.735500 0.888982
O O2 0.515896 0.757859 0.838061
O O3 0.586901 0.000000 0.893471
O O4 0.601185 0.790676 0.008417
O O5 0.708173 0.255068 0.825476
O O6 0.708591 0.231032 0.669693
O O7 0.808920 0.243961 0.825156
O O8 0.741026 0.000000 0.783415
O O9 0.325373 0.500000 0.609466
O O10 0.402290 0.284360 0.695499
O O11 0.327720 0.283950 0.509500
O O12 0.284687 0.228956 0.614731
O O13 0.702029 0.500000 0.907710
O O14 0.750000 0.250000 0.000000
O O15 0.920944 0.247328 0.857765
O O16 0.957361 0.000000 0.813345
O O17 0.717908 0.500000 0.611402
O O18 0.870792 0.500000 0.869960
#
# Coordination Sequence:
#
# PCOD9183603 Si02
#       7
#     8   8   8   8   8   8   8
#     4  11  24  40  57  80 114 153 195 234 276 333
#     4  12  23  36  57  84 116 149 187 233 283 335
#     4   9  19  34  53  81 115 149 186 230 281 340
#     4  12  24  40  61  84 111 147 190 235 282 330
#     4  11  22  36  56  83 117 153 191 232 282 338
#     4  10  19  33  55  82 113 148 187 231 284 336
#     4  11  22  36  55  81 114 152 191 231 278 334
#
# _framework density 16.990216
#
# number of rings (size 3 to 8) (size 9 to 14) (size 15 to 20)
#    0.000    1.143    2.857    4.714    0.000    4.571 
#    0.000    0.000    0.000    0.857    0.000    6.000 
#    0.000    0.000    0.000    0.000    0.000    0.000 
#
# Total GULP energy -156523.996006 kJ/mol
# GULP energy per Si atom -5590.142714 kJ/mol
# Density = 1.695155 g / cm^3
# Si number density = 16.990216 Si / 1000 Ang^3
#
#
#
# Elastic Constant Matrix: (Units=GPa)
#
#
# Indices 1 2 3 4 5 6 
#
# 1 113.1967 46.2922 57.4707 0.0000 -8.0957 0.0000
# 2 46.2922 94.6332 64.8336 0.0000 -6.4171 0.0000
# 3 57.4707 64.8336 102.1578 0.0000 -18.6360 0.0000
# 4 0.0000 0.0000 0.0000 28.7272 0.0000 -1.3614
# 5 -8.0957 -6.4171 -18.6360 0.0000 18.2922 0.0000
# 6 0.0000 0.0000 0.0000 -1.3614 0.0000 32.1493
#
#
#
# Elastic Compliance Matrix: (Units=1/GPa)
#
#
# Indices 1 2 3 4 5 6 
#
# 1 0.012670 -0.002201 -0.005955 0.000000 -0.001232 0.000000
# 2 -0.002201 0.019792 -0.012569 0.000000 -0.006837 0.000000
# 3 -0.005955 -0.012569 0.024358 0.000000 0.017771 0.000000
# 4 0.000000 0.000000 0.000000 0.034880 0.000000 0.001477
# 5 -0.001232 -0.006837 0.017771 0.000000 0.069829 0.000000
# 6 0.000000 0.000000 0.000000 0.001477 0.000000 0.031167
#
#
# Mechanical properties :
#
#
# Convention : Reuss Voigt Hill
#
# Bulk Modulus (GPa) = 65.07353 71.90898 68.49125
# Shear Modulus (GPa) = 20.89683 25.25983 23.07833
#
# Velocity S-wave (km/s) = 3.51084 3.85999 3.68955
# Velocity P-wave (km/s) = 7.40395 7.89188 7.65180
#
# Compressibility (1/GPa) = 0.01536723
#
# Stress axis : x y z
#
# Youngs Moduli (GPa) = 78.92736 50.52622 41.05426
#
# Poissons Ratio (x) = 0.11122 0.24450
# Poissons Ratio (y) = 0.17374 0.51603
# Poissons Ratio (z) = 0.47005 0.63509
#
# Static dielectric constant tensor:
#      x y z
#    x 1.533470 0.000000 -0.003110 
#    y 0.000000 1.567300 0.000000 
#    z -0.003110 0.000000 1.583800 
# 
# From -- ./inp_files/238891.got.cif
#   From: 2010.05.17/outbox.cif.g08.bks.cpg/sg12_120_cif.got.tgz:238891.got - 2010.06.03 13:09:07.
