data_PCOD9183135
_publ_section_title
;
Structure prediction by ZEFSAII (Michael W. Deem and Ramdas Pophale) SiO2 
 PCOD9183135
Probable space group: C 2/M
;
_chemical_formula_sum "Si O2"
_cell_formula_units_Z 50
_cell_length_a 19.647375
_cell_length_b 8.961003
_cell_length_c 29.456187
_cell_angle_alpha 90.000000
_cell_angle_beta 148.017316
_cell_angle_gamma 90.000000
_cell_volume 2746.864735
_symmetry_space_group_name_H-M "C 2/M"
_symmetry_group_IT_number 12
_symmetry_cell_setting 'monoclinic'
loop_
_space_group_symop_operation_xyz
x,y,z
-x,y,-z
-x,-y,-z
x,-y,z
1/2+x,1/2+y,z
1/2-x,1/2+y,-z
1/2-x,1/2-y,-z
1/2+x,1/2-y,z
loop_
_atom_site_type_symbol
_atom_site_label
_atom_site_fract_x
_atom_site_fract_y
_atom_site_fract_z
Si Si1 0.588279 0.163347 0.960759
Si Si2 0.660420 0.321113 0.217266
Si Si3 0.356226 0.678760 0.592314
Si Si4 0.500000 0.000000 0.000000
Si Si5 0.330253 0.177399 0.134513
Si Si6 0.891742 0.178732 0.714591
Si Si7 0.864312 0.320019 0.257417
O O1 0.477451 0.253381 0.872999
O O2 0.608008 0.000000 0.949904
O O3 0.536015 0.126633 0.981734
O O4 0.721822 0.247882 0.042535
O O5 0.653249 0.500000 0.208920
O O6 0.688693 0.284944 0.285863
O O7 0.767419 0.269341 0.241961
O O8 0.355965 0.500000 0.587655
O O9 0.250000 0.750000 0.500000
O O10 0.332763 0.716796 0.632273
O O11 0.497283 0.742847 0.660834
O O12 0.471245 0.240592 0.204190
O O13 0.308638 0.214956 0.175855
O O14 0.327345 0.000000 0.128545
O O15 0.914477 0.000000 0.727272
O O16 0.880488 0.500000 0.269224
#
# Coordination Sequence:
#
# PCOD9183135 Si02
#       7
#     8   8   8   2   8   8   8
#     4  10  20  32  49  74 107 147 184 228 264 315
#     4  10  20  36  55  78 111 145 182 226 274 321
#     4  10  20  37  61  85 106 136 174 218 266 326
#     4   8  20  32  46  72 104 136 184 226 266 312
#     4  10  19  33  54  78 106 143 191 233 268 312
#     4   9  20  37  56  80 109 143 179 222 274 326
#     4   9  19  34  55  81 106 138 177 224 270 317
#
# _framework density 18.202570999999999
#
# number of rings (size 3 to 8) (size 9 to 14) (size 15 to 20)
#    0.480    1.920    0.000    2.400    0.000    3.200 
#    0.000    4.000    0.000    4.800    0.000    0.000 
#    0.000    0.000    0.000    0.000    0.000    0.000 
#
# Total GULP energy -139169.059000 kJ/mol
# GULP energy per Si atom -5566.762360 kJ/mol
# Density = 1.816114 g / cm^3
# Si number density = 18.202571 Si / 1000 Ang^3
#
#
#
# Elastic Constant Matrix: (Units=GPa)
#
#
# Indices 1 2 3 4 5 6 
#
# 1 111.6754 28.7770 44.4921 0.0000 -20.3014 0.0000
# 2 28.7770 24.9903 34.2930 0.0000 -2.8381 -0.0002
# 3 44.4921 34.2930 110.9494 0.0000 -3.8728 0.0000
# 4 0.0000 0.0000 0.0000 27.3105 0.0000 6.1622
# 5 -20.3014 -2.8381 -3.8728 0.0000 14.2965 0.0000
# 6 0.0000 -0.0002 0.0000 6.1622 0.0000 19.0046
#
#
#
# Elastic Compliance Matrix: (Units=1/GPa)
#
#
# Indices 1 2 3 4 5 6 
#
# 1 0.017428 -0.015773 -0.001372 0.000000 0.021245 0.000000
# 2 -0.015773 0.084695 -0.020239 0.000000 -0.011068 0.000001
# 3 -0.001372 -0.020239 0.015760 0.000000 -0.001697 0.000000
# 4 0.000000 0.000000 0.000000 0.039506 0.000000 -0.012810
# 5 0.021245 -0.011068 -0.001697 0.000000 0.097459 0.000000
# 6 0.000000 0.000001 0.000000 -0.012810 0.000000 0.056772
#
#
# Mechanical properties :
#
#
# Convention : Reuss Voigt Hill
#
# Bulk Modulus (GPa) = 23.19436 51.41548 37.30492
# Shear Modulus (GPa) = 12.47632 21.45920 16.96776
#
# Velocity S-wave (km/s) = 2.62088 3.43725 3.05645
# Velocity P-wave (km/s) = 4.68281 6.63781 5.74409
#
# Compressibility (1/GPa) = 0.04311393
#
# Stress axis : x y z
#
# Youngs Moduli (GPa) = 57.37993 11.80708 63.45305
#
# Poissons Ratio (x) = 0.18623 0.08705
# Poissons Ratio (y) = 0.90506 1.28424
# Poissons Ratio (z) = 0.07872 0.23897
#
# Static dielectric constant tensor:
#      x y z
#    x 1.659590 0.000000 -0.033640 
#    y 0.000000 1.619340 0.000000 
#    z -0.033640 0.000000 1.584840 
# 
# From -- ./inp_files/362790.got.cif
#   From: 2010.05.17/outbox.cif.g08.bks.cpg/sg12_182_cif.got.tgz:362790.got - 2010.06.03 13:09:07.
