data_PCOD9183260
_publ_section_title
;
Structure prediction by ZEFSAII (Michael W. Deem and Ramdas Pophale) SiO2 
 PCOD9183260
Probable space group: C 2/M
;
_chemical_formula_sum "Si O2"
_cell_formula_units_Z 56
_cell_length_a 19.692517
_cell_length_b 8.409690
_cell_length_c 19.860367
_cell_angle_alpha 90.000000
_cell_angle_beta 65.945943
_cell_angle_gamma 90.000000
_cell_volume 3003.419432
_symmetry_space_group_name_H-M "C 2/M"
_symmetry_group_IT_number 12
_symmetry_cell_setting 'monoclinic'
loop_
_space_group_symop_operation_xyz
x,y,z
-x,y,-z
-x,-y,-z
x,-y,z
1/2+x,1/2+y,z
1/2-x,1/2+y,-z
1/2-x,1/2-y,-z
1/2+x,1/2-y,z
loop_
_atom_site_type_symbol
_atom_site_label
_atom_site_fract_x
_atom_site_fract_y
_atom_site_fract_z
Si Si1 0.959256 0.317296 0.822843
Si Si2 0.590901 0.319881 0.290740
Si Si3 0.674136 0.690302 0.565658
Si Si4 0.745809 0.187611 0.795931
Si Si5 0.372788 0.194231 0.265718
Si Si6 0.475884 0.181073 0.432920
Si Si7 0.700376 0.190361 0.081300
O O1 0.967044 0.500000 0.841947
O O2 0.931829 0.304002 0.757150
O O3 0.885622 0.247801 0.889141
O O4 0.042928 0.250096 0.785665
O O5 0.585331 0.500000 0.265351
O O6 0.676271 0.294276 0.275334
O O7 0.533562 0.295183 0.372771
O O8 0.673837 0.500000 0.565809
O O9 0.750000 0.750000 0.500000
O O10 0.657243 0.747245 0.649512
O O11 0.606242 0.757266 0.548667
O O12 0.680478 0.246719 0.774086
O O13 0.762293 0.260301 0.862628
O O14 0.732789 0.000000 0.812180
O O15 0.373129 0.000000 0.268618
O O16 0.500000 0.178014 0.500000
O O17 0.481536 0.000000 0.404050
O O18 0.696214 0.000000 0.081781
O O19 0.750000 0.250000 0.000000
#
# Coordination Sequence:
#
# PCOD9183260 Si02
#       7
#     8   8   8   8   8   8   8
#     4   9  18  34  58  82 109 147 190 230 281 342
#     4  10  19  33  54  81 109 143 186 234 285 338
#     4  12  26  42  60  84 116 156 199 246 300 352
#     4   9  20  36  57  86 116 148 188 232 283 343
#     4  10  20  38  61  85 116 153 192 240 291 348
#     4  11  24  40  57  80 111 149 194 244 295 347
#     4  10  20  36  59  87 116 152 190 235 286 342
#
# _framework density 18.645415
#
# number of rings (size 3 to 8) (size 9 to 14) (size 15 to 20)
#    0.000    1.857    1.429    2.571    2.000    2.857 
#    0.000    0.714    0.000    4.286    0.000    0.000 
#    0.000    0.000    0.000    0.000    0.000    0.000 
#
# Total GULP energy -156020.853561 kJ/mol
# GULP energy per Si atom -5572.173341 kJ/mol
# Density = 1.860298 g / cm^3
# Si number density = 18.645415 Si / 1000 Ang^3
#
#
#
# Elastic Constant Matrix: (Units=GPa)
#
#
# Indices 1 2 3 4 5 6 
#
# 1 171.2730 33.8944 82.8834 -0.0001 -16.4138 -0.0002
# 2 33.8944 50.7770 19.9807 -0.0002 -2.7968 -0.0004
# 3 82.8834 19.9807 108.3753 0.0000 -27.4017 -0.0001
# 4 -0.0001 -0.0002 0.0000 26.4697 0.0000 2.8573
# 5 -16.4138 -2.7968 -27.4017 0.0000 28.1939 -0.0001
# 6 -0.0002 -0.0004 -0.0001 2.8573 -0.0001 19.2976
#
#
#
# Elastic Compliance Matrix: (Units=1/GPa)
#
#
# Indices 1 2 3 4 5 6 
#
# 1 0.010010 -0.003874 -0.007378 0.000000 -0.001727 0.000000
# 2 -0.003874 0.022842 -0.001652 0.000000 -0.001595 0.000000
# 3 -0.007378 -0.001652 0.018623 0.000000 0.013641 0.000000
# 4 0.000000 0.000000 0.000000 0.038393 0.000000 -0.005685
# 5 -0.001727 -0.001595 0.013641 0.000000 0.047562 0.000000
# 6 0.000000 0.000000 0.000000 -0.005685 0.000000 0.052661
#
#
# Mechanical properties :
#
#
# Convention : Reuss Voigt Hill
#
# Bulk Modulus (GPa) = 38.95932 67.10470 53.03201
# Shear Modulus (GPa) = 22.27611 27.70336 24.98974
#
# Velocity S-wave (km/s) = 3.46023 3.85879 3.66493
# Velocity P-wave (km/s) = 6.07490 7.47808 6.81272
#
# Compressibility (1/GPa) = 0.02566780
#
# Stress axis : x y z
#
# Youngs Moduli (GPa) = 99.89830 43.77913 53.69591
#
# Poissons Ratio (x) = 0.16959 0.39618
# Poissons Ratio (y) = 0.38699 0.08870
# Poissons Ratio (z) = 0.73707 0.07232
#
# Static dielectric constant tensor:
#      x y z
#    x 1.640280 0.000000 -0.040920 
#    y 0.000000 1.676320 0.000000 
#    z -0.040920 0.000000 1.635770 
# 
# From -- ./inp_files/275311.got.cif
#   From: 2010.05.17/outbox.cif.g08.bks.cpg/sg12_138_cif.got.tgz:275311.got - 2010.06.03 13:09:07.
