data_PCOD9183359
_publ_section_title
;
Structure prediction by ZEFSAII (Michael W. Deem and Ramdas Pophale) SiO2 
 PCOD9183359
Probable space group: C 2/M
;
_chemical_formula_sum "Si O2"
_cell_formula_units_Z 56
_cell_length_a 19.436677
_cell_length_b 14.261298
_cell_length_c 14.341460
_cell_angle_alpha 90.000000
_cell_angle_beta 44.066171
_cell_angle_gamma 90.000000
_cell_volume 2764.804962
_symmetry_space_group_name_H-M "C 2/M"
_symmetry_group_IT_number 12
_symmetry_cell_setting 'monoclinic'
loop_
_space_group_symop_operation_xyz
x,y,z
-x,y,-z
-x,-y,-z
x,-y,z
1/2+x,1/2+y,z
1/2-x,1/2+y,-z
1/2-x,1/2-y,-z
1/2+x,1/2-y,z
loop_
_atom_site_type_symbol
_atom_site_label
_atom_site_fract_x
_atom_site_fract_y
_atom_site_fract_z
Si Si1 0.232279 0.195466 0.362177
Si Si2 0.211104 0.399052 0.415864
Si Si3 0.026656 0.891495 0.584607
Si Si4 0.371346 0.115123 0.889857
Si Si5 0.913688 0.606752 0.643413
Si Si6 0.582830 0.893266 0.720845
Si Si7 0.308272 0.385368 0.802856
O O1 0.262844 0.299442 0.365899
O O2 0.323649 0.136766 0.310623
O O3 0.215298 0.170825 0.269721
O O4 0.124399 0.168781 0.509870
O O5 0.259695 0.500000 0.389975
O O6 0.171945 0.401465 0.348580
O O7 0.119949 0.390825 0.577191
O O8 0.919739 0.866709 0.730781
O O9 0.000000 0.887899 0.500000
O O10 0.051044 0.000000 0.582534
O O11 0.376715 0.145709 0.776691
O O12 0.474426 0.151266 0.833876
O O13 0.370334 0.000000 0.890194
O O14 0.274647 0.140663 0.041421
O O15 0.949937 0.500000 0.628868
O O16 0.000000 0.657378 0.500000
O O17 0.565470 0.000000 0.763955
O O18 0.304417 0.500000 0.787710
#
# Coordination Sequence:
#
# PCOD9183359 Si02
#       7
#     8   8   8   8   8   8   8
#     4  11  20  32  53  79 114 145 184 222 273 328
#     4  10  21  35  53  77 105 140 189 237 274 311
#     4   8  15  30  50  73 106 145 182 216 256 316
#     4   9  17  31  54  84 116 140 172 222 276 334
#     4   9  15  29  52  75 103 142 180 221 270 316
#     4  10  19  33  54  84 114 141 175 222 279 334
#     4   9  18  33  53  82 115 147 179 219 273 328
#
# _framework density 20.254593
#
# number of rings (size 3 to 8) (size 9 to 14) (size 15 to 20)
#    0.000    2.571    1.429    2.571    0.000    2.286 
#    0.000    2.857    0.000    0.000    0.000    2.000 
#    0.000    0.714    0.000    0.000    0.000    0.143 
#
# Total GULP energy -155926.361292 kJ/mol
# GULP energy per Si atom -5568.798618 kJ/mol
# Density = 2.020849 g / cm^3
# Si number density = 20.254593 Si / 1000 Ang^3
#
#
#
# Elastic Constant Matrix: (Units=GPa)
#
#
# Indices 1 2 3 4 5 6 
#
# 1 54.7688 -7.0277 43.0078 0.0000 -9.3960 0.0000
# 2 -7.0277 60.4850 19.0897 0.0000 5.6453 0.0000
# 3 43.0078 19.0897 136.2242 0.0000 -12.3614 0.0000
# 4 0.0000 0.0000 0.0000 59.0853 0.0000 48.7668
# 5 -9.3960 5.6453 -12.3614 0.0000 11.7195 0.0000
# 6 0.0000 0.0000 0.0000 48.7668 0.0000 48.0967
#
#
#
# Elastic Compliance Matrix: (Units=1/GPa)
#
#
# Indices 1 2 3 4 5 6 
#
# 1 0.027229 0.004772 -0.008286 0.000000 0.010792 0.000000
# 2 0.004772 0.019821 -0.005312 0.000000 -0.011325 0.000000
# 3 -0.008286 -0.005312 0.011424 0.000000 0.007965 0.000000
# 4 0.000000 0.000000 0.000000 0.103746 0.000000 -0.105192
# 5 0.010792 -0.011325 0.007965 0.000000 0.107837 0.000000
# 6 0.000000 0.000000 0.000000 -0.105192 0.000000 0.127449
#
#
# Mechanical properties :
#
#
# Convention : Reuss Voigt Hill
#
# Bulk Modulus (GPa) = 24.49681 40.17972 32.33827
# Shear Modulus (GPa) = 11.66142 36.87418 24.26780
#
# Velocity S-wave (km/s) = 2.40207 4.27140 3.46517
# Velocity P-wave (km/s) = 4.45128 6.64883 5.65777
#
# Compressibility (1/GPa) = 0.04082164
#
# Stress axis : x y z
#
# Youngs Moduli (GPa) = 36.72576 50.45206 87.53576
#
# Poissons Ratio (x) = -0.24073 0.72531
# Poissons Ratio (y) = -0.17524 0.46496
# Poissons Ratio (z) = 0.30430 0.26798
#
# Static dielectric constant tensor:
#      x y z
#    x 1.709170 0.000000 0.013030 
#    y 0.000000 1.838280 0.000000 
#    z 0.013030 0.000000 1.730340 
# 
# From -- ./inp_files/233647.got.cif
#   From: 2010.05.17/outbox.cif.g08.bks.cpg/sg12_117_cif.got.tgz:233647.got - 2010.06.03 13:09:07.
