data_PCOD9183954
_publ_section_title
;
Structure prediction by ZEFSAII (Michael W. Deem and Ramdas Pophale) SiO2 
 PCOD9183954
Probable space group: C 2/M
;
_chemical_formula_sum "Si O2"
_cell_formula_units_Z 64
_cell_length_a 25.104851
_cell_length_b 8.416357
_cell_length_c 21.764814
_cell_angle_alpha 90.000000
_cell_angle_beta 131.774553
_cell_angle_gamma 90.000000
_cell_volume 3429.594745
_symmetry_space_group_name_H-M "C 2/M"
_symmetry_group_IT_number 12
_symmetry_cell_setting 'monoclinic'
loop_
_space_group_symop_operation_xyz
x,y,z
-x,y,-z
-x,-y,-z
x,-y,z
1/2+x,1/2+y,z
1/2-x,1/2+y,-z
1/2-x,1/2-y,-z
1/2+x,1/2-y,z
loop_
_atom_site_type_symbol
_atom_site_label
_atom_site_fract_x
_atom_site_fract_y
_atom_site_fract_z
Si Si1 0.894165 0.816338 0.237698
Si Si2 0.187252 0.809244 0.265797
Si Si3 0.968141 0.311137 0.711713
Si Si4 0.688800 0.689654 0.408102
Si Si5 0.028440 0.306923 0.142952
Si Si6 0.111561 0.318125 0.021189
Si Si7 0.246830 0.191184 0.801738
Si Si8 0.672095 0.181353 0.930616
O O1 0.828518 0.750349 0.228342
O O2 0.865253 0.794861 0.146412
O O3 0.971551 0.737450 0.290771
O O4 0.903962 0.000000 0.261343
O O5 0.200567 0.758329 0.346358
O O6 0.107555 0.750576 0.187440
O O7 0.242589 0.734739 0.260739
O O8 0.189590 0.000000 0.264150
O O9 0.966788 0.500000 0.713996
O O10 0.890037 0.248721 0.634718
O O11 0.983510 0.256386 0.794534
O O12 0.688572 0.500000 0.408362
O O13 0.750000 0.750000 0.500000
O O14 0.026173 0.500000 0.139967
O O15 0.967818 0.248056 0.048714
O O16 0.103283 0.500000 0.038707
O O17 0.135475 0.325234 0.968445
O O18 0.180426 0.246843 0.108880
O O19 0.246793 0.000000 0.811260
O O20 0.672356 0.000000 0.906528
O O21 0.750000 0.250000 0.000000
#
# Coordination Sequence:
#
# PCOD9183954 Si02
#       8
#     8   8   8   8   8   8   8   8
#     4  11  21  33  51  77 109 146 188 232 274 318
#     4  10  22  38  54  78 110 138 174 224 271 320
#     4  10  19  33  56  85 114 144 178 220 273 326
#     4  10  21  39  64  92 116 137 167 213 269 329
#     4   9  17  32  53  73 100 142 186 227 273 322
#     4   9  17  31  48  70 100 140 191 234 268 314
#     4  10  21  36  52  71 104 152 195 226 265 322
#     4  11  19  31  47  70 102 140 189 240 284 321
#
# _framework density 18.661097000000002
#
# number of rings (size 3 to 8) (size 9 to 14) (size 15 to 20)
#    0.000    2.000    2.500    1.875    0.000    3.500 
#    0.000    3.125    0.000    0.750    0.000    5.250 
#    0.000    0.000    0.000    0.000    0.000    0.000 
#
# Total GULP energy -178405.670694 kJ/mol
# GULP energy per Si atom -5575.177209 kJ/mol
# Density = 1.861862 g / cm^3
# Si number density = 18.661097 Si / 1000 Ang^3
#
#
#
# Elastic Constant Matrix: (Units=GPa)
#
#
# Indices 1 2 3 4 5 6 
#
# 1 131.8915 16.7919 64.3067 0.0000 8.7407 0.0000
# 2 16.7919 15.6592 12.1652 0.0000 4.2570 0.0000
# 3 64.3067 12.1652 92.5919 0.0000 23.2753 0.0000
# 4 0.0000 0.0000 0.0000 21.1465 0.0000 2.1646
# 5 8.7407 4.2570 23.2753 0.0000 19.2347 0.0000
# 6 0.0000 0.0000 0.0000 2.1646 0.0000 23.5165
#
#
#
# Elastic Compliance Matrix: (Units=1/GPa)
#
#
# Indices 1 2 3 4 5 6 
#
# 1 0.012937 -0.008352 -0.009880 0.000000 0.007925 0.000000
# 2 -0.008352 0.077058 -0.001424 0.000000 -0.011536 0.000000
# 3 -0.009880 -0.001424 0.023916 0.000000 -0.024135 0.000000
# 4 0.000000 0.000000 0.000000 0.047739 0.000000 -0.004394
# 5 0.007925 -0.011536 -0.024135 0.000000 0.080146 0.000000
# 6 0.000000 0.000000 0.000000 -0.004394 0.000000 0.042928
#
#
# Mechanical properties :
#
#
# Convention : Reuss Voigt Hill
#
# Bulk Modulus (GPa) = 13.40482 47.40781 30.40631
# Shear Modulus (GPa) = 14.33061 22.57145 18.45103
#
# Velocity S-wave (km/s) = 2.77418 3.48163 3.14784
# Velocity P-wave (km/s) = 4.17856 6.45152 5.43518
#
# Compressibility (1/GPa) = 0.07460002
#
# Stress axis : x y z
#
# Youngs Moduli (GPa) = 77.29555 12.97716 41.81316
#
# Poissons Ratio (x) = 0.10839 0.41311
# Poissons Ratio (y) = 0.64558 0.05953
# Poissons Ratio (z) = 0.76368 0.01848
#
# Static dielectric constant tensor:
#      x y z
#    x 1.667620 0.000000 0.007490 
#    y 0.000000 1.649480 0.000000 
#    z 0.007490 0.000000 1.640990 
# 
# From -- ./inp_files/324356.got.cif
#   From: 2010.05.17/outbox.cif.g08.bks.cpg/sg12_163_cif.got.tgz:324356.got - 2010.06.03 13:09:07.
