data_PCOD9183801
_publ_section_title
;
Structure prediction by ZEFSAII (Michael W. Deem and Ramdas Pophale) SiO2 
 PCOD9183801
Probable space group: C 2/M
;
_chemical_formula_sum "Si O2"
_cell_formula_units_Z 40
_cell_length_a 5.328270
_cell_length_b 19.134523
_cell_length_c 19.794469
_cell_angle_alpha 90.000000
_cell_angle_beta 112.251275
_cell_angle_gamma 90.000000
_cell_volume 1867.837952
_symmetry_space_group_name_H-M "C 2/M"
_symmetry_group_IT_number 12
_symmetry_cell_setting 'monoclinic'
loop_
_space_group_symop_operation_xyz
x,y,z
-x,y,-z
-x,-y,-z
x,-y,z
1/2+x,1/2+y,z
1/2-x,1/2+y,-z
1/2-x,1/2-y,-z
1/2+x,1/2-y,z
loop_
_atom_site_type_symbol
_atom_site_label
_atom_site_fract_x
_atom_site_fract_y
_atom_site_fract_z
Si Si1 0.749393 0.221084 0.730248
Si Si2 0.335894 0.415806 0.419120
Si Si3 0.790723 0.082813 0.669674
Si Si4 0.818141 0.422958 0.049315
Si Si5 0.513783 0.778372 0.106058
O O1 0.432889 0.239298 0.693969
O O2 0.815020 0.138992 0.732090
O O3 0.835253 0.252123 0.811314
O O4 0.500000 0.386761 0.500000
O O5 0.359675 0.500000 0.424546
O O6 0.486661 0.398713 0.364309
O O7 0.014302 0.403159 0.388643
O O8 0.812057 0.000000 0.688888
O O9 0.851405 0.500000 0.084298
O O10 0.920611 0.357917 0.102830
O O11 0.500000 0.414274 0.000000
O O12 0.000000 0.422216 0.000000
O O13 0.242092 0.732307 0.072565
#
# Coordination Sequence:
#
# PCOD9183801 Si02
#       5
#     8   8   8   8   8
#     4  10  21  38  55  76 109 148 186 226 273 322
#     4   9  17  30  52  83 112 138 176 227 278 327
#     4  10  19  33  56  81 106 141 184 228 272 323
#     4  10  21  37  58  85 115 145 181 227 274 323
#     4  10  21  37  56  82 111 146 187 224 271 324
#
# _framework density 21.415133000000001
#
# number of rings (size 3 to 8) (size 9 to 14) (size 15 to 20)
#    0.000    2.200    0.000    3.000    0.000    4.800 
#    0.000    8.000    0.000   12.000    0.000    0.000 
#    0.000    0.000    0.000    0.000    0.000    0.000 
#
# Total GULP energy -111526.096928 kJ/mol
# GULP energy per Si atom -5576.304846 kJ/mol
# Density = 2.136639 g / cm^3
# Si number density = 21.415133 Si / 1000 Ang^3
#
#
#
# Elastic Constant Matrix: (Units=GPa)
#
#
# Indices 1 2 3 4 5 6 
#
# 1 153.8204 6.9050 -11.0445 0.0000 1.8098 0.0000
# 2 6.9050 119.1420 31.1313 0.0000 3.8343 0.0000
# 3 -11.0445 31.1313 26.0349 0.0000 1.0246 0.0000
# 4 0.0000 0.0000 0.0000 10.8801 0.0000 -7.4924
# 5 1.8098 3.8343 1.0246 0.0000 16.9296 0.0000
# 6 0.0000 0.0000 0.0000 -7.4924 0.0000 30.4733
#
#
#
# Elastic Compliance Matrix: (Units=1/GPa)
#
#
# Indices 1 2 3 4 5 6 
#
# 1 0.006942 -0.001683 0.004984 0.000000 -0.000663 0.000000
# 2 -0.001683 0.012676 -0.015803 0.000000 -0.001735 0.000000
# 3 0.004984 -0.015803 0.059443 0.000000 -0.000551 0.000000
# 4 0.000000 0.000000 0.000000 0.110644 0.000000 0.027204
# 5 -0.000663 -0.001735 -0.000551 0.000000 0.059565 0.000000
# 6 0.000000 0.000000 0.000000 0.027204 0.000000 0.039504
#
#
# Mechanical properties :
#
#
# Convention : Reuss Voigt Hill
#
# Bulk Modulus (GPa) = 18.49939 39.22010 28.85974
# Shear Modulus (GPa) = 15.06940 29.79030 22.42985
#
# Velocity S-wave (km/s) = 2.65557 3.73377 3.23984
# Velocity P-wave (km/s) = 4.24970 6.07800 5.24414
#
# Compressibility (1/GPa) = 0.05405585
#
# Stress axis : x y z
#
# Youngs Moduli (GPa) = 144.04439 78.88885 16.82292
#
# Poissons Ratio (x) = 0.13279 -0.08384
# Poissons Ratio (y) = 0.24247 0.26586
# Poissons Ratio (z) = -0.71791 1.24670
#
# Static dielectric constant tensor:
#      x y z
#    x 1.882040 0.000000 0.010500 
#    y 0.000000 1.797230 0.000000 
#    z 0.010500 0.000000 1.579950 
# 
# From -- ./inp_files/252556.got.cif
#   From: 2010.05.17/outbox.cif.g08.bks.cpg/sg12_127_cif.got.tgz:252556.got - 2010.06.03 13:09:07.
