data_PCOD9183585
_publ_section_title
;
Structure prediction by ZEFSAII (Michael W. Deem and Ramdas Pophale) SiO2 
 PCOD9183585
Probable space group: C 2/M
;
_chemical_formula_sum "Si O2"
_cell_formula_units_Z 64
_cell_length_a 15.488506
_cell_length_b 7.487638
_cell_length_c 29.239929
_cell_angle_alpha 90.000000
_cell_angle_beta 132.247020
_cell_angle_gamma 90.000000
_cell_volume 2510.214967
_symmetry_space_group_name_H-M "C 2/M"
_symmetry_group_IT_number 12
_symmetry_cell_setting 'monoclinic'
loop_
_space_group_symop_operation_xyz
x,y,z
-x,y,-z
-x,-y,-z
x,-y,z
1/2+x,1/2+y,z
1/2-x,1/2+y,-z
1/2-x,1/2-y,-z
1/2+x,1/2-y,z
loop_
_atom_site_type_symbol
_atom_site_label
_atom_site_fract_x
_atom_site_fract_y
_atom_site_fract_z
Si Si1 0.603774 0.293118 0.220207
Si Si2 0.633571 0.797526 0.910339
Si Si3 0.497806 0.214052 0.050894
Si Si4 0.815150 0.212885 0.476722
Si Si5 0.457974 0.712670 0.395463
Si Si6 0.351040 0.214418 0.267164
Si Si7 0.289024 0.215926 0.652260
Si Si8 0.761211 0.286135 0.142657
O O1 0.593699 0.500000 0.203068
O O2 0.491744 0.197671 0.160033
O O3 0.727833 0.221963 0.245390
O O4 0.612892 0.281521 0.278339
O O5 0.598506 0.717306 0.947276
O O6 0.715636 0.712887 0.900327
O O7 0.673487 0.000000 0.933071
O O8 0.630476 0.249848 0.113417
O O9 0.482201 0.000000 0.043565
O O10 0.500000 0.285965 0.000000
O O11 0.750000 0.250000 0.500000
O O12 0.733062 0.280077 0.406905
O O13 0.943364 0.284260 0.535222
O O14 0.827746 0.000000 0.472560
O O15 0.461320 0.500000 0.401720
O O16 0.455003 0.746024 0.339796
O O17 0.333097 0.774800 0.368417
O O18 0.347261 0.278603 0.213475
O O19 0.346268 0.000000 0.263713
O O20 0.299396 0.000000 0.656178
O O21 0.775296 0.500000 0.143704
#
# Coordination Sequence:
#
# PCOD9183585 Si02
#       8
#     8   8   8   8   8   8   8   8
#     4  10  19  33  55  82 111 141 182 235 283 331
#     4  10  21  37  59  85 117 156 193 231 284 344
#     4  10  22  40  61  87 120 154 191 237 282 330
#     4  10  21  35  50  71 102 138 177 225 278 333
#     4   9  18  33  54  76  98 133 182 225 266 325
#     4   9  18  33  53  78 108 139 176 227 281 329
#     4   9  18  34  55  75 100 139 183 225 276 334
#     4  10  21  38  59  85 116 153 194 234 281 341
#
# _framework density 25.495825
#
# number of rings (size 3 to 8) (size 9 to 14) (size 15 to 20)
#    0.000    2.375    1.250    0.750    0.000    5.750 
#    0.000    3.750    0.000    3.750    0.000    0.000 
#    0.000    0.000    0.000    0.000    0.000    0.000 
#
# Total GULP energy -178657.610901 kJ/mol
# GULP energy per Si atom -5583.050341 kJ/mol
# Density = 2.543780 g / cm^3
# Si number density = 25.495825 Si / 1000 Ang^3
#
#
#
# Elastic Constant Matrix: (Units=GPa)
#
#
# Indices 1 2 3 4 5 6 
#
# 1 98.7674 1.0089 26.5487 0.0000 -27.0373 0.0000
# 2 1.0089 82.1348 4.1377 0.0000 -0.3215 0.0000
# 3 26.5487 4.1377 117.2615 0.0000 -31.7727 0.0000
# 4 0.0000 0.0000 0.0000 15.1080 0.0000 -7.6180
# 5 -27.0373 -0.3215 -31.7727 0.0000 54.3888 0.0000
# 6 0.0000 0.0000 0.0000 -7.6180 0.0000 -16.9610
#
#
#
# Elastic Compliance Matrix: (Units=1/GPa)
#
#
# Indices 1 2 3 4 5 6 
#
# 1 0.011883 -0.000061 -0.001292 0.000000 0.005152 0.000000
# 2 -0.000061 0.012199 -0.000482 0.000000 -0.000239 0.000000
# 3 -0.001292 -0.000482 0.010292 0.000000 0.005367 0.000000
# 4 0.000000 0.000000 0.000000 0.053968 0.000000 -0.024240
# 5 0.005152 -0.000239 0.005367 0.000000 0.024081 0.000000
# 6 0.000000 0.000000 0.000000 -0.024240 0.000000 -0.048071
#
#
# Mechanical properties :
#
#
# Convention : Reuss Voigt Hill
#
# Bulk Modulus (GPa) = 32.56816 40.17269 36.37042
# Shear Modulus (GPa) = 63.89344 28.27172 46.08258
#
# Velocity S-wave (km/s) = 5.01146 3.33359 4.25603
# Velocity P-wave (km/s) = 6.80353 5.53244 6.20064
#
# Compressibility (1/GPa) = 0.03070484
#
# Stress axis : x y z
#
# Youngs Moduli (GPa) = 84.15298 81.97272 97.16546
#
# Poissons Ratio (x) = 0.00498 0.12557
# Poissons Ratio (y) = 0.00511 0.04679
# Poissons Ratio (z) = 0.10875 0.03948
#
# Static dielectric constant tensor:
#      x y z
#    x 2.050970 0.000000 -0.014390 
#    y 0.000000 1.962030 0.000000 
#    z -0.014390 0.000000 2.152730 
# 
# From -- ./inp_files/375564.got.cif
#   From: 2010.05.17/outbox.cif.g08.bks.cpg/sg12_188_cif.got.tgz:375564.got - 2010.06.03 13:09:07.
