data_PCOD9183477
_publ_section_title
;
Structure prediction by ZEFSAII (Michael W. Deem and Ramdas Pophale) SiO2 
 PCOD9183477
Probable space group: C 2/M
;
_chemical_formula_sum "Si O2"
_cell_formula_units_Z 56
_cell_length_a 8.531682
_cell_length_b 19.054549
_cell_length_c 22.751193
_cell_angle_alpha 90.000000
_cell_angle_beta 55.771224
_cell_angle_gamma 90.000000
_cell_volume 3057.996724
_symmetry_space_group_name_H-M "C 2/M"
_symmetry_group_IT_number 12
_symmetry_cell_setting 'monoclinic'
loop_
_space_group_symop_operation_xyz
x,y,z
-x,y,-z
-x,-y,-z
x,-y,z
1/2+x,1/2+y,z
1/2-x,1/2+y,-z
1/2-x,1/2-y,-z
1/2+x,1/2-y,z
loop_
_atom_site_type_symbol
_atom_site_label
_atom_site_fract_x
_atom_site_fract_y
_atom_site_fract_z
Si Si1 0.554121 0.671239 0.422722
Si Si2 0.078227 0.670120 0.155607
Si Si3 0.545049 0.329880 0.844393
Si Si4 0.741355 0.080617 0.712785
Si Si5 0.177712 0.671238 0.422722
Si Si6 0.188775 0.170345 0.000000
Si Si7 0.879709 0.080617 0.287215
O O1 0.500000 0.648772 0.500000
O O2 0.700743 0.620557 0.359056
O O3 0.362727 0.673346 0.424849
O O4 0.635581 0.750000 0.409612
O O5 0.262547 0.672070 0.158302
O O6 0.146447 0.641597 0.077146
O O7 0.005877 0.750000 0.162748
O O8 0.920367 0.622748 0.218967
O O9 0.577270 0.377252 0.781032
O O10 0.377885 0.358403 0.922854
O O11 0.929381 0.081217 0.713746
O O12 0.687194 0.000000 0.713533
O O13 0.222088 0.620556 0.359056
O O14 0.000000 0.648771 0.500000
O O15 0.250000 0.250000 0.000000
O O16 0.000000 0.170689 0.000000
O O17 0.827793 0.000000 0.286467
#
# Coordination Sequence:
#
# PCOD9183477 Si02
#       7
#     8   8   8   8   8   8   8
#     4  10  20  35  56  79 103 132 168 212 258 305
#     4  10  19  33  55  80 105 136 174 216 261 309
#     4  10  19  33  55  80 105 136 174 216 261 309
#     4  10  22  38  53  74 107 142 175 214 259 306
#     4  10  20  35  56  79 103 132 168 212 258 305
#     4   8  16  30  49  76 105 131 167 215 261 304
#     4  10  22  38  53  74 107 142 175 214 259 306
#
# _framework density 18.312643000000001
#
# number of rings (size 3 to 8) (size 9 to 14) (size 15 to 20)
#    0.000    2.286    0.000    3.429    0.000    6.857 
#    0.000    0.714    0.000    4.286    0.000    0.000 
#    0.000    0.000    0.000    0.000    0.000    0.000 
#
# Total GULP energy -156180.532874 kJ/mol
# GULP energy per Si atom -5577.876174 kJ/mol
# Density = 1.827096 g / cm^3
# Si number density = 18.312643 Si / 1000 Ang^3
#
#
#
# Elastic Constant Matrix: (Units=GPa)
#
#
# Indices 1 2 3 4 5 6 
#
# 1 24.0247 23.0819 36.1460 0.0000 2.4856 0.0000
# 2 23.0819 103.2584 118.3145 0.0000 4.8110 0.0000
# 3 36.1460 118.3145 225.6309 0.0000 7.6999 0.0000
# 4 0.0000 0.0000 0.0000 -29.3271 0.0000 -2.3598
# 5 2.4856 4.8110 7.6999 0.0000 18.8012 0.0000
# 6 0.0000 0.0000 0.0000 -2.3598 0.0000 17.3690
#
#
#
# Elastic Compliance Matrix: (Units=1/GPa)
#
#
# Indices 1 2 3 4 5 6 
#
# 1 0.056350 -0.005576 -0.005981 0.000000 -0.003573 0.000000
# 2 -0.005576 0.024832 -0.012106 0.000000 -0.000659 0.000000
# 3 -0.005981 -0.012106 0.011770 0.000000 -0.000932 0.000000
# 4 0.000000 0.000000 0.000000 -0.033729 0.000000 -0.004583
# 5 -0.003573 -0.000659 -0.000932 0.000000 0.054211 0.000000
# 6 0.000000 0.000000 0.000000 -0.004583 0.000000 0.056951
#
#
# Mechanical properties :
#
#
# Convention : Reuss Voigt Hill
#
# Bulk Modulus (GPa) = 21.91742 78.66656 50.29199
# Shear Modulus (GPa) = 21.46662 13.06006 17.26334
#
# Velocity S-wave (km/s) = 3.42750 2.67342 3.07367
# Velocity P-wave (km/s) = 5.25910 7.25123 6.33397
#
# Compressibility (1/GPa) = 0.04562582
#
# Stress axis : x y z
#
# Youngs Moduli (GPa) = 17.74622 40.27005 84.96314
#
# Poissons Ratio (x) = 0.22456 0.50818
# Poissons Ratio (y) = 0.09896 1.02852
# Poissons Ratio (z) = 0.10614 0.48749
#
# Static dielectric constant tensor:
#      x y z
#    x 1.632710 0.000000 0.001140 
#    y 0.000000 1.587940 0.000000 
#    z 0.001140 0.000000 1.655180 
# 
# From -- ./inp_files/333323.got.cif
#   From: 2010.05.17/outbox.cif.g08.bks.cpg/sg12_167_cif.got.tgz:333323.got - 2010.06.03 13:09:07.
