data_PCOD9183056
_publ_section_title
;
Structure prediction by ZEFSAII (Michael W. Deem and Ramdas Pophale) SiO2 
 PCOD9183056
Probable space group: C 2/M
;
_chemical_formula_sum "Si O2"
_cell_formula_units_Z 64
_cell_length_a 11.969917
_cell_length_b 18.598665
_cell_length_c 20.916834
_cell_angle_alpha 90.000000
_cell_angle_beta 135.458740
_cell_angle_gamma 90.000000
_cell_volume 3266.244444
_symmetry_space_group_name_H-M "C 2/M"
_symmetry_group_IT_number 12
_symmetry_cell_setting 'monoclinic'
loop_
_space_group_symop_operation_xyz
x,y,z
-x,y,-z
-x,-y,-z
x,-y,z
1/2+x,1/2+y,z
1/2-x,1/2+y,-z
1/2-x,1/2-y,-z
1/2+x,1/2-y,z
loop_
_atom_site_type_symbol
_atom_site_label
_atom_site_fract_x
_atom_site_fract_y
_atom_site_fract_z
Si Si1 0.635980 0.415797 0.108983
Si Si2 0.565146 0.305980 0.196179
Si Si3 0.424757 0.371443 0.564072
Si Si4 0.547175 0.076272 0.592787
Si Si5 0.445866 0.173340 0.203270
Si Si6 0.431459 0.776845 0.338968
Si Si7 0.095149 0.921205 0.302551
Si Si8 0.751733 0.916694 0.365378
O O1 0.661085 0.500000 0.140312
O O2 0.581730 0.359565 0.142350
O O3 0.796705 0.380944 0.145045
O O4 0.500000 0.417040 0.000000
O O5 0.460747 0.233076 0.153432
O O6 0.745502 0.276780 0.283736
O O7 0.506462 0.357871 0.229615
O O8 0.468766 0.287905 0.591151
O O9 0.368000 0.401373 0.609108
O O10 0.310720 0.386038 0.457839
O O11 0.592324 0.409115 0.615445
O O12 0.500000 0.080806 0.500000
O O13 0.499765 0.147219 0.609625
O O14 0.738494 0.074688 0.667945
O O15 0.488814 0.000000 0.595496
O O16 0.435080 0.219643 0.264285
O O17 0.605969 0.126865 0.276045
O O18 0.019197 0.000000 0.269228
O O19 0.710717 0.000000 0.355333
#
# Coordination Sequence:
#
# PCOD9183056 Si02
#       8
#     8   8   8   8   8   8   8   8
#     4  10  23  44  69  95 123 153 189 241 312 383
#     4  10  20  38  60  90 120 146 193 243 294 359
#     4  11  21  35  52  75 114 161 205 250 282 335
#     4   9  20  33  47  70 101 141 196 254 298 344
#     4  11  22  38  62  87 118 155 197 245 302 357
#     4  10  21  34  53  78 111 150 190 243 293 340
#     4  10  19  33  54  76 108 154 197 241 289 342
#     4  11  24  37  52  77 114 161 211 252 287 339
#
# _framework density 19.594369
#
# number of rings (size 3 to 8) (size 9 to 14) (size 15 to 20)
#    0.000    1.750    2.500    2.250    3.500    4.500 
#    0.000    0.000    0.000    0.000    0.000    0.000 
#    0.000   10.500    0.000    0.000    0.000    0.000 
#
# Total GULP energy -178547.992902 kJ/mol
# GULP energy per Si atom -5579.624778 kJ/mol
# Density = 1.954977 g / cm^3
# Si number density = 19.594369 Si / 1000 Ang^3
#
#
#
# Elastic Constant Matrix: (Units=GPa)
#
#
# Indices 1 2 3 4 5 6 
#
# 1 66.2879 47.2066 13.4913 0.0000 2.9932 0.0000
# 2 47.2066 179.2386 42.4494 0.0000 0.5451 0.0000
# 3 13.4913 42.4494 56.9926 0.0000 6.1535 0.0000
# 4 0.0000 0.0000 0.0000 25.8196 0.0000 -3.3134
# 5 2.9932 0.5451 6.1535 0.0000 14.7683 0.0000
# 6 0.0000 0.0000 0.0000 -3.3134 0.0000 1.1099
#
#
#
# Elastic Compliance Matrix: (Units=1/GPa)
#
#
# Indices 1 2 3 4 5 6 
#
# 1 0.018770 -0.004818 -0.000485 0.000000 -0.003424 0.000000
# 2 -0.004818 0.008064 -0.005172 0.000000 0.002834 0.000000
# 3 -0.000485 -0.005172 0.022494 0.000000 -0.009083 -0.000001
# 4 0.000000 0.000000 0.000000 0.062783 0.000000 0.187425
# 5 -0.003424 0.002834 -0.009083 0.000000 0.072087 -0.000002
# 6 0.000000 0.000000 -0.000001 0.187425 -0.000002 1.460486
#
#
# Mechanical properties :
#
#
# Convention : Reuss Voigt Hill
#
# Bulk Modulus (GPa) = 35.23798 56.53484 45.88641
# Shear Modulus (GPa) = 2.98491 21.63101 12.30796
#
# Velocity S-wave (km/s) = 1.23558 3.32616 2.50899
# Velocity P-wave (km/s) = 4.47865 6.60805 5.64467
#
# Compressibility (1/GPa) = 0.02837847
#
# Stress axis : x y z
#
# Youngs Moduli (GPa) = 53.27542 124.00097 44.45665
#
# Poissons Ratio (x) = 0.59748 0.02155
# Poissons Ratio (y) = 0.25670 0.22993
# Poissons Ratio (z) = 0.02583 0.64133
#
# Static dielectric constant tensor:
#      x y z
#    x 1.755030 0.000000 0.003590 
#    y 0.000000 1.738340 0.000000 
#    z 0.003590 0.000000 1.665020 
# 
# From -- ./inp_files/306241.got.cif
#   From: 2010.05.17/outbox.cif.g08.bks.cpg/sg12_154_cif.got.tgz:306241.got - 2010.06.03 13:09:07.
