data_PCOD9183073
_publ_section_title
;
Structure prediction by ZEFSAII (Michael W. Deem and Ramdas Pophale) SiO2 
 PCOD9183073
Probable space group: C 2/M
;
_chemical_formula_sum "Si O2"
_cell_formula_units_Z 56
_cell_length_a 19.694213
_cell_length_b 8.702191
_cell_length_c 28.977494
_cell_angle_alpha 90.000000
_cell_angle_beta 39.727799
_cell_angle_gamma 90.000000
_cell_volume 3174.130464
_symmetry_space_group_name_H-M "C 2/M"
_symmetry_group_IT_number 12
_symmetry_cell_setting 'monoclinic'
loop_
_space_group_symop_operation_xyz
x,y,z
-x,y,-z
-x,-y,-z
x,-y,z
1/2+x,1/2+y,z
1/2-x,1/2+y,-z
1/2-x,1/2-y,-z
1/2+x,1/2-y,z
loop_
_atom_site_type_symbol
_atom_site_label
_atom_site_fract_x
_atom_site_fract_y
_atom_site_fract_z
Si Si1 0.070485 0.313094 0.006690
Si Si2 0.182060 0.182794 0.600280
Si Si3 0.998174 0.316804 0.854092
Si Si4 0.413696 0.820151 0.438016
Si Si5 0.575482 0.681203 0.418282
Si Si6 0.691577 0.682430 0.700989
Si Si7 0.210519 0.815522 0.069748
O O1 0.067627 0.500000 0.006976
O O2 0.023676 0.266416 0.081345
O O3 0.196212 0.269967 0.942926
O O4 0.000000 0.258739 0.000000
O O5 0.305695 0.213514 0.523261
O O6 0.113574 0.278637 0.600113
O O7 0.160179 0.219885 0.664615
O O8 0.165840 0.000000 0.601217
O O9 0.986684 0.500000 0.859231
O O10 0.113376 0.266713 0.776812
O O11 0.909304 0.246437 0.866068
O O12 0.507595 0.717519 0.408505
O O13 0.438167 0.000000 0.430782
O O14 0.500000 0.734221 0.500000
O O15 0.594667 0.500000 0.413989
O O16 0.686588 0.767574 0.358260
O O17 0.682230 0.500000 0.712048
O O18 0.207889 0.000000 0.069704
O O19 0.250000 0.750000 0.000000
#
# Coordination Sequence:
#
# PCOD9183073 Si02
#       7
#     8   8   8   8   8   8   8
#     4   8  15  30  54  82 108 137 175 215 258 309
#     4   9  19  34  52  75 101 133 173 219 272 326
#     4  10  20  34  53  78 108 141 179 223 269 323
#     4  10  19  33  54  77 102 131 172 224 272 322
#     4  11  22  35  54  79 107 141 183 229 276 329
#     4  11  22  37  56  77 107 144 183 227 278 333
#     4   9  16  29  52  78 104 136 174 214 257 311
#
# _framework density 17.642627000000001
#
# number of rings (size 3 to 8) (size 9 to 14) (size 15 to 20)
#    0.000    2.286    1.429    3.000    0.000    2.286 
#    0.000    1.429    0.000   22.286    0.000    0.000 
#    0.000    0.000    0.000    0.000    0.000    0.000 
#
# Total GULP energy -156088.759604 kJ/mol
# GULP energy per Si atom -5574.598557 kJ/mol
# Density = 1.760247 g / cm^3
# Si number density = 17.642627 Si / 1000 Ang^3
#
#
#
# Elastic Constant Matrix: (Units=GPa)
#
#
# Indices 1 2 3 4 5 6 
#
# 1 109.3765 22.1221 37.5251 0.0000 -8.3454 0.0001
# 2 22.1221 27.5014 19.2372 0.0000 0.0624 -0.0001
# 3 37.5251 19.2372 72.4565 0.0000 -9.0989 0.0000
# 4 0.0000 0.0000 0.0000 26.0286 0.0000 -5.7616
# 5 -8.3454 0.0624 -9.0989 0.0000 20.0531 0.0000
# 6 0.0001 -0.0001 0.0000 -5.7616 0.0000 25.5016
#
#
#
# Elastic Compliance Matrix: (Units=1/GPa)
#
#
# Indices 1 2 3 4 5 6 
#
# 1 0.012194 -0.006981 -0.004052 0.000000 0.003257 0.000000
# 2 -0.006981 0.049309 -0.010456 0.000000 -0.007803 0.000000
# 3 -0.004052 -0.010456 0.019584 0.000000 0.007232 0.000000
# 4 0.000000 0.000000 0.000000 0.040442 0.000000 0.009137
# 5 0.003257 -0.007803 0.007232 0.000000 0.054529 0.000000
# 6 0.000000 0.000000 0.000000 0.009137 0.000000 0.041278
#
#
# Mechanical properties :
#
#
# Convention : Reuss Voigt Hill
#
# Bulk Modulus (GPa) = 26.24127 40.78924 33.51525
# Shear Modulus (GPa) = 18.31385 23.01332 20.66358
#
# Velocity S-wave (km/s) = 3.22537 3.61559 3.42604
# Velocity P-wave (km/s) = 5.36439 6.37180 5.88968
#
# Compressibility (1/GPa) = 0.03810792
#
# Stress axis : x y z
#
# Youngs Moduli (GPa) = 82.01024 20.28026 51.06104
#
# Poissons Ratio (x) = 0.14158 0.20692
# Poissons Ratio (y) = 0.57253 0.53389
# Poissons Ratio (z) = 0.33234 0.21205
#
# Static dielectric constant tensor:
#      x y z
#    x 1.619340 0.000000 -0.016330 
#    y 0.000000 1.590130 0.000000 
#    z -0.016330 0.000000 1.627880 
# 
# From -- ./inp_files/313273.got.cif
#   From: 2010.05.17/outbox.cif.g08.bks.cpg/sg12_157_cif.got.tgz:313273.got - 2010.06.03 13:09:07.
