data_PCOD9183787
_publ_section_title
;
Structure prediction by ZEFSAII (Michael W. Deem and Ramdas Pophale) SiO2 
 PCOD9183787
Probable space group: C 2/M
;
_chemical_formula_sum "Si O2"
_cell_formula_units_Z 56
_cell_length_a 30.883128
_cell_length_b 7.905416
_cell_length_c 20.819035
_cell_angle_alpha 90.000000
_cell_angle_beta 148.454861
_cell_angle_gamma 90.000000
_cell_volume 2659.191096
_symmetry_space_group_name_H-M "C 2/M"
_symmetry_group_IT_number 12
_symmetry_cell_setting 'monoclinic'
loop_
_space_group_symop_operation_xyz
x,y,z
-x,y,-z
-x,-y,-z
x,-y,z
1/2+x,1/2+y,z
1/2-x,1/2+y,-z
1/2-x,1/2-y,-z
1/2+x,1/2-y,z
loop_
_atom_site_type_symbol
_atom_site_label
_atom_site_fract_x
_atom_site_fract_y
_atom_site_fract_z
Si Si1 0.303314 0.194199 0.704015
Si Si2 0.860581 0.301266 0.439869
Si Si3 0.562944 0.202159 0.228020
Si Si4 0.159733 0.296318 0.860010
Si Si5 0.905209 0.706280 0.361324
Si Si6 0.427521 0.310199 0.961563
Si Si7 0.508408 0.207737 0.295626
O O1 0.217873 0.281077 0.613349
O O2 0.361541 0.268670 0.720904
O O3 0.357255 0.204736 0.837531
O O4 0.285726 0.000000 0.666312
O O5 0.875969 0.500000 0.451738
O O6 0.852264 0.236865 0.356697
O O7 0.940102 0.232398 0.577702
O O8 0.553905 0.266740 0.288632
O O9 0.573879 0.000000 0.243010
O O10 0.475353 0.237759 0.082801
O O11 0.157062 0.500000 0.854158
O O12 0.132776 0.234334 0.754489
O O13 0.086531 0.240783 0.815832
O O14 0.250000 0.250000 0.000000
O O15 0.905448 0.500000 0.356689
O O16 0.000000 0.753231 0.500000
O O17 0.396472 0.500000 0.934761
O O18 0.500000 0.319241 0.000000
O O19 0.510330 0.000000 0.296568
#
# Coordination Sequence:
#
# PCOD9183787 Si02
#       7
#     8   8   8   8   8   8   8
#     4  10  20  33  49  74 109 143 176 216 266 321
#     4  10  19  33  56  81 103 135 185 229 261 312
#     4   9  18  33  52  74 105 145 178 211 264 324
#     4  10  20  36  58  84 112 139 175 224 277 329
#     4   9  16  32  59  83 102 135 182 226 268 318
#     4   9  17  31  51  73  97 131 178 225 264 306
#     4   9  18  34  56  78 102 140 183 219 262 323
#
# _framework density 21.059035000000002
#
# number of rings (size 3 to 8) (size 9 to 14) (size 15 to 20)
#    0.000    2.571    1.429    0.857    0.000    4.000 
#    0.000    5.714    0.000    0.857    0.000    0.000 
#    0.000    0.000    0.000    0.000    0.000    0.000 
#
# Total GULP energy -156030.462742 kJ/mol
# GULP energy per Si atom -5572.516526 kJ/mol
# Density = 2.101110 g / cm^3
# Si number density = 21.059035 Si / 1000 Ang^3
#
#
#
# Elastic Constant Matrix: (Units=GPa)
#
#
# Indices 1 2 3 4 5 6 
#
# 1 136.7231 4.2641 56.5089 0.0000 -6.5043 0.0000
# 2 4.2641 13.9944 -4.5117 0.0000 -0.3568 0.0000
# 3 56.5089 -4.5117 102.6753 0.0000 2.5014 0.0000
# 4 0.0000 0.0000 0.0000 12.8623 0.0000 7.1488
# 5 -6.5043 -0.3568 2.5014 0.0000 28.2136 0.0000
# 6 0.0000 0.0000 0.0000 7.1488 0.0000 9.9129
#
#
#
# Elastic Compliance Matrix: (Units=1/GPa)
#
#
# Indices 1 2 3 4 5 6 
#
# 1 0.009982 -0.004832 -0.005773 0.000000 0.002752 0.000000
# 2 -0.004832 0.074835 0.005965 0.000000 -0.000696 0.000000
# 3 -0.005773 0.005965 0.013238 0.000000 -0.002429 0.000000
# 4 0.000000 0.000000 0.000000 0.129754 0.000000 -0.093573
# 5 0.002752 -0.000696 -0.002429 0.000000 0.036285 0.000000
# 6 0.000000 0.000000 0.000000 -0.093573 0.000000 0.168359
#
#
# Mechanical properties :
#
#
# Convention : Reuss Voigt Hill
#
# Bulk Modulus (GPa) = 11.26463 40.65727 25.96095
# Shear Modulus (GPa) = 10.60841 23.33986 16.97414
#
# Velocity S-wave (km/s) = 2.24686 3.33274 2.84214
# Velocity P-wave (km/s) = 3.47734 5.84446 4.80883
#
# Compressibility (1/GPa) = 0.08877346
#
# Stress axis : x y z
#
# Youngs Moduli (GPa) = 100.18334 13.36277 75.54031
#
# Poissons Ratio (x) = 0.06457 0.43609
# Poissons Ratio (y) = 0.48413 -0.45059
# Poissons Ratio (z) = 0.57835 -0.07971
#
# Static dielectric constant tensor:
#      x y z
#    x 1.790040 0.000000 -0.011790 
#    y 0.000000 1.779220 0.000000 
#    z -0.011790 0.000000 1.753040 
# 
# From -- ./inp_files/281735.got.cif
#   From: 2010.05.17/outbox.cif.g08.bks.cpg/sg12_141_cif.got.tgz:281735.got - 2010.06.03 13:09:07.
