data_PCOD9183788
_publ_section_title
;
Structure prediction by ZEFSAII (Michael W. Deem and Ramdas Pophale) SiO2 
 PCOD9183788
Probable space group: C 2/M
;
_chemical_formula_sum "Si O2"
_cell_formula_units_Z 48
_cell_length_a 11.125121
_cell_length_b 23.451707
_cell_length_c 14.890132
_cell_angle_alpha 90.000000
_cell_angle_beta 142.001420
_cell_angle_gamma 90.000000
_cell_volume 2391.695863
_symmetry_space_group_name_H-M "C 2/M"
_symmetry_group_IT_number 12
_symmetry_cell_setting 'monoclinic'
loop_
_space_group_symop_operation_xyz
x,y,z
-x,y,-z
-x,-y,-z
x,-y,z
1/2+x,1/2+y,z
1/2-x,1/2+y,-z
1/2-x,1/2-y,-z
1/2+x,1/2-y,z
loop_
_atom_site_type_symbol
_atom_site_label
_atom_site_fract_x
_atom_site_fract_y
_atom_site_fract_z
Si Si1 0.640775 0.565680 0.501817
Si Si2 0.784217 0.841580 0.594564
Si Si3 0.432044 0.249128 0.208422
Si Si4 0.672024 0.153953 0.728598
Si Si5 0.598557 0.833289 0.961095
Si Si6 0.595381 0.934312 0.829062
O O1 0.500000 0.583364 0.500000
O O2 0.595247 0.500000 0.451346
O O3 0.620668 0.607475 0.405923
O O4 0.864197 0.567044 0.668297
O O5 0.557896 0.841564 0.432196
O O6 0.786307 0.849760 0.703236
O O7 0.895797 0.782877 0.641896
O O8 0.297814 0.210756 0.194758
O O9 0.510468 0.205205 0.179001
O O10 0.300258 0.299016 0.089313
O O11 0.698896 0.099473 0.808401
O O12 0.623615 0.895611 0.933513
O O13 0.500000 0.835129 0.000000
O O14 0.654386 0.000000 0.872629
#
# Coordination Sequence:
#
# PCOD9183788 Si02
#       6
#     8   8   8   8   8   8
#     4   9  19  35  54  79 108 136 170 217 269 314
#     4  10  19  33  56  81 104 138 173 213 263 318
#     4  10  20  35  51  75 109 140 171 222 257 307
#     4   9  19  35  54  81 108 133 176 213 266 319
#     4  10  21  34  52  74 102 142 183 210 257 312
#     4   9  19  36  55  75 104 139 176 221 263 307
#
# _framework density 20.069441999999999
#
# number of rings (size 3 to 8) (size 9 to 14) (size 15 to 20)
#    0.000    2.500    0.000    1.500    2.333    1.000 
#    6.000    4.167    0.000    1.000    0.000    0.000 
#    0.000    0.000    0.000    0.000    0.000    0.000 
#
# Total GULP energy -133905.553328 kJ/mol
# GULP energy per Si atom -5579.398055 kJ/mol
# Density = 2.002376 g / cm^3
# Si number density = 20.069442 Si / 1000 Ang^3
#
#
#
# Elastic Constant Matrix: (Units=GPa)
#
#
# Indices 1 2 3 4 5 6 
#
# 1 105.1433 75.3283 19.9382 0.0000 -33.5078 0.0000
# 2 75.3283 175.0482 44.9540 0.0000 -27.7349 0.0000
# 3 19.9382 44.9540 33.7193 0.0000 -18.7444 0.0000
# 4 0.0000 0.0000 0.0000 30.4564 0.0000 -4.3073
# 5 -33.5078 -27.7349 -18.7444 0.0000 28.2770 0.0000
# 6 0.0000 0.0000 0.0000 -4.3073 0.0000 17.1001
#
#
#
# Elastic Compliance Matrix: (Units=1/GPa)
#
#
# Indices 1 2 3 4 5 6 
#
# 1 0.021140 -0.008350 0.012675 0.000000 0.025264 0.000000
# 2 -0.008350 0.012017 -0.015885 0.000000 -0.008638 0.000000
# 3 0.012675 -0.015885 0.068135 0.000000 0.044605 0.000000
# 4 0.000000 0.000000 0.000000 0.034047 0.000000 0.008576
# 5 0.025264 -0.008638 0.044605 0.000000 0.086397 0.000000
# 6 0.000000 0.000000 0.000000 0.008576 0.000000 0.060639
#
#
# Mechanical properties :
#
#
# Convention : Reuss Voigt Hill
#
# Bulk Modulus (GPa) = 12.79208 66.03909 39.41559
# Shear Modulus (GPa) = 15.08059 26.74605 20.91332
#
# Velocity S-wave (km/s) = 2.74418 3.65454 3.23158
# Velocity P-wave (km/s) = 4.05320 7.12631 5.79710
#
# Compressibility (1/GPa) = 0.07817338
#
# Stress axis : x y z
#
# Youngs Moduli (GPa) = 47.30283 83.21819 14.67673
#
# Poissons Ratio (x) = 0.69484 -0.18603
# Poissons Ratio (y) = 0.39496 0.23314
# Poissons Ratio (z) = -0.59957 1.32191
#
# Static dielectric constant tensor:
#      x y z
#    x 1.702050 0.000000 -0.000360 
#    y 0.000000 1.692840 0.000000 
#    z -0.000360 0.000000 1.770140 
# 
# From -- ./inp_files/50698.got.cif
#   From: 2010.05.17/outbox.cif.g08.bks.cpg/sg12_26_cif.got.tgz:50698.got - 2010.06.03 13:09:07.
