data_PCOD9183903
_publ_section_title
;
Structure prediction by ZEFSAII (Michael W. Deem and Ramdas Pophale) SiO2 
 PCOD9183903
Probable space group: C 2/M
;
_chemical_formula_sum "Si O2"
_cell_formula_units_Z 64
_cell_length_a 8.964959
_cell_length_b 16.799759
_cell_length_c 29.410269
_cell_angle_alpha 90.000000
_cell_angle_beta 48.804991
_cell_angle_gamma 90.000000
_cell_volume 3333.042598
_symmetry_space_group_name_H-M "C 2/M"
_symmetry_group_IT_number 12
_symmetry_cell_setting 'monoclinic'
loop_
_space_group_symop_operation_xyz
x,y,z
-x,y,-z
-x,-y,-z
x,-y,z
1/2+x,1/2+y,z
1/2-x,1/2+y,-z
1/2-x,1/2-y,-z
1/2+x,1/2-y,z
loop_
_atom_site_type_symbol
_atom_site_label
_atom_site_fract_x
_atom_site_fract_y
_atom_site_fract_z
Si Si1 0.519747 0.141803 0.181791
Si Si2 0.066308 0.904568 0.935017
Si Si3 0.715847 0.788002 0.457148
Si Si4 0.519571 0.088085 0.283958
Si Si5 0.211070 0.403207 0.938869
Si Si6 0.166078 0.793743 0.735489
Si Si7 0.843987 0.184309 0.621056
Si Si8 0.181319 0.091624 0.184652
O O1 0.738134 0.143443 0.117266
O O2 0.528389 0.095929 0.227909
O O3 0.423773 0.226759 0.213284
O O4 0.376497 0.097962 0.175621
O O5 0.887807 0.882417 0.937362
O O6 0.107146 0.000000 0.921258
O O7 0.000000 0.892219 0.000000
O O8 0.500000 0.831243 0.500000
O O9 0.750000 0.750000 0.500000
O O10 0.686705 0.722149 0.423072
O O11 0.928348 0.831379 0.409613
O O12 0.664315 0.154951 0.274632
O O13 0.298172 0.108856 0.344664
O O14 0.580262 0.000000 0.285995
O O15 0.199202 0.500000 0.940348
O O16 0.265267 0.379198 0.876842
O O17 0.000000 0.373778 0.000000
O O18 0.256737 0.749566 0.673771
O O19 0.987868 0.853454 0.759999
O O20 0.114921 0.000000 0.194896
#
# Coordination Sequence:
#
# PCOD9183903 Si02
#       8
#     8   8   8   8   8   8   8   8
#     4  11  22  37  56  85 116 150 196 247 296 350
#     4  10  19  33  56  83 114 153 197 246 302 366
#     4   9  18  34  62  94 119 154 200 238 272 335
#     4  11  22  37  59  86 120 159 196 241 295 351
#     4   9  18  33  53  77 108 146 189 237 288 349
#     4  11  23  38  58  82 121 156 193 239 295 346
#     4  10  19  36  59  93 119 153 199 242 282 338
#     4  11  22  36  56  83 113 149 194 241 295 354
#
# _framework density 19.201674000000001
#
# number of rings (size 3 to 8) (size 9 to 14) (size 15 to 20)
#    0.000    1.750    1.250    4.500    1.750    3.000 
#    0.000    0.625    0.000    7.500    0.000    0.000 
#    0.000    0.000    0.000    0.000    0.000    0.125 
#
# Total GULP energy -178607.093425 kJ/mol
# GULP energy per Si atom -5581.471670 kJ/mol
# Density = 1.915797 g / cm^3
# Si number density = 19.201674 Si / 1000 Ang^3
#
#
#
# Elastic Constant Matrix: (Units=GPa)
#
#
# Indices 1 2 3 4 5 6 
#
# 1 120.6160 17.7224 51.2058 -0.0012 -8.1744 0.0003
# 2 17.7224 69.2857 29.9772 -0.0006 -6.4624 0.0000
# 3 51.2058 29.9772 104.0927 -0.0032 -11.8125 -0.0014
# 4 -0.0012 -0.0006 -0.0032 122.3827 0.0022 -118.0047
# 5 -8.1744 -6.4624 -11.8125 0.0022 48.9432 -0.0010
# 6 0.0003 0.0000 -0.0014 -118.0047 -0.0010 119.0572
#
#
#
# Elastic Compliance Matrix: (Units=1/GPa)
#
#
# Indices 1 2 3 4 5 6 
#
# 1 0.010507 -0.000491 -0.004972 -0.000003 0.000490 -0.000003
# 2 -0.000491 0.016564 -0.004411 -0.000002 0.001041 -0.000002
# 3 -0.004972 -0.004411 0.013533 0.000010 0.001853 0.000010
# 4 -0.000003 -0.000002 0.000010 0.184461 -0.000003 0.182831
# 5 0.000490 0.001041 0.001853 -0.000003 0.021098 -0.000003
# 6 -0.000003 -0.000002 0.000010 0.182831 -0.000003 0.189614
#
#
# Mechanical properties :
#
#
# Convention : Reuss Voigt Hill
#
# Bulk Modulus (GPa) = 47.94406 54.64501 51.29454
# Shear Modulus (GPa) = 10.81137 71.08257 40.94697
#
# Velocity S-wave (km/s) = 2.37543 6.09092 4.62288
# Velocity P-wave (km/s) = 5.70495 8.83097 7.43412
#
# Compressibility (1/GPa) = 0.02085764
#
# Stress axis : x y z
#
# Youngs Moduli (GPa) = 95.17735 60.37227 73.89349
#
# Poissons Ratio (x) = 0.02963 0.36737
# Poissons Ratio (y) = 0.04671 0.32592
# Poissons Ratio (z) = 0.47318 0.26628
#
# Static dielectric constant tensor:
#      x y z
#    x 1.668400 0.000000 -0.024580 
#    y 0.000000 1.679610 0.000000 
#    z -0.024580 0.000000 1.686520 
# 
# From -- ./inp_files/372538.got.cif
#   From: 2010.05.17/outbox.cif.g08.bks.cpg/sg12_187_cif.got.tgz:372538.got - 2010.06.03 13:09:07.
