data_PCOD9183282
_publ_section_title
;
Structure prediction by ZEFSAII (Michael W. Deem and Ramdas Pophale) SiO2 
 PCOD9183282
Probable space group: C 2/M
;
_chemical_formula_sum "Si O2"
_cell_formula_units_Z 52
_cell_length_a 22.677030
_cell_length_b 9.504540
_cell_length_c 20.520071
_cell_angle_alpha 90.000000
_cell_angle_beta 39.329047
_cell_angle_gamma 90.000000
_cell_volume 2803.044159
_symmetry_space_group_name_H-M "C 2/M"
_symmetry_group_IT_number 12
_symmetry_cell_setting 'monoclinic'
loop_
_space_group_symop_operation_xyz
x,y,z
-x,y,-z
-x,-y,-z
x,-y,z
1/2+x,1/2+y,z
1/2-x,1/2+y,-z
1/2-x,1/2-y,-z
1/2+x,1/2-y,z
loop_
_atom_site_type_symbol
_atom_site_label
_atom_site_fract_x
_atom_site_fract_y
_atom_site_fract_z
Si Si1 0.245468 0.663397 0.327330
Si Si2 0.707662 0.841027 0.835259
Si Si3 0.826989 0.667673 0.475700
Si Si4 0.208235 0.169576 0.098114
Si Si5 0.537412 0.344515 0.826902
Si Si6 0.024721 0.666359 0.237115
Si Si7 0.500000 0.249685 0.000000
O O1 0.226573 0.500000 0.329912
O O2 0.244982 0.746575 0.260451
O O3 0.180615 0.711988 0.442139
O O4 0.351120 0.673109 0.264813
O O5 0.731797 0.799763 0.888411
O O6 0.740075 0.000000 0.798722
O O7 0.596644 0.833745 0.919265
O O8 0.805992 0.500000 0.491476
O O9 0.750000 0.750000 0.500000
O O10 0.928718 0.687468 0.358339
O O11 0.106886 0.237813 0.194811
O O12 0.205768 0.000000 0.090325
O O13 0.250000 0.250000 0.000000
O O14 0.516370 0.500000 0.817641
O O15 0.493878 0.223461 0.819985
O O16 0.503080 0.336364 0.930468
O O17 0.047714 0.500000 0.217344
#
# Coordination Sequence:
#
# PCOD9183282 Si02
#       7
#     8   8   8   8   8   8   4
#     4   9  19  35  56  83 116 150 186 235 293 349
#     4  10  22  38  57  83 113 148 190 239 295 350
#     4  10  20  36  58  88 121 154 194 242 293 347
#     4  11  24  42  62  85 118 157 198 242 290 350
#     4  10  19  33  54  81 114 150 190 235 289 347
#     4  11  23  37  58  87 118 154 198 241 289 346
#     4  10  20  34  56  84 114 142 186 240 296 354
#
# _framework density 18.551259000000002
#
# number of rings (size 3 to 8) (size 9 to 14) (size 15 to 20)
#    0.000    1.846    1.538    2.308    0.000    7.385 
#    0.000    0.769    0.000    4.615    0.000    0.000 
#    0.000    0.000    0.000    0.000    0.000    0.000 
#
# Total GULP energy -145093.161258 kJ/mol
# GULP energy per Si atom -5580.506202 kJ/mol
# Density = 1.850904 g / cm^3
# Si number density = 18.551259 Si / 1000 Ang^3
#
#
#
# Elastic Constant Matrix: (Units=GPa)
#
#
# Indices 1 2 3 4 5 6 
#
# 1 98.0656 55.6460 46.8819 0.0000 20.5662 -0.0001
# 2 55.6460 84.5084 47.3602 0.0000 11.5942 0.0000
# 3 46.8819 47.3602 108.4828 0.0000 19.8311 0.0000
# 4 0.0000 0.0000 0.0000 22.8305 0.0000 2.5733
# 5 20.5662 11.5942 19.8311 0.0000 30.2976 0.0000
# 6 -0.0001 0.0000 0.0000 2.5733 0.0000 29.4720
#
#
#
# Elastic Compliance Matrix: (Units=1/GPa)
#
#
# Indices 1 2 3 4 5 6 
#
# 1 0.018396 -0.009807 -0.002353 0.000000 -0.007194 0.000000
# 2 -0.009807 0.020974 -0.005303 0.000000 0.002102 0.000000
# 3 -0.002353 -0.005303 0.013503 0.000000 -0.005211 0.000000
# 4 0.000000 0.000000 0.000000 0.044236 0.000000 -0.003862
# 5 -0.007194 0.002102 -0.005211 0.000000 0.040496 0.000000
# 6 0.000000 0.000000 0.000000 -0.003862 0.000000 0.034268
#
#
# Mechanical properties :
#
#
# Convention : Reuss Voigt Hill
#
# Bulk Modulus (GPa) = 55.72131 65.64812 60.68471
# Shear Modulus (GPa) = 23.49822 25.93127 24.71475
#
# Velocity S-wave (km/s) = 3.56288 3.74280 3.65395
# Velocity P-wave (km/s) = 6.85763 7.35814 7.11229
#
# Compressibility (1/GPa) = 0.01794645
#
# Stress axis : x y z
#
# Youngs Moduli (GPa) = 54.35945 47.67742 74.05922
#
# Poissons Ratio (x) = 0.46759 0.17429
# Poissons Ratio (y) = 0.53312 0.39271
# Poissons Ratio (z) = 0.12793 0.25281
#
# Static dielectric constant tensor:
#      x y z
#    x 1.631870 0.000000 0.002100 
#    y 0.000000 1.638640 0.000000 
#    z 0.002100 0.000000 1.656890 
# 
# From -- ./inp_files/324029.got.cif
#   From: 2010.05.17/outbox.cif.g08.bks.cpg/sg12_163_cif.got.tgz:324029.got - 2010.06.03 13:09:07.
