data_PCOD9183546
_publ_section_title
;
Structure prediction by ZEFSAII (Michael W. Deem and Ramdas Pophale) SiO2 
 PCOD9183546
Probable space group: C 2/M
;
_chemical_formula_sum "Si O2"
_cell_formula_units_Z 56
_cell_length_a 12.262389
_cell_length_b 16.008898
_cell_length_c 12.501674
_cell_angle_alpha 90.000000
_cell_angle_beta 69.856028
_cell_angle_gamma 90.000000
_cell_volume 2304.049274
_symmetry_space_group_name_H-M "C 2/M"
_symmetry_group_IT_number 12
_symmetry_cell_setting 'monoclinic'
loop_
_space_group_symop_operation_xyz
x,y,z
-x,y,-z
-x,-y,-z
x,-y,z
1/2+x,1/2+y,z
1/2-x,1/2+y,-z
1/2-x,1/2-y,-z
1/2+x,1/2-y,z
loop_
_atom_site_type_symbol
_atom_site_label
_atom_site_fract_x
_atom_site_fract_y
_atom_site_fract_z
Si Si1 0.698444 0.331190 0.777470
Si Si2 0.108274 0.226628 0.413999
Si Si3 0.803391 0.093472 0.745122
Si Si4 0.911974 0.599062 0.829130
Si Si5 0.110481 0.407785 0.618839
Si Si6 0.659819 0.799788 0.955609
Si Si7 0.170882 0.096073 0.576380
O O1 0.781348 0.272731 0.674422
O O2 0.785440 0.385232 0.821262
O O3 0.625217 0.269778 0.878508
O O4 0.637723 0.388003 0.709897
O O5 0.094837 0.155351 0.326832
O O6 0.130783 0.169110 0.510900
O O7 0.000000 0.277682 0.500000
O O8 0.708245 0.090905 0.680387
O O9 0.733789 0.130636 0.867653
O O10 0.844708 0.000000 0.749104
O O11 0.930902 0.500000 0.843024
O O12 0.002923 0.637280 0.711725
O O13 0.922589 0.651357 0.934458
O O14 0.061004 0.500000 0.617836
O O15 0.188572 0.394071 0.488506
O O16 0.750000 0.750000 0.000000
O O17 0.142789 0.000000 0.553468
#
# Coordination Sequence:
#
# PCOD9183546 Si02
#       7
#     8   8   8   8   8   8   8
#     4  10  21  35  52  80 116 146 180 224 281 331
#     4  10  21  35  54  82 110 146 186 222 272 328
#     4   9  17  33  54  75 102 139 180 229 275 316
#     4  10  19  33  55  81 109 145 189 225 264 333
#     4   8  17  30  49  81 109 133 170 216 272 324
#     4   9  19  34  49  71 106 142 184 225 270 323
#     4  10  20  36  57  81 114 149 180 224 275 328
#
# _framework density 24.305035
#
# number of rings (size 3 to 8) (size 9 to 14) (size 15 to 20)
#    0.000    2.571    0.000    2.571    2.000    1.714 
#    0.000    4.286    3.143    0.000    0.000    0.000 
#    0.000   12.286    0.000    0.000    0.000    0.000 
#
# Total GULP energy -156038.062510 kJ/mol
# GULP energy per Si atom -5572.787947 kJ/mol
# Density = 2.424972 g / cm^3
# Si number density = 24.305035 Si / 1000 Ang^3
#
#
#
# Elastic Constant Matrix: (Units=GPa)
#
#
# Indices 1 2 3 4 5 6 
#
# 1 24.6511 -5.7893 -3.7319 0.0000 -2.8969 0.0000
# 2 -5.7893 69.6845 25.8548 0.0000 2.7807 0.0000
# 3 -3.7319 25.8548 133.3105 0.0000 1.0556 0.0000
# 4 0.0000 0.0000 0.0000 28.4229 0.0000 3.3197
# 5 -2.8969 2.7807 1.0556 0.0000 35.2307 0.0000
# 6 0.0000 0.0000 0.0000 3.3197 0.0000 18.2902
#
#
#
# Elastic Compliance Matrix: (Units=1/GPa)
#
#
# Indices 1 2 3 4 5 6 
#
# 1 0.041758 0.003145 0.000534 0.000000 0.003169 0.000000
# 2 0.003145 0.015745 -0.002959 0.000000 -0.000896 0.000000
# 3 0.000534 -0.002959 0.008090 0.000000 0.000035 0.000000
# 4 0.000000 0.000000 0.000000 0.035945 0.000000 -0.006524
# 5 0.003169 -0.000896 0.000035 0.000000 0.028715 0.000000
# 6 0.000000 0.000000 0.000000 -0.006524 0.000000 0.055858
#
#
# Mechanical properties :
#
#
# Convention : Reuss Voigt Hill
#
# Bulk Modulus (GPa) = 14.91804 28.92371 21.92087
# Shear Modulus (GPa) = 24.15287 30.47627 27.31457
#
# Velocity S-wave (km/s) = 3.15578 3.54490 3.35598
# Velocity P-wave (km/s) = 4.40792 5.35548 4.90464
#
# Compressibility (1/GPa) = 0.06703294
#
# Stress axis : x y z
#
# Youngs Moduli (GPa) = 23.94749 63.51193 123.61327
#
# Poissons Ratio (x) = -0.19972 -0.06601
# Poissons Ratio (y) = -0.07531 0.36572
# Poissons Ratio (z) = -0.01279 0.18790
#
# Static dielectric constant tensor:
#      x y z
#    x 2.069950 0.000000 -0.017810 
#    y 0.000000 2.117270 0.000000 
#    z -0.017810 0.000000 1.955930 
# 
# From -- ./inp_files/145462.got.cif
#   From: 2010.05.17/outbox.cif.g08.bks.cpg/sg12_73_cif.got.tgz:145462.got - 2010.06.03 13:09:07.
