data_PCOD9183819
_publ_section_title
;
Structure prediction by ZEFSAII (Michael W. Deem and Ramdas Pophale) SiO2 
 PCOD9183819
Probable space group: C 2/M
;
_chemical_formula_sum "Si O2"
_cell_formula_units_Z 64
_cell_length_a 23.325812
_cell_length_b 9.086229
_cell_length_c 23.258173
_cell_angle_alpha 90.000000
_cell_angle_beta 47.385717
_cell_angle_gamma 90.000000
_cell_volume 3627.701685
_symmetry_space_group_name_H-M "C 2/M"
_symmetry_group_IT_number 12
_symmetry_cell_setting 'monoclinic'
loop_
_space_group_symop_operation_xyz
x,y,z
-x,y,-z
-x,-y,-z
x,-y,z
1/2+x,1/2+y,z
1/2-x,1/2+y,-z
1/2-x,1/2-y,-z
1/2+x,1/2-y,z
loop_
_atom_site_type_symbol
_atom_site_label
_atom_site_fract_x
_atom_site_fract_y
_atom_site_fract_z
Si Si1 0.401016 0.175352 0.635832
Si Si2 0.558081 0.823341 0.597620
Si Si3 0.629096 0.325075 0.098903
Si Si4 0.287229 0.825013 0.062045
Si Si5 0.657786 0.324943 0.437347
Si Si6 0.527431 0.823042 0.750057
Si Si7 0.324949 0.175802 0.271331
Si Si8 0.231999 0.824866 0.803245
O O1 0.477727 0.215301 0.619288
O O2 0.391922 0.259411 0.581983
O O3 0.322821 0.205011 0.725699
O O4 0.403499 0.000000 0.622374
O O5 0.627564 0.746756 0.516259
O O6 0.550734 0.782062 0.669234
O O7 0.567229 0.000000 0.588161
O O8 0.621784 0.500000 0.096110
O O9 0.701522 0.298084 0.092958
O O10 0.550987 0.256663 0.177468
O O11 0.652583 0.248728 0.023048
O O12 0.290012 0.753932 0.122813
O O13 0.299665 0.000000 0.056177
O O14 0.648836 0.500000 0.445493
O O15 0.747620 0.290571 0.361229
O O16 0.597886 0.788709 0.745476
O O17 0.514976 0.000000 0.759232
O O18 0.316488 0.262080 0.217509
O O19 0.323838 0.000000 0.260683
O O20 0.222592 0.000000 0.814697
#
# Coordination Sequence:
#
# PCOD9183819 Si02
#       8
#     8   8   8   8   8   8   8   8
#     4   9  18  32  50  74 105 137 169 211 264 318
#     4  10  20  33  51  75 102 135 175 216 262 318
#     4  10  21  36  56  84 114 140 170 213 259 305
#     4  10  20  35  57  84 114 144 170 203 256 318
#     4  10  20  33  50  74 103 135 174 219 264 310
#     4  10  21  38  57  75 102 142 181 217 263 318
#     4   9  20  38  55  73 103 142 180 219 266 316
#     4  10  19  33  56  82 106 137 179 222 261 306
#
# _framework density 17.642022999999998
#
# number of rings (size 3 to 8) (size 9 to 14) (size 15 to 20)
#    0.000    2.250    0.000    2.625    0.000    7.000 
#    0.000    0.625    0.000    3.750    0.000    0.000 
#    0.000    0.000    0.000    0.000    0.000    0.000 
#
# Total GULP energy -178692.991715 kJ/mol
# GULP energy per Si atom -5584.155991 kJ/mol
# Density = 1.760187 g / cm^3
# Si number density = 17.642023 Si / 1000 Ang^3
#
#
#
# Elastic Constant Matrix: (Units=GPa)
#
#
# Indices 1 2 3 4 5 6 
#
# 1 69.6400 48.3808 68.0783 0.0003 13.4646 -0.0003
# 2 48.3808 50.2888 70.6803 0.0004 13.8479 -0.0004
# 3 68.0783 70.6803 157.8351 0.0002 32.3008 -0.0002
# 4 0.0003 0.0004 0.0002 37.5543 -0.0001 0.3818
# 5 13.4646 13.8479 32.3008 -0.0001 12.3172 0.0002
# 6 -0.0003 -0.0004 -0.0002 0.3818 0.0002 20.9045
#
#
#
# Elastic Compliance Matrix: (Units=1/GPa)
#
#
# Indices 1 2 3 4 5 6 
#
# 1 0.043305 -0.041611 0.000149 0.000000 -0.000949 0.000000
# 2 -0.041611 0.093831 -0.025448 -0.000001 0.006731 0.000001
# 3 0.000149 -0.025448 0.025566 0.000000 -0.038597 0.000000
# 4 0.000000 -0.000001 0.000000 0.026633 0.000001 -0.000486
# 5 -0.000949 0.006731 -0.038597 0.000001 0.175875 -0.000002
# 6 0.000000 0.000001 0.000000 -0.000486 -0.000002 0.047846
#
#
# Mechanical properties :
#
#
# Convention : Reuss Voigt Hill
#
# Bulk Modulus (GPa) = 34.62229 72.44918 53.53573
# Shear Modulus (GPa) = 8.98469 20.19684 14.59076
#
# Velocity S-wave (km/s) = 2.25917 3.38718 2.87896
# Velocity P-wave (km/s) = 5.14515 7.51350 6.43915
#
# Compressibility (1/GPa) = 0.02888313
#
# Stress axis : x y z
#
# Youngs Moduli (GPa) = 23.09202 10.65750 39.11415
#
# Poissons Ratio (x) = 0.44346 -0.00584
# Poissons Ratio (y) = 0.96087 0.99538
# Poissons Ratio (z) = -0.00345 0.27121
#
# Static dielectric constant tensor:
#      x y z
#    x 1.579640 0.000000 -0.005990 
#    y 0.000000 1.585540 0.000000 
#    z -0.005990 0.000000 1.580080 
# 
# From -- ./inp_files/324164.got.cif
#   From: 2010.05.17/outbox.cif.g08.bks.cpg/sg12_163_cif.got.tgz:324164.got - 2010.06.03 13:09:07.
