data_PCOD9183911
_publ_section_title
;
Structure prediction by ZEFSAII (Michael W. Deem and Ramdas Pophale) SiO2 
 PCOD9183911
Probable space group: C 2/M
;
_chemical_formula_sum "Si O2"
_cell_formula_units_Z 56
_cell_length_a 18.617241
_cell_length_b 7.998299
_cell_length_c 23.420813
_cell_angle_alpha 90.000000
_cell_angle_beta 53.294250
_cell_angle_gamma 90.000000
_cell_volume 2795.987928
_symmetry_space_group_name_H-M "C 2/M"
_symmetry_group_IT_number 12
_symmetry_cell_setting 'monoclinic'
loop_
_space_group_symop_operation_xyz
x,y,z
-x,y,-z
-x,-y,-z
x,-y,z
1/2+x,1/2+y,z
1/2-x,1/2+y,-z
1/2-x,1/2-y,-z
1/2+x,1/2-y,z
loop_
_atom_site_type_symbol
_atom_site_label
_atom_site_fract_x
_atom_site_fract_y
_atom_site_fract_z
Si Si1 0.716565 0.301583 0.157839
Si Si2 0.501763 0.697840 0.435049
Si Si3 0.445527 0.799850 0.847578
Si Si4 0.809068 0.696044 0.701559
Si Si5 0.638925 0.297803 0.710183
Si Si6 0.332059 0.201078 0.002345
Si Si7 0.655298 0.702115 0.571933
O O1 0.726276 0.500000 0.162026
O O2 0.626892 0.272446 0.162819
O O3 0.707815 0.219031 0.223341
O O4 0.800430 0.238075 0.079521
O O5 0.500000 0.769329 0.500000
O O6 0.483095 0.500000 0.448943
O O7 0.598801 0.719563 0.361199
O O8 0.424910 0.766956 0.430030
O O9 0.545258 0.754032 0.782475
O O10 0.417907 0.742603 0.924933
O O11 0.435449 0.000000 0.850519
O O12 0.819006 0.500000 0.684197
O O13 0.724184 0.761359 0.706114
O O14 0.641011 0.500000 0.708842
O O15 0.645536 0.238012 0.641674
O O16 0.336304 0.000000 0.004808
O O17 0.250000 0.250000 0.000000
O O18 0.650043 0.500000 0.576462
O O19 0.750000 0.750000 0.500000
#
# Coordination Sequence:
#
# PCOD9183911 Si02
#       7
#     8   8   8   8   8   8   8
#     4  10  19  34  56  79 108 144 178 221 279 330
#     4  10  21  37  58  84 111 140 177 221 273 332
#     4  10  19  33  56  84 109 137 180 226 267 323
#     4  11  23  37  54  78 108 144 189 233 268 313
#     4  10  22  38  53  75 110 148 183 222 270 319
#     4   8  16  30  50  78 107 136 174 220 269 323
#     4  10  21  37  57  80 107 139 174 215 265 321
#
# _framework density 20.028700000000001
#
# number of rings (size 3 to 8) (size 9 to 14) (size 15 to 20)
#    0.000    2.143    0.000    3.000    0.000    4.857 
#    0.000    0.714    0.000    4.286    0.000    0.000 
#    0.000    0.000    0.000    0.000    0.000    0.000 
#
# Total GULP energy -156266.845223 kJ/mol
# GULP energy per Si atom -5580.958758 kJ/mol
# Density = 1.998311 g / cm^3
# Si number density = 20.028700 Si / 1000 Ang^3
#
#
#
# Elastic Constant Matrix: (Units=GPa)
#
#
# Indices 1 2 3 4 5 6 
#
# 1 121.6287 -6.0755 75.3086 0.0001 -1.8875 0.0005
# 2 -6.0755 10.1249 -18.6913 0.0000 1.5179 0.0010
# 3 75.3086 -18.6913 174.8412 0.0000 -2.4463 0.0001
# 4 0.0001 0.0000 0.0000 6.2919 0.0000 -5.6133
# 5 -1.8875 1.5179 -2.4463 0.0000 31.4668 0.0000
# 6 0.0005 0.0010 0.0001 -5.6133 0.0000 14.2071
#
#
#
# Elastic Compliance Matrix: (Units=1/GPa)
#
#
# Indices 1 2 3 4 5 6 
#
# 1 0.011278 -0.002805 -0.005152 0.000000 0.000411 0.000000
# 2 -0.002805 0.124513 0.014448 -0.000012 -0.005051 -0.000013
# 3 -0.005152 0.014448 0.009479 -0.000001 -0.000269 -0.000001
# 4 0.000000 -0.000012 -0.000001 0.245458 0.000001 0.096982
# 5 0.000411 -0.005051 -0.000269 0.000001 0.032027 0.000001
# 6 0.000000 -0.000013 -0.000001 0.096982 0.000001 0.108706
#
#
# Mechanical properties :
#
#
# Convention : Reuss Voigt Hill
#
# Bulk Modulus (GPa) = 6.31898 45.29763 25.80830
# Shear Modulus (GPa) = 8.75307 27.46335 18.10821
#
# Velocity S-wave (km/s) = 2.09279 3.70699 3.01011
# Velocity P-wave (km/s) = 3.00025 6.40217 4.99946
#
# Compressibility (1/GPa) = 0.15825349
#
# Stress axis : x y z
#
# Youngs Moduli (GPa) = 88.66969 8.03131 105.49315
#
# Poissons Ratio (x) = 0.02253 0.54347
# Poissons Ratio (y) = 0.24870 -1.52420
# Poissons Ratio (z) = 0.45680 -0.11604
#
# Static dielectric constant tensor:
#      x y z
#    x 1.683200 0.000000 0.018440 
#    y 0.000000 1.633030 0.000000 
#    z 0.018440 0.000000 1.709510 
# 
# From -- ./inp_files/275298.got.cif
#   From: 2010.05.17/outbox.cif.g08.bks.cpg/sg12_138_cif.got.tgz:275298.got - 2010.06.03 13:09:07.
