data_PCOD9183346
_publ_section_title
;
Structure prediction by ZEFSAII (Michael W. Deem and Ramdas Pophale) SiO2 
 PCOD9183346
Probable space group: C 2/M
;
_chemical_formula_sum "Si O2"
_cell_formula_units_Z 56
_cell_length_a 24.416846
_cell_length_b 14.519842
_cell_length_c 7.519537
_cell_angle_alpha 90.000000
_cell_angle_beta 69.337159
_cell_angle_gamma 90.000000
_cell_volume 2494.403398
_symmetry_space_group_name_H-M "C 2/M"
_symmetry_group_IT_number 12
_symmetry_cell_setting 'monoclinic'
loop_
_space_group_symop_operation_xyz
x,y,z
-x,y,-z
-x,-y,-z
x,-y,z
1/2+x,1/2+y,z
1/2-x,1/2+y,-z
1/2-x,1/2-y,-z
1/2+x,1/2-y,z
loop_
_atom_site_type_symbol
_atom_site_label
_atom_site_fract_x
_atom_site_fract_y
_atom_site_fract_z
Si Si1 0.938219 0.804469 0.280576
Si Si2 0.436284 0.294398 0.864315
Si Si3 0.682268 0.390002 0.605275
Si Si4 0.106742 0.397086 0.572632
Si Si5 0.809486 0.225953 0.039868
Si Si6 0.052587 0.599137 0.290911
Si Si7 0.706089 0.896275 0.730843
O O1 0.880567 0.859787 0.400019
O O2 0.925718 0.696032 0.330015
O O3 0.002009 0.832831 0.282451
O O4 0.937453 0.819638 0.069398
O O5 0.447976 0.185533 0.832891
O O6 0.369451 0.310270 0.875853
O O7 0.684654 0.500000 0.630438
O O8 0.696927 0.338567 0.775896
O O9 0.729918 0.364945 0.401505
O O10 0.082091 0.500000 0.648297
O O11 0.108047 0.394160 0.358565
O O12 0.169162 0.395132 0.592336
O O13 0.824615 0.325816 0.103885
O O14 0.750000 0.250000 0.000000
O O15 0.051934 0.500000 0.202190
O O16 0.000000 0.602557 0.500000
O O17 0.707802 0.000000 0.799604
#
# Coordination Sequence:
#
# PCOD9183346 Si02
#       7
#     8   8   8   8   8   8   8
#     4  10  20  37  59  81 115 154 200 240 293 346
#     4  10  21  36  53  82 116 153 194 238 292 356
#     4  10  22  41  64  88 114 154 210 257 292 344
#     4  10  19  33  54  83 117 153 190 229 282 352
#     4  11  24  39  60  89 123 153 192 240 308 361
#     4  10  20  32  49  82 120 154 189 231 287 352
#     4  10  21  39  61  87 119 156 196 239 293 360
#
# _framework density 22.450258000000002
#
# number of rings (size 3 to 8) (size 9 to 14) (size 15 to 20)
#    0.000    1.857    4.286    0.429    2.000    1.714 
#    0.000    7.143    0.000    0.000    0.000    4.000 
#    0.000    0.000    0.000    0.000    0.000    0.000 
#
# Total GULP energy -155935.649809 kJ/mol
# GULP energy per Si atom -5569.130350 kJ/mol
# Density = 2.239916 g / cm^3
# Si number density = 22.450258 Si / 1000 Ang^3
#
#
#
# Elastic Constant Matrix: (Units=GPa)
#
#
# Indices 1 2 3 4 5 6 
#
# 1 153.2432 5.7623 27.2093 0.0000 -23.9154 0.0000
# 2 5.7623 38.2499 9.6689 0.0000 -4.7675 0.0000
# 3 27.2093 9.6689 36.2382 0.0000 -12.8404 0.0000
# 4 0.0000 0.0000 0.0000 0.4008 0.0000 26.0867
# 5 -23.9154 -4.7675 -12.8404 0.0000 26.7282 0.0000
# 6 0.0000 0.0000 0.0000 26.0867 0.0000 -28.3069
#
#
#
# Elastic Compliance Matrix: (Units=1/GPa)
#
#
# Indices 1 2 3 4 5 6 
#
# 1 0.008099 0.000537 -0.004366 0.000000 0.005245 0.000000
# 2 0.000537 0.028134 -0.007185 0.000000 0.002047 0.000000
# 3 -0.004366 -0.007185 0.037302 0.000000 0.012732 0.000000
# 4 0.000000 0.000000 0.000000 0.040914 0.000000 0.037705
# 5 0.005245 0.002047 0.012732 0.000000 0.048588 0.000000
# 6 0.000000 0.000000 0.000000 0.037705 0.000000 -0.000579
#
#
# Mechanical properties :
#
#
# Convention : Reuss Voigt Hill
#
# Bulk Modulus (GPa) = 19.41427 34.77914 27.09671
# Shear Modulus (GPa) = 24.79490 12.10382 18.44936
#
# Velocity S-wave (km/s) = 3.32691 2.32446 2.86980
# Velocity P-wave (km/s) = 4.83986 4.76754 4.80384
#
# Compressibility (1/GPa) = 0.05150849
#
# Stress axis : x y z
#
# Youngs Moduli (GPa) = 123.46959 35.54387 26.80847
#
# Poissons Ratio (x) = -0.01910 0.11705
# Poissons Ratio (y) = -0.06634 0.19261
# Poissons Ratio (z) = 0.53907 0.25537
#
# Static dielectric constant tensor:
#      x y z
#    x 1.975640 0.000000 -0.039700 
#    y 0.000000 1.917130 0.000000 
#    z -0.039700 0.000000 1.825620 
# 
# From -- ./inp_files/96300.got.cif
#   From: 2010.05.17/outbox.cif.g08.bks.cpg/sg12_49_cif.got.tgz:96300.got - 2010.06.03 13:09:07.
