data_PCOD9183591
_publ_section_title
;
Structure prediction by ZEFSAII (Michael W. Deem and Ramdas Pophale) SiO2 
 PCOD9183591
Probable space group: C 2/M
;
_chemical_formula_sum "Si O2"
_cell_formula_units_Z 56
_cell_length_a 25.836288
_cell_length_b 13.852778
_cell_length_c 12.199564
_cell_angle_alpha 90.000000
_cell_angle_beta 138.319438
_cell_angle_gamma 90.000000
_cell_volume 2903.473955
_symmetry_space_group_name_H-M "C 2/M"
_symmetry_group_IT_number 12
_symmetry_cell_setting 'monoclinic'
loop_
_space_group_symop_operation_xyz
x,y,z
-x,y,-z
-x,-y,-z
x,-y,z
1/2+x,1/2+y,z
1/2-x,1/2+y,-z
1/2-x,1/2-y,-z
1/2+x,1/2-y,z
loop_
_atom_site_type_symbol
_atom_site_label
_atom_site_fract_x
_atom_site_fract_y
_atom_site_fract_z
Si Si1 0.415020 0.816580 0.908370
Si Si2 0.973567 0.391687 0.225010
Si Si3 0.266692 0.277210 0.749385
Si Si4 0.814632 0.608705 0.206414
Si Si5 0.851044 0.609130 0.581652
Si Si6 0.719520 0.612363 0.839308
Si Si7 0.423490 0.737404 0.323137
O O1 0.354562 0.734569 0.848940
O O2 0.372302 0.871314 0.741642
O O3 0.500000 0.783714 0.000000
O O4 0.432139 0.882324 0.041250
O O5 0.956821 0.500000 0.244784
O O6 0.946605 0.298857 0.252441
O O7 0.065770 0.385508 0.348052
O O8 0.254749 0.354965 0.826813
O O9 0.208860 0.313563 0.562749
O O10 0.240214 0.177064 0.766431
O O11 0.834070 0.500000 0.261438
O O12 0.887091 0.677884 0.341031
O O13 0.787833 0.619914 0.038064
O O14 0.820448 0.500000 0.519990
O O15 0.708347 0.500000 0.795831
O O16 0.644624 0.658648 0.781973
O O17 0.500000 0.696153 0.500000
#
# Coordination Sequence:
#
# PCOD9183591 Si02
#       7
#     8   8   8   8   8   8   8
#     4  10  21  36  55  79 107 140 179 222 269 320
#     4  10  19  33  55  82 112 143 174 217 271 319
#     4  11  20  35  56  80 109 141 177 220 271 319
#     4  10  20  35  56  81 109 142 179 218 263 319
#     4  10  21  36  55  81 109 138 178 226 273 317
#     4  10  22  38  55  78 109 147 186 215 251 316
#     4  11  21  33  53  83 116 143 175 218 265 315
#
# _framework density 19.287241000000002
#
# number of rings (size 3 to 8) (size 9 to 14) (size 15 to 20)
#    0.000    1.714    0.000    6.857    0.000    6.571 
#    0.000    0.000    0.000    1.714    0.000    8.000 
#    0.000    0.000    0.000    0.000    0.000    0.000 
#
# Total GULP energy -156231.883204 kJ/mol
# GULP energy per Si atom -5579.710114 kJ/mol
# Density = 1.924334 g / cm^3
# Si number density = 19.287241 Si / 1000 Ang^3
#
#
#
# Elastic Constant Matrix: (Units=GPa)
#
#
# Indices 1 2 3 4 5 6 
#
# 1 65.8306 -1.5730 5.2705 0.0000 2.9270 0.0000
# 2 -1.5730 34.9719 -0.0283 0.0000 0.0957 0.0000
# 3 5.2705 -0.0283 74.0047 0.0000 -6.0557 0.0000
# 4 0.0000 0.0000 0.0000 24.3857 0.0000 -1.1638
# 5 2.9270 0.0957 -6.0557 0.0000 36.0695 0.0000
# 6 0.0000 0.0000 0.0000 -1.1638 0.0000 13.4952
#
#
#
# Elastic Compliance Matrix: (Units=1/GPa)
#
#
# Indices 1 2 3 4 5 6 
#
# 1 0.015369 0.000694 -0.001213 0.000000 -0.001453 0.000000
# 2 0.000694 0.028626 -0.000050 0.000000 -0.000141 0.000000
# 3 -0.001213 -0.000050 0.013797 0.000000 0.002415 0.000000
# 4 0.000000 0.000000 0.000000 0.041177 0.000000 0.003551
# 5 -0.001453 -0.000141 0.002415 0.000000 0.028248 0.000000
# 6 0.000000 0.000000 0.000000 0.003551 0.000000 0.074407
#
#
# Mechanical properties :
#
#
# Convention : Reuss Voigt Hill
#
# Bulk Modulus (GPa) = 17.65112 20.23841 18.94477
# Shear Modulus (GPa) = 22.55854 26.19928 24.37891
#
# Velocity S-wave (km/s) = 3.42367 3.68961 3.55912
# Velocity P-wave (km/s) = 4.97998 5.35415 5.17045
#
# Compressibility (1/GPa) = 0.05665362
#
# Stress axis : x y z
#
# Youngs Moduli (GPa) = 65.06690 34.93328 72.48145
#
# Poissons Ratio (x) = -0.02425 0.08793
# Poissons Ratio (y) = -0.04517 0.00363
# Poissons Ratio (z) = 0.07894 0.00175
#
# Static dielectric constant tensor:
#      x y z
#    x 1.731190 0.000000 -0.014860 
#    y 0.000000 1.657030 0.000000 
#    z -0.014860 0.000000 1.696470 
# 
# From -- ./inp_files/156144.got.cif
#   From: 2010.05.17/outbox.cif.g08.bks.cpg/sg12_79_cif.got.tgz:156144.got - 2010.06.03 13:09:07.
