data_PCOD9183638
_publ_section_title
;
Structure prediction by ZEFSAII (Michael W. Deem and Ramdas Pophale) SiO2 
 PCOD9183638
Probable space group: C 2/M
;
_chemical_formula_sum "Si O2"
_cell_formula_units_Z 56
_cell_length_a 15.859990
_cell_length_b 8.702554
_cell_length_c 26.403287
_cell_angle_alpha 90.000000
_cell_angle_beta 54.734360
_cell_angle_gamma 90.000000
_cell_volume 2975.468119
_symmetry_space_group_name_H-M "C 2/M"
_symmetry_group_IT_number 12
_symmetry_cell_setting 'monoclinic'
loop_
_space_group_symop_operation_xyz
x,y,z
-x,y,-z
-x,-y,-z
x,-y,z
1/2+x,1/2+y,z
1/2-x,1/2+y,-z
1/2-x,1/2-y,-z
1/2+x,1/2-y,z
loop_
_atom_site_type_symbol
_atom_site_label
_atom_site_fract_x
_atom_site_fract_y
_atom_site_fract_z
Si Si1 0.133244 0.184528 0.855770
Si Si2 0.214342 0.683810 0.933215
Si Si3 0.095421 0.815650 0.503989
Si Si4 0.092986 0.316111 0.078698
Si Si5 0.028330 0.314807 0.634183
Si Si6 0.707390 0.814453 0.286789
Si Si7 0.283021 0.185668 0.367088
O O1 0.167441 0.246617 0.898605
O O2 0.218127 0.232735 0.784777
O O3 0.021271 0.248339 0.879449
O O4 0.129261 0.000000 0.858755
O O5 0.218886 0.500000 0.927484
O O6 0.327276 0.748921 0.907905
O O7 0.141776 0.722164 0.006636
O O8 0.076313 0.738961 0.564454
O O9 0.199813 0.769315 0.438985
O O10 0.000000 0.777911 0.500000
O O11 0.096972 0.000000 0.510197
O O12 0.089660 0.500000 0.084591
O O13 0.027110 0.500000 0.634736
O O14 0.104217 0.265436 0.652916
O O15 0.910572 0.260011 0.679356
O O16 0.750053 0.754434 0.325198
O O17 0.705995 0.000000 0.288574
O O18 0.279804 0.000000 0.364418
#
# Coordination Sequence:
#
# PCOD9183638 Si02
#       7
#     8   8   8   8   8   8   8
#     4  11  23  38  57  83 118 156 196 240 288 340
#     4  10  21  38  61  90 120 150 189 236 288 344
#     4  10  19  33  55  83 113 139 175 229 284 336
#     4  10  21  38  61  89 119 151 190 237 287 342
#     4  10  21  37  57  80 107 142 185 228 277 334
#     4  10  23  40  55  78 111 147 188 233 275 326
#     4  10  21  37  57  81 109 144 184 229 282 338
#
# _framework density 18.820568000000002
#
# number of rings (size 3 to 8) (size 9 to 14) (size 15 to 20)
#    0.000    1.857    1.429    2.143    0.000    7.143 
#    0.000    1.429    0.000    0.000    0.000    0.000 
#    0.000    0.000    0.000    0.000    0.000    0.000 
#
# Total GULP energy -156433.085849 kJ/mol
# GULP energy per Si atom -5586.895923 kJ/mol
# Density = 1.877773 g / cm^3
# Si number density = 18.820568 Si / 1000 Ang^3
#
#
#
# Elastic Constant Matrix: (Units=GPa)
#
#
# Indices 1 2 3 4 5 6 
#
# 1 133.1306 21.9173 31.9798 0.0000 -17.8753 0.0000
# 2 21.9173 14.5632 16.3300 0.0000 -9.2334 0.0000
# 3 31.9798 16.3300 52.8701 0.0000 -20.6563 0.0000
# 4 0.0000 0.0000 0.0000 24.4869 0.0000 4.8443
# 5 -17.8753 -9.2334 -20.6563 0.0000 1.1925 0.0000
# 6 0.0000 0.0000 0.0000 4.8443 0.0000 33.5285
#
#
#
# Elastic Compliance Matrix: (Units=1/GPa)
#
#
# Indices 1 2 3 4 5 6 
#
# 1 0.010105 -0.013474 -0.002855 0.000000 -0.002316 0.000000
# 2 -0.013474 0.111398 -0.040195 0.000000 -0.035672 0.000000
# 3 -0.002855 -0.040195 0.018250 0.000000 -0.037897 0.000000
# 4 0.000000 0.000000 0.000000 0.042040 0.000000 -0.006074
# 5 -0.002316 -0.035672 -0.037897 0.000000 -0.128783 0.000000
# 6 0.000000 0.000000 0.000000 -0.006074 0.000000 0.030703
#
#
# Mechanical properties :
#
#
# Convention : Reuss Voigt Hill
#
# Bulk Modulus (GPa) = 37.44530 37.89091 37.66810
# Shear Modulus (GPa) = 24.31189 20.53070 22.42129
#
# Velocity S-wave (km/s) = 3.59802 3.30641 3.45529
# Velocity P-wave (km/s) = 6.09919 5.89516 5.99804
#
# Compressibility (1/GPa) = 0.02670562
#
# Stress axis : x y z
#
# Youngs Moduli (GPa) = 98.96560 8.97683 54.79475
#
# Poissons Ratio (x) = 0.12095 0.15644
# Poissons Ratio (y) = 1.33345 2.20245
# Poissons Ratio (z) = 0.28255 0.36082
#
# Static dielectric constant tensor:
#      x y z
#    x 1.639210 0.000000 -0.021650 
#    y 0.000000 1.636480 0.000000 
#    z -0.021650 0.000000 1.626230 
# 
# From -- ./inp_files/309046.got.cif
#   From: 2010.05.17/outbox.cif.g08.bks.cpg/sg12_155_cif.got.tgz:309046.got - 2010.06.03 13:09:07.
