data_PCOD9183123
_publ_section_title
;
Structure prediction by ZEFSAII (Michael W. Deem and Ramdas Pophale) SiO2 
 PCOD9183123
Probable space group: C 2/M
;
_chemical_formula_sum "Si O2"
_cell_formula_units_Z 48
_cell_length_a 20.844175
_cell_length_b 8.627483
_cell_length_c 32.458855
_cell_angle_alpha 90.000000
_cell_angle_beta 152.247818
_cell_angle_gamma 90.000000
_cell_volume 2718.065816
_symmetry_space_group_name_H-M "C 2/M"
_symmetry_group_IT_number 12
_symmetry_cell_setting 'monoclinic'
loop_
_space_group_symop_operation_xyz
x,y,z
-x,y,-z
-x,-y,-z
x,-y,z
1/2+x,1/2+y,z
1/2-x,1/2+y,-z
1/2-x,1/2-y,-z
1/2+x,1/2-y,z
loop_
_atom_site_type_symbol
_atom_site_label
_atom_site_fract_x
_atom_site_fract_y
_atom_site_fract_z
Si Si1 0.383498 0.187273 0.052738
Si Si2 0.700654 0.313974 0.428215
Si Si3 0.863346 0.687387 0.946635
Si Si4 0.850387 0.313307 0.429599
Si Si5 0.412955 0.813759 0.762609
Si Si6 0.067000 0.314834 0.765823
O O1 0.516635 0.236149 0.154846
O O2 0.379994 0.000000 0.051531
O O3 0.250000 0.250000 0.000000
O O4 0.379928 0.237796 0.003497
O O5 0.701593 0.500000 0.429774
O O6 0.750000 0.250000 0.500000
O O7 0.799464 0.262184 0.446224
O O8 0.547643 0.256227 0.329500
O O9 0.855144 0.500000 0.940969
O O10 0.720945 0.752829 0.847951
O O11 0.000000 0.734989 0.000000
O O12 0.853706 0.500000 0.432294
O O13 0.732687 0.260198 0.331101
O O14 0.000000 0.257029 0.500000
O O15 0.515375 0.773830 0.782858
O O16 0.398196 0.000000 0.754400
O O17 0.064905 0.500000 0.760849
#
# Coordination Sequence:
#
# PCOD9183123 Si02
#       6
#     8   8   8   8   8   8
#     4  10  19  33  54  78 105 136 177 221 258 308
#     4  10  20  36  58  81 107 139 178 218 263 316
#     4  10  21  36  53  76 111 146 175 214 269 321
#     4   9  19  36  56  78 107 138 171 215 265 313
#     4   9  18  32  52  79 105 134 176 219 259 307
#     4  10  19  34  56  79 106 138 179 222 263 313
#
# _framework density 17.659617000000001
#
# number of rings (size 3 to 8) (size 9 to 14) (size 15 to 20)
#    0.000    2.333    1.667    1.000    0.000    2.667 
#    3.000    0.000    0.000    0.000    0.000    0.000 
#    0.000    0.000    0.000    0.000    0.000    0.000 
#
# Total GULP energy -133883.017646 kJ/mol
# GULP energy per Si atom -5578.459069 kJ/mol
# Density = 1.761942 g / cm^3
# Si number density = 17.659617 Si / 1000 Ang^3
#
#
#
# Elastic Constant Matrix: (Units=GPa)
#
#
# Indices 1 2 3 4 5 6 
#
# 1 117.1373 28.1530 101.5021 0.0000 2.6506 0.0001
# 2 28.1530 16.7754 35.0592 0.0001 0.4969 0.0002
# 3 101.5021 35.0592 181.3435 0.0001 4.2857 0.0000
# 4 0.0000 0.0001 0.0001 32.0637 0.0000 0.4298
# 5 2.6506 0.4969 4.2857 0.0000 37.9339 0.0000
# 6 0.0001 0.0002 0.0000 0.4298 0.0000 17.7322
#
#
#
# Elastic Compliance Matrix: (Units=1/GPa)
#
#
# Indices 1 2 3 4 5 6 
#
# 1 0.018854 -0.016095 -0.007435 0.000000 -0.000267 0.000000
# 2 -0.016095 0.113795 -0.013017 0.000000 0.001105 -0.000001
# 3 -0.007435 -0.013017 0.012209 0.000000 -0.000689 0.000000
# 4 0.000000 0.000000 0.000000 0.031198 0.000000 -0.000756
# 5 -0.000267 0.001105 -0.000689 0.000000 0.026444 0.000000
# 6 0.000000 -0.000001 0.000000 -0.000756 0.000000 0.056413
#
#
# Mechanical properties :
#
#
# Convention : Reuss Voigt Hill
#
# Bulk Modulus (GPa) = 13.93477 71.63165 42.78321
# Shear Modulus (GPa) = 14.04780 27.58208 20.81494
#
# Velocity S-wave (km/s) = 2.82348 3.95634 3.43691
# Velocity P-wave (km/s) = 4.30549 7.84351 6.32684
#
# Compressibility (1/GPa) = 0.07176294
#
# Stress axis : x y z
#
# Youngs Moduli (GPa) = 53.03938 8.78777 81.90719
#
# Poissons Ratio (x) = 0.14144 0.60899
# Poissons Ratio (y) = 0.85365 1.06622
# Poissons Ratio (z) = 0.39435 0.11439
#
# Static dielectric constant tensor:
#      x y z
#    x 1.599710 0.000000 -0.004720 
#    y 0.000000 1.596740 0.000000 
#    z -0.004720 0.000000 1.582270 
# 
# From -- ./inp_files/229932.got.cif
#   From: 2010.05.17/outbox.cif.g08.bks.cpg/sg12_115_cif.got.tgz:229932.got - 2010.06.03 13:09:07.
