data_PCOD9183683
_publ_section_title
;
Structure prediction by ZEFSAII (Michael W. Deem and Ramdas Pophale) SiO2 
 PCOD9183683
Probable space group: C 2/M
;
_chemical_formula_sum "Si O2"
_cell_formula_units_Z 64
_cell_length_a 8.533508
_cell_length_b 27.835108
_cell_length_c 16.331011
_cell_angle_alpha 90.000000
_cell_angle_beta 61.985202
_cell_angle_gamma 90.000000
_cell_volume 3424.592097
_symmetry_space_group_name_H-M "C 2/M"
_symmetry_group_IT_number 12
_symmetry_cell_setting 'monoclinic'
loop_
_space_group_symop_operation_xyz
x,y,z
-x,y,-z
-x,-y,-z
x,-y,z
1/2+x,1/2+y,z
1/2-x,1/2+y,-z
1/2-x,1/2-y,-z
1/2+x,1/2-y,z
loop_
_atom_site_type_symbol
_atom_site_label
_atom_site_fract_x
_atom_site_fract_y
_atom_site_fract_z
Si Si1 0.842040 0.173017 0.706346
Si Si2 0.063315 0.445982 0.113710
Si Si3 0.270223 0.635620 0.368878
Si Si4 0.855884 0.353874 0.096894
Si Si5 0.252964 0.444708 0.239279
Si Si6 0.785516 0.158777 0.551014
Si Si7 0.094828 0.089018 0.059562
Si Si8 0.527459 0.226770 0.398638
O O1 0.701685 0.177363 0.812644
O O2 0.757219 0.142558 0.651692
O O3 0.908596 0.225819 0.662881
O O4 0.019956 0.145526 0.689897
O O5 0.989373 0.500000 0.125508
O O6 0.123480 0.436854 0.192819
O O7 0.937143 0.403933 0.112101
O O8 0.241980 0.443067 0.014243
O O9 0.222251 0.590977 0.322880
O O10 0.236528 0.633060 0.476610
O O11 0.163693 0.682190 0.362651
O O12 0.684298 0.368051 0.086888
O O13 0.000000 0.332655 0.000000
O O14 0.235786 0.500000 0.269081
O O15 0.449257 0.436314 0.152276
O O16 0.663894 0.206444 0.581185
O O17 0.000000 0.162527 0.500000
O O18 0.000000 0.106119 0.000000
O O19 0.500000 0.237853 0.500000
#
# Coordination Sequence:
#
# PCOD9183683 Si02
#       8
#     8   8   8   8   8   8   8   8
#     4  11  20  35  56  84 115 149 189 240 292 336
#     4   9  19  33  53  80 111 147 198 246 285 330
#     4  10  20  35  56  88 118 149 191 236 288 336
#     4  10  21  35  54  83 116 153 189 237 290 343
#     4  10  19  33  55  84 117 152 191 232 286 346
#     4   9  20  35  59  85 113 141 182 237 289 332
#     4   9  17  33  55  79 109 147 192 242 289 329
#     4  10  20  36  61  88 113 143 192 244 284 333
#
# _framework density 18.688357
#
# number of rings (size 3 to 8) (size 9 to 14) (size 15 to 20)
#    0.000    2.250    1.250    2.250    1.750    7.750 
#    0.000    0.000    0.000   12.750    0.000    0.000 
#    0.000    0.000    0.000    0.000    0.000    0.000 
#
# Total GULP energy -178229.748302 kJ/mol
# GULP energy per Si atom -5569.679634 kJ/mol
# Density = 1.864582 g / cm^3
# Si number density = 18.688357 Si / 1000 Ang^3
#
#
#
# Elastic Constant Matrix: (Units=GPa)
#
#
# Indices 1 2 3 4 5 6 
#
# 1 61.5744 13.6517 19.0548 0.0000 11.2977 0.0000
# 2 13.6517 61.5353 47.9951 0.0000 12.7929 0.0000
# 3 19.0548 47.9951 128.3837 0.0000 10.8696 0.0000
# 4 0.0000 0.0000 0.0000 24.5666 0.0000 4.3416
# 5 11.2977 12.7929 10.8696 0.0000 20.7833 0.0000
# 6 0.0000 0.0000 0.0000 4.3416 0.0000 11.0585
#
#
#
# Elastic Compliance Matrix: (Units=1/GPa)
#
#
# Indices 1 2 3 4 5 6 
#
# 1 0.018555 -0.001060 -0.001631 0.000000 -0.008581 0.000000
# 2 -0.001060 0.025214 -0.008374 0.000000 -0.010564 0.000000
# 3 -0.001631 -0.008374 0.011144 0.000000 0.000213 0.000000
# 4 0.000000 0.000000 0.000000 0.043741 0.000000 -0.017173
# 5 -0.008581 -0.010564 0.000213 0.000000 0.059171 0.000000
# 6 0.000000 0.000000 0.000000 -0.017173 0.000000 0.097170
#
#
# Mechanical properties :
#
#
# Convention : Reuss Voigt Hill
#
# Bulk Modulus (GPa) = 30.50539 45.87739 38.19139
# Shear Modulus (GPa) = 17.35796 22.66780 20.01288
#
# Velocity S-wave (km/s) = 3.05095 3.48650 3.27597
# Velocity P-wave (km/s) = 5.36374 6.38823 5.89827
#
# Compressibility (1/GPa) = 0.03278109
#
# Stress axis : x y z
#
# Youngs Moduli (GPa) = 53.89472 39.66082 89.73596
#
# Poissons Ratio (x) = 0.04206 0.14636
# Poissons Ratio (y) = 0.05715 0.75147
# Poissons Ratio (z) = 0.08790 0.33213
#
# Static dielectric constant tensor:
#      x y z
#    x 1.709190 0.000000 0.012980 
#    y 0.000000 1.636890 0.000000 
#    z 0.012980 0.000000 1.690630 
# 
# From -- ./inp_files/200901.got.cif
#   From: 2010.05.17/outbox.cif.g08.bks.cpg/sg12_101_cif.got.tgz:200901.got - 2010.06.03 13:09:07.
