data_PCOD9183286
_publ_section_title
;
Structure prediction by ZEFSAII (Michael W. Deem and Ramdas Pophale) SiO2 
 PCOD9183286
Probable space group: C 2/M
;
_chemical_formula_sum "Si O2"
_cell_formula_units_Z 60
_cell_length_a 20.044406
_cell_length_b 9.654794
_cell_length_c 27.859796
_cell_angle_alpha 90.000000
_cell_angle_beta 142.566256
_cell_angle_gamma 90.000000
_cell_volume 3277.222916
_symmetry_space_group_name_H-M "C 2/M"
_symmetry_group_IT_number 12
_symmetry_cell_setting 'monoclinic'
loop_
_space_group_symop_operation_xyz
x,y,z
-x,y,-z
-x,-y,-z
x,-y,z
1/2+x,1/2+y,z
1/2-x,1/2+y,-z
1/2-x,1/2-y,-z
1/2+x,1/2-y,z
loop_
_atom_site_type_symbol
_atom_site_label
_atom_site_fract_x
_atom_site_fract_y
_atom_site_fract_z
Si Si1 0.443078 0.337001 0.917558
Si Si2 0.529773 0.161221 0.160430
Si Si3 0.439714 0.661931 0.358742
Si Si4 0.811522 0.278686 0.095599
Si Si5 0.712672 0.500000 0.973642
Si Si6 0.185036 0.661777 0.790128
Si Si7 0.758295 0.839025 0.340043
Si Si8 0.592408 0.160020 0.510544
O O1 0.466278 0.500000 0.923361
O O2 0.481028 0.250917 0.893453
O O3 0.311929 0.319856 0.847261
O O4 0.500000 0.294645 0.000000
O O5 0.424678 0.177607 0.134053
O O6 0.639463 0.201418 0.251995
O O7 0.540539 0.000000 0.153175
O O8 0.465827 0.500000 0.365711
O O9 0.391278 0.738450 0.284789
O O10 0.344006 0.666847 0.344720
O O11 0.540537 0.748708 0.438426
O O12 0.821472 0.304369 0.157505
O O13 0.788238 0.122067 0.067917
O O14 0.722048 0.379369 0.020913
O O15 0.156308 0.500000 0.765560
O O16 0.803987 0.737990 0.406993
O O17 0.754976 0.000000 0.354314
O O18 0.500000 0.158695 0.500000
O O19 0.613574 0.000000 0.509626
#
# Coordination Sequence:
#
# PCOD9183286 Si02
#       8
#     8   8   8   8   4   8   8   8
#     4  10  24  37  55  80 115 152 189 234 295 346
#     4  11  22  39  58  86 116 151 191 239 289 341
#     4  10  19  33  54  81 116 151 189 233 285 343
#     4  11  24  41  63  86 108 156 195 251 285 347
#     4  10  24  42  62  82 112 146 208 244 292 332
#     4  11  22  38  56  84 118 153 192 241 290 341
#     4   9  18  33  53  81 117 150 184 232 284 340
#     4   9  17  30  52  82 112 149 189 228 280 339
#
# _framework density 18.308184000000001
#
# number of rings (size 3 to 8) (size 9 to 14) (size 15 to 20)
#    0.000    1.867    2.667    0.800    5.600    2.933 
#    0.000    0.000    0.000    0.800    0.000    0.000 
#    0.000    0.000    0.000    0.000    0.000    0.000 
#
# Total GULP energy -167005.618966 kJ/mol
# GULP energy per Si atom -5566.853966 kJ/mol
# Density = 1.826651 g / cm^3
# Si number density = 18.308184 Si / 1000 Ang^3
#
#
#
# Elastic Constant Matrix: (Units=GPa)
#
#
# Indices 1 2 3 4 5 6 
#
# 1 54.5490 19.6709 47.9736 0.0000 -15.2919 0.0000
# 2 19.6709 135.0500 83.3703 0.0000 -13.1530 0.0000
# 3 47.9736 83.3703 48.9692 0.0000 13.3946 0.0000
# 4 0.0000 0.0000 0.0000 27.7851 0.0000 -12.5429
# 5 -15.2919 -13.1530 13.3946 0.0000 12.6522 0.0000
# 6 0.0000 0.0000 0.0000 -12.5429 0.0000 2.9596
#
#
#
# Elastic Compliance Matrix: (Units=1/GPa)
#
#
# Indices 1 2 3 4 5 6 
#
# 1 0.008165 -0.009516 0.011555 0.000000 -0.012257 0.000000
# 2 -0.009516 0.004457 0.005087 0.000000 -0.012254 0.000000
# 3 0.011555 0.005087 -0.006795 0.000000 0.026448 0.000000
# 4 0.000000 0.000000 0.000000 -0.039413 0.000000 -0.167034
# 5 -0.012257 -0.012254 0.026448 0.000000 0.023484 0.000000
# 6 0.000000 0.000000 0.000000 -0.167034 0.000000 -0.370015
#
#
# Mechanical properties :
#
#
# Convention : Reuss Voigt Hill
#
# Bulk Modulus (GPa) = 49.80189 60.06643 54.93416
# Shear Modulus (GPa) = -12.89740 14.51628 0.80944
#
# Velocity S-wave (km/s) = -2.65705 2.81888 0.66564
# Velocity P-wave (km/s) = 4.22467 6.59352 5.53725
#
# Compressibility (1/GPa) = 0.02007956
#
# Stress axis : x y z
#
# Youngs Moduli (GPa) = 122.46706 224.37570 -147.17741
#
# Poissons Ratio (x) = 2.13527 1.70066
# Poissons Ratio (y) = 1.16546 0.74872
# Poissons Ratio (z) = -1.41513 -1.14145
#
# Static dielectric constant tensor:
#      x y z
#    x 1.619620 0.000000 0.028260 
#    y 0.000000 1.623640 0.000000 
#    z 0.028260 0.000000 1.632370 
# 
# From -- ./inp_files/365510.got.cif
#   From: 2010.05.17/outbox.cif.g08.bks.cpg/sg12_183_cif.got.tgz:365510.got - 2010.06.03 13:09:07.
