data_PCOD9183697
_publ_section_title
;
Structure prediction by ZEFSAII (Michael W. Deem and Ramdas Pophale) SiO2 
 PCOD9183697
Probable space group: C 2/M
;
_chemical_formula_sum "Si O2"
_cell_formula_units_Z 40
_cell_length_a 18.227229
_cell_length_b 13.779614
_cell_length_c 10.670214
_cell_angle_alpha 90.000000
_cell_angle_beta 136.620845
_cell_angle_gamma 90.000000
_cell_volume 1840.669188
_symmetry_space_group_name_H-M "C 2/M"
_symmetry_group_IT_number 12
_symmetry_cell_setting 'monoclinic'
loop_
_space_group_symop_operation_xyz
x,y,z
-x,y,-z
-x,-y,-z
x,-y,z
1/2+x,1/2+y,z
1/2-x,1/2+y,-z
1/2-x,1/2-y,-z
1/2+x,1/2-y,z
loop_
_atom_site_type_symbol
_atom_site_label
_atom_site_fract_x
_atom_site_fract_y
_atom_site_fract_z
Si Si1 0.490291 0.389894 0.139852
Si Si2 0.775226 0.118582 0.583147
Si Si3 0.345881 0.886559 0.072668
Si Si4 0.941842 0.385734 0.806916
Si Si5 0.272895 0.289271 0.853818
O O1 0.469683 0.500000 0.155137
O O2 0.608133 0.358982 0.328725
O O3 0.500000 0.391234 0.000000
O O4 0.388926 0.326241 0.047496
O O5 0.674879 0.148836 0.374750
O O6 0.762763 0.168913 0.702554
O O7 0.773218 0.000000 0.598359
O O8 0.471376 0.879321 0.195426
O O9 0.314460 0.837391 0.164367
O O10 0.318184 0.000000 0.037343
O O11 0.280667 0.825771 0.886346
O O12 0.926542 0.500000 0.816431
O O13 0.000000 0.339635 0.000000
#
# Coordination Sequence:
#
# PCOD9183697 Si02
#       5
#     8   8   8   8   8
#     4   8  14  27  50  81 114 141 173 226 280 321
#     4   9  17  32  59  89 112 141 184 232 277 324
#     4  10  21  36  54  77 113 154 183 222 279 332
#     4   9  19  36  56  80 113 150 184 223 277 332
#     4  10  19  33  55  85 113 143 186 229 274 332
#
# _framework density 21.731228000000002
#
# number of rings (size 3 to 8) (size 9 to 14) (size 15 to 20)
#    0.000    2.800    0.000    3.000    0.000    3.200 
#    0.000    7.000    0.000    3.600    0.000   25.200 
#    0.000    0.800    0.000    0.000    0.000    0.000 
#
# Total GULP energy -111711.329951 kJ/mol
# GULP energy per Si atom -5585.566498 kJ/mol
# Density = 2.168177 g / cm^3
# Si number density = 21.731228 Si / 1000 Ang^3
#
#
#
# Elastic Constant Matrix: (Units=GPa)
#
#
# Indices 1 2 3 4 5 6 
#
# 1 77.7642 3.9742 39.8176 0.0000 10.1921 0.0000
# 2 3.9742 99.8525 17.1055 0.0000 10.1084 0.0000
# 3 39.8176 17.1055 133.0188 0.0000 27.1404 0.0000
# 4 0.0000 0.0000 0.0000 16.3420 0.0000 -1.0411
# 5 10.1921 10.1084 27.1404 0.0000 21.5125 0.0000
# 6 0.0000 0.0000 0.0000 -1.0411 0.0000 26.3060
#
#
#
# Elastic Compliance Matrix: (Units=1/GPa)
#
#
# Indices 1 2 3 4 5 6 
#
# 1 0.015259 0.000322 -0.004179 0.000000 -0.002109 0.000000
# 2 0.000322 0.010543 -0.000552 0.000000 -0.004410 0.000000
# 3 -0.004179 -0.000552 0.011289 0.000000 -0.012002 0.000000
# 4 0.000000 0.000000 0.000000 0.061347 0.000000 0.002428
# 5 -0.002109 -0.004410 -0.012002 0.000000 0.064698 0.000000
# 6 0.000000 0.000000 0.000000 0.002428 0.000000 0.038110
#
#
# Mechanical properties :
#
#
# Convention : Reuss Voigt Hill
#
# Bulk Modulus (GPa) = 35.37059 48.04778 41.70919
# Shear Modulus (GPa) = 22.78031 29.48131 26.13081
#
# Velocity S-wave (km/s) = 3.24122 3.68725 3.47140
# Velocity P-wave (km/s) = 5.50628 6.34710 5.94158
#
# Compressibility (1/GPa) = 0.02827207
#
# Stress axis : x y z
#
# Youngs Moduli (GPa) = 65.53530 94.84969 88.58551
#
# Poissons Ratio (x) = -0.03054 0.37018
# Poissons Ratio (y) = -0.02110 0.04894
# Poissons Ratio (z) = 0.27386 0.05240
#
# Static dielectric constant tensor:
#      x y z
#    x 1.769670 0.000000 0.004920 
#    y 0.000000 1.866650 0.000000 
#    z 0.004920 0.000000 1.822630 
# 
# From -- ./inp_files/166936.got.cif
#   From: 2010.05.17/outbox.cif.g08.bks.cpg/sg12_84_cif.got.tgz:166936.got - 2010.06.03 13:09:07.
