data_PCOD9183861
_publ_section_title
;
Structure prediction by ZEFSAII (Michael W. Deem and Ramdas Pophale) SiO2 
 PCOD9183861
Probable space group: C 2/M
;
_chemical_formula_sum "Si O2"
_cell_formula_units_Z 64
_cell_length_a 33.027597
_cell_length_b 7.509291
_cell_length_c 25.509072
_cell_angle_alpha 90.000000
_cell_angle_beta 26.949585
_cell_angle_gamma 90.000000
_cell_volume 2867.256387
_symmetry_space_group_name_H-M "C 2/M"
_symmetry_group_IT_number 12
_symmetry_cell_setting 'monoclinic'
loop_
_space_group_symop_operation_xyz
x,y,z
-x,y,-z
-x,-y,-z
x,-y,z
1/2+x,1/2+y,z
1/2-x,1/2+y,-z
1/2-x,1/2-y,-z
1/2+x,1/2-y,z
loop_
_atom_site_type_symbol
_atom_site_label
_atom_site_fract_x
_atom_site_fract_y
_atom_site_fract_z
Si Si1 0.374518 0.710469 0.000183
Si Si2 0.521529 0.709823 0.218807
Si Si3 0.823970 0.718161 0.750012
Si Si4 0.960393 0.285016 0.681431
Si Si5 0.475273 0.215050 0.087086
Si Si6 0.376956 0.791257 0.577099
Si Si7 0.272486 0.215536 0.327395
Si Si8 0.324108 0.713163 0.457560
O O1 0.359227 0.500000 0.010716
O O2 0.411830 0.784264 0.901944
O O3 0.451115 0.731872 0.955411
O O4 0.278267 0.781446 0.129018
O O5 0.514890 0.500000 0.214438
O O6 0.548017 0.726126 0.248925
O O7 0.421129 0.785474 0.330554
O O8 0.824760 0.500000 0.746531
O O9 0.878567 0.768199 0.738719
O O10 0.873115 0.781349 0.640376
O O11 0.963731 0.500000 0.679583
O O12 0.050424 0.218547 0.548000
O O13 0.374450 0.276235 0.215429
O O14 0.474095 0.000000 0.088114
O O15 0.500000 0.275239 0.000000
O O16 0.278412 0.772230 0.666268
O O17 0.398958 0.000000 0.556340
O O18 0.212590 0.281566 0.444810
O O19 0.273502 0.000000 0.326826
O O20 0.332771 0.500000 0.453009
O O21 0.250000 0.750000 0.500000
#
# Coordination Sequence:
#
# PCOD9183861 Si02
#       8
#     8   8   8   8   8   8   8   8
#     4  10  21  37  57  79 107 146 184 221 267 317
#     4  10  21  37  54  77 111 143 176 223 270 314
#     4   9  19  36  56  80 109 139 178 227 273 316
#     4  10  20  35  57  82 107 141 181 222 271 322
#     4  10  21  36  54  79 111 144 179 221 268 319
#     4  10  19  33  56  83 108 137 178 226 269 318
#     4  10  20  34  52  75 107 143 171 211 272 320
#     4  10  20  33  50  72 101 135 171 213 257 306
#
# _framework density 22.320989999999998
#
# number of rings (size 3 to 8) (size 9 to 14) (size 15 to 20)
#    0.000    2.125    1.250    1.875    0.000    4.250 
#    0.000    1.250    0.000    1.500    0.000    0.000 
#    0.000    0.000    0.000    0.000    0.000    0.000 
#
# Total GULP energy -178802.073009 kJ/mol
# GULP energy per Si atom -5587.564782 kJ/mol
# Density = 2.227019 g / cm^3
# Si number density = 22.320990 Si / 1000 Ang^3
#
#
#
# Elastic Constant Matrix: (Units=GPa)
#
#
# Indices 1 2 3 4 5 6 
#
# 1 112.1914 -21.8435 36.5030 -0.0459 19.2702 0.0680
# 2 -21.8435 56.8424 4.6688 -0.0688 5.2632 0.0379
# 3 36.5030 4.6688 115.4210 -0.0941 16.4407 0.1223
# 4 -0.0459 -0.0688 -0.0941 -18.6969 0.0332 5.4976
# 5 19.2702 5.2632 16.4407 0.0332 35.6124 -0.0308
# 6 0.0680 0.0379 0.1223 5.4976 -0.0308 10.2282
#
#
#
# Elastic Compliance Matrix: (Units=1/GPa)
#
#
# Indices 1 2 3 4 5 6 
#
# 1 0.012005 0.005414 -0.003186 -0.000058 -0.005825 -0.000048
# 2 0.005414 0.020293 -0.001808 -0.000103 -0.005094 -0.000050
# 3 -0.003186 -0.001808 0.010127 -0.000061 -0.002684 -0.000068
# 4 -0.000058 -0.000103 -0.000061 -0.046184 0.000139 0.024826
# 5 -0.005825 -0.005094 -0.002684 0.000139 0.033224 0.000115
# 6 -0.000048 -0.000050 -0.000068 0.024826 0.000115 0.084427
#
#
# Mechanical properties :
#
#
# Convention : Reuss Voigt Hill
#
# Bulk Modulus (GPa) = 23.11273 35.90128 29.50700
# Shear Modulus (GPa) = 39.22426 23.10384 31.16405
#
# Velocity S-wave (km/s) = 4.19654 3.22074 3.74060
# Velocity P-wave (km/s) = 5.81880 5.47265 5.64838
#
# Compressibility (1/GPa) = 0.04326620
#
# Stress axis : x y z
#
# Youngs Moduli (GPa) = 83.30163 49.27777 98.74637
#
# Poissons Ratio (x) = -0.26680 0.31459
# Poissons Ratio (y) = -0.45101 0.17849
# Poissons Ratio (z) = 0.26538 0.08907
#
# Static dielectric constant tensor:
#      x y z
#    x 1.782790 -0.000010 0.009300 
#    y -0.000010 1.848390 0.000020 
#    z 0.009300 0.000020 1.839580 
# 
# From -- ./inp_files/250094.got.cif
#   From: 2010.05.17/outbox.cif.g08.bks.cpg/sg12_126_cif.got.tgz:250094.got - 2010.06.03 13:09:07.
