data_PCOD9183596
_publ_section_title
;
Structure prediction by ZEFSAII (Michael W. Deem and Ramdas Pophale) SiO2 
 PCOD9183596
Probable space group: C 2/M
;
_chemical_formula_sum "Si O2"
_cell_formula_units_Z 40
_cell_length_a 14.748216
_cell_length_b 17.538530
_cell_length_c 16.800243
_cell_angle_alpha 90.000000
_cell_angle_beta 26.943202
_cell_angle_gamma 90.000000
_cell_volume 1969.015003
_symmetry_space_group_name_H-M "C 2/M"
_symmetry_group_IT_number 12
_symmetry_cell_setting 'monoclinic'
loop_
_space_group_symop_operation_xyz
x,y,z
-x,y,-z
-x,-y,-z
x,-y,z
1/2+x,1/2+y,z
1/2-x,1/2+y,-z
1/2-x,1/2-y,-z
1/2+x,1/2-y,z
loop_
_atom_site_type_symbol
_atom_site_label
_atom_site_fract_x
_atom_site_fract_y
_atom_site_fract_z
Si Si1 0.158419 0.416896 0.621915
Si Si2 0.557317 0.754396 0.769127
Si Si3 0.757960 0.228828 0.858362
Si Si4 0.405108 0.586244 0.660542
Si Si5 0.040593 0.654879 0.554888
O O1 0.095582 0.500000 0.702224
O O2 0.083218 0.344191 0.730071
O O3 0.398615 0.414609 0.437280
O O4 0.084633 0.404401 0.590113
O O5 0.412712 0.722427 0.812501
O O6 0.768534 0.711960 0.598583
O O7 0.448272 0.747749 0.938937
O O8 0.760018 0.150273 0.807975
O O9 0.854378 0.293541 0.728051
O O10 0.500000 0.606000 0.500000
O O11 0.323711 0.500000 0.719210
O O12 0.000000 0.621980 0.500000
#
# Coordination Sequence:
#
# PCOD9183596 Si02
#       5
#     8   8   8   8   8
#     4  10  20  37  57  79 113 147 183 228 271 330
#     4  10  20  35  57  84 106 142 191 223 276 325
#     4  10  19  35  57  81 108 144 183 233 274 321
#     4  10  19  33  55  82 112 145 180 223 281 330
#     4  11  21  37  57  81 115 147 184 228 272 325
#
# _framework density 20.314727000000001
#
# number of rings (size 3 to 8) (size 9 to 14) (size 15 to 20)
#    0.000    1.800    4.000    1.800    0.000    2.000 
#    0.000    0.000    0.000    3.600    0.000    5.600 
#    0.000    0.000    0.000    0.000    0.000    0.000 
#
# Total GULP energy -111734.136006 kJ/mol
# GULP energy per Si atom -5586.706800 kJ/mol
# Density = 2.026849 g / cm^3
# Si number density = 20.314727 Si / 1000 Ang^3
#
#
#
# Elastic Constant Matrix: (Units=GPa)
#
#
# Indices 1 2 3 4 5 6 
#
# 1 63.7255 -3.5750 -4.5285 -0.0049 -0.3727 -0.0006
# 2 -3.5750 77.7113 22.2011 -0.0030 -4.8114 0.0077
# 3 -4.5285 22.2011 82.2947 -0.0035 2.4666 0.0133
# 4 -0.0049 -0.0030 -0.0035 8.2725 0.0075 1.6188
# 5 -0.3727 -4.8114 2.4666 0.0075 21.4468 -0.0050
# 6 -0.0006 0.0077 0.0133 1.6188 -0.0050 6.9824
#
#
#
# Elastic Compliance Matrix: (Units=1/GPa)
#
#
# Indices 1 2 3 4 5 6 
#
# 1 0.015775 0.000542 0.000713 0.000010 0.000314 -0.000003
# 2 0.000542 0.014240 -0.003921 0.000002 0.003655 -0.000006
# 3 0.000713 -0.003921 0.013320 0.000012 -0.002399 -0.000025
# 4 0.000010 0.000002 0.000012 0.126627 -0.000052 -0.029357
# 5 0.000314 0.003655 -0.002399 -0.000052 0.047728 0.000047
# 6 -0.000003 -0.000006 -0.000025 -0.029357 0.000047 0.150023
#
#
# Mechanical properties :
#
#
# Convention : Reuss Voigt Hill
#
# Bulk Modulus (GPa) = 26.31512 27.99186 27.15349
# Shear Modulus (GPa) = 12.96294 21.31593 17.13944
#
# Velocity S-wave (km/s) = 2.52882 3.24278 2.90779
# Velocity P-wave (km/s) = 4.63771 5.27540 4.96680
#
# Compressibility (1/GPa) = 0.03800096
#
# Stress axis : x y z
#
# Youngs Moduli (GPa) = 63.39083 70.22675 75.07265
#
# Poissons Ratio (x) = -0.03803 -0.05349
# Poissons Ratio (y) = -0.03433 0.29438
# Poissons Ratio (z) = -0.04517 0.27538
#
# Static dielectric constant tensor:
#      x y z
#    x 1.783130 0.000000 -0.002510 
#    y 0.000000 1.701340 0.000000 
#    z -0.002510 0.000000 1.702870 
# 
# From -- ./inp_files/60257.got.cif
#   From: 2010.05.17/outbox.cif.g08.bks.cpg/sg12_31_cif.got.tgz:60257.got - 2010.06.03 13:09:07.
