data_PCOD9183353
_publ_section_title
;
Structure prediction by ZEFSAII (Michael W. Deem and Ramdas Pophale) SiO2 
 PCOD9183353
Probable space group: C 2/M
;
_chemical_formula_sum "Si O2"
_cell_formula_units_Z 48
_cell_length_a 30.458031
_cell_length_b 19.616023
_cell_length_c 12.978698
_cell_angle_alpha 90.000000
_cell_angle_beta 18.217284
_cell_angle_gamma 90.000000
_cell_volume 2424.168043
_symmetry_space_group_name_H-M "C 2/M"
_symmetry_group_IT_number 12
_symmetry_cell_setting 'monoclinic'
loop_
_space_group_symop_operation_xyz
x,y,z
-x,y,-z
-x,-y,-z
x,-y,z
1/2+x,1/2+y,z
1/2-x,1/2+y,-z
1/2-x,1/2-y,-z
1/2+x,1/2-y,z
loop_
_atom_site_type_symbol
_atom_site_label
_atom_site_fract_x
_atom_site_fract_y
_atom_site_fract_z
Si Si1 0.171723 0.077347 0.238104
Si Si2 0.322482 0.210969 0.243994
Si Si3 0.641117 0.076142 0.378922
Si Si4 0.862070 0.708572 0.500503
Si Si5 0.809012 0.422819 0.155804
Si Si6 0.902805 0.225067 0.626406
O O1 0.225008 0.085856 0.236353
O O2 0.079684 0.143540 0.420037
O O3 0.113434 0.000000 0.357557
O O4 0.296861 0.082720 0.874315
O O5 0.250000 0.250000 0.500000
O O6 0.262457 0.252649 0.279209
O O7 0.279067 0.133811 0.308908
O O8 0.490189 0.206901 0.889777
O O9 0.692420 0.135050 0.340550
O O10 0.677672 0.000000 0.333198
O O11 0.472628 0.083194 0.757991
O O12 0.915441 0.744949 0.485297
O O13 0.785807 0.500000 0.244964
O O14 0.000000 0.252677 0.500000
O O15 0.750000 0.250000 0.000000
#
# Coordination Sequence:
#
# PCOD9183353 Si02
#       6
#     8   8   8   8   8   8
#     4  10  19  33  54  83 122 159 190 226 282 356
#     4  11  23  40  62  85 110 150 203 257 299 337
#     4   9  18  31  54  86 119 152 189 228 284 353
#     4  11  22  38  60  84 120 151 191 243 296 344
#     4   9  18  34  57  85 116 152 193 240 290 348
#     4  12  24  36  57  88 124 159 194 230 284 359
#
# _framework density 19.800606999999999
#
# number of rings (size 3 to 8) (size 9 to 14) (size 15 to 20)
#    0.000    1.667    3.333    2.000    2.333    2.333 
#    0.000    0.833    0.000    8.000    0.000    0.000 
#    0.000    0.000    0.000    0.000    0.000    0.000 
#
# Total GULP energy -133800.537400 kJ/mol
# GULP energy per Si atom -5575.022392 kJ/mol
# Density = 1.975554 g / cm^3
# Si number density = 19.800607 Si / 1000 Ang^3
#
#
#
# Elastic Constant Matrix: (Units=GPa)
#
#
# Indices 1 2 3 4 5 6 
#
# 1 71.8717 28.4878 12.1358 0.0004 1.0816 -0.0001
# 2 28.4878 132.4149 14.3522 0.0002 14.6874 -0.0002
# 3 12.1358 14.3522 44.8597 -0.0005 12.6172 -0.0004
# 4 0.0004 0.0002 -0.0005 20.8897 -0.0005 10.6614
# 5 1.0816 14.6874 12.6172 -0.0005 32.0070 0.0002
# 6 -0.0001 -0.0002 -0.0004 10.6614 0.0002 29.0690
#
#
#
# Elastic Compliance Matrix: (Units=1/GPa)
#
#
# Indices 1 2 3 4 5 6 
#
# 1 0.015834 -0.003258 -0.003949 0.000000 0.002517 0.000000
# 2 -0.003258 0.008745 -0.000921 0.000000 -0.003540 0.000000
# 3 -0.003949 -0.000921 0.026429 0.000000 -0.009862 0.000000
# 4 0.000000 0.000000 0.000000 0.058895 0.000001 -0.021600
# 5 0.002517 -0.003540 -0.009862 0.000001 0.036670 -0.000001
# 6 0.000000 0.000000 0.000000 -0.021600 -0.000001 0.042323
#
#
# Mechanical properties :
#
#
# Convention : Reuss Voigt Hill
#
# Bulk Modulus (GPa) = 28.77508 39.89978 34.33743
# Shear Modulus (GPa) = 23.06964 29.33784 26.20374
#
# Velocity S-wave (km/s) = 3.41706 3.85341 3.64178
# Velocity P-wave (km/s) = 5.48929 6.32400 5.92137
#
# Compressibility (1/GPa) = 0.03475229
#
# Stress axis : x y z
#
# Youngs Moduli (GPa) = 63.15589 114.34667 37.83789
#
# Poissons Ratio (x) = 0.37250 0.14942
# Poissons Ratio (y) = 0.20574 0.03485
# Poissons Ratio (z) = 0.24941 0.10532
#
# Static dielectric constant tensor:
#      x y z
#    x 1.673070 0.000000 0.008840 
#    y 0.000000 1.753540 0.000000 
#    z 0.008840 0.000000 1.793270 
# 
# From -- ./inp_files/132561.got.cif
#   From: 2010.05.17/outbox.cif.g08.bks.cpg/sg12_67_cif.got.tgz:132561.got - 2010.06.03 13:09:07.
