data_PCOD9183619
_publ_section_title
;
Structure prediction by ZEFSAII (Michael W. Deem and Ramdas Pophale) SiO2 
 PCOD9183619
Probable space group: C 2/M
;
_chemical_formula_sum "Si O2"
_cell_formula_units_Z 40
_cell_length_a 17.856940
_cell_length_b 18.658161
_cell_length_c 9.391350
_cell_angle_alpha 90.000000
_cell_angle_beta 42.740047
_cell_angle_gamma 90.000000
_cell_volume 2123.560239
_symmetry_space_group_name_H-M "C 2/M"
_symmetry_group_IT_number 12
_symmetry_cell_setting 'monoclinic'
loop_
_space_group_symop_operation_xyz
x,y,z
-x,y,-z
-x,-y,-z
x,-y,z
1/2+x,1/2+y,z
1/2-x,1/2+y,-z
1/2-x,1/2-y,-z
1/2+x,1/2-y,z
loop_
_atom_site_type_symbol
_atom_site_label
_atom_site_fract_x
_atom_site_fract_y
_atom_site_fract_z
Si Si1 0.500361 0.215769 0.665173
Si Si2 0.262008 0.778644 0.640733
Si Si3 0.269684 0.847673 0.083358
Si Si4 0.515825 0.500000 0.246253
Si Si5 0.094999 0.848550 0.063830
Si Si6 0.312965 0.500000 0.725326
O O1 0.500000 0.236278 0.500000
O O2 0.620211 0.181576 0.518176
O O3 0.491903 0.287290 0.772310
O O4 0.392951 0.169693 0.855862
O O5 0.250000 0.750000 0.500000
O O6 0.260613 0.712597 0.756830
O O7 0.161625 0.827861 0.830685
O O8 0.184944 0.843497 0.068430
O O9 0.256186 0.927050 0.165679
O O10 0.542761 0.426408 0.130215
O O11 0.392068 0.500000 0.478356
O O12 0.600696 0.500000 0.262569
#
# Coordination Sequence:
#
# PCOD9183619 Si02
#       6
#     8   8   8   4   8   4
#     4  11  18  33  58  76 106 143 180 225 271 312
#     4  11  22  35  54  81 112 141 180 228 274 318
#     4  10  19  34  55  81 106 140 186 222 265 333
#     4   9  18  30  54  81 114 139 177 229 277 311
#     4  10  19  33  55  83 106 141 184 223 267 332
#     4   9  18  32  53  83 109 141 180 229 270 319
#
# _framework density 18.836292
#
# number of rings (size 3 to 8) (size 9 to 14) (size 15 to 20)
#    0.000    1.800    4.000    2.400    2.800    3.200 
#    0.000    2.500    0.000    3.600    0.000    0.000 
#    0.000    0.000    0.000    0.000    0.000    0.000 
#
# Total GULP energy -111631.187553 kJ/mol
# GULP energy per Si atom -5581.559378 kJ/mol
# Density = 1.879342 g / cm^3
# Si number density = 18.836292 Si / 1000 Ang^3
#
#
#
# Elastic Constant Matrix: (Units=GPa)
#
#
# Indices 1 2 3 4 5 6 
#
# 1 26.0086 -5.2653 29.5082 0.0000 1.7822 0.0000
# 2 -5.2653 128.1730 68.4199 0.0000 -13.2673 0.0000
# 3 29.5082 68.4199 167.2303 0.0000 -13.2977 0.0000
# 4 0.0000 0.0000 0.0000 20.3844 0.0000 0.2034
# 5 1.7822 -13.2673 -13.2977 0.0000 26.9843 0.0000
# 6 0.0000 0.0000 0.0000 0.2034 0.0000 8.9776
#
#
#
# Elastic Compliance Matrix: (Units=1/GPa)
#
#
# Indices 1 2 3 4 5 6 
#
# 1 0.057152 0.009402 -0.014429 0.000000 -0.006263 0.000000
# 2 0.009402 0.011770 -0.006311 0.000000 0.002056 0.000000
# 3 -0.014429 -0.006311 0.011383 0.000000 0.003460 0.000000
# 4 0.000000 0.000000 0.000000 0.049068 0.000000 -0.001112
# 5 -0.006263 0.002056 0.003460 0.000000 0.040188 0.000000
# 6 0.000000 0.000000 0.000000 -0.001112 0.000000 0.111414
#
#
# Mechanical properties :
#
#
# Convention : Reuss Voigt Hill
#
# Bulk Modulus (GPa) = 17.35257 56.30418 36.82838
# Shear Modulus (GPa) = 15.48653 26.51919 21.00286
#
# Velocity S-wave (km/s) = 2.87045 3.75624 3.34282
# Velocity P-wave (km/s) = 4.49648 6.98346 5.87312
#
# Compressibility (1/GPa) = 0.05762835
#
# Stress axis : x y z
#
# Youngs Moduli (GPa) = 17.49717 84.96280 87.85009
#
# Poissons Ratio (x) = -0.79882 1.26762
# Poissons Ratio (y) = -0.16451 0.55442
# Poissons Ratio (z) = 0.25247 0.53620
#
# Static dielectric constant tensor:
#      x y z
#    x 1.697680 0.000000 -0.002800 
#    y 0.000000 1.638370 0.000000 
#    z -0.002800 0.000000 1.642750 
# 
# From -- ./inp_files/48547.got.cif
#   From: 2010.05.17/outbox.cif.g08.bks.cpg/sg12_25_cif.got.tgz:48547.got - 2010.06.03 13:09:07.
