data_PCOD9183785
_publ_section_title
;
Structure prediction by ZEFSAII (Michael W. Deem and Ramdas Pophale) SiO2 
 PCOD9183785
Probable space group: C 2/M
;
_chemical_formula_sum "Si O2"
_cell_formula_units_Z 64
_cell_length_a 14.633562
_cell_length_b 9.426093
_cell_length_c 26.405313
_cell_angle_alpha 90.000000
_cell_angle_beta 101.001264
_cell_angle_gamma 90.000000
_cell_volume 3575.343774
_symmetry_space_group_name_H-M "C 2/M"
_symmetry_group_IT_number 12
_symmetry_cell_setting 'monoclinic'
loop_
_space_group_symop_operation_xyz
x,y,z
-x,y,-z
-x,-y,-z
x,-y,z
1/2+x,1/2+y,z
1/2-x,1/2+y,-z
1/2-x,1/2-y,-z
1/2+x,1/2-y,z
loop_
_atom_site_type_symbol
_atom_site_label
_atom_site_fract_x
_atom_site_fract_y
_atom_site_fract_z
Si Si1 0.334703 0.168944 0.721163
Si Si2 0.887748 0.166750 0.117218
Si Si3 0.774638 0.329625 0.553890
Si Si4 0.602122 0.163690 0.985567
Si Si5 0.458176 0.169235 0.634709
Si Si6 0.419669 0.330879 0.824033
Si Si7 0.848143 0.170131 0.360622
Si Si8 0.321033 0.168496 0.901164
O O1 0.408347 0.195586 0.683554
O O2 0.365241 0.256203 0.773059
O O3 0.231847 0.204767 0.689222
O O4 0.335971 0.000000 0.731974
O O5 0.784738 0.188987 0.127324
O O6 0.970099 0.202781 0.164529
O O7 0.896816 0.000000 0.106602
O O8 0.896069 0.248355 0.065286
O O9 0.772548 0.500000 0.546767
O O10 0.750000 0.250000 0.500000
O O11 0.877918 0.292645 0.585408
O O12 0.700389 0.295802 0.590516
O O13 0.669648 0.208130 0.038662
O O14 0.622441 0.000000 0.975303
O O15 0.500000 0.170903 0.000000
O O16 0.554561 0.251327 0.637643
O O17 0.474399 0.000000 0.632665
O O18 0.406810 0.500000 0.821397
O O19 0.385019 0.264390 0.873112
O O20 0.862187 0.000000 0.360492
O O21 0.345408 0.000000 0.899922
#
# Coordination Sequence:
#
# PCOD9183785 Si02
#       8
#     8   8   8   8   8   8   8   8
#     4   9  20  39  58  75 103 142 176 216 271 322
#     4  10  22  37  54  77 106 138 170 210 262 314
#     4   9  19  35  53  79 116 152 185 222 266 316
#     4  10  19  33  56  81 103 134 175 212 252 311
#     4   9  19  36  57  81 109 143 184 225 268 317
#     4  11  23  37  54  80 107 133 173 221 264 312
#     4   9  19  36  57  80 107 142 183 223 267 318
#     4  10  21  38  56  76 106 141 172 208 261 319
#
# _framework density 17.900378
#
# number of rings (size 3 to 8) (size 9 to 14) (size 15 to 20)
#    0.000    2.375    1.250    2.250    0.000    5.250 
#    0.000    8.750    0.000    0.000    0.000    0.000 
#    0.000    0.000    0.000    0.000    0.000    0.000 
#
# Total GULP energy -178497.238717 kJ/mol
# GULP energy per Si atom -5578.038710 kJ/mol
# Density = 1.785964 g / cm^3
# Si number density = 17.900378 Si / 1000 Ang^3
#
#
#
# Elastic Constant Matrix: (Units=GPa)
#
#
# Indices 1 2 3 4 5 6 
#
# 1 113.1567 43.4525 30.4306 0.0000 19.2269 0.0000
# 2 43.4525 30.0708 29.9896 0.0000 9.2130 0.0000
# 3 30.4306 29.9896 68.5947 0.0000 19.5016 0.0000
# 4 0.0000 0.0000 0.0000 32.9031 0.0000 0.5234
# 5 19.2269 9.2130 19.5016 0.0000 13.8580 0.0000
# 6 0.0000 0.0000 0.0000 0.5234 0.0000 31.8809
#
#
#
# Elastic Compliance Matrix: (Units=1/GPa)
#
#
# Indices 1 2 3 4 5 6 
#
# 1 0.028168 -0.048785 0.017874 0.000000 -0.031800 0.000000
# 2 -0.048785 0.143656 -0.055433 0.000000 0.050189 0.000000
# 3 0.017874 -0.055433 0.045769 0.000000 -0.052354 0.000000
# 4 0.000000 0.000000 0.000000 0.030400 0.000000 -0.000499
# 5 -0.031800 0.050189 -0.052354 0.000000 0.156590 0.000000
# 6 0.000000 0.000000 0.000000 -0.000499 0.000000 0.031375
#
#
# Mechanical properties :
#
#
# Convention : Reuss Voigt Hill
#
# Bulk Modulus (GPa) = 22.26968 46.61862 34.44415
# Shear Modulus (GPa) = 8.01779 22.92503 15.47141
#
# Velocity S-wave (km/s) = 2.11869 3.58257 2.94310
# Velocity P-wave (km/s) = 4.29570 6.57366 5.55275
#
# Compressibility (1/GPa) = 0.04490410
#
# Stress axis : x y z
#
# Youngs Moduli (GPa) = 35.50190 6.96107 21.84902
#
# Poissons Ratio (x) = 0.33960 -0.39052
# Poissons Ratio (y) = 1.73196 1.21115
# Poissons Ratio (z) = -0.63455 0.38587
#
# Static dielectric constant tensor:
#      x y z
#    x 1.637970 0.000000 0.019500 
#    y 0.000000 1.592090 0.000000 
#    z 0.019500 0.000000 1.599680 
# 
# From -- ./inp_files/359872.got.cif
#   From: 2010.05.17/outbox.cif.g08.bks.cpg/sg12_180_cif.got.tgz:359872.got - 2010.06.03 13:09:07.
