data_PCOD9183459
_publ_section_title
;
Structure prediction by ZEFSAII (Michael W. Deem and Ramdas Pophale) SiO2 
 PCOD9183459
Probable space group: C 2/M
;
_chemical_formula_sum "Si O2"
_cell_formula_units_Z 56
_cell_length_a 20.242565
_cell_length_b 8.612508
_cell_length_c 28.739962
_cell_angle_alpha 90.000000
_cell_angle_beta 37.751573
_cell_angle_gamma 90.000000
_cell_volume 3067.625593
_symmetry_space_group_name_H-M "C 2/M"
_symmetry_group_IT_number 12
_symmetry_cell_setting 'monoclinic'
loop_
_space_group_symop_operation_xyz
x,y,z
-x,y,-z
-x,-y,-z
x,-y,z
1/2+x,1/2+y,z
1/2-x,1/2+y,-z
1/2-x,1/2-y,-z
1/2+x,1/2-y,z
loop_
_atom_site_type_symbol
_atom_site_label
_atom_site_fract_x
_atom_site_fract_y
_atom_site_fract_z
Si Si1 0.164226 0.814901 0.200572
Si Si2 0.036063 0.187138 0.625346
Si Si3 0.318165 0.815377 0.373114
Si Si4 0.363429 0.687511 0.954101
Si Si5 0.078646 0.686660 0.499011
Si Si6 0.616203 0.312862 0.951503
Si Si7 0.504604 0.686767 0.206094
O O1 0.281764 0.741677 0.135021
O O2 0.077848 0.765518 0.287637
O O3 0.105209 0.779261 0.184423
O O4 0.175110 0.000000 0.197632
O O5 0.130107 0.248829 0.607605
O O6 0.042640 0.249605 0.569478
O O7 0.042789 0.000000 0.621646
O O8 0.201617 0.745433 0.426029
O O9 0.402153 0.769198 0.285774
O O10 0.309663 0.000000 0.382417
O O11 0.361669 0.500000 0.954068
O O12 0.458741 0.734610 0.865740
O O13 0.250000 0.750000 0.000000
O O14 0.374147 0.740605 0.000797
O O15 0.078218 0.500000 0.500458
O O16 0.000000 0.735476 0.500000
O O17 0.616668 0.500000 0.950650
O O18 0.500000 0.257493 0.000000
O O19 0.486691 0.500000 0.217663
#
# Coordination Sequence:
#
# PCOD9183459 Si02
#       7
#     8   8   8   8   8   8   8
#     4   9  18  34  56  81 109 143 182 229 278 326
#     4  10  21  39  63  88 117 149 188 235 284 338
#     4  11  22  37  61  89 117 149 191 236 281 337
#     4  10  19  33  55  79 108 145 187 234 281 329
#     4  11  24  42  62  86 117 152 189 229 282 341
#     4  10  21  35  51  77 112 148 186 228 277 334
#     4   9  18  34  55  81 112 144 186 237 286 330
#
# _framework density 18.255161999999999
#
# number of rings (size 3 to 8) (size 9 to 14) (size 15 to 20)
#    0.000    2.000    1.429    3.429    0.000    4.857 
#    2.571    0.000    0.000    0.000    0.000    0.000 
#    0.000    0.000    0.000    0.000    0.000    0.000 
#
# Total GULP energy -156245.615436 kJ/mol
# GULP energy per Si atom -5580.200551 kJ/mol
# Density = 1.821361 g / cm^3
# Si number density = 18.255162 Si / 1000 Ang^3
#
#
#
# Elastic Constant Matrix: (Units=GPa)
#
#
# Indices 1 2 3 4 5 6 
#
# 1 136.0424 36.8185 84.3794 0.0002 -15.2263 -0.0006
# 2 36.8185 44.5671 35.1097 0.0004 -4.4713 -0.0012
# 3 84.3794 35.1097 135.6641 0.0001 -11.4803 -0.0002
# 4 0.0002 0.0004 0.0001 33.5834 0.0000 -1.8029
# 5 -15.2263 -4.4713 -11.4803 0.0000 27.5043 0.0001
# 6 -0.0006 -0.0012 -0.0002 -1.8029 0.0001 23.2034
#
#
#
# Elastic Compliance Matrix: (Units=1/GPa)
#
#
# Indices 1 2 3 4 5 6 
#
# 1 0.013309 -0.005461 -0.006547 0.000000 0.003747 0.000000
# 2 -0.005461 0.030493 -0.004490 0.000000 0.000060 0.000001
# 3 -0.006547 -0.004490 0.012685 0.000000 0.000940 0.000000
# 4 0.000000 0.000000 0.000000 0.029901 0.000000 0.002323
# 5 0.003747 0.000060 0.000940 0.000000 0.038834 0.000000
# 6 0.000000 0.000001 0.000000 0.002323 0.000000 0.043278
#
#
# Mechanical properties :
#
#
# Convention : Reuss Voigt Hill
#
# Bulk Modulus (GPa) = 42.57107 69.87653 56.22380
# Shear Modulus (GPa) = 23.88609 27.52262 25.70435
#
# Velocity S-wave (km/s) = 3.62118 3.88707 3.75648
# Velocity P-wave (km/s) = 6.39176 7.64896 7.04845
#
# Compressibility (1/GPa) = 0.02349013
#
# Stress axis : x y z
#
# Youngs Moduli (GPa) = 75.13698 32.79472 78.83342
#
# Poissons Ratio (x) = 0.17910 0.51616
# Poissons Ratio (y) = 0.41033 0.35394
# Poissons Ratio (z) = 0.49195 0.14724
#
# Static dielectric constant tensor:
#      x y z
#    x 1.512300 0.000000 0.036770 
#    y 0.000000 1.620250 0.000000 
#    z 0.036770 0.000000 1.624600 
# 
# From -- ./inp_files/362950.got.cif
#   From: 2010.05.17/outbox.cif.g08.bks.cpg/sg12_182_cif.got.tgz:362950.got - 2010.06.03 13:09:07.
