data_PCOD9183203
_publ_section_title
;
Structure prediction by ZEFSAII (Michael W. Deem and Ramdas Pophale) SiO2 
 PCOD9183203
Probable space group: C 2/M
;
_chemical_formula_sum "Si O2"
_cell_formula_units_Z 64
_cell_length_a 26.538074
_cell_length_b 7.775647
_cell_length_c 15.162220
_cell_angle_alpha 90.000000
_cell_angle_beta 78.682912
_cell_angle_gamma 90.000000
_cell_volume 3067.900075
_symmetry_space_group_name_H-M "C 2/M"
_symmetry_group_IT_number 12
_symmetry_cell_setting 'monoclinic'
loop_
_space_group_symop_operation_xyz
x,y,z
-x,y,-z
-x,-y,-z
x,-y,z
1/2+x,1/2+y,z
1/2-x,1/2+y,-z
1/2-x,1/2-y,-z
1/2+x,1/2-y,z
loop_
_atom_site_type_symbol
_atom_site_label
_atom_site_fract_x
_atom_site_fract_y
_atom_site_fract_z
Si Si1 0.986690 0.293057 0.407819
Si Si2 0.444411 0.696060 0.136900
Si Si3 0.847549 0.211207 0.072148
Si Si4 0.776115 0.205149 0.399266
Si Si5 0.655562 0.706734 0.125550
Si Si6 0.541466 0.706738 0.207473
Si Si7 0.250126 0.706340 0.218293
Si Si8 0.392281 0.799020 0.329898
O O1 0.988869 0.500000 0.411826
O O2 0.929509 0.244259 0.396476
O O3 0.000000 0.224458 0.500000
O O4 0.022704 0.241817 0.313465
O O5 0.455263 0.500000 0.104981
O O6 0.404853 0.772043 0.079288
O O7 0.498314 0.773483 0.152703
O O8 0.409529 0.696612 0.237489
O O9 0.802876 0.269586 0.154190
O O10 0.849009 0.000000 0.075076
O O11 0.833452 0.264270 0.978094
O O12 0.750000 0.250000 0.500000
O O13 0.747372 0.267280 0.320368
O O14 0.833590 0.275677 0.373831
O O15 0.779358 0.000000 0.393319
O O16 0.652646 0.500000 0.124365
O O17 0.598987 0.771311 0.172135
O O18 0.700707 0.751597 0.177046
O O19 0.541451 0.500000 0.196638
O O20 0.253941 0.500000 0.218456
O O21 0.402556 0.000000 0.307186
#
# Coordination Sequence:
#
# PCOD9183203 Si02
#       8
#     8   8   8   8   8   8   8   8
#     4   9  19  35  55  77 103 140 182 219 263 325
#     4   9  16  32  56  77 105 144 180 220 268 321
#     4   9  17  33  57  81 107 142 187 228 269 324
#     4  11  23  39  58  81 109 141 182 228 278 330
#     4  10  21  35  53  82 116 146 181 228 273 322
#     4   9  19  33  51  79 111 141 177 221 275 324
#     4  10  21  38  57  77 106 147 188 223 269 330
#     4  10  19  33  54  80 107 136 177 225 271 320
#
# _framework density 20.861176
#
# number of rings (size 3 to 8) (size 9 to 14) (size 15 to 20)
#    0.000    2.375    1.250    1.125    0.000    3.750 
#    0.000    6.875    0.000    0.000    0.000    4.375 
#    0.000    0.000    0.000    0.000    0.000    0.000 
#
# Total GULP energy -178569.586594 kJ/mol
# GULP energy per Si atom -5580.299581 kJ/mol
# Density = 2.081370 g / cm^3
# Si number density = 20.861176 Si / 1000 Ang^3
#
#
#
# Elastic Constant Matrix: (Units=GPa)
#
#
# Indices 1 2 3 4 5 6 
#
# 1 135.5447 5.2999 72.5544 0.0000 21.7272 0.0000
# 2 5.2999 31.5285 6.7280 0.0000 4.3330 0.0000
# 3 72.5544 6.7280 116.6126 0.0000 25.2848 0.0000
# 4 0.0000 0.0000 0.0000 -19.3208 0.0000 3.9427
# 5 21.7272 4.3330 25.2848 0.0000 35.1242 0.0000
# 6 0.0000 0.0000 0.0000 3.9427 0.0000 20.1359
#
#
#
# Elastic Compliance Matrix: (Units=1/GPa)
#
#
# Indices 1 2 3 4 5 6 
#
# 1 0.011213 -0.000193 -0.006478 0.000000 -0.002249 0.000000
# 2 -0.000193 0.032406 -0.001076 0.000000 -0.003103 0.000000
# 3 -0.006478 -0.001076 0.013947 0.000000 -0.005900 0.000000
# 4 0.000000 0.000000 0.000000 -0.049769 0.000000 0.009745
# 5 -0.002249 -0.003103 -0.005900 0.000000 0.034492 0.000000
# 6 0.000000 0.000000 0.000000 0.009745 0.000000 0.047755
#
#
# Mechanical properties :
#
#
# Convention : Reuss Voigt Hill
#
# Bulk Modulus (GPa) = 23.76933 50.31669 37.04301
# Shear Modulus (GPa) = 41.81897 20.46143 31.14020
#
# Velocity S-wave (km/s) = 4.48217 3.13523 3.86778
# Velocity P-wave (km/s) = 6.18104 6.10560 6.14344
#
# Compressibility (1/GPa) = 0.04207102
#
# Stress axis : x y z
#
# Youngs Moduli (GPa) = 89.18077 30.85845 71.69876
#
# Poissons Ratio (x) = 0.00597 0.46445
# Poissons Ratio (y) = 0.01725 0.07718
# Poissons Ratio (z) = 0.57769 0.03322
#
# Static dielectric constant tensor:
#      x y z
#    x 1.753250 0.000000 0.024020 
#    y 0.000000 1.788460 0.000000 
#    z 0.024020 0.000000 1.723300 
# 
# From -- ./inp_files/243852.got.cif
#   From: 2010.05.17/outbox.cif.g08.bks.cpg/sg12_122_cif.got.tgz:243852.got - 2010.06.03 13:09:07.
