data_PCOD9183541
_publ_section_title
;
Structure prediction by ZEFSAII (Michael W. Deem and Ramdas Pophale) SiO2 
 PCOD9183541
Probable space group: C 2/M
;
_chemical_formula_sum "Si O2"
_cell_formula_units_Z 64
_cell_length_a 17.937364
_cell_length_b 22.242619
_cell_length_c 12.625289
_cell_angle_alpha 90.000000
_cell_angle_beta 46.553461
_cell_angle_gamma 90.000000
_cell_volume 3657.061523
_symmetry_space_group_name_H-M "C 2/M"
_symmetry_group_IT_number 12
_symmetry_cell_setting 'monoclinic'
loop_
_space_group_symop_operation_xyz
x,y,z
-x,y,-z
-x,-y,-z
x,-y,z
1/2+x,1/2+y,z
1/2-x,1/2+y,-z
1/2-x,1/2-y,-z
1/2+x,1/2-y,z
loop_
_atom_site_type_symbol
_atom_site_label
_atom_site_fract_x
_atom_site_fract_y
_atom_site_fract_z
Si Si1 0.777600 0.930861 0.328283
Si Si2 0.148083 0.571963 0.652886
Si Si3 0.105776 0.867870 0.962922
Si Si4 0.949094 0.634631 0.936417
Si Si5 0.751420 0.927780 0.776936
Si Si6 0.632474 0.743546 0.084465
Si Si7 0.941216 0.158514 0.659548
Si Si8 0.489548 0.433526 0.252013
O O1 0.696025 0.907783 0.494110
O O2 0.803255 0.891295 0.200720
O O3 0.885167 0.933173 0.287300
O O4 0.753030 0.000000 0.322182
O O5 0.138405 0.500000 0.656286
O O6 0.222812 0.583195 0.680871
O O7 0.038532 0.600432 0.786016
O O8 0.124301 0.803486 0.996000
O O9 0.000000 0.865800 0.000000
O O10 0.080767 0.913235 0.084009
O O11 0.914022 0.693426 0.907127
O O12 0.851253 0.592324 0.058662
O O13 0.000000 0.651769 0.000000
O O14 0.842625 0.883164 0.725232
O O15 0.771527 0.000000 0.770186
O O16 0.582381 0.711409 0.235105
O O17 0.750000 0.750000 0.000000
O O18 0.000000 0.181520 0.500000
O O19 0.015770 0.113003 0.648527
O O20 0.507904 0.500000 0.275124
#
# Coordination Sequence:
#
# PCOD9183541 Si02
#       8
#     8   8   8   8   8   8   8   8
#     4   9  16  30  52  82 113 135 167 218 266 313
#     4   9  18  32  54  84 111 134 171 222 270 315
#     4   9  18  32  54  77 104 138 180 215 259 314
#     4  10  20  37  58  78 103 141 186 225 261 308
#     4  10  19  33  55  81 109 141 173 213 269 328
#     4  11  22  40  56  72 102 143 185 223 259 306
#     4  11  22  35  52  77 111 140 174 218 266 320
#     4   9  17  29  50  79 111 143 171 206 263 326
#
# _framework density 17.500388999999998
#
# number of rings (size 3 to 8) (size 9 to 14) (size 15 to 20)
#    0.000    2.250    1.250    2.250    0.000    5.000 
#    2.250    0.000    0.000    5.250    0.000    1.750 
#    0.000    0.000    0.000    0.000    0.000    0.000 
#
# Total GULP energy -178379.516603 kJ/mol
# GULP energy per Si atom -5574.359894 kJ/mol
# Density = 1.746056 g / cm^3
# Si number density = 17.500389 Si / 1000 Ang^3
#
#
#
# Elastic Constant Matrix: (Units=GPa)
#
#
# Indices 1 2 3 4 5 6 
#
# 1 31.5986 9.1145 12.1066 0.0000 -1.8785 0.0000
# 2 9.1145 49.9192 29.8048 0.0000 6.3194 0.0000
# 3 12.1066 29.8048 124.8617 0.0000 10.6070 0.0000
# 4 0.0000 0.0000 0.0000 5.5828 0.0000 -10.7452
# 5 -1.8785 6.3194 10.6070 0.0000 23.1112 0.0000
# 6 0.0000 0.0000 0.0000 -10.7452 0.0000 12.1223
#
#
#
# Elastic Compliance Matrix: (Units=1/GPa)
#
#
# Indices 1 2 3 4 5 6 
#
# 1 0.034515 -0.005502 -0.002497 0.000000 0.005456 0.000000
# 2 -0.005502 0.024597 -0.004920 0.000000 -0.004915 0.000000
# 3 -0.002497 -0.004920 0.009707 0.000000 -0.003313 0.000000
# 4 0.000000 0.000000 0.000000 -0.253696 0.000000 -0.224876
# 5 0.005456 -0.004915 -0.003313 0.000000 0.046577 0.000000
# 6 0.000000 0.000000 0.000000 -0.224876 0.000000 -0.116838
#
#
# Mechanical properties :
#
#
# Convention : Reuss Voigt Hill
#
# Bulk Modulus (GPa) = 23.26625 34.27013 28.76819
# Shear Modulus (GPa) = -23.25863 18.52017 -2.36923
#
# Velocity S-wave (km/s) = -3.64955 3.25664 -1.16480
# Velocity P-wave (km/s) = 2.10603 5.81085 3.82953
#
# Compressibility (1/GPa) = 0.04298071
#
# Stress axis : x y z
#
# Youngs Moduli (GPa) = 28.97300 40.65559 103.02002
#
# Poissons Ratio (x) = 0.22368 0.25721
# Poissons Ratio (y) = 0.15940 0.50690
# Poissons Ratio (z) = 0.07234 0.20004
#
# Static dielectric constant tensor:
#      x y z
#    x 1.597180 0.000000 0.023520 
#    y 0.000000 1.585390 0.000000 
#    z 0.023520 0.000000 1.679540 
# 
# From -- ./inp_files/159558.got.cif
#   From: 2010.05.17/outbox.cif.g08.bks.cpg/sg12_80_cif.got.tgz:159558.got - 2010.06.03 13:09:07.
