data_PCOD9183739
_publ_section_title
;
Structure prediction by ZEFSAII (Michael W. Deem and Ramdas Pophale) SiO2 
 PCOD9183739
Probable space group: C 2/M
;
_chemical_formula_sum "Si O2"
_cell_formula_units_Z 64
_cell_length_a 18.964144
_cell_length_b 18.098005
_cell_length_c 10.224741
_cell_angle_alpha 90.000000
_cell_angle_beta 131.175427
_cell_angle_gamma 90.000000
_cell_volume 2641.415028
_symmetry_space_group_name_H-M "C 2/M"
_symmetry_group_IT_number 12
_symmetry_cell_setting 'monoclinic'
loop_
_space_group_symop_operation_xyz
x,y,z
-x,y,-z
-x,-y,-z
x,-y,z
1/2+x,1/2+y,z
1/2-x,1/2+y,-z
1/2-x,1/2-y,-z
1/2+x,1/2-y,z
loop_
_atom_site_type_symbol
_atom_site_label
_atom_site_fract_x
_atom_site_fract_y
_atom_site_fract_z
Si Si1 0.077096 0.584949 0.496569
Si Si2 0.218383 0.916164 0.298088
Si Si3 0.468948 0.888670 0.104430
Si Si4 0.700164 0.681526 0.507025
Si Si5 0.950056 0.919739 0.080990
Si Si6 0.760706 0.417045 0.809721
Si Si7 0.187131 0.770692 0.755974
Si Si8 0.601243 0.737141 0.911615
O O1 0.092005 0.500000 0.559288
O O2 0.180773 0.617738 0.613404
O O3 0.000000 0.617484 0.500000
O O4 0.035342 0.586001 0.300793
O O5 0.166414 0.868642 0.346322
O O6 0.158441 0.922004 0.094802
O O7 0.230880 0.000000 0.364750
O O8 0.461295 0.799863 0.098863
O O9 0.500000 0.913456 0.000000
O O10 0.363521 0.916822 0.995552
O O11 0.750000 0.750000 0.500000
O O12 0.763964 0.624285 0.671447
O O13 0.644149 0.718676 0.559117
O O14 0.975479 0.000000 0.173678
O O15 0.953575 0.840393 0.153572
O O16 0.000000 0.918029 0.000000
O O17 0.724271 0.500000 0.755815
O O18 0.700050 0.357600 0.815229
O O19 0.125987 0.736923 0.795035
O O20 0.294860 0.739824 0.890830
#
# Coordination Sequence:
#
# PCOD9183739 Si02
#       8
#     8   8   8   8   8   8   8   8
#     4  10  23  41  60  93 137 174 210 257 314 394
#     4  10  21  38  63  88 123 164 204 258 319 379
#     4  11  22  35  60  88 127 175 209 255 311 385
#     4  10  19  33  55  88 120 160 204 255 312 372
#     4  10  22  40  65  92 115 156 214 269 320 371
#     4   9  19  34  54  88 124 162 208 255 307 376
#     4   8  20  33  56  87 118 162 198 259 305 371
#     4  10  19  39  58  84 122 156 207 263 312 360
#
# _framework density 24.229437000000001
#
# number of rings (size 3 to 8) (size 9 to 14) (size 15 to 20)
#    0.750    1.500    0.000    2.625    0.000    6.500 
#    2.250    1.250    0.000    0.000    0.000    2.625 
#    0.000    0.000    0.000    0.000    0.000    0.000 
#
# Total GULP energy -178442.893858 kJ/mol
# GULP energy per Si atom -5576.340433 kJ/mol
# Density = 2.417429 g / cm^3
# Si number density = 24.229437 Si / 1000 Ang^3
#
#
#
# Elastic Constant Matrix: (Units=GPa)
#
#
# Indices 1 2 3 4 5 6 
#
# 1 80.9289 3.7252 13.9363 0.0000 -14.4025 0.0000
# 2 3.7252 143.0197 -15.3783 0.0000 1.9368 0.0000
# 3 13.9363 -15.3783 52.5473 0.0000 -1.1601 0.0000
# 4 0.0000 0.0000 0.0000 15.7060 0.0000 -2.4937
# 5 -14.4025 1.9368 -1.1601 0.0000 27.5304 0.0000
# 6 0.0000 0.0000 0.0000 -2.4937 0.0000 11.1912
#
#
#
# Elastic Compliance Matrix: (Units=1/GPa)
#
#
# Indices 1 2 3 4 5 6 
#
# 1 0.014394 -0.000897 -0.003916 0.000000 0.007428 0.000000
# 2 -0.000897 0.007280 0.002349 0.000000 -0.000882 0.000000
# 3 -0.003916 0.002349 0.020727 0.000000 -0.001340 0.000000
# 4 0.000000 0.000000 0.000000 0.066005 0.000000 0.014707
# 5 0.007428 -0.000882 -0.001340 0.000000 0.040215 0.000000
# 6 0.000000 0.000000 0.000000 0.014707 0.000000 0.092633
#
#
# Mechanical properties :
#
#
# Convention : Reuss Voigt Hill
#
# Bulk Modulus (GPa) = 26.68554 31.22916 28.95735
# Shear Modulus (GPa) = 19.32948 29.16638 24.24793
#
# Velocity S-wave (km/s) = 2.82754 3.47329 3.16692
# Velocity P-wave (km/s) = 4.65807 5.38534 5.03485
#
# Compressibility (1/GPa) = 0.03747348
#
# Stress axis : x y z
#
# Youngs Moduli (GPa) = 69.47284 137.36444 48.24668
#
# Poissons Ratio (x) = 0.12316 0.18893
# Poissons Ratio (y) = 0.06229 -0.11332
# Poissons Ratio (z) = 0.27205 -0.32264
#
# Static dielectric constant tensor:
#      x y z
#    x 1.933840 0.000000 0.026830 
#    y 0.000000 2.053050 0.000000 
#    z 0.026830 0.000000 2.011350 
# 
# From -- ./inp_files/168789.got.cif
#   From: 2010.05.17/outbox.cif.g08.bks.cpg/sg12_85_cif.got.tgz:168789.got - 2010.06.03 13:09:07.
