data_PCOD9183124
_publ_section_title
;
Structure prediction by ZEFSAII (Michael W. Deem and Ramdas Pophale) SiO2 
 PCOD9183124
Probable space group: C 2/M
;
_chemical_formula_sum "Si O2"
_cell_formula_units_Z 56
_cell_length_a 19.332850
_cell_length_b 8.810298
_cell_length_c 30.630074
_cell_angle_alpha 90.000000
_cell_angle_beta 142.178344
_cell_angle_gamma 90.000000
_cell_volume 3199.194784
_symmetry_space_group_name_H-M "C 2/M"
_symmetry_group_IT_number 12
_symmetry_cell_setting 'monoclinic'
loop_
_space_group_symop_operation_xyz
x,y,z
-x,y,-z
-x,-y,-z
x,-y,z
1/2+x,1/2+y,z
1/2-x,1/2+y,-z
1/2-x,1/2-y,-z
1/2+x,1/2-y,z
loop_
_atom_site_type_symbol
_atom_site_label
_atom_site_fract_x
_atom_site_fract_y
_atom_site_fract_z
Si Si1 0.770072 0.180973 0.780423
Si Si2 0.459540 0.182141 0.931974
Si Si3 0.564160 0.318515 0.217156
Si Si4 0.326289 0.682272 0.499471
Si Si5 0.631533 0.182638 0.343415
Si Si6 0.021934 0.182441 0.655444
Si Si7 0.626126 0.818796 0.935074
O O1 0.845627 0.240135 0.858288
O O2 0.841788 0.219078 0.772629
O O3 0.648212 0.256776 0.718298
O O4 0.758556 0.000000 0.777172
O O5 0.555814 0.216008 0.944148
O O6 0.442469 0.000000 0.923894
O O7 0.500000 0.229991 0.000000
O O8 0.555266 0.500000 0.215668
O O9 0.598930 0.249864 0.280669
O O10 0.447091 0.251028 0.140743
O O11 0.321219 0.500000 0.499017
O O12 0.250000 0.750000 0.500000
O O13 0.259467 0.725960 0.422285
O O14 0.453024 0.724902 0.576662
O O15 0.547465 0.247016 0.338616
O O16 0.623181 0.000000 0.338371
O O17 0.021529 0.000000 0.659300
O O18 0.631829 0.000000 0.933217
O O19 0.750000 0.750000 0.000000
#
# Coordination Sequence:
#
# PCOD9183124 Si02
#       7
#     8   8   8   8   8   8   8
#     4  10  21  36  53  75 105 139 174 213 256 303
#     4   9  19  36  56  76  99 131 170 210 254 304
#     4  10  21  37  54  74 104 140 176 214 260 309
#     4   8  16  30  49  74 102 133 168 210 258 305
#     4  10  19  33  54  79 105 133 172 218 261 307
#     4  10  19  33  54  78 105 137 173 212 257 309
#     4  10  20  35  55  77 103 135 170 211 259 308
#
# _framework density 17.504404000000001
#
# number of rings (size 3 to 8) (size 9 to 14) (size 15 to 20)
#    0.000    2.429    0.000    2.143    0.000    4.857 
#    0.000    5.000    0.000    4.286    0.000    0.000 
#    0.000    0.000    0.000    0.000    0.000    0.000 
#
# Total GULP energy -156120.598491 kJ/mol
# GULP energy per Si atom -5575.735660 kJ/mol
# Density = 1.746456 g / cm^3
# Si number density = 17.504404 Si / 1000 Ang^3
#
#
#
# Elastic Constant Matrix: (Units=GPa)
#
#
# Indices 1 2 3 4 5 6 
#
# 1 52.6212 36.9247 86.7416 0.0000 4.2290 0.0000
# 2 36.9247 45.1639 67.7591 0.0000 3.3249 0.0001
# 3 86.7416 67.7591 227.5121 0.0000 1.4293 0.0000
# 4 0.0000 0.0000 0.0000 26.9383 0.0000 1.8403
# 5 4.2290 3.3249 1.4293 0.0000 34.3990 0.0000
# 6 0.0000 0.0001 0.0000 1.8403 0.0000 25.5149
#
#
#
# Elastic Compliance Matrix: (Units=1/GPa)
#
#
# Indices 1 2 3 4 5 6 
#
# 1 0.069167 -0.030140 -0.017364 0.000000 -0.004869 0.000000
# 2 -0.030140 0.053555 -0.004451 0.000000 -0.001286 0.000000
# 3 -0.017364 -0.004451 0.012328 0.000000 0.002053 0.000000
# 4 0.000000 0.000000 0.000000 0.037306 0.000000 -0.002691
# 5 -0.004869 -0.001286 0.002053 0.000000 0.029708 0.000000
# 6 0.000000 0.000000 0.000000 -0.002691 0.000000 0.039387
#
#
# Mechanical properties :
#
#
# Convention : Reuss Voigt Hill
#
# Bulk Modulus (GPa) = 32.11135 78.68309 55.39722
# Shear Modulus (GPa) = 14.05518 26.29523 20.17520
#
# Velocity S-wave (km/s) = 2.83671 3.88004 3.39865
# Velocity P-wave (km/s) = 5.39572 8.06975 6.86421
#
# Compressibility (1/GPa) = 0.03114164
#
# Stress axis : x y z
#
# Youngs Moduli (GPa) = 14.45779 18.67223 81.11488
#
# Poissons Ratio (x) = 0.56278 1.40845
# Poissons Ratio (y) = 0.43575 0.36104
# Poissons Ratio (z) = 0.25104 0.08311
#
# Static dielectric constant tensor:
#      x y z
#    x 1.566040 0.000000 -0.001390 
#    y 0.000000 1.582550 0.000000 
#    z -0.001390 0.000000 1.606770 
# 
# From -- ./inp_files/320264.got.cif
#   From: 2010.05.17/outbox.cif.g08.bks.cpg/sg12_161_cif.got.tgz:320264.got - 2010.06.03 13:09:07.
