data_PCOD9183681
_publ_section_title
;
Structure prediction by ZEFSAII (Michael W. Deem and Ramdas Pophale) SiO2 
 PCOD9183681
Probable space group: C 2/M
;
_chemical_formula_sum "Si O2"
_cell_formula_units_Z 56
_cell_length_a 20.886355
_cell_length_b 8.841969
_cell_length_c 18.016495
_cell_angle_alpha 90.000000
_cell_angle_beta 71.296511
_cell_angle_gamma 90.000000
_cell_volume 3151.515142
_symmetry_space_group_name_H-M "C 2/M"
_symmetry_group_IT_number 12
_symmetry_cell_setting 'monoclinic'
loop_
_space_group_symop_operation_xyz
x,y,z
-x,y,-z
-x,-y,-z
x,-y,z
1/2+x,1/2+y,z
1/2-x,1/2+y,-z
1/2-x,1/2-y,-z
1/2+x,1/2-y,z
loop_
_atom_site_type_symbol
_atom_site_label
_atom_site_fract_x
_atom_site_fract_y
_atom_site_fract_z
Si Si1 0.924724 0.317565 0.827799
Si Si2 0.799708 0.680837 0.580258
Si Si3 0.823905 0.318938 0.165213
Si Si4 0.655113 0.819849 0.597037
Si Si5 0.820318 0.318768 0.738816
Si Si6 0.428100 0.320156 0.244074
Si Si7 0.677842 0.181889 0.004427
O O1 0.933099 0.500000 0.826268
O O2 0.881118 0.277854 0.770948
O O3 0.879554 0.272504 0.915631
O O4 0.997310 0.241186 0.799488
O O5 0.785742 0.500000 0.582473
O O6 0.728394 0.766466 0.599742
O O7 0.843451 0.717739 0.491155
O O8 0.832474 0.714165 0.647525
O O9 0.827428 0.500000 0.171587
O O10 0.748443 0.262943 0.211532
O O11 0.876139 0.244192 0.202335
O O12 0.838931 0.277606 0.074122
O O13 0.598610 0.739113 0.666647
O O14 0.648829 0.000000 0.607978
O O15 0.809673 0.500000 0.750100
O O16 0.426482 0.500000 0.243209
O O17 0.683644 0.000000 0.006140
O O18 0.750000 0.250000 0.000000
#
# Coordination Sequence:
#
# PCOD9183681 Si02
#       7
#     8   8   8   8   8   8   8
#     4  10  22  40  60  83 116 155 190 232 289 345
#     4   9  18  32  55  88 118 146 187 234 282 340
#     4  11  22  36  59  88 117 150 190 236 286 342
#     4  10  19  33  55  84 117 151 187 234 289 341
#     4  10  19  35  60  88 116 149 189 233 281 340
#     4  12  25  40  57  81 115 155 198 242 290 342
#     4  10  21  37  60  89 118 149 188 234 284 341
#
# _framework density 17.76923
#
# number of rings (size 3 to 8) (size 9 to 14) (size 15 to 20)
#    0.000    1.714    2.857    2.143    0.000    2.857 
#    0.000    3.571    0.000    4.286    0.000    0.000 
#    0.000    0.000    0.000    0.000    0.000    0.000 
#
# Total GULP energy -156366.041766 kJ/mol
# GULP energy per Si atom -5584.501492 kJ/mol
# Density = 1.772879 g / cm^3
# Si number density = 17.769230 Si / 1000 Ang^3
#
#
#
# Elastic Constant Matrix: (Units=GPa)
#
#
# Indices 1 2 3 4 5 6 
#
# 1 91.5890 42.2289 50.7230 0.0000 -9.8469 0.0000
# 2 42.2289 47.6851 45.8348 0.0000 -2.6647 0.0000
# 3 50.7230 45.8348 131.5702 0.0000 -2.1167 0.0000
# 4 0.0000 0.0000 0.0000 23.5103 0.0000 -5.7852
# 5 -9.8469 -2.6647 -2.1167 0.0000 30.1105 0.0000
# 6 0.0000 0.0000 0.0000 -5.7852 0.0000 30.5833
#
#
#
# Elastic Compliance Matrix: (Units=1/GPa)
#
#
# Indices 1 2 3 4 5 6 
#
# 1 0.019561 -0.014847 -0.002290 0.000000 0.004922 0.000000
# 2 -0.014847 0.042920 -0.009256 0.000000 -0.001708 0.000000
# 3 -0.002290 -0.009256 0.011696 0.000000 -0.000746 0.000000
# 4 0.000000 0.000000 0.000000 0.044611 0.000000 0.008439
# 5 0.004922 -0.001708 -0.000746 0.000000 0.034617 0.000000
# 6 0.000000 0.000000 0.000000 0.008439 0.000000 0.034294
#
#
# Mechanical properties :
#
#
# Convention : Reuss Voigt Hill
#
# Bulk Modulus (GPa) = 46.74627 60.93530 53.84078
# Shear Modulus (GPa) = 20.19271 25.64466 22.91868
#
# Velocity S-wave (km/s) = 3.37469 3.80308 3.59527
# Velocity P-wave (km/s) = 6.44587 7.32472 6.89930
#
# Compressibility (1/GPa) = 0.02139208
#
# Stress axis : x y z
#
# Youngs Moduli (GPa) = 51.12187 23.29916 85.50171
#
# Poissons Ratio (x) = 0.34592 0.19579
# Poissons Ratio (y) = 0.75900 0.79138
# Poissons Ratio (z) = 0.11706 0.21565
#
# Static dielectric constant tensor:
#      x y z
#    x 1.559030 0.000000 0.019140 
#    y 0.000000 1.596140 0.000000 
#    z 0.019140 0.000000 1.627620 
# 
# From -- ./inp_files/275238.got.cif
#   From: 2010.05.17/outbox.cif.g08.bks.cpg/sg12_138_cif.got.tgz:275238.got - 2010.06.03 13:09:07.
