data_PCOD9183455
_publ_section_title
;
Structure prediction by ZEFSAII (Michael W. Deem and Ramdas Pophale) SiO2 
 PCOD9183455
Probable space group: C 2/M
;
_chemical_formula_sum "Si O2"
_cell_formula_units_Z 48
_cell_length_a 11.353891
_cell_length_b 13.436352
_cell_length_c 25.271501
_cell_angle_alpha 90.000000
_cell_angle_beta 144.949628
_cell_angle_gamma 90.000000
_cell_volume 2214.079487
_symmetry_space_group_name_H-M "C 2/M"
_symmetry_group_IT_number 12
_symmetry_cell_setting 'monoclinic'
loop_
_space_group_symop_operation_xyz
x,y,z
-x,y,-z
-x,-y,-z
x,-y,z
1/2+x,1/2+y,z
1/2-x,1/2+y,-z
1/2-x,1/2-y,-z
1/2+x,1/2-y,z
loop_
_atom_site_type_symbol
_atom_site_label
_atom_site_fract_x
_atom_site_fract_y
_atom_site_fract_z
Si Si1 0.271507 0.348358 0.043940
Si Si2 0.729827 0.610284 0.475800
Si Si3 0.308461 0.886953 0.862261
Si Si4 0.401641 0.765209 0.379832
Si Si5 0.172292 0.393342 0.363003
Si Si6 0.224349 0.822339 0.209936
O O1 0.256272 0.349678 0.102548
O O2 0.508102 0.375391 0.118076
O O3 0.250000 0.250000 0.000000
O O4 0.055806 0.399422 0.951053
O O5 0.688115 0.500000 0.440320
O O6 0.550593 0.689745 0.401744
O O7 0.763197 0.605237 0.551894
O O8 0.946235 0.655706 0.538226
O O9 0.266718 0.791177 0.809470
O O10 0.223695 0.000000 0.821393
O O11 0.283074 0.697553 0.376782
O O12 0.249062 0.814787 0.282339
O O13 0.236808 0.500000 0.363287
O O14 0.928916 0.379306 0.267467
#
# Coordination Sequence:
#
# PCOD9183455 Si02
#       6
#     8   8   8   8   8   8
#     4   9  18  34  55  76 103 137 175 217 258 309
#     4   9  19  35  55  77 103 142 187 225 265 316
#     4  10  20  35  56  81 108 142 180 216 267 327
#     4  10  19  33  55  79 108 140 179 226 271 316
#     4  10  20  34  54  78 105 142 185 224 266 317
#     4  10  21  35  52  80 112 140 174 222 271 318
#
# _framework density 21.679437
#
# number of rings (size 3 to 8) (size 9 to 14) (size 15 to 20)
#    0.000    2.333    0.000    3.000    0.000    4.000 
#    0.000    4.167    0.000   15.000    0.000   21.000 
#    0.000    0.000    0.000    0.000    0.000    0.000 
#
# Total GULP energy -133662.685578 kJ/mol
# GULP energy per Si atom -5569.278566 kJ/mol
# Density = 2.163009 g / cm^3
# Si number density = 21.679437 Si / 1000 Ang^3
#
#
#
# Elastic Constant Matrix: (Units=GPa)
#
#
# Indices 1 2 3 4 5 6 
#
# 1 57.5570 18.6858 -5.7199 0.0000 4.7018 0.0000
# 2 18.6858 79.2989 1.3019 0.0000 7.5920 0.0000
# 3 -5.7199 1.3019 76.9854 0.0001 13.0607 0.0000
# 4 0.0000 0.0000 0.0001 4.5659 0.0000 9.0198
# 5 4.7018 7.5920 13.0607 0.0000 18.4784 0.0000
# 6 0.0000 0.0000 0.0000 9.0198 0.0000 8.5333
#
#
#
# Elastic Compliance Matrix: (Units=1/GPa)
#
#
# Indices 1 2 3 4 5 6 
#
# 1 0.019345 -0.004130 0.002334 0.000000 -0.004875 0.000000
# 2 -0.004130 0.014051 0.000292 0.000000 -0.004928 0.000000
# 3 0.002334 0.000292 0.015088 0.000000 -0.011378 0.000000
# 4 0.000000 0.000000 0.000000 -0.201280 0.000000 0.212757
# 5 -0.004875 -0.004928 -0.011378 0.000000 0.065425 0.000000
# 6 0.000000 0.000000 0.000000 0.212757 0.000000 -0.107700
#
#
# Mechanical properties :
#
#
# Convention : Reuss Voigt Hill
#
# Bulk Modulus (GPa) = 21.98967 26.93078 24.46022
# Shear Modulus (GPa) = -28.26380 19.62041 -4.32169
#
# Velocity S-wave (km/s) = -3.61462 3.01163 -1.41343
# Velocity P-wave (km/s) = 2.69360 4.95403 2.93998
#
# Compressibility (1/GPa) = 0.04547591
#
# Stress axis : x y z
#
# Youngs Moduli (GPa) = 51.69262 71.17073 66.27635
#
# Poissons Ratio (x) = 0.29394 -0.15471
# Poissons Ratio (y) = 0.21349 -0.01933
# Poissons Ratio (z) = -0.12067 -0.02075
#
# Static dielectric constant tensor:
#      x y z
#    x 1.795970 0.000000 0.023240 
#    y 0.000000 1.817810 0.000000 
#    z 0.023240 0.000000 1.787750 
# 
# From -- ./inp_files/374142.got.cif
#   From: 2010.05.17/outbox.cif.g08.bks.cpg/sg12_188_cif.got.tgz:374142.got - 2010.06.03 13:09:07.
