data_PCOD9183305
_publ_section_title
;
Structure prediction by ZEFSAII (Michael W. Deem and Ramdas Pophale) SiO2 
 PCOD9183305
Probable space group: C 2/M
;
_chemical_formula_sum "Si O2"
_cell_formula_units_Z 56
_cell_length_a 27.268415
_cell_length_b 8.906668
_cell_length_c 17.654311
_cell_angle_alpha 90.000000
_cell_angle_beta 44.643945
_cell_angle_gamma 90.000000
_cell_volume 3012.973018
_symmetry_space_group_name_H-M "C 2/M"
_symmetry_group_IT_number 12
_symmetry_cell_setting 'monoclinic'
loop_
_space_group_symop_operation_xyz
x,y,z
-x,y,-z
-x,-y,-z
x,-y,z
1/2+x,1/2+y,z
1/2-x,1/2+y,-z
1/2-x,1/2-y,-z
1/2+x,1/2-y,z
loop_
_atom_site_type_symbol
_atom_site_label
_atom_site_fract_x
_atom_site_fract_y
_atom_site_fract_z
Si Si1 0.446299 0.677822 0.168668
Si Si2 0.683853 0.820012 0.395645
Si Si3 0.406646 0.178640 0.952868
Si Si4 0.834817 0.180661 0.166606
Si Si5 0.094181 0.822757 0.616865
Si Si6 0.055220 0.319826 0.256881
Si Si7 0.919560 0.821910 0.613144
O O1 0.461898 0.500000 0.142676
O O2 0.518772 0.763951 0.097750
O O3 0.398068 0.727237 0.152467
O O4 0.405168 0.695514 0.293249
O O5 0.761506 0.776494 0.284623
O O6 0.658947 0.747585 0.501651
O O7 0.630334 0.760700 0.391107
O O8 0.680129 0.000000 0.405116
O O9 0.406234 0.219274 0.864309
O O10 0.403451 0.000000 0.962012
O O11 0.347946 0.251476 0.069732
O O12 0.836552 0.000000 0.159719
O O13 0.023638 0.742133 0.665537
O O14 0.088865 0.000000 0.605581
O O15 0.053336 0.500000 0.266718
O O16 0.088162 0.244957 0.294450
O O17 0.000000 0.798308 0.500000
O O18 0.906098 0.000000 0.627076
#
# Coordination Sequence:
#
# PCOD9183305 Si02
#       7
#     8   8   8   8   8   8   8
#     4   9  19  36  58  81 110 147 187 228 270 322
#     4  11  23  37  55  80 113 148 184 225 273 329
#     4  10  21  36  57  86 113 141 184 232 273 318
#     4  10  22  39  56  78 110 152 191 223 269 326
#     4  10  19  33  54  82 112 144 182 225 274 323
#     4  10  20  35  57  84 112 141 178 226 276 322
#     4  11  22  36  58  86 111 139 181 225 271 329
#
# _framework density 18.586293000000001
#
# number of rings (size 3 to 8) (size 9 to 14) (size 15 to 20)
#    0.000    1.857    1.429    2.571    0.000    6.857 
#    0.000    0.714    0.000    0.000    0.000    0.000 
#    0.000    0.000    0.000    0.000    0.000    0.000 
#
# Total GULP energy -156413.347052 kJ/mol
# GULP energy per Si atom -5586.190966 kJ/mol
# Density = 1.854399 g / cm^3
# Si number density = 18.586293 Si / 1000 Ang^3
#
#
#
# Elastic Constant Matrix: (Units=GPa)
#
#
# Indices 1 2 3 4 5 6 
#
# 1 24.2233 5.4571 -0.0482 -0.0085 16.2802 0.0007
# 2 5.4571 34.6870 27.6245 -0.0032 7.6465 0.0013
# 3 -0.0482 27.6245 106.5878 -0.0170 18.1384 0.0051
# 4 -0.0085 -0.0032 -0.0170 34.4445 0.0074 1.6519
# 5 16.2802 7.6465 18.1384 0.0074 20.3571 -0.0015
# 6 0.0007 0.0013 0.0051 1.6519 -0.0015 13.1475
#
#
#
# Elastic Compliance Matrix: (Units=1/GPa)
#
#
# Indices 1 2 3 4 5 6 
#
# 1 0.116374 -0.011590 0.021398 0.000063 -0.107780 -0.000034
# 2 -0.011590 0.038157 -0.010647 -0.000006 0.004423 0.000002
# 3 0.021398 -0.010647 0.016953 0.000019 -0.028218 -0.000012
# 4 0.000063 -0.000006 0.000019 0.029208 -0.000076 -0.003670
# 5 -0.107780 0.004423 -0.028218 -0.000076 0.158800 0.000044
# 6 -0.000034 0.000002 -0.000012 -0.003670 0.000044 0.076521
#
#
# Mechanical properties :
#
#
# Convention : Reuss Voigt Hill
#
# Bulk Modulus (GPa) = 5.88911 25.72944 15.80927
# Shear Modulus (GPa) = 10.11546 22.42080 16.26813
#
# Velocity S-wave (km/s) = 2.33543 3.47696 2.96172
# Velocity P-wave (km/s) = 3.23229 5.47652 4.49667
#
# Compressibility (1/GPa) = 0.16980505
#
# Stress axis : x y z
#
# Youngs Moduli (GPa) = 8.59299 26.20761 58.98644
#
# Poissons Ratio (x) = 0.30374 -1.26217
# Poissons Ratio (y) = 0.09959 0.62803
# Poissons Ratio (z) = -0.18387 0.27903
#
# Static dielectric constant tensor:
#      x y z
#    x 1.621890 0.000000 0.021820 
#    y 0.000000 1.619210 0.000000 
#    z 0.021820 0.000000 1.652520 
# 
# From -- ./inp_files/281709.got.cif
#   From: 2010.05.17/outbox.cif.g08.bks.cpg/sg12_141_cif.got.tgz:281709.got - 2010.06.03 13:09:07.
