data_PCOD9183110
_publ_section_title
;
Structure prediction by ZEFSAII (Michael W. Deem and Ramdas Pophale) SiO2 
 PCOD9183110
Probable space group: C 2/M
;
_chemical_formula_sum "Si O2"
_cell_formula_units_Z 36
_cell_length_a 20.577455
_cell_length_b 22.323387
_cell_length_c 5.116580
_cell_angle_alpha 90.000000
_cell_angle_beta 51.611147
_cell_angle_gamma 90.000000
_cell_volume 1842.233577
_symmetry_space_group_name_H-M "C 2/M"
_symmetry_group_IT_number 12
_symmetry_cell_setting 'monoclinic'
loop_
_space_group_symop_operation_xyz
x,y,z
-x,y,-z
-x,-y,-z
x,-y,z
1/2+x,1/2+y,z
1/2-x,1/2+y,-z
1/2-x,1/2-y,-z
1/2+x,1/2-y,z
loop_
_atom_site_type_symbol
_atom_site_label
_atom_site_fract_x
_atom_site_fract_y
_atom_site_fract_z
Si Si1 0.876500 0.067146 0.877444
Si Si2 0.060573 0.500000 0.595842
Si Si3 0.415720 0.633303 0.282250
Si Si4 0.266197 0.184493 0.335597
Si Si5 0.188067 0.611942 0.288291
O O1 0.918450 0.111647 0.570088
O O2 0.894954 0.000000 0.754398
O O3 0.906659 0.079524 0.095199
O O4 0.778170 0.079422 0.085334
O O5 0.119243 0.559661 0.438595
O O6 0.000000 0.500000 0.500000
O O7 0.000000 0.500000 0.000000
O O8 0.329278 0.665434 0.458219
O O9 0.500000 0.667121 0.000000
O O10 0.250000 0.250000 0.500000
O O11 0.316324 0.147638 0.429164
O O12 0.306784 0.161612 0.959082
#
# Coordination Sequence:
#
# PCOD9183110 Si02
#       5
#     8   4   8   8   8
#     4  10  19  33  54  77 110 152 180 216 285 353
#     4  12  24  40  64  94 129 164 205 270 330 374
#     4  10  21  33  50  80 113 142 185 238 283 332
#     4  10  21  39  63  84 112 164 210 246 302 372
#     4  10  21  39  60  86 120 154 202 252 303 375
#
# _framework density 19.541495999999999
#
# number of rings (size 3 to 8) (size 9 to 14) (size 15 to 20)
#    0.000    1.778    1.111    3.333    0.000    2.667 
#    0.000    3.333    0.000    2.667    0.000    0.000 
#    0.000    0.000    0.000    0.000    0.000    0.000 
#
# Total GULP energy -100205.348315 kJ/mol
# GULP energy per Si atom -5566.963795 kJ/mol
# Density = 1.949702 g / cm^3
# Si number density = 19.541496 Si / 1000 Ang^3
#
#
#
# Elastic Constant Matrix: (Units=GPa)
#
#
# Indices 1 2 3 4 5 6 
#
# 1 126.9937 28.7304 42.0168 0.0000 11.5490 0.0000
# 2 28.7304 66.0380 3.5170 0.0000 4.2176 0.0000
# 3 42.0168 3.5170 90.6744 0.0000 4.7548 0.0000
# 4 0.0000 0.0000 0.0000 7.8314 0.0000 2.8456
# 5 11.5490 4.2176 4.7548 0.0000 36.8720 0.0000
# 6 0.0000 0.0000 0.0000 2.8456 0.0000 2.3850
#
#
#
# Elastic Compliance Matrix: (Units=1/GPa)
#
#
# Indices 1 2 3 4 5 6 
#
# 1 0.010554 -0.004203 -0.004610 0.000000 -0.002230 0.000000
# 2 -0.004203 0.016951 0.001332 0.000000 -0.000794 0.000000
# 3 -0.004610 0.001332 0.013134 0.000000 -0.000402 0.000000
# 4 0.000000 0.000000 0.000000 0.225413 0.000000 -0.268948
# 5 -0.002230 -0.000794 -0.000402 0.000000 0.027962 0.000000
# 6 0.000000 0.000000 0.000000 -0.268948 0.000000 0.740183
#
#
# Mechanical properties :
#
#
# Convention : Reuss Voigt Hill
#
# Bulk Modulus (GPa) = 38.94772 48.02606 43.48689
# Shear Modulus (GPa) = 4.72715 23.38048 14.05381
#
# Velocity S-wave (km/s) = 1.55701 3.46273 2.68466
# Velocity P-wave (km/s) = 4.81730 6.37316 5.64905
#
# Compressibility (1/GPa) = 0.02567544
#
# Stress axis : x y z
#
# Youngs Moduli (GPa) = 94.75483 58.99249 76.13697
#
# Poissons Ratio (x) = 0.24797 0.35102
# Poissons Ratio (y) = 0.39830 -0.10141
# Poissons Ratio (z) = 0.43685 -0.07857
#
# Static dielectric constant tensor:
#      x y z
#    x 1.703280 0.000000 -0.001460 
#    y 0.000000 1.685370 0.000000 
#    z -0.001460 0.000000 1.718250 
# 
# From -- ./inp_files/20837.got.cif
#   From: 2010.05.17/outbox.cif.g08.bks.cpg/sg12_11_cif.got.tgz:20837.got - 2010.06.03 13:09:07.
