data_PCOD9183053
_publ_section_title
;
Structure prediction by ZEFSAII (Michael W. Deem and Ramdas Pophale) SiO2 
 PCOD9183053
Probable space group: C 2/M
;
_chemical_formula_sum "Si O2"
_cell_formula_units_Z 56
_cell_length_a 14.086471
_cell_length_b 15.102407
_cell_length_c 18.647732
_cell_angle_alpha 90.000000
_cell_angle_beta 139.313771
_cell_angle_gamma 90.000000
_cell_volume 2586.224053
_symmetry_space_group_name_H-M "C 2/M"
_symmetry_group_IT_number 12
_symmetry_cell_setting 'monoclinic'
loop_
_space_group_symop_operation_xyz
x,y,z
-x,y,-z
-x,-y,-z
x,-y,z
1/2+x,1/2+y,z
1/2-x,1/2+y,-z
1/2-x,1/2-y,-z
1/2+x,1/2-y,z
loop_
_atom_site_type_symbol
_atom_site_label
_atom_site_fract_x
_atom_site_fract_y
_atom_site_fract_z
Si Si1 0.325519 0.844638 0.029178
Si Si2 0.133005 0.897474 0.794028
Si Si3 0.806044 0.906010 0.800252
Si Si4 0.163187 0.596876 0.564517
Si Si5 0.868076 0.287374 0.835986
Si Si6 0.969849 0.404184 0.259359
Si Si7 0.863363 0.762965 0.665455
O O1 0.473788 0.831251 0.069146
O O2 0.376773 0.883756 0.134124
O O3 0.250000 0.750000 0.000000
O O4 0.214562 0.898994 0.917500
O O5 0.243077 0.845105 0.802784
O O6 0.993533 0.834235 0.726502
O O7 0.102742 0.000000 0.755383
O O8 0.771477 0.905987 0.695705
O O9 0.875598 0.814709 0.866039
O O10 0.647425 0.906562 0.745099
O O11 0.880141 0.000000 0.860125
O O12 0.173999 0.500000 0.534526
O O13 0.219569 0.685351 0.559409
O O14 0.000000 0.605780 0.500000
O O15 0.842824 0.271782 0.736133
O O16 0.039728 0.500000 0.290542
O O17 0.081943 0.326954 0.338391
#
# Coordination Sequence:
#
# PCOD9183053 Si02
#       7
#     8   8   8   8   8   8   8
#     4  11  20  36  52  75 111 151 192 240 276 325
#     4  12  23  36  57  83 111 151 198 242 284 330
#     4   9  17  33  56  79 105 140 179 222 278 335
#     4   9  18  34  59  88 111 136 177 228 285 346
#     4  10  20  35  54  75 110 146 185 231 284 326
#     4  10  19  33  54  76 105 147 189 223 268 332
#     4  10  20  37  58  79 116 147 180 232 288 334
#
# _framework density 21.653191
#
# number of rings (size 3 to 8) (size 9 to 14) (size 15 to 20)
#    0.000    1.857    4.286    1.286    0.000    4.000 
#    0.000    0.714    0.000    3.000    0.000    0.000 
#    0.000    0.000    0.000    0.000    0.000    0.000 
#
# Total GULP energy -156150.882532 kJ/mol
# GULP energy per Si atom -5576.817233 kJ/mol
# Density = 2.160391 g / cm^3
# Si number density = 21.653191 Si / 1000 Ang^3
#
#
#
# Elastic Constant Matrix: (Units=GPa)
#
#
# Indices 1 2 3 4 5 6 
#
# 1 94.8575 26.4205 16.2457 0.0000 0.2005 0.0000
# 2 26.4205 148.0248 29.5548 0.0000 -0.6285 0.0000
# 3 16.2457 29.5548 54.9727 0.0001 -4.8657 0.0001
# 4 0.0000 0.0000 0.0001 -5.6053 0.0000 -33.4115
# 5 0.2005 -0.6285 -4.8657 0.0000 25.7129 0.0000
# 6 0.0000 0.0000 0.0001 -33.4115 0.0000 -111.3112
#
#
#
# Elastic Compliance Matrix: (Units=1/GPa)
#
#
# Indices 1 2 3 4 5 6 
#
# 1 0.011414 -0.001518 -0.002612 0.000000 -0.000620 0.000000
# 2 -0.001518 0.007779 -0.003779 0.000000 -0.000513 0.000000
# 3 -0.002612 -0.003779 0.021345 0.000000 0.003967 0.000000
# 4 0.000000 0.000000 0.000000 0.226062 0.000000 -0.067855
# 5 -0.000620 -0.000513 0.003967 0.000000 0.039634 0.000000
# 6 0.000000 0.000000 0.000000 -0.067855 0.000000 0.011384
#
#
# Mechanical properties :
#
#
# Convention : Reuss Voigt Hill
#
# Bulk Modulus (GPa) = 40.45256 49.14411 44.79833
# Shear Modulus (GPa) = 14.63376 -3.19845 5.71766
#
# Velocity S-wave (km/s) = 2.60248 -1.21669 1.62674
# Velocity P-wave (km/s) = 5.26813 4.55758 4.92568
#
# Compressibility (1/GPa) = 0.02472032
#
# Stress axis : x y z
#
# Youngs Moduli (GPa) = 87.61464 128.55208 46.84849
#
# Poissons Ratio (x) = 0.19519 0.12235
# Poissons Ratio (y) = 0.13303 0.17703
# Poissons Ratio (z) = 0.22881 0.48578
#
# Static dielectric constant tensor:
#      x y z
#    x 1.814940 0.000000 -0.039570 
#    y 0.000000 1.878650 0.000000 
#    z -0.039570 0.000000 1.805410 
# 
# From -- ./inp_files/251134.got.cif
#   From: 2010.05.17/outbox.cif.g08.bks.cpg/sg12_126_cif.got.tgz:251134.got - 2010.06.03 13:09:07.
