data_PCOD9183338
_publ_section_title
;
Structure prediction by ZEFSAII (Michael W. Deem and Ramdas Pophale) SiO2 
 PCOD9183338
Probable space group: C 2/M
;
_chemical_formula_sum "Si O2"
_cell_formula_units_Z 56
_cell_length_a 20.646685
_cell_length_b 7.935554
_cell_length_c 27.128897
_cell_angle_alpha 90.000000
_cell_angle_beta 142.039552
_cell_angle_gamma 90.000000
_cell_volume 2734.120809
_symmetry_space_group_name_H-M "C 2/M"
_symmetry_group_IT_number 12
_symmetry_cell_setting 'monoclinic'
loop_
_space_group_symop_operation_xyz
x,y,z
-x,y,-z
-x,-y,-z
x,-y,z
1/2+x,1/2+y,z
1/2-x,1/2+y,-z
1/2-x,1/2-y,-z
1/2+x,1/2-y,z
loop_
_atom_site_type_symbol
_atom_site_label
_atom_site_fract_x
_atom_site_fract_y
_atom_site_fract_z
Si Si1 0.735845 0.798557 0.748034
Si Si2 0.845875 0.203275 0.021460
Si Si3 0.729432 0.793677 0.856491
Si Si4 0.507199 0.202932 0.267792
Si Si5 0.019214 0.801387 0.566412
Si Si6 0.369761 0.201689 0.561784
Si Si7 0.932103 0.797171 0.802409
O O1 0.742300 0.734481 0.808091
O O2 0.622274 0.768761 0.655613
O O3 0.830274 0.732430 0.770516
O O4 0.748645 0.000000 0.759042
O O5 0.815368 0.260759 0.948082
O O6 0.851434 0.000000 0.023845
O O7 0.750000 0.250000 0.000000
O O8 0.957726 0.267031 0.108555
O O9 0.614052 0.740264 0.806260
O O10 0.730132 0.000000 0.856234
O O11 0.561163 0.263460 0.350367
O O12 0.567773 0.255614 0.255177
O O13 0.506425 0.000000 0.268922
O O14 0.000000 0.730840 0.500000
O O15 0.918903 0.771273 0.541072
O O16 0.037265 0.000000 0.572473
O O17 0.250000 0.250000 0.500000
O O18 0.378519 0.000000 0.564811
O O19 0.932742 0.000000 0.807048
#
# Coordination Sequence:
#
# PCOD9183338 Si02
#       7
#     8   8   8   8   8   8   8
#     4  10  21  40  60  83 116 153 196 239 290 352
#     4  10  19  33  54  83 115 149 190 238 289 339
#     4   9  17  34  59  81 108 152 194 231 285 345
#     4  10  20  37  60  83 113 154 193 232 284 346
#     4  11  25  43  62  87 119 155 196 242 296 354
#     4  11  24  42  64  91 121 154 196 243 293 349
#     4  10  22  35  55  89 119 148 193 244 287 337
#
# _framework density 20.481905000000001
#
# number of rings (size 3 to 8) (size 9 to 14) (size 15 to 20)
#    0.000    1.857    2.857    0.857    2.000    3.429 
#    0.000    3.571    0.000    0.000    0.000    3.000 
#    0.000    0.000    0.000    0.000    0.000    0.000 
#
# Total GULP energy -156402.580129 kJ/mol
# GULP energy per Si atom -5585.806433 kJ/mol
# Density = 2.043529 g / cm^3
# Si number density = 20.481905 Si / 1000 Ang^3
#
#
#
# Elastic Constant Matrix: (Units=GPa)
#
#
# Indices 1 2 3 4 5 6 
#
# 1 163.6649 -7.1475 46.1784 0.0000 -15.0992 0.0000
# 2 -7.1475 14.0082 -5.6982 0.0000 -3.7017 0.0000
# 3 46.1784 -5.6982 79.7272 0.0000 -19.0261 0.0000
# 4 0.0000 0.0000 0.0000 17.3201 0.0000 0.8107
# 5 -15.0992 -3.7017 -19.0261 0.0000 42.4746 0.0000
# 6 0.0000 0.0000 0.0000 0.8107 0.0000 25.4514
#
#
#
# Elastic Compliance Matrix: (Units=1/GPa)
#
#
# Indices 1 2 3 4 5 6 
#
# 1 0.007408 0.002517 -0.003841 0.000000 0.001132 0.000000
# 2 0.002517 0.078221 0.006688 0.000000 0.010708 0.000000
# 3 -0.003841 0.006688 0.016861 0.000000 0.006770 0.000000
# 4 0.000000 0.000000 0.000000 0.057823 0.000000 -0.001842
# 5 0.001132 0.010708 0.006770 0.000000 0.027912 0.000000
# 6 0.000000 0.000000 0.000000 -0.001842 0.000000 0.039349
#
#
# Mechanical properties :
#
#
# Convention : Reuss Voigt Hill
#
# Bulk Modulus (GPa) = 8.83247 36.00730 22.41989
# Shear Modulus (GPa) = 19.63981 31.98706 25.81343
#
# Velocity S-wave (km/s) = 3.09995 3.95615 3.55393
# Velocity P-wave (km/s) = 4.13939 6.20374 5.27357
#
# Compressibility (1/GPa) = 0.11321857
#
# Stress axis : x y z
#
# Youngs Moduli (GPa) = 134.98752 12.78427 59.30853
#
# Poissons Ratio (x) = -0.03218 0.22779
# Poissons Ratio (y) = -0.33974 -0.39666
# Poissons Ratio (z) = 0.51844 -0.08550
#
# Static dielectric constant tensor:
#      x y z
#    x 1.705790 0.000000 -0.022860 
#    y 0.000000 1.750050 0.000000 
#    z -0.022860 0.000000 1.700140 
# 
# From -- ./inp_files/230985.got.cif
#   From: 2010.05.17/outbox.cif.g08.bks.cpg/sg12_116_cif.got.tgz:230985.got - 2010.06.03 13:09:07.
