data_PCOD9183912
_publ_section_title
;
Structure prediction by ZEFSAII (Michael W. Deem and Ramdas Pophale) SiO2 
 PCOD9183912
Probable space group: C 2/M
;
_chemical_formula_sum "Si O2"
_cell_formula_units_Z 48
_cell_length_a 29.614149
_cell_length_b 9.155421
_cell_length_c 10.220174
_cell_angle_alpha 90.000000
_cell_angle_beta 106.893588
_cell_angle_gamma 90.000000
_cell_volume 2651.416548
_symmetry_space_group_name_H-M "C 2/M"
_symmetry_group_IT_number 12
_symmetry_cell_setting 'monoclinic'
loop_
_space_group_symop_operation_xyz
x,y,z
-x,y,-z
-x,-y,-z
x,-y,z
1/2+x,1/2+y,z
1/2-x,1/2+y,-z
1/2-x,1/2-y,-z
1/2+x,1/2-y,z
loop_
_atom_site_type_symbol
_atom_site_label
_atom_site_fract_x
_atom_site_fract_y
_atom_site_fract_z
Si Si1 0.385362 0.324908 0.420069
Si Si2 0.788675 0.825902 0.204788
Si Si3 0.048676 0.324635 0.739712
Si Si4 0.940733 0.325247 0.688938
Si Si5 0.404581 0.825851 0.942354
Si Si6 0.807347 0.173501 0.914332
O O1 0.388754 0.500000 0.422867
O O2 0.331852 0.285320 0.335227
O O3 0.420030 0.258758 0.339418
O O4 0.402457 0.258540 0.570824
O O5 0.739980 0.741932 0.186034
O O6 0.780534 0.000000 0.207018
O O7 0.804735 0.794925 0.068530
O O8 0.053037 0.500000 0.723120
O O9 0.993432 0.286873 0.686490
O O10 0.067640 0.290494 0.901114
O O11 0.935212 0.500000 0.666828
O O12 0.934019 0.292985 0.836612
O O13 0.354859 0.743831 0.899995
O O14 0.395879 0.000000 0.936673
O O15 0.807733 0.000000 0.897813
#
# Coordination Sequence:
#
# PCOD9183912 Si02
#       6
#     8   8   8   8   8   8
#     4  11  22  37  56  82 114 146 181 225 276 326
#     4   9  19  35  54  79 110 141 178 224 271 324
#     4  10  20  36  59  82 107 145 190 230 268 317
#     4  10  22  38  55  80 113 148 187 226 267 323
#     4  10  20  36  58  82 111 146 183 226 275 322
#     4  10  19  33  56  84 110 137 178 228 275 324
#
# _framework density 18.103529999999999
#
# number of rings (size 3 to 8) (size 9 to 14) (size 15 to 20)
#    0.000    2.000    1.667    2.000    0.000    7.333 
#    0.000    0.833    0.000    3.000    0.000    0.000 
#    0.000    0.000    0.000    0.000    0.000    0.000 
#
# Total GULP energy -134024.179092 kJ/mol
# GULP energy per Si atom -5584.340795 kJ/mol
# Density = 1.806233 g / cm^3
# Si number density = 18.103530 Si / 1000 Ang^3
#
#
#
# Elastic Constant Matrix: (Units=GPa)
#
#
# Indices 1 2 3 4 5 6 
#
# 1 49.8134 13.4218 -3.2829 0.0000 25.0367 0.0000
# 2 13.4218 13.3123 14.7665 0.0000 7.9100 0.0000
# 3 -3.2829 14.7665 55.4287 0.0000 12.3223 0.0000
# 4 0.0000 0.0000 0.0000 24.3668 0.0000 6.3277
# 5 25.0367 7.9100 12.3223 0.0000 24.3524 0.0000
# 6 0.0000 0.0000 0.0000 6.3277 0.0000 25.0839
#
#
#
# Elastic Compliance Matrix: (Units=1/GPa)
#
#
# Indices 1 2 3 4 5 6 
#
# 1 0.102982 -0.107796 0.056980 0.000000 -0.099694 0.000000
# 2 -0.107796 0.232055 -0.085729 0.000000 0.078829 0.000000
# 3 0.056980 -0.085729 0.057562 0.000000 -0.059861 0.000000
# 4 0.000000 0.000000 0.000000 0.043916 0.000000 -0.011078
# 5 -0.099694 0.078829 -0.059861 0.000000 0.148244 0.000000
# 6 0.000000 0.000000 0.000000 -0.011078 0.000000 0.042661
#
#
# Mechanical properties :
#
#
# Convention : Reuss Voigt Hill
#
# Bulk Modulus (GPa) = 8.36762 18.70725 13.53743
# Shear Modulus (GPa) = 5.31718 21.00389 13.16053
#
# Velocity S-wave (km/s) = 1.71566 3.40988 2.69914
# Velocity P-wave (km/s) = 2.92519 5.08517 4.14824
#
# Compressibility (1/GPa) = 0.11950832
#
# Stress axis : x y z
#
# Youngs Moduli (GPa) = 9.71044 4.30932 17.37245
#
# Poissons Ratio (x) = 0.46453 -0.98987
# Poissons Ratio (y) = 1.04674 1.48933
# Poissons Ratio (z) = -0.55330 0.36944
#
# Static dielectric constant tensor:
#      x y z
#    x 1.591350 0.000000 0.004690 
#    y 0.000000 1.599490 0.000000 
#    z 0.004690 0.000000 1.619400 
# 
# From -- ./inp_files/179333.got.cif
#   From: 2010.05.17/outbox.cif.g08.bks.cpg/sg12_90_cif.got.tgz:179333.got - 2010.06.03 13:09:07.
