data_PCOD9183939
_publ_section_title
;
Structure prediction by ZEFSAII (Michael W. Deem and Ramdas Pophale) SiO2 
 PCOD9183939
Probable space group: C 2/M
;
_chemical_formula_sum "Si O2"
_cell_formula_units_Z 64
_cell_length_a 19.632807
_cell_length_b 18.541447
_cell_length_c 22.105785
_cell_angle_alpha 90.000000
_cell_angle_beta 23.815512
_cell_angle_gamma 90.000000
_cell_volume 3249.306970
_symmetry_space_group_name_H-M "C 2/M"
_symmetry_group_IT_number 12
_symmetry_cell_setting 'monoclinic'
loop_
_space_group_symop_operation_xyz
x,y,z
-x,y,-z
-x,-y,-z
x,-y,z
1/2+x,1/2+y,z
1/2-x,1/2+y,-z
1/2-x,1/2-y,-z
1/2+x,1/2-y,z
loop_
_atom_site_type_symbol
_atom_site_label
_atom_site_fract_x
_atom_site_fract_y
_atom_site_fract_z
Si Si1 0.335643 0.081718 0.595640
Si Si2 0.792346 0.702667 0.261043
Si Si3 0.471206 0.353628 0.095311
Si Si4 0.700523 0.086449 0.107772
Si Si5 0.819348 0.918693 0.487784
Si Si6 0.095295 0.660985 0.580223
Si Si7 0.492567 0.305362 0.604991
Si Si8 0.985645 0.581182 0.168101
O O1 0.500000 0.101188 0.500000
O O2 0.334062 0.134029 0.540647
O O3 0.174742 0.090445 0.768372
O O4 0.352184 0.000000 0.560419
O O5 0.682213 0.698631 0.289225
O O6 0.648341 0.702511 0.430566
O O7 0.922631 0.637929 0.169575
O O8 0.897728 0.775989 0.173302
O O9 0.500000 0.355528 0.000000
O O10 0.633471 0.374370 0.003017
O O11 0.553511 0.110281 0.273471
O O12 0.635403 0.104854 0.092575
O O13 0.721032 0.000000 0.092937
O O14 0.746720 0.856835 0.502776
O O15 0.983946 0.883372 0.383431
O O16 0.675586 0.924613 0.655877
O O17 0.840930 0.000000 0.444810
O O18 0.019196 0.740022 0.630640
O O19 0.021561 0.500000 0.116351
#
# Coordination Sequence:
#
# PCOD9183939 Si02
#       8
#     8   8   8   8   8   8   8   8
#     4  11  22  35  54  79 111 150 188 226 275 331
#     4  10  20  35  56  83 112 148 189 236 280 335
#     4  12  24  37  55  80 113 151 188 235 277 333
#     4  10  21  37  58  83 114 149 189 231 276 335
#     4   9  18  32  54  87 119 147 184 232 281 336
#     4  11  19  35  58  83 116 151 184 226 284 332
#     4  10  19  33  56  84 116 149 188 230 283 334
#     4   8  17  35  58  83 111 146 187 232 285 337
#
# _framework density 19.696508999999999
#
# number of rings (size 3 to 8) (size 9 to 14) (size 15 to 20)
#    0.000    1.875    1.250    4.875    0.000    3.000 
#    0.000    2.500    2.750    0.375    0.000    0.000 
#    0.000    0.000    0.000    0.000    0.000    0.000 
#
# Total GULP energy -178423.987811 kJ/mol
# GULP energy per Si atom -5575.749619 kJ/mol
# Density = 1.965168 g / cm^3
# Si number density = 19.696509 Si / 1000 Ang^3
#
#
#
# Elastic Constant Matrix: (Units=GPa)
#
#
# Indices 1 2 3 4 5 6 
#
# 1 94.8954 67.6637 32.2355 0.0060 -37.8263 0.0007
# 2 67.6637 106.7229 23.0268 -0.0074 -37.6830 -0.0004
# 3 32.2355 23.0268 59.6061 -0.0183 -25.0612 0.0054
# 4 0.0060 -0.0074 -0.0183 25.5860 0.0137 -5.0091
# 5 -37.8263 -37.6830 -25.0612 0.0137 31.9322 -0.0012
# 6 0.0007 -0.0004 0.0054 -5.0091 -0.0012 28.4543
#
#
#
# Elastic Compliance Matrix: (Units=1/GPa)
#
#
# Indices 1 2 3 4 5 6 
#
# 1 0.024425 -0.009359 -0.003093 -0.000020 0.015461 -0.000003
# 2 -0.009359 0.019932 0.003865 0.000003 0.015468 0.000001
# 3 -0.003093 0.003865 0.025870 0.000009 0.021201 -0.000002
# 4 -0.000020 0.000003 0.000009 0.040479 -0.000030 0.007126
# 5 0.015461 0.015468 0.021201 -0.000030 0.084524 -0.000006
# 6 -0.000003 0.000001 -0.000002 0.007126 -0.000006 0.036398
#
#
# Mechanical properties :
#
#
# Convention : Reuss Voigt Hill
#
# Bulk Modulus (GPa) = 18.84929 56.34181 37.59555
# Shear Modulus (GPa) = 18.76267 26.41439 22.58853
#
# Velocity S-wave (km/s) = 3.08975 3.66603 3.39016
# Velocity P-wave (km/s) = 4.72434 6.82545 5.86968
#
# Compressibility (1/GPa) = 0.05305239
#
# Stress axis : x y z
#
# Youngs Moduli (GPa) = 40.94163 50.17182 38.65442
#
# Poissons Ratio (x) = 0.46957 0.11956
# Poissons Ratio (y) = 0.38318 -0.14940
# Poissons Ratio (z) = 0.12663 -0.19392
#
# Static dielectric constant tensor:
#      x y z
#    x 1.576960 -0.000010 0.058710 
#    y -0.000010 1.710930 0.000010 
#    z 0.058710 0.000010 1.651640 
# 
# From -- ./inp_files/347876.got.cif
#   From: 2010.05.17/outbox.cif.g08.bks.cpg/sg12_174_cif.got.tgz:347876.got - 2010.06.03 13:09:07.
