data_PCOD9183504
_publ_section_title
;
Structure prediction by ZEFSAII (Michael W. Deem and Ramdas Pophale) SiO2 
 PCOD9183504
Probable space group: C 2/M
;
_chemical_formula_sum "Si O2"
_cell_formula_units_Z 64
_cell_length_a 26.184768
_cell_length_b 17.016472
_cell_length_c 15.350922
_cell_angle_alpha 90.000000
_cell_angle_beta 151.174758
_cell_angle_gamma 90.000000
_cell_volume 3297.809788
_symmetry_space_group_name_H-M "C 2/M"
_symmetry_group_IT_number 12
_symmetry_cell_setting 'monoclinic'
loop_
_space_group_symop_operation_xyz
x,y,z
-x,y,-z
-x,-y,-z
x,-y,z
1/2+x,1/2+y,z
1/2-x,1/2+y,-z
1/2-x,1/2-y,-z
1/2+x,1/2-y,z
loop_
_atom_site_type_symbol
_atom_site_label
_atom_site_fract_x
_atom_site_fract_y
_atom_site_fract_z
Si Si1 0.982997 0.694591 0.373688
Si Si2 0.729590 0.095669 0.943366
Si Si3 0.342246 0.590683 0.935416
Si Si4 0.577933 0.595230 0.258795
Si Si5 0.638971 0.912746 0.512087
Si Si6 0.756731 0.193622 0.591997
Si Si7 0.875062 0.091029 0.328964
Si Si8 0.361644 0.312640 0.477444
O O1 0.868567 0.655043 0.190043
O O2 0.000000 0.716662 0.500000
O O3 0.062221 0.623913 0.467981
O O4 0.029666 0.763742 0.381751
O O5 0.788218 0.121901 0.942202
O O6 0.701820 0.000000 0.895267
O O7 0.810213 0.104237 0.143862
O O8 0.365767 0.500000 0.993698
O O9 0.254950 0.590103 0.729579
O O10 0.455230 0.621609 0.074254
O O11 0.587971 0.500000 0.265847
O O12 0.643091 0.638953 0.280156
O O13 0.620077 0.627187 0.415436
O O14 0.654520 0.863002 0.448241
O O15 0.606604 0.000000 0.443953
O O16 0.750000 0.250000 0.500000
O O17 0.732255 0.252044 0.636529
O O18 0.836317 0.143905 0.350243
O O19 0.000000 0.103281 0.500000
O O20 0.861780 0.000000 0.333949
#
# Coordination Sequence:
#
# PCOD9183504 Si02
#       8
#     8   8   8   8   8   8   8   8
#     4  11  21  35  53  82 121 158 188 227 280 344
#     4  10  20  35  57  86 116 154 200 234 273 332
#     4   9  18  31  52  84 111 135 181 234 276 331
#     4  10  19  36  60  81 105 141 189 239 289 337
#     4  10  19  33  55  80 108 144 185 230 280 333
#     4   9  20  36  54  75 107 139 181 236 287 347
#     4  10  20  37  60  84 117 159 201 240 273 326
#     4  10  21  37  53  82 118 149 189 230 283 346
#
# _framework density 19.40682
#
# number of rings (size 3 to 8) (size 9 to 14) (size 15 to 20)
#    0.000    2.125    1.250    2.250    0.000    3.000 
#    4.500    3.750    2.750    0.000    0.000    0.000 
#    0.000   17.000    0.000    2.250    0.000    0.000 
#
# Total GULP energy -178254.817759 kJ/mol
# GULP energy per Si atom -5570.463055 kJ/mol
# Density = 1.936265 g / cm^3
# Si number density = 19.406820 Si / 1000 Ang^3
#
#
#
# Elastic Constant Matrix: (Units=GPa)
#
#
# Indices 1 2 3 4 5 6 
#
# 1 141.4398 53.6718 31.2215 0.0000 18.4285 0.0000
# 2 53.6718 91.0098 22.6720 0.0000 5.7844 0.0000
# 3 31.2215 22.6720 62.9216 0.0000 15.8813 0.0000
# 4 0.0000 0.0000 0.0000 12.5572 0.0000 3.5669
# 5 18.4285 5.7844 15.8813 0.0000 28.9023 0.0000
# 6 0.0000 0.0000 0.0000 3.5669 0.0000 38.1429
#
#
#
# Elastic Compliance Matrix: (Units=1/GPa)
#
#
# Indices 1 2 3 4 5 6 
#
# 1 0.010022 -0.005129 -0.002056 0.000000 -0.004234 0.000000
# 2 -0.005129 0.014696 -0.003290 0.000000 0.002137 0.000000
# 3 -0.002056 -0.003290 0.020435 0.000000 -0.009260 0.000000
# 4 0.000000 0.000000 0.000000 0.081809 0.000000 -0.007650
# 5 -0.004234 0.002137 -0.009260 0.000000 0.041959 0.000000
# 6 0.000000 0.000000 0.000000 -0.007650 0.000000 0.026933
#
#
# Mechanical properties :
#
#
# Convention : Reuss Voigt Hill
#
# Bulk Modulus (GPa) = 41.31545 56.72242 49.01894
# Shear Modulus (GPa) = 22.23486 28.44087 25.33787
#
# Velocity S-wave (km/s) = 3.38853 3.83235 3.61725
# Velocity P-wave (km/s) = 6.05350 6.99100 6.53907
#
# Compressibility (1/GPa) = 0.02420402
#
# Stress axis : x y z
#
# Youngs Moduli (GPa) = 99.78117 68.04437 48.93445
#
# Poissons Ratio (x) = 0.34900 0.10062
# Poissons Ratio (y) = 0.51178 0.16098
# Poissons Ratio (z) = 0.20517 0.22385
#
# Static dielectric constant tensor:
#      x y z
#    x 1.705770 0.000000 0.006450 
#    y 0.000000 1.769120 0.000000 
#    z 0.006450 0.000000 1.675150 
# 
# From -- ./inp_files/241521.got.cif
#   From: 2010.05.17/outbox.cif.g08.bks.cpg/sg12_121_cif.got.tgz:241521.got - 2010.06.03 13:09:07.
