data_PCOD9183361
_publ_section_title
;
Structure prediction by ZEFSAII (Michael W. Deem and Ramdas Pophale) SiO2 
 PCOD9183361
Probable space group: C 2/M
;
_chemical_formula_sum "Si O2"
_cell_formula_units_Z 56
_cell_length_a 34.211339
_cell_length_b 14.362722
_cell_length_c 6.459918
_cell_angle_alpha 90.000000
_cell_angle_beta 77.325342
_cell_angle_gamma 90.000000
_cell_volume 3096.846855
_symmetry_space_group_name_H-M "C 2/M"
_symmetry_group_IT_number 12
_symmetry_cell_setting 'monoclinic'
loop_
_space_group_symop_operation_xyz
x,y,z
-x,y,-z
-x,-y,-z
x,-y,z
1/2+x,1/2+y,z
1/2-x,1/2+y,-z
1/2-x,1/2-y,-z
1/2+x,1/2-y,z
loop_
_atom_site_type_symbol
_atom_site_label
_atom_site_fract_x
_atom_site_fract_y
_atom_site_fract_z
Si Si1 0.320944 0.601922 0.801825
Si Si2 0.044380 0.608274 0.046351
Si Si3 0.809721 0.727550 0.499356
Si Si4 0.955372 0.769786 0.628304
Si Si5 0.898927 0.730649 0.305885
Si Si6 0.237299 0.815714 0.825216
Si Si7 0.098225 0.891676 0.030282
O O1 0.318906 0.500000 0.706268
O O2 0.313134 0.681411 0.642708
O O3 0.364094 0.614936 0.857874
O O4 0.289283 0.608345 0.027482
O O5 0.053200 0.500000 0.075171
O O6 0.076095 0.655208 0.853826
O O7 0.044586 0.671926 0.249579
O O8 0.000000 0.614850 0.000000
O O9 0.854883 0.693778 0.415319
O O10 0.790326 0.759644 0.305319
O O11 0.777704 0.660779 0.651529
O O12 0.924868 0.759202 0.474035
O O13 0.939458 0.848439 0.803873
O O14 0.000000 0.790115 0.500000
O O15 0.893750 0.823208 0.171243
O O16 0.250000 0.750000 0.000000
O O17 0.093009 0.000000 0.979412
#
# Coordination Sequence:
#
# PCOD9183361 Si02
#       7
#     8   8   8   8   8   8   8
#     4  10  19  33  54  84 114 145 189 235 272 322
#     4  10  22  39  60  86 112 141 186 243 292 339
#     4  10  19  34  56  82 107 148 187 225 278 337
#     4  11  22  38  59  85 114 151 191 232 284 339
#     4  11  21  37  60  84 117 152 190 231 282 341
#     4   9  19  34  54  79 108 143 182 228 277 325
#     4  10  22  36  55  85 120 155 192 233 275 325
#
# _framework density 18.082909000000001
#
# number of rings (size 3 to 8) (size 9 to 14) (size 15 to 20)
#    0.000    1.857    4.286    0.000    0.000    2.857 
#    0.000    1.429    0.000    8.571    0.000    0.000 
#    0.000    0.000    0.000    0.000    0.000    0.000 
#
# Total GULP energy -156152.919836 kJ/mol
# GULP energy per Si atom -5576.889994 kJ/mol
# Density = 1.804175 g / cm^3
# Si number density = 18.082909 Si / 1000 Ang^3
#
#
#
# Elastic Constant Matrix: (Units=GPa)
#
#
# Indices 1 2 3 4 5 6 
#
# 1 118.0529 16.8857 28.9014 0.0000 -23.3239 0.0000
# 2 16.8857 82.8958 12.4876 0.0000 -4.4380 0.0000
# 3 28.9014 12.4876 65.7132 0.0000 -0.7173 0.0000
# 4 0.0000 0.0000 0.0000 12.8467 0.0000 3.5152
# 5 -23.3239 -4.4380 -0.7173 0.0000 41.1559 0.0000
# 6 0.0000 0.0000 0.0000 3.5152 0.0000 15.8707
#
#
#
# Elastic Compliance Matrix: (Units=1/GPa)
#
#
# Indices 1 2 3 4 5 6 
#
# 1 0.010933 -0.001227 -0.004510 0.000000 0.005985 0.000000
# 2 -0.001227 0.012626 -0.001853 0.000000 0.000634 0.000000
# 3 -0.004510 -0.001853 0.017526 0.000000 -0.002450 0.000000
# 4 0.000000 0.000000 0.000000 0.082863 0.000000 -0.018353
# 5 0.005985 0.000634 -0.002450 0.000000 0.027715 0.000000
# 6 0.000000 0.000000 0.000000 -0.018353 0.000000 0.067074
#
#
# Mechanical properties :
#
#
# Convention : Reuss Voigt Hill
#
# Bulk Modulus (GPa) = 38.60106 42.57906 40.59006
# Shear Modulus (GPa) = 20.61404 27.86712 24.24058
#
# Velocity S-wave (km/s) = 3.38001 3.92991 3.66529
# Velocity P-wave (km/s) = 6.05192 6.64755 6.35672
#
# Compressibility (1/GPa) = 0.02590602
#
# Stress axis : x y z
#
# Youngs Moduli (GPa) = 91.46745 79.19949 57.05657
#
# Poissons Ratio (x) = 0.09719 0.25732
# Poissons Ratio (y) = 0.11225 0.10571
# Poissons Ratio (z) = 0.41250 0.14674
#
# Static dielectric constant tensor:
#      x y z
#    x 1.631100 0.000000 -0.028400 
#    y 0.000000 1.593780 0.000000 
#    z -0.028400 0.000000 1.621850 
# 
# From -- ./inp_files/31524.got.cif
#   From: 2010.05.17/outbox.cif.g08.bks.cpg/sg12_16_cif.got.tgz:31524.got - 2010.06.03 13:09:07.
