data_PCOD9183907
_publ_section_title
;
Structure prediction by ZEFSAII (Michael W. Deem and Ramdas Pophale) SiO2 
 PCOD9183907
Probable space group: C 2/M
;
_chemical_formula_sum "Si O2"
_cell_formula_units_Z 64
_cell_length_a 29.197252
_cell_length_b 23.893658
_cell_length_c 9.291892
_cell_angle_alpha 90.000000
_cell_angle_beta 150.280270
_cell_angle_gamma 90.000000
_cell_volume 3213.647896
_symmetry_space_group_name_H-M "C 2/M"
_symmetry_group_IT_number 12
_symmetry_cell_setting 'monoclinic'
loop_
_space_group_symop_operation_xyz
x,y,z
-x,y,-z
-x,-y,-z
x,-y,z
1/2+x,1/2+y,z
1/2-x,1/2+y,-z
1/2-x,1/2-y,-z
1/2+x,1/2-y,z
loop_
_atom_site_type_symbol
_atom_site_label
_atom_site_fract_x
_atom_site_fract_y
_atom_site_fract_z
Si Si1 0.783974 0.063228 0.119545
Si Si2 0.925915 0.336170 0.184851
Si Si3 0.980201 0.068209 0.782474
Si Si4 0.952177 0.723357 0.720959
Si Si5 0.195371 0.559793 0.181741
Si Si6 0.269688 0.852679 0.267255
Si Si7 0.174832 0.064261 0.214891
Si Si8 0.344656 0.260778 0.171435
O O1 0.883708 0.084991 0.446620
O O2 0.719742 0.058925 0.082214
O O3 0.796732 0.000000 0.095975
O O4 0.734298 0.105438 0.877826
O O5 0.875667 0.289531 0.149463
O O6 0.000000 0.360940 0.500000
O O7 0.975594 0.310304 0.181212
O O8 0.862005 0.384924 0.951841
O O9 0.977250 0.000000 0.781846
O O10 0.000000 0.088230 0.000000
O O11 0.068564 0.082542 0.925128
O O12 0.864174 0.683524 0.524305
O O13 0.915290 0.766966 0.498358
O O14 0.000000 0.743088 0.000000
O O15 0.151095 0.500000 0.103304
O O16 0.291780 0.562198 0.529387
O O17 0.244642 0.893137 0.330230
O O18 0.182052 0.811978 0.002966
O O19 0.181692 0.000000 0.179605
O O20 0.250000 0.250000 0.000000
#
# Coordination Sequence:
#
# PCOD9183907 Si02
#       8
#     8   8   8   8   8   8   8   8
#     4  10  19  33  56  83 119 159 193 233 284 344
#     4  10  20  38  61  83 116 155 192 237 294 342
#     4   9  16  32  53  77 115 160 195 231 285 339
#     4  10  21  41  64  83 111 154 193 235 291 348
#     4  10  19  33  57  86 114 151 196 236 280 340
#     4  11  22  39  60  85 117 150 192 236 288 345
#     4  10  20  35  56  85 121 154 190 237 289 344
#     4   9  20  40  62  82 111 149 189 240 289 341
#
# _framework density 19.915063
#
# number of rings (size 3 to 8) (size 9 to 14) (size 15 to 20)
#    0.000    2.125    1.250    3.375    0.000    0.750 
#    6.750   10.625    0.000    3.375    0.000    0.000 
#    0.000    0.000    0.000    0.000    0.000    0.000 
#
# Total GULP energy -178189.476043 kJ/mol
# GULP energy per Si atom -5568.421126 kJ/mol
# Density = 1.986974 g / cm^3
# Si number density = 19.915063 Si / 1000 Ang^3
#
#
#
# Elastic Constant Matrix: (Units=GPa)
#
#
# Indices 1 2 3 4 5 6 
#
# 1 61.6997 8.8228 12.3439 0.0000 0.5205 0.0000
# 2 8.8228 53.9581 18.8669 0.0000 3.8092 0.0000
# 3 12.3439 18.8669 67.5769 0.0000 -4.0038 0.0000
# 4 0.0000 0.0000 0.0000 29.8674 0.0000 1.1199
# 5 0.5205 3.8092 -4.0038 0.0000 28.8937 0.0000
# 6 0.0000 0.0000 0.0000 1.1199 0.0000 10.6490
#
#
#
# Elastic Compliance Matrix: (Units=1/GPa)
#
#
# Indices 1 2 3 4 5 6 
#
# 1 0.016997 -0.001834 -0.002618 0.000000 -0.000427 0.000000
# 2 -0.001834 0.021099 -0.005766 0.000000 -0.003548 0.000000
# 3 -0.002618 -0.005766 0.017074 0.000000 0.003173 0.000000
# 4 0.000000 0.000000 0.000000 0.033614 0.000000 -0.003535
# 5 -0.000427 -0.003548 0.003173 0.000000 0.035525 0.000000
# 6 0.000000 0.000000 0.000000 -0.003535 0.000000 0.094277
#
#
# Mechanical properties :
#
#
# Convention : Reuss Voigt Hill
#
# Bulk Modulus (GPa) = 28.78946 29.25576 29.02261
# Shear Modulus (GPa) = 19.95211 23.42876 21.69044
#
# Velocity S-wave (km/s) = 3.16865 3.43364 3.30380
# Velocity P-wave (km/s) = 5.27964 5.51743 5.39984
#
# Compressibility (1/GPa) = 0.03473493
#
# Stress axis : x y z
#
# Youngs Moduli (GPa) = 58.83339 47.39498 58.56847
#
# Poissons Ratio (x) = 0.08690 0.15334
# Poissons Ratio (y) = 0.10788 0.33771
# Poissons Ratio (z) = 0.15404 0.27328
#
# Static dielectric constant tensor:
#      x y z
#    x 1.709930 0.000000 -0.003180 
#    y 0.000000 1.758200 0.000000 
#    z -0.003180 0.000000 1.728360 
# 
# From -- ./inp_files/113668.got.cif
#   From: 2010.05.17/outbox.cif.g08.bks.cpg/sg12_57_cif.got.tgz:113668.got - 2010.06.03 13:09:07.
