data_PCOD9183420
_publ_section_title
;
Structure prediction by ZEFSAII (Michael W. Deem and Ramdas Pophale) SiO2 
 PCOD9183420
Probable space group: C 2/M
;
_chemical_formula_sum "Si O2"
_cell_formula_units_Z 56
_cell_length_a 30.743978
_cell_length_b 8.888592
_cell_length_c 12.721602
_cell_angle_alpha 90.000000
_cell_angle_beta 74.477961
_cell_angle_gamma 90.000000
_cell_volume 3349.646608
_symmetry_space_group_name_H-M "C 2/M"
_symmetry_group_IT_number 12
_symmetry_cell_setting 'monoclinic'
loop_
_space_group_symop_operation_xyz
x,y,z
-x,y,-z
-x,-y,-z
x,-y,z
1/2+x,1/2+y,z
1/2-x,1/2+y,-z
1/2-x,1/2-y,-z
1/2+x,1/2-y,z
loop_
_atom_site_type_symbol
_atom_site_label
_atom_site_fract_x
_atom_site_fract_y
_atom_site_fract_z
Si Si1 0.557950 0.819695 0.131500
Si Si2 0.893369 0.179529 0.697489
Si Si3 0.802386 0.321082 0.086422
Si Si4 0.453594 0.180268 0.235110
Si Si5 0.548566 0.180957 0.517413
Si Si6 0.608664 0.321164 0.898512
Si Si7 0.300052 0.320404 0.858277
O O1 0.579058 0.754844 0.224776
O O2 0.504585 0.785951 0.164589
O O3 0.563380 0.000000 0.126645
O O4 0.583168 0.748714 0.016018
O O5 0.912867 0.242849 0.576751
O O6 0.840688 0.213113 0.752915
O O7 0.899354 0.000000 0.698210
O O8 0.809044 0.500000 0.088101
O O9 0.840195 0.238573 0.129541
O O10 0.750392 0.285660 0.148525
O O11 0.807846 0.267034 0.962151
O O12 0.449955 0.219024 0.360577
O O13 0.417707 0.264794 0.186776
O O14 0.447201 0.000000 0.228563
O O15 0.500000 0.224516 0.500000
O O16 0.552157 0.000000 0.505378
O O17 0.607974 0.500000 0.906664
O O18 0.301330 0.500000 0.880788
#
# Coordination Sequence:
#
# PCOD9183420 Si02
#       7
#     8   8   8   8   8   8   8
#     4  11  21  36  56  79 108 147 186 218 263 324
#     4  11  21  33  54  84 116 142 172 222 278 320
#     4  10  19  33  55  78 106 145 182 216 266 328
#     4  10  22  39  57  76 105 146 190 225 261 320
#     4  10  20  38  58  78 105 143 188 228 262 311
#     4  12  24  36  52  80 115 144 178 226 276 324
#     4   9  19  34  52  80 112 140 175 223 272 321
#
# _framework density 16.718181000000001
#
# number of rings (size 3 to 8) (size 9 to 14) (size 15 to 20)
#    0.000    1.571    2.857    3.000    0.000    4.857 
#    0.000    0.000    0.000    0.857    0.000    0.000 
#    0.000    0.000    0.000    0.000    0.000    0.000 
#
# Total GULP energy -156397.546798 kJ/mol
# GULP energy per Si atom -5585.626671 kJ/mol
# Density = 1.668013 g / cm^3
# Si number density = 16.718181 Si / 1000 Ang^3
#
#
#
# Elastic Constant Matrix: (Units=GPa)
#
#
# Indices 1 2 3 4 5 6 
#
# 1 139.4580 63.5781 57.3203 0.0000 -6.2969 0.0000
# 2 63.5781 58.0229 36.6341 0.0000 -1.8891 0.0000
# 3 57.3203 36.6341 60.2700 0.0000 -4.2162 0.0000
# 4 0.0000 0.0000 0.0000 27.2570 0.0000 -0.5005
# 5 -6.2969 -1.8891 -4.2162 0.0000 26.7939 0.0000
# 6 0.0000 0.0000 0.0000 -0.5005 0.0000 26.3678
#
#
#
# Elastic Compliance Matrix: (Units=1/GPa)
#
#
# Indices 1 2 3 4 5 6 
#
# 1 0.016248 -0.013092 -0.007374 0.000000 0.001735 0.000000
# 2 -0.013092 0.038529 -0.011116 0.000000 -0.002109 0.000000
# 3 -0.007374 -0.011116 0.030522 0.000000 0.002286 0.000000
# 4 0.000000 0.000000 0.000000 0.036701 0.000000 0.000697
# 5 0.001735 -0.002109 0.002286 0.000000 0.037941 0.000000
# 6 0.000000 0.000000 0.000000 0.000697 0.000000 0.037938
#
#
# Mechanical properties :
#
#
# Convention : Reuss Voigt Hill
#
# Bulk Modulus (GPa) = 45.17566 63.64621 54.41093
# Shear Modulus (GPa) = 18.62742 22.76496 20.69619
#
# Velocity S-wave (km/s) = 3.34159 3.69411 3.52226
# Velocity P-wave (km/s) = 6.47833 7.50653 7.01130
#
# Compressibility (1/GPa) = 0.02213582
#
# Stress axis : x y z
#
# Youngs Moduli (GPa) = 61.54479 25.95427 32.76331
#
# Poissons Ratio (x) = 0.33978 0.24160
# Poissons Ratio (y) = 0.80572 0.36420
# Poissons Ratio (z) = 0.45385 0.28851
#
# Static dielectric constant tensor:
#      x y z
#    x 1.566260 0.000000 -0.015530 
#    y 0.000000 1.557150 0.000000 
#    z -0.015530 0.000000 1.534360 
# 
# From -- ./inp_files/180848.got.cif
#   From: 2010.05.17/outbox.cif.g08.bks.cpg/sg12_91_cif.got.tgz:180848.got - 2010.06.03 13:09:07.
