data_PCOD9183626
_publ_section_title
;
Structure prediction by ZEFSAII (Michael W. Deem and Ramdas Pophale) SiO2 
 PCOD9183626
Probable space group: C 2/M
;
_chemical_formula_sum "Si O2"
_cell_formula_units_Z 40
_cell_length_a 22.416001
_cell_length_b 12.913660
_cell_length_c 8.573559
_cell_angle_alpha 90.000000
_cell_angle_beta 131.880348
_cell_angle_gamma 90.000000
_cell_volume 1847.808624
_symmetry_space_group_name_H-M "C 2/M"
_symmetry_group_IT_number 12
_symmetry_cell_setting 'monoclinic'
loop_
_space_group_symop_operation_xyz
x,y,z
-x,y,-z
-x,-y,-z
x,-y,z
1/2+x,1/2+y,z
1/2-x,1/2+y,-z
1/2-x,1/2-y,-z
1/2+x,1/2-y,z
loop_
_atom_site_type_symbol
_atom_site_label
_atom_site_fract_x
_atom_site_fract_y
_atom_site_fract_z
Si Si1 0.575608 0.179991 0.040714
Si Si2 0.104834 0.112130 0.292044
Si Si3 0.463096 0.666919 0.265641
Si Si4 0.244838 0.663012 0.230172
Si Si5 0.278387 0.387418 0.931915
O O1 0.595734 0.288384 0.165969
O O2 0.661821 0.129349 0.166530
O O3 0.500000 0.132155 0.000000
O O4 0.546543 0.217145 0.819760
O O5 0.180400 0.127051 0.537640
O O6 0.025767 0.113082 0.260440
O O7 0.111448 0.000000 0.223911
O O8 0.500000 0.665413 0.500000
O O9 0.374677 0.619913 0.112067
O O10 0.247954 0.625079 0.056816
O O11 0.247908 0.788689 0.216219
O O12 0.253848 0.500000 0.828376
#
# Coordination Sequence:
#
# PCOD9183626 Si02
#       5
#     8   8   8   8   8
#     4   9  21  36  51  76 110 147 180 218 263 314
#     4  11  21  34  55  83 114 142 173 216 270 327
#     4  10  19  33  55  83 111 138 170 215 277 335
#     4  10  20  34  54  80 108 145 180 217 265 321
#     4  10  20  34  54  84 114 138 172 222 272 319
#
# _framework density 21.647262999999999
#
# number of rings (size 3 to 8) (size 9 to 14) (size 15 to 20)
#    0.000    2.000    2.000    1.800    0.000    7.600 
#    0.000    0.000    0.000    2.400    0.000   54.600 
#    0.000    0.000    0.000    0.000    0.000    0.000 
#
# Total GULP energy -111721.089100 kJ/mol
# GULP energy per Si atom -5586.054455 kJ/mol
# Density = 2.159799 g / cm^3
# Si number density = 21.647263 Si / 1000 Ang^3
#
#
#
# Elastic Constant Matrix: (Units=GPa)
#
#
# Indices 1 2 3 4 5 6 
#
# 1 158.1170 10.6949 14.1706 0.0000 25.0513 0.0000
# 2 10.6949 81.7140 11.9546 0.0000 7.2001 0.0000
# 3 14.1706 11.9546 61.0788 0.0000 11.8369 0.0000
# 4 0.0000 0.0000 0.0000 4.5748 0.0000 -8.6205
# 5 25.0513 7.2001 11.8369 0.0000 41.0211 0.0000
# 6 0.0000 0.0000 0.0000 -8.6205 0.0000 -11.2254
#
#
#
# Elastic Compliance Matrix: (Units=1/GPa)
#
#
# Indices 1 2 3 4 5 6 
#
# 1 0.007060 -0.000458 -0.000771 0.000000 -0.004008 0.000000
# 2 -0.000458 0.012727 -0.002125 0.000000 -0.001341 0.000000
# 3 -0.000771 -0.002125 0.017799 0.000000 -0.004292 0.000000
# 4 0.000000 0.000000 0.000000 0.089326 0.000000 -0.068598
# 5 -0.004008 -0.001341 -0.004292 0.000000 0.028299 0.000000
# 6 0.000000 0.000000 0.000000 -0.068598 0.000000 -0.036404
#
#
# Mechanical properties :
#
#
# Convention : Reuss Voigt Hill
#
# Bulk Modulus (GPa) = 32.38665 41.61668 37.00166
# Shear Modulus (GPa) = 36.81671 24.48008 30.64839
#
# Velocity S-wave (km/s) = 4.12850 3.36648 3.76681
# Velocity P-wave (km/s) = 6.14162 5.86324 6.00404
#
# Compressibility (1/GPa) = 0.03087692
#
# Stress axis : x y z
#
# Youngs Moduli (GPa) = 141.65126 78.57465 56.18325
#
# Poissons Ratio (x) = 0.03598 0.04334
# Poissons Ratio (y) = 0.06487 0.11938
# Poissons Ratio (z) = 0.10928 0.16695
#
# Static dielectric constant tensor:
#      x y z
#    x 1.824920 0.000000 -0.003870 
#    y 0.000000 1.826010 0.000000 
#    z -0.003870 0.000000 1.747880 
# 
# From -- ./inp_files/85523.got.cif
#   From: 2010.05.17/outbox.cif.g08.bks.cpg/sg12_43_cif.got.tgz:85523.got - 2010.06.03 13:09:07.
