data_PCOD9183012
_publ_section_title
;
Structure prediction by ZEFSAII (Michael W. Deem and Ramdas Pophale) SiO2 
 PCOD9183012
Probable space group: C 2/M
;
_chemical_formula_sum "Si O2"
_cell_formula_units_Z 64
_cell_length_a 30.750591
_cell_length_b 8.803011
_cell_length_c 15.424562
_cell_angle_alpha 90.000000
_cell_angle_beta 137.681270
_cell_angle_gamma 90.000000
_cell_volume 2811.102388
_symmetry_space_group_name_H-M "C 2/M"
_symmetry_group_IT_number 12
_symmetry_cell_setting 'monoclinic'
loop_
_space_group_symop_operation_xyz
x,y,z
-x,y,-z
-x,-y,-z
x,-y,z
1/2+x,1/2+y,z
1/2-x,1/2+y,-z
1/2-x,1/2-y,-z
1/2+x,1/2-y,z
loop_
_atom_site_type_symbol
_atom_site_label
_atom_site_fract_x
_atom_site_fract_y
_atom_site_fract_z
Si Si1 0.244826 0.680455 0.629676
Si Si2 0.516421 0.818222 0.342915
Si Si3 0.120464 0.180602 0.387739
Si Si4 0.067570 0.677180 0.947190
Si Si5 0.306407 0.820373 0.251425
Si Si6 0.181918 0.320819 0.988332
Si Si7 0.105071 0.181773 0.174984
Si Si8 0.090375 0.819600 0.705063
O O1 0.238316 0.500000 0.600969
O O2 0.195863 0.776982 0.499409
O O3 0.220597 0.705723 0.692237
O O4 0.319695 0.721473 0.730940
O O5 0.586802 0.763712 0.418701
O O6 0.479034 0.745614 0.368597
O O7 0.513738 0.000000 0.347270
O O8 0.476020 0.768394 0.197221
O O9 0.091124 0.234295 0.252290
O O10 0.112065 0.000000 0.383166
O O11 0.053422 0.500000 0.938581
O O12 0.139828 0.691923 0.014422
O O13 0.064351 0.757764 0.034443
O O14 0.251061 0.752589 0.107143
O O15 0.374812 0.745106 0.328897
O O16 0.312389 0.000000 0.246773
O O17 0.312844 0.000000 0.024834
O O18 0.139240 0.237884 0.852830
O O19 0.099963 0.000000 0.167370
O O20 0.087510 0.000000 0.697708
#
# Coordination Sequence:
#
# PCOD9183012 Si02
#       8
#     8   8   8   8   8   8   8   8
#     4  10  22  40  61  86 118 156 196 241 293 346
#     4  10  22  42  62  84 118 156 199 243 288 348
#     4  11  24  40  61  87 115 154 199 245 295 346
#     4   9  19  34  57  87 117 153 192 238 292 344
#     4  11  21  35  57  85 117 154 196 239 291 348
#     4  10  19  33  53  83 121 157 194 235 289 347
#     4  10  21  38  60  89 121 152 192 239 295 353
#     4  11  22  36  57  85 118 154 193 238 291 347
#
# _framework density 22.766867999999999
#
# number of rings (size 3 to 8) (size 9 to 14) (size 15 to 20)
#    0.000    1.750    1.250    4.125    0.000    5.500 
#    0.000    3.125    0.000    3.750    0.000    0.000 
#    0.000    0.000    0.000    0.000    0.000    0.000 
#
# Total GULP energy -178993.465425 kJ/mol
# GULP energy per Si atom -5593.545795 kJ/mol
# Density = 2.271505 g / cm^3
# Si number density = 22.766868 Si / 1000 Ang^3
#
#
#
# Elastic Constant Matrix: (Units=GPa)
#
#
# Indices 1 2 3 4 5 6 
#
# 1 128.6256 43.2424 12.5331 0.0000 -5.5234 0.0000
# 2 43.2424 58.7466 7.3694 0.0000 -9.6265 0.0000
# 3 12.5331 7.3694 58.7657 0.0000 -7.8659 0.0000
# 4 0.0000 0.0000 0.0000 16.7834 0.0000 -3.3278
# 5 -5.5234 -9.6265 -7.8659 0.0000 37.4287 0.0000
# 6 0.0000 0.0000 0.0000 -3.3278 0.0000 26.0108
#
#
#
# Elastic Compliance Matrix: (Units=1/GPa)
#
#
# Indices 1 2 3 4 5 6 
#
# 1 0.010443 -0.007632 -0.001365 0.000000 -0.000709 0.000000
# 2 -0.007632 0.023508 -0.000681 0.000000 0.004777 0.000000
# 3 -0.001365 -0.000681 0.017845 0.000000 0.003374 0.000000
# 4 0.000000 0.000000 0.000000 0.061134 0.000000 0.007821
# 5 -0.000709 0.004777 0.003374 0.000000 0.028550 0.000000
# 6 0.000000 0.000000 0.000000 0.007821 0.000000 0.039446
#
#
# Mechanical properties :
#
#
# Convention : Reuss Voigt Hill
#
# Bulk Modulus (GPa) = 30.82579 41.38086 36.10332
# Shear Modulus (GPa) = 23.68610 28.24411 25.96511
#
# Velocity S-wave (km/s) = 3.22899 3.52601 3.38076
# Velocity P-wave (km/s) = 5.24127 5.89850 5.57957
#
# Compressibility (1/GPa) = 0.03244037
#
# Stress axis : x y z
#
# Youngs Moduli (GPa) = 95.76039 42.53884 56.03876
#
# Poissons Ratio (x) = 0.32464 0.07649
# Poissons Ratio (y) = 0.73081 0.03816
# Poissons Ratio (z) = 0.13071 0.02897
#
# Static dielectric constant tensor:
#      x y z
#    x 1.866830 0.000000 -0.001440 
#    y 0.000000 1.754140 0.000000 
#    z -0.001440 0.000000 1.896560 
# 
# From -- ./inp_files/250050.got.cif
#   From: 2010.05.17/outbox.cif.g08.bks.cpg/sg12_126_cif.got.tgz:250050.got - 2010.06.03 13:09:07.
