data_PCOD9183901
_publ_section_title
;
Structure prediction by ZEFSAII (Michael W. Deem and Ramdas Pophale) SiO2 
 PCOD9183901
Probable space group: C 2/M
;
_chemical_formula_sum "Si O2"
_cell_formula_units_Z 64
_cell_length_a 29.991562
_cell_length_b 7.980959
_cell_length_c 15.288504
_cell_angle_alpha 90.000000
_cell_angle_beta 127.149140
_cell_angle_gamma 90.000000
_cell_volume 2916.846661
_symmetry_space_group_name_H-M "C 2/M"
_symmetry_group_IT_number 12
_symmetry_cell_setting 'monoclinic'
loop_
_space_group_symop_operation_xyz
x,y,z
-x,y,-z
-x,-y,-z
x,-y,z
1/2+x,1/2+y,z
1/2-x,1/2+y,-z
1/2-x,1/2-y,-z
1/2+x,1/2-y,z
loop_
_atom_site_type_symbol
_atom_site_label
_atom_site_fract_x
_atom_site_fract_y
_atom_site_fract_z
Si Si1 0.299782 0.809105 0.932761
Si Si2 0.681959 0.200788 0.712901
Si Si3 0.998500 0.295683 0.267620
Si Si4 0.958164 0.308660 0.869746
Si Si5 0.149245 0.808697 0.168067
Si Si6 0.125057 0.705887 0.822609
Si Si7 0.882421 0.701081 0.534169
Si Si8 0.191419 0.800351 0.391694
O O1 0.244889 0.738335 0.819992
O O2 0.348459 0.796034 0.917266
O O3 0.286090 0.000000 0.936774
O O4 0.326897 0.733881 0.052622
O O5 0.641944 0.255572 0.745022
O O6 0.657499 0.266007 0.591458
O O7 0.679282 0.000000 0.703868
O O8 0.997006 0.500000 0.268926
O O9 0.937247 0.238117 0.224818
O O10 0.012163 0.249281 0.183421
O O11 0.052866 0.240568 0.387971
O O12 0.937516 0.500000 0.829217
O O13 0.907957 0.197947 0.845962
O O14 0.000000 0.315803 0.000000
O O15 0.190131 0.736601 0.290572
O O16 0.162943 0.000000 0.160566
O O17 0.125382 0.500000 0.827094
O O18 0.884059 0.500000 0.528201
O O19 0.855777 0.739607 0.597160
O O20 0.250000 0.750000 0.500000
O O21 0.186698 0.000000 0.379563
#
# Coordination Sequence:
#
# PCOD9183901 Si02
#       8
#     8   8   8   8   8   8   8   8
#     4  11  22  37  59  84 113 150 193 237 286 344
#     4  10  21  37  58  85 116 147 186 238 292 340
#     4   9  17  32  55  83 115 147 186 232 277 333
#     4  10  19  33  56  83 113 150 189 228 272 329
#     4  11  23  37  54  81 114 147 184 229 283 335
#     4   9  19  36  58  85 114 146 188 239 287 336
#     4  10  20  35  57  84 114 149 187 232 284 338
#     4  11  23  37  55  79 111 149 188 231 280 335
#
# _framework density 21.941503000000001
#
# number of rings (size 3 to 8) (size 9 to 14) (size 15 to 20)
#    0.000    1.875    1.250    3.000    0.000    7.750 
#    0.000    3.125    0.000    2.250    0.000    1.750 
#    0.000    0.000    0.000    0.000    0.000    0.000 
#
# Total GULP energy -178599.527326 kJ/mol
# GULP energy per Si atom -5581.235229 kJ/mol
# Density = 2.189156 g / cm^3
# Si number density = 21.941503 Si / 1000 Ang^3
#
#
#
# Elastic Constant Matrix: (Units=GPa)
#
#
# Indices 1 2 3 4 5 6 
#
# 1 81.2960 1.8687 11.9433 0.0000 5.3308 0.0000
# 2 1.8687 18.3224 12.1652 0.0000 1.2826 0.0000
# 3 11.9433 12.1652 100.0072 0.0000 -3.0857 0.0000
# 4 0.0000 0.0000 0.0000 14.3842 0.0000 2.3947
# 5 5.3308 1.2826 -3.0857 0.0000 34.0992 0.0000
# 6 0.0000 0.0000 0.0000 2.3947 0.0000 9.9637
#
#
#
# Elastic Compliance Matrix: (Units=1/GPa)
#
#
# Indices 1 2 3 4 5 6 
#
# 1 0.012672 -0.000104 -0.001566 0.000000 -0.002119 0.000000
# 2 -0.000104 0.059661 -0.007334 0.000000 -0.002891 0.000000
# 3 -0.001566 -0.007334 0.011126 0.000000 0.001527 0.000000
# 4 0.000000 0.000000 0.000000 0.072418 0.000000 -0.017405
# 5 -0.002119 -0.002891 0.001527 0.000000 0.029904 0.000000
# 6 0.000000 0.000000 0.000000 -0.017405 0.000000 0.104548
#
#
# Mechanical properties :
#
#
# Convention : Reuss Voigt Hill
#
# Bulk Modulus (GPa) = 15.27898 27.95333 21.61615
# Shear Modulus (GPa) = 15.14443 23.26596 19.20520
#
# Velocity S-wave (km/s) = 2.63005 3.25985 2.96174
# Velocity P-wave (km/s) = 4.02511 5.19003 4.64424
#
# Compressibility (1/GPa) = 0.06544941
#
# Stress axis : x y z
#
# Youngs Moduli (GPa) = 78.91331 16.76149 89.88295
#
# Poissons Ratio (x) = 0.00175 0.14076
# Poissons Ratio (y) = 0.00823 0.65921
# Poissons Ratio (z) = 0.12358 0.12293
#
# Static dielectric constant tensor:
#      x y z
#    x 1.809410 0.000000 0.025790 
#    y 0.000000 1.812070 0.000000 
#    z 0.025790 0.000000 1.923340 
# 
# From -- ./inp_files/250091.got.cif
#   From: 2010.05.17/outbox.cif.g08.bks.cpg/sg12_126_cif.got.tgz:250091.got - 2010.06.03 13:09:07.
