data_PCOD9183066
_publ_section_title
;
Structure prediction by ZEFSAII (Michael W. Deem and Ramdas Pophale) SiO2 
 PCOD9183066
Probable space group: C 2/M
;
_chemical_formula_sum "Si O2"
_cell_formula_units_Z 48
_cell_length_a 16.574741
_cell_length_b 28.776987
_cell_length_c 5.027253
_cell_angle_alpha 90.000000
_cell_angle_beta 79.998319
_cell_angle_gamma 90.000000
_cell_volume 2361.413411
_symmetry_space_group_name_H-M "C 2/M"
_symmetry_group_IT_number 12
_symmetry_cell_setting 'monoclinic'
loop_
_space_group_symop_operation_xyz
x,y,z
-x,y,-z
-x,-y,-z
x,-y,z
1/2+x,1/2+y,z
1/2-x,1/2+y,-z
1/2-x,1/2-y,-z
1/2+x,1/2-y,z
loop_
_atom_site_type_symbol
_atom_site_label
_atom_site_fract_x
_atom_site_fract_y
_atom_site_fract_z
Si Si1 0.116708 0.185584 0.407344
Si Si2 0.290755 0.164058 0.402530
Si Si3 0.549768 0.779296 0.703262
Si Si4 0.772509 0.604988 0.919165
Si Si5 0.091008 0.122173 0.921620
Si Si6 0.445457 0.944026 0.783085
O O1 0.213111 0.194712 0.367704
O O2 0.076739 0.231703 0.544503
O O3 0.093863 0.165273 0.132102
O O4 0.098142 0.144150 0.625052
O O5 0.371989 0.190201 0.279110
O O6 0.286110 0.148790 0.712012
O O7 0.280252 0.119028 0.222596
O O8 0.500000 0.805330 0.500000
O O9 0.500000 0.770803 0.000000
O O10 0.851300 0.572792 0.820428
O O11 0.675544 0.593402 0.925793
O O12 0.000000 0.100380 0.000000
O O13 0.500000 0.930480 0.500000
O O14 0.442644 0.000000 0.799158
O O15 0.500000 0.926631 0.000000
#
# Coordination Sequence:
#
# PCOD9183066 Si02
#       6
#     8   8   8   8   8   8
#     4  10  20  35  51  68  96 134 177 218 255 300
#     4  10  22  36  50  72 101 135 169 211 264 308
#     4  12  23  33  48  70  97 132 175 218 263 307
#     4  10  21  36  55  78 105 135 168 212 260 306
#     4  10  19  33  54  77 100 131 174 217 259 303
#     4  10  21  37  59  84 109 140 173 204 244 301
#
# _framework density 20.326810999999999
#
# number of rings (size 3 to 8) (size 9 to 14) (size 15 to 20)
#    0.000    1.667    0.000    5.500    0.000    4.000 
#    0.000    6.667    0.000    0.500    0.000    0.000 
#    0.000   12.000    0.000    0.000    0.000    2.667 
#
# Total GULP energy -133862.366795 kJ/mol
# GULP energy per Si atom -5577.598616 kJ/mol
# Density = 2.028055 g / cm^3
# Si number density = 20.326811 Si / 1000 Ang^3
#
#
#
# Elastic Constant Matrix: (Units=GPa)
#
#
# Indices 1 2 3 4 5 6 
#
# 1 191.6065 33.5112 31.8787 0.0000 -25.3786 0.0000
# 2 33.5112 14.3088 1.9894 0.0000 -3.5911 0.0000
# 3 31.8787 1.9894 96.2825 0.0000 -2.1635 0.0000
# 4 0.0000 0.0000 0.0000 16.7895 0.0000 -25.3767
# 5 -25.3786 -3.5911 -2.1635 0.0000 32.8085 0.0000
# 6 0.0000 0.0000 0.0000 -25.3767 0.0000 67.1362
#
#
#
# Elastic Compliance Matrix: (Units=1/GPa)
#
#
# Indices 1 2 3 4 5 6 
#
# 1 0.010323 -0.022442 -0.002834 0.000000 0.005342 0.000000
# 2 -0.022442 0.120815 0.004849 0.000000 -0.003816 0.000000
# 3 -0.002834 0.004849 0.011204 0.000000 -0.000923 0.000000
# 4 0.000000 0.000000 0.000000 0.138939 0.000000 0.052517
# 5 0.005342 -0.003816 -0.000923 0.000000 0.034134 0.000000
# 6 0.000000 0.000000 0.000000 0.052517 0.000000 0.034746
#
#
# Mechanical properties :
#
#
# Convention : Reuss Voigt Hill
#
# Bulk Modulus (GPa) = 9.85356 48.55069 29.20213
# Shear Modulus (GPa) = 11.76898 39.00139 25.38519
#
# Velocity S-wave (km/s) = 2.40883 4.38507 3.53774
# Velocity P-wave (km/s) = 3.54890 7.04097 5.57539
#
# Compressibility (1/GPa) = 0.10148614
#
# Stress axis : x y z
#
# Youngs Moduli (GPa) = 96.86906 8.27710 89.25706
#
# Poissons Ratio (x) = 0.18576 0.25298
# Poissons Ratio (y) = 2.17396 -0.43277
# Poissons Ratio (z) = 0.27455 -0.04013
#
# Static dielectric constant tensor:
#      x y z
#    x 1.818470 0.000000 -0.016290 
#    y 0.000000 1.701190 0.000000 
#    z -0.016290 0.000000 1.700620 
# 
# From -- ./inp_files/12831.got.cif
#   From: 2010.05.17/outbox.cif.g08.bks.cpg/sg12_7_cif.got.tgz:12831.got - 2010.06.03 13:09:07.
