data_PCOD9183404
_publ_section_title
;
Structure prediction by ZEFSAII (Michael W. Deem and Ramdas Pophale) SiO2 
 PCOD9183404
Probable space group: C 2/M
;
_chemical_formula_sum "Si O2"
_cell_formula_units_Z 56
_cell_length_a 16.567978
_cell_length_b 8.722114
_cell_length_c 27.021718
_cell_angle_alpha 90.000000
_cell_angle_beta 141.205518
_cell_angle_gamma 90.000000
_cell_volume 2446.500065
_symmetry_space_group_name_H-M "C 2/M"
_symmetry_group_IT_number 12
_symmetry_cell_setting 'monoclinic'
loop_
_space_group_symop_operation_xyz
x,y,z
-x,y,-z
-x,-y,-z
x,-y,z
1/2+x,1/2+y,z
1/2-x,1/2+y,-z
1/2-x,1/2-y,-z
1/2+x,1/2-y,z
loop_
_atom_site_type_symbol
_atom_site_label
_atom_site_fract_x
_atom_site_fract_y
_atom_site_fract_z
Si Si1 0.468110 0.312725 0.767032
Si Si2 0.188427 0.313754 0.616610
Si Si3 0.851338 0.672514 0.948114
Si Si4 0.770353 0.824184 0.811737
Si Si5 0.435419 0.680409 0.086095
Si Si6 0.916171 0.315911 0.534940
Si Si7 0.511211 0.319474 0.675580
O O1 0.471996 0.500000 0.770340
O O2 0.320144 0.264508 0.704906
O O3 0.561511 0.262669 0.855864
O O4 0.495472 0.262537 0.724328
O O5 0.188743 0.500000 0.616808
O O6 0.056922 0.269931 0.580569
O O7 0.180142 0.266940 0.554877
O O8 0.798124 0.500000 0.918864
O O9 0.783141 0.780700 0.875782
O O10 0.000000 0.668052 0.000000
O O11 0.856940 0.728040 0.007255
O O12 0.913673 0.807763 0.858187
O O13 0.659790 0.721136 0.735053
O O14 0.730994 0.000000 0.785975
O O15 0.401240 0.500000 0.067381
O O16 0.910129 0.500000 0.535235
O O17 0.915209 0.249292 0.589192
O O18 0.491157 0.500000 0.666444
#
# Coordination Sequence:
#
# PCOD9183404 Si02
#       7
#     8   8   8   8   8   8   8
#     4   9  18  32  49  71 101 135 168 203 245 294
#     4   8  15  31  55  78  97 125 169 212 246 286
#     4   9  17  30  50  78 108 130 154 199 258 306
#     4  10  19  33  55  77  97 127 171 214 245 285
#     4   9  17  32  55  77  96 126 171 212 243 285
#     4   9  17  32  56  79  97 124 167 213 249 289
#     4  11  22  33  47  71 105 138 164 198 251 305
#
# _framework density 22.889841000000001
#
# number of rings (size 3 to 8) (size 9 to 14) (size 15 to 20)
#    0.000    2.714    0.000    3.000    0.000    5.143 
#    0.000    3.571    0.000    3.429    0.000    0.000 
#    0.000    0.000    0.000    0.000    0.000    0.000 
#
# Total GULP energy -156410.994989 kJ/mol
# GULP energy per Si atom -5586.106964 kJ/mol
# Density = 2.283774 g / cm^3
# Si number density = 22.889841 Si / 1000 Ang^3
#
#
#
# Elastic Constant Matrix: (Units=GPa)
#
#
# Indices 1 2 3 4 5 6 
#
# 1 71.9557 9.8644 28.1499 0.0000 -23.4713 0.0000
# 2 9.8644 13.5321 9.6653 0.0000 -13.9134 0.0000
# 3 28.1499 9.6653 127.1282 0.0000 -29.6159 0.0000
# 4 0.0000 0.0000 0.0000 26.5177 0.0000 -11.9111
# 5 -23.4713 -13.9134 -29.6159 0.0000 49.0064 0.0000
# 6 0.0000 0.0000 0.0000 -11.9111 0.0000 14.3660
#
#
#
# Elastic Compliance Matrix: (Units=1/GPa)
#
#
# Indices 1 2 3 4 5 6 
#
# 1 0.017252 -0.005482 -0.002143 0.000000 0.005412 0.000000
# 2 -0.005482 0.106262 -0.000522 0.000000 0.027228 0.000000
# 3 -0.002143 -0.000522 0.009435 0.000000 0.004527 0.000000
# 4 0.000000 0.000000 0.000000 0.060089 0.000000 0.049821
# 5 0.005412 0.027228 0.004527 0.000000 0.033464 0.000000
# 6 0.000000 0.000000 0.000000 0.049821 0.000000 0.110916
#
#
# Mechanical properties :
#
#
# Convention : Reuss Voigt Hill
#
# Bulk Modulus (GPa) = 8.57215 34.21946 21.39581
# Shear Modulus (GPa) = 12.73570 28.97380 20.85475
#
# Velocity S-wave (km/s) = 2.36135 3.56166 3.02170
# Velocity P-wave (km/s) = 3.34481 5.64765 4.64132
#
# Compressibility (1/GPa) = 0.11665679
#
# Stress axis : x y z
#
# Youngs Moduli (GPa) = 57.96280 9.41067 105.98941
#
# Poissons Ratio (x) = 0.05159 0.22710
# Poissons Ratio (y) = 0.31774 0.05533
# Poissons Ratio (z) = 0.12420 0.00491
#
# Static dielectric constant tensor:
#      x y z
#    x 1.963610 0.000000 0.010940 
#    y 0.000000 1.783070 0.000000 
#    z 0.010940 0.000000 1.843950 
# 
# From -- ./inp_files/363240.got.cif
#   From: 2010.05.17/outbox.cif.g08.bks.cpg/sg12_182_cif.got.tgz:363240.got - 2010.06.03 13:09:07.
