data_PCOD9183680
_publ_section_title
;
Structure prediction by ZEFSAII (Michael W. Deem and Ramdas Pophale) SiO2 
 PCOD9183680
Probable space group: C 2/M
;
_chemical_formula_sum "Si O2"
_cell_formula_units_Z 48
_cell_length_a 19.058386
_cell_length_b 13.477280
_cell_length_c 11.993942
_cell_angle_alpha 90.000000
_cell_angle_beta 61.706742
_cell_angle_gamma 90.000000
_cell_volume 2712.664081
_symmetry_space_group_name_H-M "C 2/M"
_symmetry_group_IT_number 12
_symmetry_cell_setting 'monoclinic'
loop_
_space_group_symop_operation_xyz
x,y,z
-x,y,-z
-x,-y,-z
x,-y,z
1/2+x,1/2+y,z
1/2-x,1/2+y,-z
1/2-x,1/2-y,-z
1/2+x,1/2-y,z
loop_
_atom_site_type_symbol
_atom_site_label
_atom_site_fract_x
_atom_site_fract_y
_atom_site_fract_z
Si Si1 0.910528 0.617266 0.090430
Si Si2 0.297053 0.813536 0.799370
Si Si3 0.627711 0.205476 0.646633
Si Si4 0.757349 0.614098 0.066503
Si Si5 0.266268 0.383432 0.392321
Si Si6 0.978063 0.385816 0.647212
O O1 0.915553 0.500000 0.111385
O O2 0.874110 0.670541 0.224621
O O3 0.849654 0.629108 0.034113
O O4 0.000000 0.653169 0.000000
O O5 0.291293 0.695875 0.827542
O O6 0.257508 0.845659 0.713154
O O7 0.387778 0.850732 0.729261
O O8 0.252973 0.862884 0.938613
O O9 0.660269 0.317425 0.619265
O O10 0.691004 0.141199 0.528203
O O11 0.540938 0.183411 0.662753
O O12 0.736272 0.500000 0.105930
O O13 0.281708 0.500000 0.379205
O O14 0.986050 0.500000 0.681795
O O15 0.000000 0.384992 0.500000
#
# Coordination Sequence:
#
# PCOD9183680 Si02
#       6
#     8   8   8   8   8   8
#     4  10  19  33  55  84 117 149 185 234 289 337
#     4  11  21  38  60  87 118 151 196 242 284 342
#     4  11  22  37  57  88 117 149 189 240 287 344
#     4  10  21  36  57  85 117 155 194 236 288 343
#     4  11  22  38  61  86 115 155 194 236 289 343
#     4  11  21  35  59  87 115 146 188 243 292 335
#
# _framework density 17.694783000000001
#
# number of rings (size 3 to 8) (size 9 to 14) (size 15 to 20)
#    0.000    1.333    3.333    4.000    0.000    1.333 
#    0.000    0.833    0.000    1.500    0.000    0.000 
#    0.000    0.000    0.000    0.000    0.000    0.000 
#
# Total GULP energy -134025.223244 kJ/mol
# GULP energy per Si atom -5584.384302 kJ/mol
# Density = 1.765451 g / cm^3
# Si number density = 17.694783 Si / 1000 Ang^3
#
#
#
# Elastic Constant Matrix: (Units=GPa)
#
#
# Indices 1 2 3 4 5 6 
#
# 1 78.5991 44.9062 8.0820 0.0000 -1.3520 0.0000
# 2 44.9062 132.0827 37.4223 0.0000 -3.9322 0.0000
# 3 8.0820 37.4223 74.4475 0.0000 4.0614 0.0000
# 4 0.0000 0.0000 0.0000 20.0713 0.0000 -2.1863
# 5 -1.3520 -3.9322 4.0614 0.0000 22.3585 0.0000
# 6 0.0000 0.0000 0.0000 -2.1863 0.0000 22.3820
#
#
#
# Elastic Compliance Matrix: (Units=1/GPa)
#
#
# Indices 1 2 3 4 5 6 
#
# 1 0.015876 -0.005738 0.001175 0.000000 -0.000263 0.000000
# 2 -0.005738 0.011030 -0.005058 0.000000 0.002512 0.000000
# 3 0.001175 -0.005058 0.016051 0.000000 -0.003734 0.000000
# 4 0.000000 0.000000 0.000000 0.050358 0.000000 0.004919
# 5 -0.000263 0.002512 -0.003734 0.000000 0.045830 0.000000
# 6 0.000000 0.000000 0.000000 0.004919 0.000000 0.045159
#
#
# Mechanical properties :
#
#
# Convention : Reuss Voigt Hill
#
# Bulk Modulus (GPa) = 42.16923 51.77226 46.97074
# Shear Modulus (GPa) = 23.64602 25.94362 24.79482
#
# Velocity S-wave (km/s) = 3.65955 3.83322 3.74739
# Velocity P-wave (km/s) = 6.46062 6.99381 6.73250
#
# Compressibility (1/GPa) = 0.02371398
#
# Stress axis : x y z
#
# Youngs Moduli (GPa) = 62.98838 90.66220 62.30097
#
# Poissons Ratio (x) = 0.52026 -0.07323
# Poissons Ratio (y) = 0.36145 0.31515
# Poissons Ratio (z) = -0.07403 0.45861
#
# Static dielectric constant tensor:
#      x y z
#    x 1.612440 0.000000 0.021420 
#    y 0.000000 1.595450 0.000000 
#    z 0.021420 0.000000 1.605810 
# 
# From -- ./inp_files/164689.got.cif
#   From: 2010.05.17/outbox.cif.g08.bks.cpg/sg12_83_cif.got.tgz:164689.got - 2010.06.03 13:09:07.
