data_PCOD9183800
_publ_section_title
;
Structure prediction by ZEFSAII (Michael W. Deem and Ramdas Pophale) SiO2 
 PCOD9183800
Probable space group: C 2/M
;
_chemical_formula_sum "Si O2"
_cell_formula_units_Z 56
_cell_length_a 5.296341
_cell_length_b 19.188903
_cell_length_c 28.741006
_cell_angle_alpha 90.000000
_cell_angle_beta 60.485213
_cell_angle_gamma 90.000000
_cell_volume 2541.917171
_symmetry_space_group_name_H-M "C 2/M"
_symmetry_group_IT_number 12
_symmetry_cell_setting 'monoclinic'
loop_
_space_group_symop_operation_xyz
x,y,z
-x,y,-z
-x,-y,-z
x,-y,z
1/2+x,1/2+y,z
1/2-x,1/2+y,-z
1/2-x,1/2-y,-z
1/2+x,1/2-y,z
loop_
_atom_site_type_symbol
_atom_site_label
_atom_site_fract_x
_atom_site_fract_y
_atom_site_fract_z
Si Si1 0.051344 0.921952 0.827320
Si Si2 0.143891 0.774735 0.655515
Si Si3 0.138630 0.422164 0.101679
Si Si4 0.335180 0.783422 0.774228
Si Si5 0.610873 0.417905 0.624265
Si Si6 0.789478 0.916459 0.558759
Si Si7 0.877382 0.278587 0.939977
O O1 0.159336 0.915635 0.871146
O O2 0.213853 0.860960 0.785763
O O3 0.703576 0.916151 0.854698
O O4 0.133687 0.000000 0.804283
O O5 0.482845 0.758510 0.626308
O O6 0.073079 0.856835 0.665661
O O7 0.018903 0.733251 0.711318
O O8 0.181700 0.500000 0.078204
O O9 0.195534 0.358656 0.061970
O O10 0.555906 0.767024 0.795866
O O11 0.572526 0.500000 0.640654
O O12 0.399103 0.399099 0.600751
O O13 0.948761 0.407298 0.579728
O O14 0.000000 0.886388 0.500000
O O15 0.830482 0.000000 0.554449
O O16 0.718432 0.234668 0.914375
O O17 0.750000 0.250000 0.000000
#
# Coordination Sequence:
#
# PCOD9183800 Si02
#       7
#     8   8   8   8   8   8   8
#     4  10  21  37  58  85 114 145 184 229 278 333
#     4  10  21  38  55  76 109 148 185 222 271 327
#     4  10  21  37  58  84 114 146 182 230 282 328
#     4  10  21  37  56  82 111 145 183 222 279 332
#     4  10  19  33  56  81 106 141 184 227 268 320
#     4   9  17  30  52  83 112 138 176 227 277 322
#     4  10  21  37  55  82 115 149 192 232 270 323
#
# _framework density 22.030616999999999
#
# number of rings (size 3 to 8) (size 9 to 14) (size 15 to 20)
#    0.000    2.143    0.000    3.000    0.000    5.143 
#    0.000    8.571    0.000    8.571    0.000    0.000 
#    0.000    0.000    0.000    0.000    0.000    0.000 
#
# Total GULP energy -156179.579930 kJ/mol
# GULP energy per Si atom -5577.842140 kJ/mol
# Density = 2.198047 g / cm^3
# Si number density = 22.030617 Si / 1000 Ang^3
#
#
#
# Elastic Constant Matrix: (Units=GPa)
#
#
# Indices 1 2 3 4 5 6 
#
# 1 143.6411 -6.3495 -14.8562 0.0000 2.3062 0.0000
# 2 -6.3495 131.0826 20.7067 0.0000 -0.2254 0.0000
# 3 -14.8562 20.7067 33.5413 0.0000 -3.0174 0.0000
# 4 0.0000 0.0000 0.0000 10.2376 0.0000 5.6307
# 5 2.3062 -0.2254 -3.0174 0.0000 11.0973 0.0000
# 6 0.0000 0.0000 0.0000 5.6307 0.0000 27.1693
#
#
#
# Elastic Compliance Matrix: (Units=1/GPa)
#
#
# Indices 1 2 3 4 5 6 
#
# 1 0.007304 -0.000166 0.003281 0.000000 -0.000629 0.000000
# 2 -0.000166 0.008475 -0.005419 0.000000 -0.001267 0.000000
# 3 0.003281 -0.005419 0.035407 0.000000 0.008836 0.000000
# 4 0.000000 0.000000 0.000000 0.110245 0.000000 -0.022848
# 5 -0.000629 -0.001267 0.008836 0.000000 0.092619 0.000000
# 6 0.000000 0.000000 0.000000 -0.022848 0.000000 0.041541
#
#
# Mechanical properties :
#
#
# Convention : Reuss Voigt Hill
#
# Bulk Modulus (GPa) = 21.46936 34.14076 27.80506
# Shear Modulus (GPa) = 15.83653 30.28512 23.06083
#
# Velocity S-wave (km/s) = 2.68403 3.71169 3.23888
# Velocity P-wave (km/s) = 4.40134 5.82233 5.16097
#
# Compressibility (1/GPa) = 0.04657801
#
# Stress axis : x y z
#
# Youngs Moduli (GPa) = 136.91341 117.99941 28.24264
#
# Poissons Ratio (x) = 0.01953 -0.09265
# Poissons Ratio (y) = 0.02266 0.15305
# Poissons Ratio (z) = -0.44916 0.63945
#
# Static dielectric constant tensor:
#      x y z
#    x 1.645290 0.000000 2.381290 
#    y 0.000000 1.829950 0.000000 
#    z 2.381290 0.000000 -17.080530 
# 
# From -- ./inp_files/371589.got.cif
#   From: 2010.05.17/outbox.cif.g08.bks.cpg/sg12_186_cif.got.tgz:371589.got - 2010.06.03 13:09:07.
