data_PCOD9183337
_publ_section_title
;
Structure prediction by ZEFSAII (Michael W. Deem and Ramdas Pophale) SiO2 
 PCOD9183337
Probable space group: C 2/M
;
_chemical_formula_sum "Si O2"
_cell_formula_units_Z 64
_cell_length_a 30.480571
_cell_length_b 8.701693
_cell_length_c 21.997973
_cell_angle_alpha 90.000000
_cell_angle_beta 34.390505
_cell_angle_gamma 90.000000
_cell_volume 3295.546733
_symmetry_space_group_name_H-M "C 2/M"
_symmetry_group_IT_number 12
_symmetry_cell_setting 'monoclinic'
loop_
_space_group_symop_operation_xyz
x,y,z
-x,y,-z
-x,-y,-z
x,-y,z
1/2+x,1/2+y,z
1/2-x,1/2+y,-z
1/2-x,1/2-y,-z
1/2+x,1/2-y,z
loop_
_atom_site_type_symbol
_atom_site_label
_atom_site_fract_x
_atom_site_fract_y
_atom_site_fract_z
Si Si1 0.083685 0.816119 0.257372
Si Si2 0.587254 0.315146 0.114660
Si Si3 0.565894 0.820317 0.518755
Si Si4 0.242702 0.316141 0.124325
Si Si5 0.341592 0.819456 0.460250
Si Si6 0.787975 0.815710 0.709551
Si Si7 0.200033 0.315823 0.688564
Si Si8 0.562428 0.814340 0.767985
O O1 0.067831 0.765991 0.205867
O O2 0.170032 0.763544 0.175044
O O3 0.020552 0.743643 0.374826
O O4 0.077829 0.000000 0.267190
O O5 0.584451 0.500000 0.116281
O O6 0.523309 0.250685 0.141795
O O7 0.674654 0.267936 0.998082
O O8 0.604994 0.803300 0.540889
O O9 0.623686 0.730462 0.408082
O O10 0.564916 0.000000 0.503803
O O11 0.235418 0.500000 0.126924
O O12 0.238514 0.266348 0.199154
O O13 0.262239 0.733088 0.566394
O O14 0.388698 0.765482 0.347714
O O15 0.324410 0.000000 0.471890
O O16 0.734352 0.763499 0.713906
O O17 0.782862 0.000000 0.721641
O O18 0.199085 0.500000 0.691708
O O19 0.114576 0.264359 0.765722
O O20 0.558043 0.000000 0.772652
#
# Coordination Sequence:
#
# PCOD9183337 Si02
#       8
#     8   8   8   8   8   8   8   8
#     4  11  22  38  61  89 116 144 182 231 288 345
#     4  10  23  40  59  85 116 147 186 234 285 338
#     4  10  19  34  57  87 120 153 184 227 282 336
#     4  11  24  42  61  82 109 148 194 238 284 338
#     4   9  17  29  49  80 116 150 184 222 273 335
#     4  10  21  39  59  83 116 153 194 237 279 329
#     4   9  19  33  53  81 114 150 188 230 277 330
#     4  10  19  33  54  83 115 149 188 229 277 336
#
# _framework density 19.420145999999999
#
# number of rings (size 3 to 8) (size 9 to 14) (size 15 to 20)
#    0.000    2.000    1.250    2.250    0.000    4.000 
#    0.000    3.125    0.000    3.750    0.000    0.000 
#    0.000    0.000    0.000    0.000    0.000    0.000 
#
# Total GULP energy -178714.325223 kJ/mol
# GULP energy per Si atom -5584.822663 kJ/mol
# Density = 1.937595 g / cm^3
# Si number density = 19.420146 Si / 1000 Ang^3
#
#
#
# Elastic Constant Matrix: (Units=GPa)
#
#
# Indices 1 2 3 4 5 6 
#
# 1 52.5870 2.2926 20.4637 0.0000 -20.4340 0.0009
# 2 2.2926 13.4987 23.4302 -0.0024 -7.8141 0.0054
# 3 20.4637 23.4302 164.2412 -0.0213 -34.2423 -0.0014
# 4 0.0000 -0.0024 -0.0213 31.1097 0.0045 -4.7811
# 5 -20.4340 -7.8141 -34.2423 0.0045 38.6686 0.0001
# 6 0.0009 0.0054 -0.0014 -4.7811 0.0001 22.6809
#
#
#
# Elastic Compliance Matrix: (Units=1/GPa)
#
#
# Indices 1 2 3 4 5 6 
#
# 1 0.024220 0.005216 -0.001072 -0.000003 0.012904 -0.000003
# 2 0.005216 0.102297 -0.012704 -0.000007 0.012178 -0.000027
# 3 -0.001072 -0.012704 0.009052 0.000005 0.004883 0.000005
# 4 -0.000003 -0.000007 0.000005 0.033221 -0.000002 0.007003
# 5 0.012904 0.012178 0.004883 -0.000002 0.039464 -0.000004
# 6 -0.000003 -0.000027 0.000005 0.007003 -0.000004 0.045566
#
#
# Mechanical properties :
#
#
# Convention : Reuss Voigt Hill
#
# Bulk Modulus (GPa) = 8.44239 35.85554 22.14897
# Shear Modulus (GPa) = 16.10708 30.76787 23.43748
#
# Velocity S-wave (km/s) = 2.88306 3.98468 3.47776
# Velocity P-wave (km/s) = 3.92929 6.29868 5.24942
#
# Compressibility (1/GPa) = 0.11844986
#
# Stress axis : x y z
#
# Youngs Moduli (GPa) = 41.28855 9.77549 110.46737
#
# Poissons Ratio (x) = -0.05099 0.11837
# Poissons Ratio (y) = -0.21537 1.40340
# Poissons Ratio (z) = 0.04424 0.12419
#
# Static dielectric constant tensor:
#      x y z
#    x 1.712930 0.000000 -0.008780 
#    y 0.000000 1.657010 0.000000 
#    z -0.008780 0.000000 1.653870 
# 
# From -- ./inp_files/353301.got.cif
#   From: 2010.05.17/outbox.cif.g08.bks.cpg/sg12_177_cif.got.tgz:353301.got - 2010.06.03 13:09:07.
