data_PCOD9183444
_publ_section_title
;
Structure prediction by ZEFSAII (Michael W. Deem and Ramdas Pophale) SiO2 
 PCOD9183444
Probable space group: C 2/M
;
_chemical_formula_sum "Si O2"
_cell_formula_units_Z 56
_cell_length_a 22.940083
_cell_length_b 17.434227
_cell_length_c 19.529440
_cell_angle_alpha 90.000000
_cell_angle_beta 23.689263
_cell_angle_gamma 90.000000
_cell_volume 3138.135232
_symmetry_space_group_name_H-M "C 2/M"
_symmetry_group_IT_number 12
_symmetry_cell_setting 'monoclinic'
loop_
_space_group_symop_operation_xyz
x,y,z
-x,y,-z
-x,-y,-z
x,-y,z
1/2+x,1/2+y,z
1/2-x,1/2+y,-z
1/2-x,1/2-y,-z
1/2+x,1/2-y,z
loop_
_atom_site_type_symbol
_atom_site_label
_atom_site_fract_x
_atom_site_fract_y
_atom_site_fract_z
Si Si1 0.836344 0.251909 0.254735
Si Si2 0.318604 0.200966 0.864052
Si Si3 0.578704 0.415116 0.842551
Si Si4 0.938067 0.808947 0.383576
Si Si5 0.097512 0.089228 0.326764
Si Si6 0.824245 0.712963 0.108842
Si Si7 0.411306 0.586059 0.884524
O O1 0.826787 0.160018 0.272695
O O2 0.729300 0.296701 0.420121
O O3 0.795700 0.268757 0.219255
O O4 0.003208 0.277561 0.086312
O O5 0.485122 0.225755 0.690594
O O6 0.255282 0.231210 0.859813
O O7 0.250000 0.250000 0.000000
O O8 0.252814 0.116930 0.945472
O O9 0.648772 0.500000 0.766796
O O10 0.458131 0.415591 0.913014
O O11 0.500000 0.404217 0.000000
O O12 0.013237 0.863376 0.359423
O O13 0.983605 0.852127 0.265239
O O14 0.252132 0.130507 0.171665
O O15 0.000000 0.095324 0.500000
O O16 0.113185 0.000000 0.292706
O O17 0.428934 0.500000 0.837835
#
# Coordination Sequence:
#
# PCOD9183444 Si02
#       7
#     8   8   8   8   8   8   8
#     4  11  19  34  54  82 112 145 184 230 269 333
#     4   9  18  34  52  78 101 138 184 224 269 330
#     4  10  19  33  55  79 105 141 180 223 276 327
#     4  10  21  33  55  82 108 144 182 224 278 329
#     4  10  19  34  53  77 108 145 186 227 270 320
#     4  10  19  34  54  79 110 145 188 223 275 323
#     4  10  19  35  55  79 106 141 182 226 273 330
#
# _framework density 17.844992000000001
#
# number of rings (size 3 to 8) (size 9 to 14) (size 15 to 20)
#    0.000    2.000    4.286    0.429    0.000    0.571 
#    0.000    3.571    0.000    0.000    0.000    6.000 
#    0.000    0.000    0.000    0.000    0.000    0.000 
#
# Total GULP energy -155954.151285 kJ/mol
# GULP energy per Si atom -5569.791117 kJ/mol
# Density = 1.780438 g / cm^3
# Si number density = 17.844992 Si / 1000 Ang^3
#
#
#
# Elastic Constant Matrix: (Units=GPa)
#
#
# Indices 1 2 3 4 5 6 
#
# 1 53.0142 11.2663 10.7226 0.0001 9.7342 0.0000
# 2 11.2663 112.2785 38.1727 -0.0010 -7.0249 0.0008
# 3 10.7226 38.1727 74.2748 0.0000 -1.5092 0.0004
# 4 0.0001 -0.0010 0.0000 22.2924 0.0003 -0.7102
# 5 9.7342 -7.0249 -1.5092 0.0003 17.8051 -0.0003
# 6 0.0000 0.0008 0.0004 -0.7102 -0.0003 18.1940
#
#
#
# Elastic Compliance Matrix: (Units=1/GPa)
#
#
# Indices 1 2 3 4 5 6 
#
# 1 0.022248 -0.002276 -0.002311 0.000000 -0.013257 0.000000
# 2 -0.002276 0.011287 -0.005366 0.000000 0.005243 0.000000
# 3 -0.002311 -0.005366 0.016566 0.000000 0.000551 0.000000
# 4 0.000000 0.000000 0.000000 0.044914 -0.000001 0.001753
# 5 -0.013257 0.005243 0.000551 -0.000001 0.065527 0.000001
# 6 0.000000 0.000000 0.000000 0.001753 0.000001 0.055032
#
#
# Mechanical properties :
#
#
# Convention : Reuss Voigt Hill
#
# Bulk Modulus (GPa) = 33.11818 39.98785 36.55301
# Shear Modulus (GPa) = 20.36280 23.61869 21.99075
#
# Velocity S-wave (km/s) = 3.38167 3.64201 3.51425
# Velocity P-wave (km/s) = 5.81779 6.33583 6.08233
#
# Compressibility (1/GPa) = 0.03019490
#
# Stress axis : x y z
#
# Youngs Moduli (GPa) = 44.94724 88.59685 60.36438
#
# Poissons Ratio (x) = 0.20165 0.13953
# Poissons Ratio (y) = 0.10230 0.32390
# Poissons Ratio (z) = 0.10389 0.47539
#
# Static dielectric constant tensor:
#      x y z
#    x 1.628240 0.000000 0.017450 
#    y 0.000000 1.639540 0.000000 
#    z 0.017450 0.000000 1.609510 
# 
# From -- ./inp_files/284991.got.cif
#   From: 2010.05.17/outbox.cif.g08.bks.cpg/sg12_143_cif.got.tgz:284991.got - 2010.06.03 13:09:07.
