data_PCOD9183867
_publ_section_title
;
Structure prediction by ZEFSAII (Michael W. Deem and Ramdas Pophale) SiO2 
 PCOD9183867
Probable space group: C 2/M
;
_chemical_formula_sum "Si O2"
_cell_formula_units_Z 56
_cell_length_a 31.404272
_cell_length_b 8.274924
_cell_length_c 12.176906
_cell_angle_alpha 90.000000
_cell_angle_beta 115.618560
_cell_angle_gamma 90.000000
_cell_volume 2853.304759
_symmetry_space_group_name_H-M "C 2/M"
_symmetry_group_IT_number 12
_symmetry_cell_setting 'monoclinic'
loop_
_space_group_symop_operation_xyz
x,y,z
-x,y,-z
-x,-y,-z
x,-y,z
1/2+x,1/2+y,z
1/2-x,1/2+y,-z
1/2-x,1/2-y,-z
1/2+x,1/2-y,z
loop_
_atom_site_type_symbol
_atom_site_label
_atom_site_fract_x
_atom_site_fract_y
_atom_site_fract_z
Si Si1 0.909345 0.693349 0.707862
Si Si2 0.982400 0.695039 0.175852
Si Si3 0.547241 0.196995 0.618148
Si Si4 0.901921 0.811818 0.935270
Si Si5 0.181347 0.309438 0.008837
Si Si6 0.864958 0.697631 0.433067
Si Si7 0.218119 0.695716 0.810120
O O1 0.911915 0.500000 0.698574
O O2 0.889595 0.731577 0.805481
O O3 0.879110 0.753333 0.570529
O O4 0.963575 0.753794 0.764254
O O5 0.983574 0.500000 0.178386
O O6 0.957453 0.749653 0.261191
O O7 0.951084 0.746399 0.038303
O O8 0.500000 0.244651 0.500000
O O9 0.593603 0.249302 0.604466
O O10 0.548086 0.000000 0.619736
O O11 0.861591 0.777209 0.979578
O O12 0.906531 0.000000 0.921475
O O13 0.171086 0.500000 0.997970
O O14 0.230351 0.272843 0.125809
O O15 0.190994 0.261086 0.893292
O O16 0.864944 0.500000 0.432666
O O17 0.814585 0.746392 0.327756
O O18 0.223385 0.500000 0.815921
#
# Coordination Sequence:
#
# PCOD9183867 Si02
#       7
#     8   8   8   8   8   8   8
#     4  10  20  35  55  79 108 144 186 226 262 315
#     4  10  19  33  56  83 109 141 183 227 268 318
#     4   9  14  25  49  83 114 137 170 216 261 307
#     4  12  25  38  53  74 106 147 188 229 273 317
#     4  10  20  37  60  85 110 138 177 222 267 321
#     4   9  16  29  52  83 114 143 174 215 268 321
#     4   9  18  34  59  89 116 138 166 214 276 330
#
# _framework density 19.626363999999999
#
# number of rings (size 3 to 8) (size 9 to 14) (size 15 to 20)
#    0.000    2.143    1.429    3.000    0.000    5.143 
#    0.000    1.429    0.000    1.286    0.000    0.000 
#    0.000    0.000    0.000    0.000    0.000    0.000 
#
# Total GULP energy -156342.286149 kJ/mol
# GULP energy per Si atom -5583.653077 kJ/mol
# Density = 1.958169 g / cm^3
# Si number density = 19.626364 Si / 1000 Ang^3
#
#
#
# Elastic Constant Matrix: (Units=GPa)
#
#
# Indices 1 2 3 4 5 6 
#
# 1 30.4905 -0.3996 25.2761 0.0000 3.1881 0.0000
# 2 -0.3996 0.8783 10.6534 0.0000 2.8215 0.0000
# 3 25.2761 10.6534 126.4461 0.0000 13.2118 0.0000
# 4 0.0000 0.0000 0.0000 4.9907 0.0000 3.0051
# 5 3.1881 2.8215 13.2118 0.0000 23.2274 0.0000
# 6 0.0000 0.0000 0.0000 3.0051 0.0000 11.4086
#
#
#
# Elastic Compliance Matrix: (Units=1/GPa)
#
#
# Indices 1 2 3 4 5 6 
#
# 1 0.014560 -0.244879 0.015759 0.000000 0.018785 0.000000
# 2 -0.244879 -2.420664 0.232479 0.000000 0.195427 0.000000
# 3 0.015759 0.232479 -0.012388 0.000000 -0.023357 0.000000
# 4 0.000000 0.000000 0.000000 0.238144 0.000000 -0.062729
# 5 0.018785 0.195427 -0.023357 0.000000 0.030020 0.000000
# 6 0.000000 0.000000 0.000000 -0.062729 0.000000 0.104177
#
#
# Mechanical properties :
#
#
# Convention : Reuss Voigt Hill
#
# Bulk Modulus (GPa) = -0.41463 25.43052 12.50795
# Shear Modulus (GPa) = -1.75021 16.07766 7.16372
#
# Velocity S-wave (km/s) = -0.94536 2.86525 1.91258
# Velocity P-wave (km/s) = 1.18462 4.89200 3.35621
#
# Compressibility (1/GPa) = -2.41177568
#
# Stress axis : x y z
#
# Youngs Moduli (GPa) = 68.68063 -0.41311 -80.72242
#
# Poissons Ratio (x) = -0.10116 1.27207
# Poissons Ratio (y) = 16.81847 18.76628
# Poissons Ratio (z) = -1.08231 0.09604
#
# Static dielectric constant tensor:
#      x y z
#    x 1.668660 0.000000 -0.001500 
#    y 0.000000 1.686260 0.000000 
#    z -0.001500 0.000000 1.696430 
# 
# From -- ./inp_files/186496.got.cif
#   From: 2010.05.17/outbox.cif.g08.bks.cpg/sg12_94_cif.got.tgz:186496.got - 2010.06.03 13:09:07.
