data_PCOD9183048
_publ_section_title
;
Structure prediction by ZEFSAII (Michael W. Deem and Ramdas Pophale) SiO2 
 PCOD9183048
Probable space group: C 2/M
;
_chemical_formula_sum "Si O2"
_cell_formula_units_Z 48
_cell_length_a 26.093959
_cell_length_b 7.398814
_cell_length_c 14.894907
_cell_angle_alpha 90.000000
_cell_angle_beta 139.408624
_cell_angle_gamma 90.000000
_cell_volume 1871.086826
_symmetry_space_group_name_H-M "C 2/M"
_symmetry_group_IT_number 12
_symmetry_cell_setting 'monoclinic'
loop_
_space_group_symop_operation_xyz
x,y,z
-x,y,-z
-x,-y,-z
x,-y,z
1/2+x,1/2+y,z
1/2-x,1/2+y,-z
1/2-x,1/2-y,-z
1/2+x,1/2-y,z
loop_
_atom_site_type_symbol
_atom_site_label
_atom_site_fract_x
_atom_site_fract_y
_atom_site_fract_z
Si Si1 0.168460 0.221166 0.272192
Si Si2 0.081459 0.721321 0.652916
Si Si3 0.176622 0.707821 0.617545
Si Si4 0.575680 0.706381 0.981685
Si Si5 0.167219 0.286176 0.938258
Si Si6 0.078154 0.218632 0.323417
O O1 0.251041 0.287280 0.342072
O O2 0.145416 0.275265 0.341521
O O3 0.168871 0.000000 0.273394
O O4 0.102307 0.281520 0.112507
O O5 0.081809 0.500000 0.653583
O O6 0.150806 0.784972 0.678395
O O7 0.100971 0.779997 0.779410
O O8 0.000000 0.779355 0.500000
O O9 0.197646 0.500000 0.662508
O O10 0.101126 0.712000 0.451525
O O11 0.552173 0.500000 0.968829
O O12 0.650232 0.706961 0.013413
O O13 0.503206 0.784622 0.828948
O O14 0.159821 0.500000 0.939029
O O15 0.250000 0.250000 0.000000
O O16 0.076401 0.000000 0.327511
#
# Coordination Sequence:
#
# PCOD9183048 Si02
#       6
#     8   8   8   8   8   8
#     4   9  18  34  55  77 104 143 185 218 259 321
#     4   9  18  33  53  76 103 139 179 214 256 316
#     4  10  19  33  54  76 102 139 180 220 262 317
#     4  10  20  36  57  79 105 139 180 222 264 314
#     4  11  22  37  58  82 109 140 176 219 265 315
#     4  10  20  34  54  80 108 138 175 223 273 316
#
# _framework density 25.65354
#
# number of rings (size 3 to 8) (size 9 to 14) (size 15 to 20)
#    0.000    2.167    0.000    3.500    0.000    6.667 
#    0.000    5.000    0.000    6.500    0.000    0.000 
#    0.000    0.000    0.000    0.000    0.000    0.000 
#
# Total GULP energy -134298.944886 kJ/mol
# GULP energy per Si atom -5595.789370 kJ/mol
# Density = 2.559515 g / cm^3
# Si number density = 25.653540 Si / 1000 Ang^3
#
#
#
# Elastic Constant Matrix: (Units=GPa)
#
#
# Indices 1 2 3 4 5 6 
#
# 1 92.8874 -4.8215 -8.2461 0.0000 -13.2884 0.0000
# 2 -4.8215 99.2827 -6.6424 0.0000 -0.6237 0.0000
# 3 -8.2461 -6.6424 82.0667 0.0000 -10.3614 0.0000
# 4 0.0000 0.0000 0.0000 12.7159 0.0000 0.0331
# 5 -13.2884 -0.6237 -10.3614 0.0000 51.8868 0.0000
# 6 0.0000 0.0000 0.0000 0.0331 0.0000 3.6892
#
#
#
# Elastic Compliance Matrix: (Units=1/GPa)
#
#
# Indices 1 2 3 4 5 6 
#
# 1 0.011410 0.000682 0.001612 0.000000 0.003252 0.000000
# 2 0.000682 0.010172 0.000953 0.000000 0.000487 0.000000
# 3 0.001612 0.000953 0.012801 0.000000 0.002981 0.000000
# 4 0.000000 0.000000 0.000000 0.078643 0.000000 -0.000705
# 5 0.003252 0.000487 0.002981 0.000000 0.020707 0.000000
# 6 0.000000 0.000000 0.000000 -0.000705 0.000000 0.271070
#
#
# Mechanical properties :
#
#
# Convention : Reuss Voigt Hill
#
# Bulk Modulus (GPa) = 24.46265 26.09077 25.27671
# Shear Modulus (GPa) = 12.13790 33.25483 22.69637
#
# Velocity S-wave (km/s) = 2.17755 3.60433 2.97766
# Velocity P-wave (km/s) = 3.98482 5.24539 4.65795
#
# Compressibility (1/GPa) = 0.04087864
#
# Stress axis : x y z
#
# Youngs Moduli (GPa) = 87.64603 98.30682 78.12077
#
# Poissons Ratio (x) = -0.06708 -0.12595
# Poissons Ratio (y) = -0.05981 -0.07448
# Poissons Ratio (z) = -0.14131 -0.09373
#
# Static dielectric constant tensor:
#      x y z
#    x 2.001080 0.000000 0.072990 
#    y 0.000000 1.974170 0.000000 
#    z 0.072990 0.000000 2.003570 
# 
# From -- ./inp_files/154186.got.cif
#   From: 2010.05.17/outbox.cif.g08.bks.cpg/sg12_78_cif.got.tgz:154186.got - 2010.06.03 13:09:07.
