data_PCOD9183606
_publ_section_title
;
Structure prediction by ZEFSAII (Michael W. Deem and Ramdas Pophale) SiO2 
 PCOD9183606
Probable space group: C 2/M
;
_chemical_formula_sum "Si O2"
_cell_formula_units_Z 56
_cell_length_a 27.394390
_cell_length_b 8.964680
_cell_length_c 13.672091
_cell_angle_alpha 90.000000
_cell_angle_beta 63.849642
_cell_angle_gamma 90.000000
_cell_volume 3013.934673
_symmetry_space_group_name_H-M "C 2/M"
_symmetry_group_IT_number 12
_symmetry_cell_setting 'monoclinic'
loop_
_space_group_symop_operation_xyz
x,y,z
-x,y,-z
-x,-y,-z
x,-y,z
1/2+x,1/2+y,z
1/2-x,1/2+y,-z
1/2-x,1/2-y,-z
1/2+x,1/2-y,z
loop_
_atom_site_type_symbol
_atom_site_label
_atom_site_fract_x
_atom_site_fract_y
_atom_site_fract_z
Si Si1 0.165697 0.674871 0.109370
Si Si2 0.557937 0.825714 0.332187
Si Si3 0.945742 0.321599 0.326169
Si Si4 0.879909 0.822655 0.547274
Si Si5 0.773835 0.178524 0.763278
Si Si6 0.835049 0.178296 0.102904
Si Si7 0.948105 0.179218 0.110743
O O1 0.180228 0.500000 0.089025
O O2 0.105369 0.685450 0.209164
O O3 0.204769 0.756139 0.152356
O O4 0.166447 0.751557 0.003823
O O5 0.501024 0.779794 0.335467
O O6 0.577707 0.731132 0.406963
O O7 0.554379 0.000000 0.365401
O O8 0.943257 0.500000 0.324610
O O9 0.896078 0.257122 0.432998
O O10 0.948224 0.255729 0.215820
O O11 0.820435 0.784242 0.642884
O O12 0.883088 0.000000 0.533055
O O13 0.715822 0.252036 0.794585
O O14 0.769501 0.000000 0.773625
O O15 0.892342 0.213563 0.103175
O O16 0.829420 0.000000 0.101781
O O17 0.951013 0.000000 0.121223
O O18 0.000000 0.225117 0.000000
#
# Coordination Sequence:
#
# PCOD9183606 Si02
#       7
#     8   8   8   8   8   8   8
#     4  10  19  33  55  82 114 148 181 221 270 325
#     4   9  19  34  53  82 116 147 180 221 271 324
#     4  11  22  36  57  83 112 146 183 225 272 323
#     4  10  21  36  56  82 111 145 184 225 270 323
#     4  10  21  37  56  80 111 145 183 226 271 322
#     4  11  22  36  56  81 109 143 183 226 273 323
#     4  10  23  42  61  82 110 143 180 224 270 320
#
# _framework density 18.580362999999998
#
# number of rings (size 3 to 8) (size 9 to 14) (size 15 to 20)
#    0.000    1.857    0.000    3.857    0.000    6.571 
#    0.000    0.714    0.000    0.000    0.000    0.000 
#    0.000    0.000    0.000    0.000    0.000    0.000 
#
# Total GULP energy -156491.413332 kJ/mol
# GULP energy per Si atom -5588.979048 kJ/mol
# Density = 1.853807 g / cm^3
# Si number density = 18.580363 Si / 1000 Ang^3
#
#
#
# Elastic Constant Matrix: (Units=GPa)
#
#
# Indices 1 2 3 4 5 6 
#
# 1 119.5608 58.3729 74.5217 0.0000 -23.8910 0.0000
# 2 58.3729 62.5226 61.5596 0.0000 -9.7058 0.0000
# 3 74.5217 61.5596 152.8684 0.0000 -9.5821 0.0000
# 4 0.0000 0.0000 0.0000 -327.4254 0.0000 190.8715
# 5 -23.8910 -9.7058 -9.5821 0.0000 12.3125 0.0000
# 6 0.0000 0.0000 0.0000 190.8715 0.0000 -72.1560
#
#
#
# Elastic Compliance Matrix: (Units=1/GPa)
#
#
# Indices 1 2 3 4 5 6 
#
# 1 0.024054 -0.012967 -0.004436 0.000000 0.032999 0.000000
# 2 -0.012967 0.035715 -0.008277 0.000000 -0.003449 0.000000
# 3 -0.004436 -0.008277 0.011657 0.000000 -0.006059 0.000000
# 4 0.000000 0.000000 0.000000 0.005634 0.000000 0.014905
# 5 0.032999 -0.003449 -0.006059 0.000000 0.137815 0.000000
# 6 0.000000 0.000000 0.000000 0.014905 0.000000 0.025568
#
#
# Mechanical properties :
#
#
# Convention : Reuss Voigt Hill
#
# Bulk Modulus (GPa) = 49.83538 80.42891 65.13215
# Shear Modulus (GPa) = 16.75091 -68.08728 -25.66818
#
# Velocity S-wave (km/s) = 3.00582 -6.06006 -3.72084
# Velocity P-wave (km/s) = 6.23910 2.36320 4.08299
#
# Compressibility (1/GPa) = 0.02006606
#
# Stress axis : x y z
#
# Youngs Moduli (GPa) = 41.57397 27.99954 85.78369
#
# Poissons Ratio (x) = 0.36307 0.38050
# Poissons Ratio (y) = 0.53909 0.71004
# Poissons Ratio (z) = 0.18440 0.23176
#
# Static dielectric constant tensor:
#      x y z
#    x 1.632780 0.000000 -0.033320 
#    y 0.000000 1.618430 0.000000 
#    z -0.033320 0.000000 1.630730 
# 
# From -- ./inp_files/180659.got.cif
#   From: 2010.05.17/outbox.cif.g08.bks.cpg/sg12_91_cif.got.tgz:180659.got - 2010.06.03 13:09:07.
