data_PCOD9183951
_publ_section_title
;
Structure prediction by ZEFSAII (Michael W. Deem and Ramdas Pophale) SiO2 
 PCOD9183951
Probable space group: C 2/M
;
_chemical_formula_sum "Si O2"
_cell_formula_units_Z 64
_cell_length_a 20.984561
_cell_length_b 8.781469
_cell_length_c 25.120175
_cell_angle_alpha 90.000000
_cell_angle_beta 127.731383
_cell_angle_gamma 90.000000
_cell_volume 3661.044090
_symmetry_space_group_name_H-M "C 2/M"
_symmetry_group_IT_number 12
_symmetry_cell_setting 'monoclinic'
loop_
_space_group_symop_operation_xyz
x,y,z
-x,y,-z
-x,-y,-z
x,-y,z
1/2+x,1/2+y,z
1/2-x,1/2+y,-z
1/2-x,1/2-y,-z
1/2+x,1/2-y,z
loop_
_atom_site_type_symbol
_atom_site_label
_atom_site_fract_x
_atom_site_fract_y
_atom_site_fract_z
Si Si1 0.471121 0.181758 0.792829
Si Si2 0.119626 0.818736 0.927623
Si Si3 0.759652 0.316440 0.421448
Si Si4 0.205161 0.817476 0.279066
Si Si5 0.623242 0.816338 0.428147
Si Si6 0.785755 0.817624 0.215489
Si Si7 0.537603 0.183293 0.708951
Si Si8 0.271401 0.182754 0.929323
O O1 0.538127 0.236207 0.868919
O O2 0.386016 0.260958 0.759549
O O3 0.504608 0.220874 0.751075
O O4 0.460912 0.000000 0.789971
O O5 0.188702 0.781565 0.918990
O O6 0.107998 0.000000 0.921640
O O7 0.156803 0.763302 0.002328
O O8 0.753994 0.500000 0.420463
O O9 0.754225 0.270006 0.357323
O O10 0.683676 0.249200 0.414598
O O11 0.838856 0.271572 0.495592
O O12 0.243352 0.748845 0.245668
O O13 0.206452 0.000000 0.276486
O O14 0.532410 0.770008 0.368191
O O15 0.625889 0.000000 0.425708
O O16 0.877390 0.760549 0.258150
O O17 0.740434 0.770977 0.137759
O O18 0.784921 0.000000 0.216977
O O19 0.547591 0.000000 0.711425
O O20 0.282403 0.000000 0.937842
#
# Coordination Sequence:
#
# PCOD9183951 Si02
#       8
#     8   8   8   8   8   8   8   8
#     4  11  21  35  57  85 114 146 185 229 275 324
#     4  10  19  33  56  85 113 142 179 227 277 326
#     4   9  18  32  53  80 111 145 181 227 278 326
#     4  11  23  38  56  81 114 150 188 228 278 334
#     4   9  17  32  54  82 111 141 182 229 276 326
#     4  11  23  39  58  80 112 150 187 228 277 330
#     4  10  20  34  56  84 112 143 185 231 274 326
#     4   9  19  35  54  80 111 144 181 224 276 329
#
# _framework density 17.481351
#
# number of rings (size 3 to 8) (size 9 to 14) (size 15 to 20)
#    0.000    2.000    2.500    1.500    0.000    3.000 
#    0.000    1.250    0.000    7.500    0.000    0.000 
#    0.000    0.000    0.000    0.000    0.000    0.000 
#
# Total GULP energy -178600.999645 kJ/mol
# GULP energy per Si atom -5581.281239 kJ/mol
# Density = 1.744156 g / cm^3
# Si number density = 17.481351 Si / 1000 Ang^3
#
#
#
# Elastic Constant Matrix: (Units=GPa)
#
#
# Indices 1 2 3 4 5 6 
#
# 1 99.6653 37.4752 73.2257 0.0000 -11.6513 0.0000
# 2 37.4752 29.6517 42.3412 0.0000 -3.8944 0.0000
# 3 73.2257 42.3412 167.2858 0.0000 -10.6300 0.0000
# 4 0.0000 0.0000 0.0000 24.2392 0.0000 2.1076
# 5 -11.6513 -3.8944 -10.6300 0.0000 25.2267 0.0000
# 6 0.0000 0.0000 0.0000 2.1076 0.0000 30.2458
#
#
#
# Elastic Compliance Matrix: (Units=1/GPa)
#
#
# Indices 1 2 3 4 5 6 
#
# 1 0.021145 -0.020834 -0.003664 0.000000 0.005006 0.000000
# 2 -0.020834 0.073505 -0.009633 0.000000 -0.002334 0.000000
# 3 -0.003664 -0.009633 0.010088 0.000000 0.001071 0.000000
# 4 0.000000 0.000000 0.000000 0.041507 0.000000 -0.002892
# 5 0.005006 -0.002334 0.001071 0.000000 0.042044 0.000000
# 6 0.000000 0.000000 0.000000 -0.002892 0.000000 0.033264
#
#
# Mechanical properties :
#
#
# Convention : Reuss Voigt Hill
#
# Bulk Modulus (GPa) = 27.41620 66.96522 47.19071
# Shear Modulus (GPa) = 16.55773 25.51306 21.03539
#
# Velocity S-wave (km/s) = 3.08094 3.82441 3.47263
# Velocity P-wave (km/s) = 5.32667 7.60863 6.56753
#
# Compressibility (1/GPa) = 0.03647478
#
# Stress axis : x y z
#
# Youngs Moduli (GPa) = 47.29303 13.60452 99.12585
#
# Poissons Ratio (x) = 0.28343 0.36324
# Poissons Ratio (y) = 0.98529 0.95492
# Poissons Ratio (z) = 0.17330 0.13106
#
# Static dielectric constant tensor:
#      x y z
#    x 1.550420 0.000000 -0.006970 
#    y 0.000000 1.582330 0.000000 
#    z -0.006970 0.000000 1.616180 
# 
# From -- ./inp_files/346234.got.cif
#   From: 2010.05.17/outbox.cif.g08.bks.cpg/sg12_174_cif.got.tgz:346234.got - 2010.06.03 13:09:07.
