data_PCOD9183414
_publ_section_title
;
Structure prediction by ZEFSAII (Michael W. Deem and Ramdas Pophale) SiO2 
 PCOD9183414
Probable space group: C 2/M
;
_chemical_formula_sum "Si O2"
_cell_formula_units_Z 64
_cell_length_a 30.342584
_cell_length_b 7.464577
_cell_length_c 13.304796
_cell_angle_alpha 90.000000
_cell_angle_beta 70.223829
_cell_angle_gamma 90.000000
_cell_volume 2835.734469
_symmetry_space_group_name_H-M "C 2/M"
_symmetry_group_IT_number 12
_symmetry_cell_setting 'monoclinic'
loop_
_space_group_symop_operation_xyz
x,y,z
-x,y,-z
-x,-y,-z
x,-y,z
1/2+x,1/2+y,z
1/2-x,1/2+y,-z
1/2-x,1/2-y,-z
1/2+x,1/2-y,z
loop_
_atom_site_type_symbol
_atom_site_label
_atom_site_fract_x
_atom_site_fract_y
_atom_site_fract_z
Si Si1 0.599870 0.780693 0.669553
Si Si2 0.617617 0.795474 0.026455
Si Si3 0.934722 0.788763 0.732007
Si Si4 0.155748 0.716202 0.325113
Si Si5 0.549132 0.219562 0.912024
Si Si6 0.527856 0.203689 0.569148
Si Si7 0.200106 0.285468 0.083635
Si Si8 0.304079 0.214464 0.489691
O O1 0.568004 0.723533 0.788280
O O2 0.573010 0.720980 0.588977
O O3 0.654425 0.726477 0.619458
O O4 0.598651 0.000000 0.670604
O O5 0.587485 0.794007 0.151364
O O6 0.664662 0.707655 0.028696
O O7 0.627684 0.000000 0.987712
O O8 0.588641 0.716523 0.958876
O O9 0.897627 0.762742 0.668474
O O10 0.985174 0.700590 0.680300
O O11 0.940622 0.000000 0.741638
O O12 0.156346 0.500000 0.329188
O O13 0.187122 0.778433 0.205473
O O14 0.178349 0.779153 0.413070
O O15 0.547339 0.000000 0.911553
O O16 0.500000 0.276490 0.000000
O O17 0.500000 0.296804 0.500000
O O18 0.539880 0.000000 0.527939
O O19 0.192654 0.500000 0.094032
O O20 0.250000 0.250000 0.000000
O O21 0.250000 0.250000 0.500000
O O22 0.307095 0.000000 0.490901
#
# Coordination Sequence:
#
# PCOD9183414 Si02
#       8
#     8   8   8   8   8   8   8   8
#     4   9  18  32  53  82 108 137 185 231 263 314
#     4   9  18  33  51  71  99 137 174 208 256 322
#     4  11  21  32  51  80 109 135 168 217 271 317
#     4   9  19  37  56  74 103 145 185 219 263 326
#     4   9  16  28  51  80 106 134 173 222 266 307
#     4  10  19  33  55  78 103 140 179 214 259 318
#     4   9  18  31  49  73 100 131 171 219 270 322
#     4  10  21  38  59  81 107 141 184 229 271 318
#
# _framework density 22.569109000000001
#
# number of rings (size 3 to 8) (size 9 to 14) (size 15 to 20)
#    0.000    2.500    0.000    3.375    0.000    7.750 
#    0.000    1.875    0.000    4.125    0.000    0.000 
#    0.000    0.000    0.000    0.000    0.000    0.000 
#
# Total GULP energy -178415.193159 kJ/mol
# GULP energy per Si atom -5575.474786 kJ/mol
# Density = 2.251774 g / cm^3
# Si number density = 22.569109 Si / 1000 Ang^3
#
#
#
# Elastic Constant Matrix: (Units=GPa)
#
#
# Indices 1 2 3 4 5 6 
#
# 1 143.0008 -2.5689 80.8638 0.0000 -4.4972 0.0000
# 2 -2.5689 82.7232 1.0161 0.0000 2.0554 0.0000
# 3 80.8638 1.0161 108.0299 0.0000 0.4240 0.0000
# 4 0.0000 0.0000 0.0000 -24.3204 0.0000 0.9149
# 5 -4.4972 2.0554 0.4240 0.0000 44.7969 0.0000
# 6 0.0000 0.0000 0.0000 0.9149 0.0000 7.5025
#
#
#
# Elastic Compliance Matrix: (Units=1/GPa)
#
#
# Indices 1 2 3 4 5 6 
#
# 1 0.012219 0.000460 -0.009156 0.000000 0.001292 0.000000
# 2 0.000460 0.012121 -0.000456 0.000000 -0.000506 0.000000
# 3 -0.009156 -0.000456 0.016119 0.000000 -0.001051 0.000000
# 4 0.000000 0.000000 0.000000 -0.040930 0.000000 0.004991
# 5 0.001292 -0.000506 -0.001051 0.000000 0.022486 0.000000
# 6 0.000000 0.000000 0.000000 0.004991 0.000000 0.132680
#
#
# Mechanical properties :
#
#
# Convention : Reuss Voigt Hill
#
# Bulk Modulus (GPa) = 45.13810 54.70843 49.92326
# Shear Modulus (GPa) = 27.71856 22.55868 25.13862
#
# Velocity S-wave (km/s) = 3.50832 3.16498 3.34106
# Velocity P-wave (km/s) = 6.03775 6.13589 6.08702
#
# Compressibility (1/GPa) = 0.02215423
#
# Stress axis : x y z
#
# Youngs Moduli (GPa) = 81.83720 82.50175 62.03987
#
# Poissons Ratio (x) = -0.03794 0.56804
# Poissons Ratio (y) = -0.03763 0.02830
# Poissons Ratio (z) = 0.74930 0.03764
#
# Static dielectric constant tensor:
#      x y z
#    x 1.881740 0.000000 -0.035590 
#    y 0.000000 1.853160 0.000000 
#    z -0.035590 0.000000 1.917590 
# 
# From -- ./inp_files/243841.got.cif
#   From: 2010.05.17/outbox.cif.g08.bks.cpg/sg12_122_cif.got.tgz:243841.got - 2010.06.03 13:09:07.
