data_PCOD9183085
_publ_section_title
;
Structure prediction by ZEFSAII (Michael W. Deem and Ramdas Pophale) SiO2 
 PCOD9183085
Probable space group: C 2/M
;
_chemical_formula_sum "Si O2"
_cell_formula_units_Z 56
_cell_length_a 14.585415
_cell_length_b 7.572204
_cell_length_c 28.304983
_cell_angle_alpha 90.000000
_cell_angle_beta 133.612853
_cell_angle_gamma 90.000000
_cell_volume 2263.355870
_symmetry_space_group_name_H-M "C 2/M"
_symmetry_group_IT_number 12
_symmetry_cell_setting 'monoclinic'
loop_
_space_group_symop_operation_xyz
x,y,z
-x,y,-z
-x,-y,-z
x,-y,z
1/2+x,1/2+y,z
1/2-x,1/2+y,-z
1/2-x,1/2-y,-z
1/2+x,1/2-y,z
loop_
_atom_site_type_symbol
_atom_site_label
_atom_site_fract_x
_atom_site_fract_y
_atom_site_fract_z
Si Si1 0.383876 0.705479 0.104934
Si Si2 0.055538 0.788952 0.416028
Si Si3 0.800834 0.290510 0.445077
Si Si4 0.652850 0.795539 0.306490
Si Si5 0.611834 0.700422 0.790433
Si Si6 0.411766 0.284691 0.012644
Si Si7 0.197707 0.217232 0.725966
O O1 0.421736 0.500000 0.120826
O O2 0.403407 0.786645 0.163782
O O3 0.231749 0.719626 0.045220
O O4 0.445727 0.775779 0.078313
O O5 0.078861 0.748834 0.479471
O O6 0.179199 0.721186 0.431846
O O7 0.929160 0.722641 0.346221
O O8 0.054735 0.000000 0.411644
O O9 0.792831 0.500000 0.438179
O O10 0.774389 0.218724 0.383643
O O11 0.529956 0.695879 0.281427
O O12 0.688719 0.728315 0.267395
O O13 0.618714 0.000000 0.292534
O O14 0.657130 0.500000 0.814227
O O15 0.697197 0.780517 0.779607
O O16 0.409514 0.500000 0.012077
O O17 0.500000 0.229701 0.000000
O O18 0.196960 0.000000 0.726421
#
# Coordination Sequence:
#
# PCOD9183085 Si02
#       7
#     8   8   8   8   8   8   8
#     4   9  19  34  56  82 107 145 185 218 257 309
#     4   9  17  33  55  74  97 135 177 214 267 326
#     4  10  19  33  54  77 103 135 172 219 274 319
#     4  11  22  35  54  79 104 135 179 220 266 323
#     4  10  20  39  58  75 107 144 181 220 264 312
#     4   9  18  34  55  82 117 148 175 215 265 311
#     4   9  19  36  55  74 101 140 176 215 268 326
#
# _framework density 24.742021999999999
#
# number of rings (size 3 to 8) (size 9 to 14) (size 15 to 20)
#    0.000    2.429    1.429    0.857    0.000    3.143 
#    0.000    5.714    0.000    0.000    0.000    0.000 
#    0.000    0.000    0.000    0.000    0.000    0.000 
#
# Total GULP energy -156341.946851 kJ/mol
# GULP energy per Si atom -5583.640959 kJ/mol
# Density = 2.468571 g / cm^3
# Si number density = 24.742022 Si / 1000 Ang^3
#
#
#
# Elastic Constant Matrix: (Units=GPa)
#
#
# Indices 1 2 3 4 5 6 
#
# 1 106.2151 -1.9826 28.8113 0.0000 -45.9487 0.0000
# 2 -1.9826 73.9560 -3.2582 0.0000 -4.0891 0.0000
# 3 28.8113 -3.2582 99.5536 0.0000 -43.7474 0.0000
# 4 0.0000 0.0000 0.0000 11.3309 0.0000 7.7507
# 5 -45.9487 -4.0891 -43.7474 0.0000 50.1159 0.0000
# 6 0.0000 0.0000 0.0000 7.7507 0.0000 5.8890
#
#
#
# Elastic Compliance Matrix: (Units=1/GPa)
#
#
# Indices 1 2 3 4 5 6 
#
# 1 0.016303 0.001564 0.003176 0.000000 0.017848 0.000000
# 2 0.001564 0.013874 0.001832 0.000000 0.004165 0.000000
# 3 0.003176 0.001832 0.017084 0.000000 0.017974 0.000000
# 4 0.000000 0.000000 0.000000 0.885058 0.000000 -1.164851
# 5 0.017848 0.004165 0.017974 0.000000 0.052347 0.000000
# 6 0.000000 0.000000 0.000000 -1.164851 0.000000 1.702903
#
#
# Mechanical properties :
#
#
# Convention : Reuss Voigt Hill
#
# Bulk Modulus (GPa) = 16.55505 36.31841 26.43673
# Shear Modulus (GPa) = 1.85559 30.54411 16.19985
#
# Velocity S-wave (km/s) = 0.86695 3.51736 2.56159
# Velocity P-wave (km/s) = 2.77628 5.58628 4.41102
#
# Compressibility (1/GPa) = 0.06040452
#
# Stress axis : x y z
#
# Youngs Moduli (GPa) = 61.33655 72.07506 58.53321
#
# Poissons Ratio (x) = -0.11271 -0.18589
# Poissons Ratio (y) = -0.09592 -0.10721
# Poissons Ratio (z) = -0.19479 -0.13201
#
# Static dielectric constant tensor:
#      x y z
#    x 1.965630 0.000000 -0.049410 
#    y 0.000000 1.899870 0.000000 
#    z -0.049410 0.000000 2.026740 
# 
# From -- ./inp_files/360028.got.cif
#   From: 2010.05.17/outbox.cif.g08.bks.cpg/sg12_181_cif.got.tgz:360028.got - 2010.06.03 13:09:07.
