data_PCOD9183824
_publ_section_title
;
Structure prediction by ZEFSAII (Michael W. Deem and Ramdas Pophale) SiO2 
 PCOD9183824
Probable space group: C 2/M
;
_chemical_formula_sum "Si O2"
_cell_formula_units_Z 56
_cell_length_a 21.000291
_cell_length_b 7.823785
_cell_length_c 18.201882
_cell_angle_alpha 90.000000
_cell_angle_beta 62.745933
_cell_angle_gamma 90.000000
_cell_volume 2658.598596
_symmetry_space_group_name_H-M "C 2/M"
_symmetry_group_IT_number 12
_symmetry_cell_setting 'monoclinic'
loop_
_space_group_symop_operation_xyz
x,y,z
-x,y,-z
-x,-y,-z
x,-y,z
1/2+x,1/2+y,z
1/2-x,1/2+y,-z
1/2-x,1/2-y,-z
1/2+x,1/2-y,z
loop_
_atom_site_type_symbol
_atom_site_label
_atom_site_fract_x
_atom_site_fract_y
_atom_site_fract_z
Si Si1 0.821875 0.794444 0.657147
Si Si2 0.171496 0.205762 0.511641
Si Si3 0.566848 0.709762 0.696334
Si Si4 0.408801 0.300316 0.748063
Si Si5 0.160149 0.206512 0.785542
Si Si6 0.828963 0.301286 0.931827
Si Si7 0.081563 0.792731 0.973545
O O1 0.836249 0.728465 0.567382
O O2 0.874145 0.725221 0.692746
O O3 0.740334 0.759279 0.723577
O O4 0.829868 0.000000 0.650427
O O5 0.250000 0.250000 0.500000
O O6 0.112842 0.264890 0.601391
O O7 0.166178 0.000000 0.512006
O O8 0.567226 0.500000 0.698384
O O9 0.485481 0.771040 0.732149
O O10 0.606587 0.765652 0.749534
O O11 0.421943 0.500000 0.725582
O O12 0.353968 0.289801 0.844486
O O13 0.132172 0.264725 0.879653
O O14 0.158358 0.000000 0.787359
O O15 0.827956 0.500000 0.914958
O O16 0.750000 0.250000 0.000000
O O17 0.885465 0.266551 0.967083
O O18 0.081468 0.000000 0.975458
O O19 0.000000 0.738493 0.000000
#
# Coordination Sequence:
#
# PCOD9183824 Si02
#       7
#     8   8   8   8   8   8   8
#     4  10  21  34  54  84 113 143 183 234 283 330
#     4  10  19  34  56  84 114 147 187 229 278 334
#     4   9  18  34  58  83 111 149 189 228 276 336
#     4  10  21  39  59  82 114 149 189 238 291 343
#     4  10  19  33  56  82 107 145 189 227 273 337
#     4  12  25  41  61  85 116 155 199 243 293 350
#     4  10  21  38  61  87 116 151 194 240 292 351
#
# _framework density 21.06373
#
# number of rings (size 3 to 8) (size 9 to 14) (size 15 to 20)
#    0.000    1.857    1.429    3.000    0.000    6.571 
#    0.000    5.714    0.000    0.000    0.000    3.000 
#    0.000    0.000    0.000    0.000    0.000    0.000 
#
# Total GULP energy -156475.980335 kJ/mol
# GULP energy per Si atom -5588.427869 kJ/mol
# Density = 2.101579 g / cm^3
# Si number density = 21.063730 Si / 1000 Ang^3
#
#
#
# Elastic Constant Matrix: (Units=GPa)
#
#
# Indices 1 2 3 4 5 6 
#
# 1 92.8021 -3.4120 -0.3327 0.0000 16.0346 0.0002
# 2 -3.4120 25.3064 -11.5040 0.0000 2.6536 0.0007
# 3 -0.3327 -11.5040 79.0217 0.0001 18.2585 -0.0001
# 4 0.0000 0.0000 0.0001 9.3197 0.0000 -10.4023
# 5 16.0346 2.6536 18.2585 0.0000 41.3547 0.0001
# 6 0.0002 0.0007 -0.0001 -10.4023 0.0001 17.2017
#
#
#
# Elastic Compliance Matrix: (Units=1/GPa)
#
#
# Indices 1 2 3 4 5 6 
#
# 1 0.011854 0.002988 0.001772 -0.000001 -0.005570 -0.000001
# 2 0.002988 0.044475 0.008257 -0.000005 -0.007658 -0.000005
# 3 0.001772 0.008257 0.015752 -0.000001 -0.008172 -0.000001
# 4 -0.000001 -0.000005 -0.000001 0.330119 0.000001 0.199630
# 5 -0.005570 -0.007658 -0.008172 0.000001 0.030440 0.000001
# 6 -0.000001 -0.000005 -0.000001 0.199630 0.000001 0.178854
#
#
# Mechanical properties :
#
#
# Convention : Reuss Voigt Hill
#
# Bulk Modulus (GPa) = 10.19220 18.51476 14.35348
# Shear Modulus (GPa) = 8.08843 27.73381 17.91112
#
# Velocity S-wave (km/s) = 1.96171 3.63252 2.91921
# Velocity P-wave (km/s) = 3.15917 5.13834 4.26514
#
# Compressibility (1/GPa) = 0.09811422
#
# Stress axis : x y z
#
# Youngs Moduli (GPa) = 84.35767 22.48466 63.48266
#
# Poissons Ratio (x) = -0.06718 -0.11249
# Poissons Ratio (y) = -0.25205 -0.52415
# Poissons Ratio (z) = -0.14948 -0.18565
#
# Static dielectric constant tensor:
#      x y z
#    x 1.729320 0.000000 0.025020 
#    y 0.000000 1.783120 0.000000 
#    z 0.025020 0.000000 1.720740 
# 
# From -- ./inp_files/275257.got.cif
#   From: 2010.05.17/outbox.cif.g08.bks.cpg/sg12_138_cif.got.tgz:275257.got - 2010.06.03 13:09:07.
