data_PCOD9183150
_publ_section_title
;
Structure prediction by ZEFSAII (Michael W. Deem and Ramdas Pophale) SiO2 
 PCOD9183150
Probable space group: C 2/M
;
_chemical_formula_sum "Si O2"
_cell_formula_units_Z 40
_cell_length_a 9.678877
_cell_length_b 14.805641
_cell_length_c 14.600625
_cell_angle_alpha 90.000000
_cell_angle_beta 64.253517
_cell_angle_gamma 90.000000
_cell_volume 1884.585318
_symmetry_space_group_name_H-M "C 2/M"
_symmetry_group_IT_number 12
_symmetry_cell_setting 'monoclinic'
loop_
_space_group_symop_operation_xyz
x,y,z
-x,y,-z
-x,-y,-z
x,-y,z
1/2+x,1/2+y,z
1/2-x,1/2+y,-z
1/2-x,1/2-y,-z
1/2+x,1/2-y,z
loop_
_atom_site_type_symbol
_atom_site_label
_atom_site_fract_x
_atom_site_fract_y
_atom_site_fract_z
Si Si1 0.182827 0.500000 0.465617
Si Si2 0.438456 0.152801 0.833278
Si Si3 0.783109 0.195001 0.766523
Si Si4 0.160798 0.500000 0.008091
Si Si5 0.818085 0.698400 0.567761
Si Si6 0.824909 0.000000 0.776003
Si Si7 0.925626 0.500000 0.306993
O O1 0.242885 0.595081 0.411097
O O2 0.186654 0.500000 0.575080
O O3 0.000000 0.500000 0.500000
O O4 0.601819 0.175918 0.833134
O O5 0.352055 0.240702 0.823795
O O6 0.341557 0.088239 0.927416
O O7 0.476385 0.091036 0.731693
O O8 0.788409 0.244829 0.667461
O O9 0.879529 0.101043 0.736557
O O10 0.289651 0.500000 0.893808
O O11 0.000000 0.500000 0.000000
O O12 0.750000 0.750000 0.500000
O O13 0.000000 0.693141 0.500000
O O14 0.670282 0.000000 0.758841
#
# Coordination Sequence:
#
# PCOD9183150 Si02
#       7
#     4   8   8   4   8   4   4
#     4  10  19  33  54  78 111 148 193 240 271 332
#     4  10  21  35  63  85 116 144 193 240 286 345
#     4  11  21  38  57  87 114 155 190 240 291 335
#     4  11  18  42  63  89 105 156 202 224 275 370
#     4  11  22  37  58  84 117 156 201 239 283 340
#     4  10  21  38  60  79 116 151 194 230 280 364
#     4   9  16  34  56  77 103 154 193 224 272 340
#
# _framework density 21.224829
#
# number of rings (size 3 to 8) (size 9 to 14) (size 15 to 20)
#    0.000    1.600    4.000    6.000    0.000    1.600 
#    0.000    7.000    0.000    1.200    0.000    0.000 
#    0.000    0.000    0.000    0.000    0.000    0.000 
#
# Total GULP energy -111593.341025 kJ/mol
# GULP energy per Si atom -5579.667051 kJ/mol
# Density = 2.117652 g / cm^3
# Si number density = 21.224829 Si / 1000 Ang^3
#
#
#
# Elastic Constant Matrix: (Units=GPa)
#
#
# Indices 1 2 3 4 5 6 
#
# 1 64.8093 33.7530 -0.8433 0.0000 7.5588 0.0000
# 2 33.7530 204.0276 41.1147 0.0000 18.2770 0.0000
# 3 -0.8433 41.1147 85.1545 0.0000 8.9797 0.0000
# 4 0.0000 0.0000 0.0000 24.7408 0.0000 7.0181
# 5 7.5588 18.2770 8.9797 0.0000 21.7046 0.0000
# 6 0.0000 0.0000 0.0000 7.0181 0.0000 28.0111
#
#
#
# Elastic Compliance Matrix: (Units=1/GPa)
#
#
# Indices 1 2 3 4 5 6 
#
# 1 0.017493 -0.002904 0.002049 0.000000 -0.004494 0.000000
# 2 -0.002904 0.006203 -0.002697 0.000000 -0.003096 0.000000
# 3 0.002049 -0.002697 0.013490 0.000000 -0.004024 0.000000
# 4 0.000000 0.000000 0.000000 0.043512 0.000000 -0.010902
# 5 -0.004494 -0.003096 -0.004024 0.000000 0.051910 0.000000
# 6 0.000000 0.000000 0.000000 -0.010902 0.000000 0.038431
#
#
# Mechanical properties :
#
#
# Convention : Reuss Voigt Hill
#
# Bulk Modulus (GPa) = 33.24226 55.78226 44.51226
# Shear Modulus (GPa) = 26.57163 33.55576 30.06370
#
# Velocity S-wave (km/s) = 3.54208 3.98045 3.76765
# Velocity P-wave (km/s) = 5.69424 6.88941 6.32014
#
# Compressibility (1/GPa) = 0.03008219
#
# Stress axis : x y z
#
# Youngs Moduli (GPa) = 57.16460 161.22264 74.12796
#
# Poissons Ratio (x) = 0.46825 -0.15192
# Poissons Ratio (y) = 0.16603 0.19993
# Poissons Ratio (z) = -0.11716 0.43483
#
# Static dielectric constant tensor:
#      x y z
#    x 1.769410 0.000000 -0.020180 
#    y 0.000000 1.863250 0.000000 
#    z -0.020180 0.000000 1.797470 
# 
# From -- ./inp_files/203860.got.cif
#   From: 2010.05.17/outbox.cif.g08.bks.cpg/sg12_102_cif.got.tgz:203860.got - 2010.06.03 13:09:07.
