data_PCOD9183716
_publ_section_title
;
Structure prediction by ZEFSAII (Michael W. Deem and Ramdas Pophale) SiO2 
 PCOD9183716
Probable space group: C 2/M
;
_chemical_formula_sum "Si O2"
_cell_formula_units_Z 40
_cell_length_a 15.047510
_cell_length_b 8.706961
_cell_length_c 14.229765
_cell_angle_alpha 90.000000
_cell_angle_beta 101.261888
_cell_angle_gamma 90.000000
_cell_volume 1828.457935
_symmetry_space_group_name_H-M "C 2/M"
_symmetry_group_IT_number 12
_symmetry_cell_setting 'monoclinic'
loop_
_space_group_symop_operation_xyz
x,y,z
-x,y,-z
-x,-y,-z
x,-y,z
1/2+x,1/2+y,z
1/2-x,1/2+y,-z
1/2-x,1/2-y,-z
1/2+x,1/2-y,z
loop_
_atom_site_type_symbol
_atom_site_label
_atom_site_fract_x
_atom_site_fract_y
_atom_site_fract_z
Si Si1 0.618464 0.687027 0.265680
Si Si2 0.353627 0.822966 0.129201
Si Si3 0.056546 0.181407 0.671280
Si Si4 0.208703 0.316900 0.586300
Si Si5 0.634877 0.679780 0.064354
O O1 0.615763 0.500000 0.261601
O O2 0.545098 0.737148 0.327320
O O3 0.718779 0.730187 0.318398
O O4 0.596529 0.739127 0.155581
O O5 0.391143 0.719013 0.220664
O O6 0.244198 0.813016 0.100216
O O7 0.376671 0.000000 0.154414
O O8 0.388697 0.770408 0.034462
O O9 0.111103 0.257748 0.598021
O O10 0.054424 0.000000 0.654485
O O11 0.207479 0.500000 0.580698
O O12 0.250000 0.250000 0.500000
O O13 0.611228 0.500000 0.046752
#
# Coordination Sequence:
#
# PCOD9183716 Si02
#       5
#     8   8   8   8   8
#     4   9  20  39  62  85 117 158 198 235 285 354
#     4  10  19  33  55  85 121 158 195 243 291 337
#     4  11  22  38  62  90 116 154 200 240 286 348
#     4  11  23  44  66  88 117 151 191 242 298 351
#     4   9  17  34  57  81 113 160 204 236 279 345
#
# _framework density 21.876359000000001
#
# number of rings (size 3 to 8) (size 9 to 14) (size 15 to 20)
#    0.000    2.000    2.000    1.800    0.000    2.400 
#    0.000   14.000    0.000    0.000    0.000    0.000 
#    0.000    0.000    0.000    0.000    0.000    0.000 
#
# Total GULP energy -111779.128688 kJ/mol
# GULP energy per Si atom -5588.956434 kJ/mol
# Density = 2.182657 g / cm^3
# Si number density = 21.876359 Si / 1000 Ang^3
#
#
#
# Elastic Constant Matrix: (Units=GPa)
#
#
# Indices 1 2 3 4 5 6 
#
# 1 82.5648 17.9386 13.5006 0.0000 -32.4421 0.0000
# 2 17.9386 39.4886 7.4136 0.0000 -15.8165 0.0000
# 3 13.5006 7.4136 80.2446 0.0000 -42.2334 0.0000
# 4 0.0000 0.0000 0.0000 32.5624 0.0000 -7.0901
# 5 -32.4421 -15.8165 -42.2334 0.0000 43.2174 0.0000
# 6 0.0000 0.0000 0.0000 -7.0901 0.0000 16.8581
#
#
#
# Elastic Compliance Matrix: (Units=1/GPa)
#
#
# Indices 1 2 3 4 5 6 
#
# 1 0.020185 -0.001455 0.009127 0.000000 0.023539 0.000000
# 2 -0.001455 0.031315 0.005783 0.000000 0.016020 0.000000
# 3 0.009127 0.005783 0.031116 0.000000 0.039375 0.000000
# 4 0.000000 0.000000 0.000000 0.033806 0.000000 0.014218
# 5 0.023539 0.016020 0.039375 0.000000 0.085151 0.000000
# 6 0.000000 0.000000 0.000000 0.014218 0.000000 0.065298
#
#
# Mechanical properties :
#
#
# Convention : Reuss Voigt Hill
#
# Bulk Modulus (GPa) = 9.13012 31.11148 20.12080
# Shear Modulus (GPa) = 18.08525 29.42392 23.75459
#
# Velocity S-wave (km/s) = 2.87836 3.67142 3.29881
# Velocity P-wave (km/s) = 3.90246 5.67669 4.87104
#
# Compressibility (1/GPa) = 0.10952754
#
# Stress axis : x y z
#
# Youngs Moduli (GPa) = 49.54294 31.93307 32.13827
#
# Poissons Ratio (x) = 0.04645 -0.29334
# Poissons Ratio (y) = 0.07206 -0.18586
# Poissons Ratio (z) = -0.45220 -0.18468
#
# Static dielectric constant tensor:
#      x y z
#    x 1.836780 0.000000 -0.008330 
#    y 0.000000 1.738820 0.000000 
#    z -0.008330 0.000000 1.802040 
# 
# From -- ./inp_files/211338.got.cif
#   From: 2010.05.17/outbox.cif.g08.bks.cpg/sg12_106_cif.got.tgz:211338.got - 2010.06.03 13:09:07.
