data_PCOD9183649
_publ_section_title
;
Structure prediction by ZEFSAII (Michael W. Deem and Ramdas Pophale) SiO2 
 PCOD9183649
Probable space group: C 2/M
;
_chemical_formula_sum "Si O2"
_cell_formula_units_Z 52
_cell_length_a 21.360877
_cell_length_b 22.880578
_cell_length_c 11.132024
_cell_angle_alpha 90.000000
_cell_angle_beta 150.763820
_cell_angle_gamma 90.000000
_cell_volume 2657.329709
_symmetry_space_group_name_H-M "C 2/M"
_symmetry_group_IT_number 12
_symmetry_cell_setting 'monoclinic'
loop_
_space_group_symop_operation_xyz
x,y,z
-x,y,-z
-x,-y,-z
x,-y,z
1/2+x,1/2+y,z
1/2-x,1/2+y,-z
1/2-x,1/2-y,-z
1/2+x,1/2-y,z
loop_
_atom_site_type_symbol
_atom_site_label
_atom_site_fract_x
_atom_site_fract_y
_atom_site_fract_z
Si Si1 0.208155 0.185115 0.481293
Si Si2 0.000000 0.296093 0.500000
Si Si3 0.810875 0.500000 0.121978
Si Si4 0.835423 0.621458 0.495698
Si Si5 0.470685 0.709993 0.247694
Si Si6 0.934625 0.301433 0.012510
Si Si7 0.561469 0.000000 0.396985
Si Si8 0.755089 0.629046 0.083289
O O1 0.250000 0.250000 0.500000
O O2 0.222355 0.140812 0.395161
O O3 0.314260 0.165244 0.756933
O O4 0.075906 0.186350 0.331156
O O5 0.038363 0.252118 0.457638
O O6 0.883625 0.336450 0.256644
O O7 0.877533 0.500000 0.366140
O O8 0.744735 0.563770 0.012604
O O9 0.912288 0.500000 0.182657
O O10 0.890374 0.556421 0.592637
O O11 0.785052 0.627477 0.276160
O O12 0.955696 0.662078 0.736268
O O13 0.386105 0.751868 0.020381
O O14 0.375503 0.664891 0.151122
O O15 0.000000 0.276712 0.000000
#
# Coordination Sequence:
#
# PCOD9183649 Si02
#       8
#     8   4   4   8   8   8   4   8
#     4  11  20  35  54  83 119 157 187 224 291 357
#     4  12  22  39  54  95 118 146 198 244 298 340
#     4   9  20  36  59  81 112 157 202 239 286 336
#     4  10  19  35  58  89 112 142 197 241 293 336
#     4  12  23  35  57  87 124 155 184 237 298 357
#     4  10  19  33  55  83 115 151 188 229 286 352
#     4   9  18  36  60  84 109 145 197 256 280 323
#     4  11  22  37  60  86 117 154 198 245 288 342
#
# _framework density 19.568515999999999
#
# number of rings (size 3 to 8) (size 9 to 14) (size 15 to 20)
#    0.000    1.385    4.615    4.154    0.000    0.000 
#    0.000    4.231    0.000    3.231    0.000    0.000 
#    0.000    0.000    0.000    0.000    0.000    0.000 
#
# Total GULP energy -144874.601035 kJ/mol
# GULP energy per Si atom -5572.100040 kJ/mol
# Density = 1.952398 g / cm^3
# Si number density = 19.568516 Si / 1000 Ang^3
#
#
#
# Elastic Constant Matrix: (Units=GPa)
#
#
# Indices 1 2 3 4 5 6 
#
# 1 86.3707 48.3031 1.0809 0.0000 17.8184 0.0000
# 2 48.3031 119.3305 8.1925 0.0000 18.2804 0.0000
# 3 1.0809 8.1925 38.3812 0.0000 12.5033 0.0000
# 4 0.0000 0.0000 0.0000 18.3290 0.0000 5.3622
# 5 17.8184 18.2804 12.5033 0.0000 32.1180 0.0000
# 6 0.0000 0.0000 0.0000 5.3622 0.0000 24.4498
#
#
#
# Elastic Compliance Matrix: (Units=1/GPa)
#
#
# Indices 1 2 3 4 5 6 
#
# 1 0.016140 -0.005684 0.003003 0.000000 -0.006888 0.000000
# 2 -0.005684 0.011185 -0.001352 0.000000 -0.002686 0.000000
# 3 0.003003 -0.001352 0.030407 0.000000 -0.012733 0.000000
# 4 0.000000 0.000000 0.000000 0.058299 0.000000 -0.012786
# 5 -0.006888 -0.002686 -0.012733 0.000000 0.041442 0.000000
# 6 0.000000 0.000000 0.000000 -0.012786 0.000000 0.043704
#
#
# Mechanical properties :
#
#
# Convention : Reuss Voigt Hill
#
# Bulk Modulus (GPa) = 20.13522 39.91505 30.02514
# Shear Modulus (GPa) = 22.14342 27.41309 24.77826
#
# Velocity S-wave (km/s) = 3.36755 3.74689 3.56227
# Velocity P-wave (km/s) = 5.04306 6.25786 5.68301
#
# Compressibility (1/GPa) = 0.04966421
#
# Stress axis : x y z
#
# Youngs Moduli (GPa) = 61.95633 89.40244 32.88768
#
# Poissons Ratio (x) = 0.50819 -0.09875
# Poissons Ratio (y) = 0.35218 0.04448
# Poissons Ratio (z) = -0.18603 0.12090
#
# Static dielectric constant tensor:
#      x y z
#    x 1.745350 0.000000 0.013980 
#    y 0.000000 1.710730 0.000000 
#    z 0.013980 0.000000 1.738030 
# 
# From -- ./inp_files/169904.got.cif
#   From: 2010.05.17/outbox.cif.g08.bks.cpg/sg12_85_cif.got.tgz:169904.got - 2010.06.03 13:09:07.
