data_PCOD9183570
_publ_section_title
;
Structure prediction by ZEFSAII (Michael W. Deem and Ramdas Pophale) SiO2 
 PCOD9183570
Probable space group: C 2/M
;
_chemical_formula_sum "Si O2"
_cell_formula_units_Z 64
_cell_length_a 20.280912
_cell_length_b 8.941643
_cell_length_c 26.844739
_cell_angle_alpha 90.000000
_cell_angle_beta 139.679564
_cell_angle_gamma 90.000000
_cell_volume 3149.994024
_symmetry_space_group_name_H-M "C 2/M"
_symmetry_group_IT_number 12
_symmetry_cell_setting 'monoclinic'
loop_
_space_group_symop_operation_xyz
x,y,z
-x,y,-z
-x,-y,-z
x,-y,z
1/2+x,1/2+y,z
1/2-x,1/2+y,-z
1/2-x,1/2-y,-z
1/2+x,1/2-y,z
loop_
_atom_site_type_symbol
_atom_site_label
_atom_site_fract_x
_atom_site_fract_y
_atom_site_fract_z
Si Si1 0.802025 0.180097 0.604713
Si Si2 0.041129 0.174846 0.947381
Si Si3 0.663573 0.824200 0.161923
Si Si4 0.154096 0.821558 0.915793
Si Si5 0.924316 0.173274 0.409437
Si Si6 0.239039 0.675848 0.872576
Si Si7 0.287349 0.323453 0.705988
Si Si8 0.398491 0.320207 0.558807
O O1 0.831298 0.224104 0.677549
O O2 0.693669 0.248740 0.525805
O O3 0.880056 0.221555 0.605677
O O4 0.791810 0.000000 0.598971
O O5 0.060763 0.206565 0.899841
O O6 0.951046 0.273261 0.917150
O O7 0.012924 0.000000 0.936482
O O8 0.149585 0.195431 0.036934
O O9 0.744980 0.747303 0.172171
O O10 0.676393 0.766154 0.225314
O O11 0.674781 0.000000 0.164717
O O12 0.158270 0.753364 0.863069
O O13 0.167104 0.000000 0.920528
O O14 0.250000 0.750000 0.000000
O O15 0.832387 0.284729 0.365910
O O16 0.000000 0.173626 0.500000
O O17 0.992654 0.218536 0.401501
O O18 0.888160 0.000000 0.382399
O O19 0.218903 0.500000 0.857828
O O20 0.305361 0.500000 0.723498
O O21 0.389039 0.500000 0.548792
#
# Coordination Sequence:
#
# PCOD9183570 Si02
#       8
#     8   8   8   8   8   8   8   8
#     4   9  18  32  52  78 104 135 173 214 260 315
#     4   9  19  36  58  84 114 148 185 227 278 331
#     4  12  25  38  55  79 109 148 192 235 285 340
#     4   9  17  31  54  84 115 146 182 227 277 327
#     4  10  19  33  55  82 109 139 174 216 268 325
#     4  10  20  36  59  85 115 148 185 233 283 335
#     4  11  23  38  55  75 107 145 183 227 278 333
#     4   9  17  31  53  80 108 135 168 213 264 315
#
# _framework density 20.317498000000001
#
# number of rings (size 3 to 8) (size 9 to 14) (size 15 to 20)
#    0.000    2.125    1.250    3.375    0.000    5.750 
#    0.000    1.250    0.000    6.000    0.000    0.000 
#    0.000    0.000    0.000    0.000    0.000    0.000 
#
# Total GULP energy -178638.772638 kJ/mol
# GULP energy per Si atom -5582.461645 kJ/mol
# Density = 2.027125 g / cm^3
# Si number density = 20.317498 Si / 1000 Ang^3
#
#
#
# Elastic Constant Matrix: (Units=GPa)
#
#
# Indices 1 2 3 4 5 6 
#
# 1 101.2877 33.4116 17.5597 0.0000 -40.1005 0.0000
# 2 33.4116 43.7215 11.5985 0.0000 -16.4409 0.0000
# 3 17.5597 11.5985 44.5723 0.0000 -26.5261 0.0000
# 4 0.0000 0.0000 0.0000 22.2825 0.0000 -2.8437
# 5 -40.1005 -16.4409 -26.5261 0.0000 33.9951 0.0000
# 6 0.0000 0.0000 0.0000 -2.8437 0.0000 29.2165
#
#
#
# Elastic Compliance Matrix: (Units=1/GPa)
#
#
# Indices 1 2 3 4 5 6 
#
# 1 0.024315 -0.009064 0.013517 0.000000 0.034845 0.000000
# 2 -0.009064 0.031385 -0.003596 0.000000 0.001681 0.000000
# 3 0.013517 -0.003596 0.049475 0.000000 0.052811 0.000000
# 4 0.000000 0.000000 0.000000 0.045443 0.000000 0.004423
# 5 0.034845 0.001681 0.052811 0.000000 0.112540 0.000000
# 6 0.000000 0.000000 0.000000 0.004423 0.000000 0.034658
#
#
# Mechanical properties :
#
#
# Convention : Reuss Voigt Hill
#
# Bulk Modulus (GPa) = 9.35547 34.96900 22.16224
# Shear Modulus (GPa) = 15.07250 25.56627 20.31938
#
# Velocity S-wave (km/s) = 2.72664 3.55115 3.16586
# Velocity P-wave (km/s) = 3.81148 5.83634 4.92901
#
# Compressibility (1/GPa) = 0.10688931
#
# Stress axis : x y z
#
# Youngs Moduli (GPa) = 41.12696 31.86279 20.21227
#
# Poissons Ratio (x) = 0.28880 -0.27321
# Poissons Ratio (y) = 0.37277 0.07267
# Poissons Ratio (z) = -0.55591 0.11456
#
# Static dielectric constant tensor:
#      x y z
#    x 1.755250 0.000000 -0.033870 
#    y 0.000000 1.679520 0.000000 
#    z -0.033870 0.000000 1.758520 
# 
# From -- ./inp_files/346102.got.cif
#   From: 2010.05.17/outbox.cif.g08.bks.cpg/sg12_174_cif.got.tgz:346102.got - 2010.06.03 13:09:07.
