data_PCOD9183835
_publ_section_title
;
Structure prediction by ZEFSAII (Michael W. Deem and Ramdas Pophale) SiO2 
 PCOD9183835
Probable space group: C 2/M
;
_chemical_formula_sum "Si O2"
_cell_formula_units_Z 44
_cell_length_a 5.325750
_cell_length_b 26.320720
_cell_length_c 14.939690
_cell_angle_alpha 90.000000
_cell_angle_beta 66.239568
_cell_angle_gamma 90.000000
_cell_volume 1916.700404
_symmetry_space_group_name_H-M "C 2/M"
_symmetry_group_IT_number 12
_symmetry_cell_setting 'monoclinic'
loop_
_space_group_symop_operation_xyz
x,y,z
-x,y,-z
-x,-y,-z
x,-y,z
1/2+x,1/2+y,z
1/2-x,1/2+y,-z
1/2-x,1/2-y,-z
1/2+x,1/2-y,z
loop_
_atom_site_type_symbol
_atom_site_label
_atom_site_fract_x
_atom_site_fract_y
_atom_site_fract_z
Si Si1 0.000138 0.442561 0.127420
Si Si2 0.500000 0.785286 0.500000
Si Si3 0.732127 0.558715 0.365273
Si Si4 0.383286 0.729179 0.889887
Si Si5 0.504326 0.613548 0.869762
Si Si6 0.271239 0.118596 0.633634
O O1 0.086004 0.500000 0.095707
O O2 0.867452 0.442105 0.246352
O O3 0.753906 0.423916 0.100184
O O4 0.259077 0.405570 0.098303
O O5 0.250000 0.750000 0.500000
O O6 0.632936 0.825391 0.409914
O O7 0.672602 0.500000 0.395040
O O8 0.462155 0.593468 0.395264
O O9 0.960704 0.583166 0.396279
O O10 0.680851 0.754581 0.839990
O O11 0.402953 0.669814 0.901717
O O12 0.250000 0.750000 0.000000
O O13 0.639760 0.617971 0.751518
#
# Coordination Sequence:
#
# PCOD9183835 Si02
#       6
#     8   4   8   8   8   8
#     4   9  17  30  52  84 115 142 174 214 263 320
#     4  12  26  42  55  70 103 150 190 234 274 308
#     4   9  17  33  56  81 111 139 170 222 276 324
#     4  10  21  36  54  80 107 137 174 220 275 319
#     4  10  19  33  56  82 109 140 178 224 266 318
#     4  10  21  36  54  79 107 141 185 221 265 327
#
# _framework density 22.956119000000001
#
# number of rings (size 3 to 8) (size 9 to 14) (size 15 to 20)
#    0.000    2.182    0.000    3.273    0.000    5.818 
#    0.000    2.727    0.000    0.000    0.000   50.909 
#    0.000    0.000    0.000    0.000    0.000    0.000 
#
# Total GULP energy -123082.861769 kJ/mol
# GULP energy per Si atom -5594.675535 kJ/mol
# Density = 2.290387 g / cm^3
# Si number density = 22.956119 Si / 1000 Ang^3
#
#
#
# Elastic Constant Matrix: (Units=GPa)
#
#
# Indices 1 2 3 4 5 6 
#
# 1 198.5860 72.4245 12.3785 0.0000 5.7811 0.0000
# 2 72.4245 162.2097 3.5342 0.0000 -2.4557 0.0000
# 3 12.3785 3.5342 63.6034 0.0000 -6.9913 0.0000
# 4 0.0000 0.0000 0.0000 27.5108 0.0000 -7.3480
# 5 5.7811 -2.4557 -6.9913 0.0000 22.6613 0.0000
# 6 0.0000 0.0000 0.0000 -7.3480 0.0000 53.1046
#
#
#
# Elastic Compliance Matrix: (Units=1/GPa)
#
#
# Indices 1 2 3 4 5 6 
#
# 1 0.006194 -0.002772 -0.001302 0.000000 -0.002282 0.000000
# 2 -0.002772 0.007420 0.000304 0.000000 0.001605 0.000000
# 3 -0.001302 0.000304 0.016561 0.000000 0.005474 0.000000
# 4 0.000000 0.000000 0.000000 0.037744 0.000000 0.005223
# 5 -0.002282 0.001605 0.005474 0.000000 0.046573 0.000000
# 6 0.000000 0.000000 0.000000 0.005223 0.000000 0.019553
#
#
# Mechanical properties :
#
#
# Convention : Reuss Voigt Hill
#
# Bulk Modulus (GPa) = 44.18171 66.78595 55.48383
# Shear Modulus (GPa) = 33.52744 43.05946 38.29345
#
# Velocity S-wave (km/s) = 3.82580 4.33567 4.08869
# Velocity P-wave (km/s) = 6.22925 7.36343 6.81996
#
# Compressibility (1/GPa) = 0.02263380
#
# Stress axis : x y z
#
# Youngs Moduli (GPa) = 161.44437 134.76912 60.38372
#
# Poissons Ratio (x) = 0.37355 0.07864
# Poissons Ratio (y) = 0.44748 -0.01833
# Poissons Ratio (z) = 0.21026 -0.04091
#
# Static dielectric constant tensor:
#      x y z
#    x 1.836550 0.000000 0.003300 
#    y 0.000000 1.774910 0.000000 
#    z 0.003300 0.000000 1.939720 
# 
# From -- ./inp_files/252888.got.cif
#   From: 2010.05.17/outbox.cif.g08.bks.cpg/sg12_127_cif.got.tgz:252888.got - 2010.06.03 13:09:07.
