data_PCOD9183780
_publ_section_title
;
Structure prediction by ZEFSAII (Michael W. Deem and Ramdas Pophale) SiO2 
 PCOD9183780
Probable space group: C 2/M
;
_chemical_formula_sum "Si O2"
_cell_formula_units_Z 40
_cell_length_a 23.607112
_cell_length_b 18.320857
_cell_length_c 15.185618
_cell_angle_alpha 90.000000
_cell_angle_beta 163.001414
_cell_angle_gamma 90.000000
_cell_volume 1920.089169
_symmetry_space_group_name_H-M "C 2/M"
_symmetry_group_IT_number 12
_symmetry_cell_setting 'monoclinic'
loop_
_space_group_symop_operation_xyz
x,y,z
-x,y,-z
-x,-y,-z
x,-y,z
1/2+x,1/2+y,z
1/2-x,1/2+y,-z
1/2-x,1/2-y,-z
1/2+x,1/2-y,z
loop_
_atom_site_type_symbol
_atom_site_label
_atom_site_fract_x
_atom_site_fract_y
_atom_site_fract_z
Si Si1 0.658640 0.416761 0.845709
Si Si2 0.639649 0.317522 0.292060
Si Si3 0.357219 0.419775 0.974289
Si Si4 0.470240 0.264630 0.356087
Si Si5 0.072278 0.629054 0.407076
O O1 0.597681 0.500000 0.737829
O O2 0.711899 0.411521 0.028447
O O3 0.850201 0.396339 0.074732
O O4 0.502367 0.351845 0.603294
O O5 0.750000 0.250000 0.500000
O O6 0.803239 0.372051 0.496181
O O7 0.500000 0.300327 0.000000
O O8 0.506057 0.357772 0.165196
O O9 0.449153 0.500000 0.103650
O O10 0.180276 0.415566 0.643460
O O11 0.500000 0.238711 0.500000
O O12 0.584731 0.213390 0.459568
O O13 0.250000 0.250000 0.000000
#
# Coordination Sequence:
#
# PCOD9183780 Si02
#       5
#     8   8   8   8   8
#     4  10  20  33  52  79 111 144 178 220 274 328
#     4  10  22  37  56  81 111 145 182 225 271 323
#     4  10  20  35  55  81 112 143 179 226 275 320
#     4  10  20  34  54  80 109 140 179 223 268 318
#     4  10  19  33  56  80 107 141 184 228 267 317
#
# _framework density 20.832367000000001
#
# number of rings (size 3 to 8) (size 9 to 14) (size 15 to 20)
#    0.000    2.000    0.000    4.800    0.000   11.200 
#    0.000    0.000    0.000    0.600    0.000    0.000 
#    0.000    0.000    0.000    0.000    0.000    0.000 
#
# Total GULP energy -111583.783630 kJ/mol
# GULP energy per Si atom -5579.189182 kJ/mol
# Density = 2.078495 g / cm^3
# Si number density = 20.832367 Si / 1000 Ang^3
#
#
#
# Elastic Constant Matrix: (Units=GPa)
#
#
# Indices 1 2 3 4 5 6 
#
# 1 61.8436 -3.1446 25.7346 0.0000 4.0122 0.0000
# 2 -3.1446 121.1846 20.1820 0.0000 5.1613 0.0000
# 3 25.7346 20.1820 55.5405 0.0000 -0.1232 0.0000
# 4 0.0000 0.0000 0.0000 23.7710 0.0000 3.8365
# 5 4.0122 5.1613 -0.1232 0.0000 32.1556 0.0000
# 6 0.0000 0.0000 0.0000 3.8365 0.0000 24.4916
#
#
#
# Elastic Compliance Matrix: (Units=1/GPa)
#
#
# Indices 1 2 3 4 5 6 
#
# 1 0.020888 0.002432 -0.010569 0.000000 -0.003037 0.000000
# 2 0.002432 0.009132 -0.004449 0.000000 -0.001786 0.000000
# 3 -0.010569 -0.004449 0.024523 0.000000 0.002127 0.000000
# 4 0.000000 0.000000 0.000000 0.043159 0.000000 -0.006761
# 5 -0.003037 -0.001786 0.002127 0.000000 0.031773 0.000000
# 6 0.000000 0.000000 0.000000 -0.006761 0.000000 0.041889
#
#
# Mechanical properties :
#
#
# Convention : Reuss Voigt Hill
#
# Bulk Modulus (GPa) = 34.04707 36.01252 35.02979
# Shear Modulus (GPa) = 24.23326 29.13675 26.68500
#
# Velocity S-wave (km/s) = 3.41435 3.74388 3.58290
# Velocity P-wave (km/s) = 5.65000 6.00110 5.82820
#
# Compressibility (1/GPa) = 0.02937110
#
# Stress axis : x y z
#
# Youngs Moduli (GPa) = 47.87324 109.50551 40.77747
#
# Poissons Ratio (x) = -0.26627 0.43098
# Poissons Ratio (y) = -0.11641 0.18142
# Poissons Ratio (z) = 0.50597 0.48718
#
# Static dielectric constant tensor:
#      x y z
#    x 1.747930 0.000000 -0.008320 
#    y 0.000000 1.835500 0.000000 
#    z -0.008320 0.000000 1.708920 
# 
# From -- ./inp_files/47048.got.cif
#   From: 2010.05.17/outbox.cif.g08.bks.cpg/sg12_24_cif.got.tgz:47048.got - 2010.06.03 13:09:07.
