data_PCOD9183475
_publ_section_title
;
Structure prediction by ZEFSAII (Michael W. Deem and Ramdas Pophale) SiO2 
 PCOD9183475
Probable space group: C 2/M
;
_chemical_formula_sum "Si O2"
_cell_formula_units_Z 56
_cell_length_a 26.596762
_cell_length_b 7.801252
_cell_length_c 15.199418
_cell_angle_alpha 90.000000
_cell_angle_beta 124.904302
_cell_angle_gamma 90.000000
_cell_volume 2586.375427
_symmetry_space_group_name_H-M "C 2/M"
_symmetry_group_IT_number 12
_symmetry_cell_setting 'monoclinic'
loop_
_space_group_symop_operation_xyz
x,y,z
-x,y,-z
-x,-y,-z
x,-y,z
1/2+x,1/2+y,z
1/2-x,1/2+y,-z
1/2-x,1/2-y,-z
1/2+x,1/2-y,z
loop_
_atom_site_type_symbol
_atom_site_label
_atom_site_fract_x
_atom_site_fract_y
_atom_site_fract_z
Si Si1 0.757682 0.795976 0.609239
Si Si2 0.514660 0.196921 0.157742
Si Si3 0.966883 0.792489 0.631674
Si Si4 0.109194 0.790348 0.762063
Si Si5 0.377905 0.695897 0.034086
Si Si6 0.629494 0.291882 0.163607
Si Si7 0.360688 0.704501 0.397090
O O1 0.750000 0.750000 0.500000
O O2 0.820080 0.730072 0.716353
O O3 0.700028 0.736412 0.608428
O O4 0.760043 0.000000 0.616917
O O5 0.547447 0.228202 0.284562
O O6 0.452140 0.304353 0.098228
O O7 0.562362 0.239729 0.129344
O O8 0.495782 0.000000 0.132160
O O9 0.918890 0.729558 0.511141
O O10 0.037176 0.744295 0.682455
O O11 0.964172 0.000000 0.631133
O O12 0.133566 0.726285 0.880950
O O13 0.141420 0.730617 0.705177
O O14 0.111488 0.000000 0.768944
O O15 0.355536 0.500000 0.014324
O O16 0.355679 0.773251 0.919841
O O17 0.629954 0.500000 0.161457
O O18 0.369668 0.500000 0.399030
#
# Coordination Sequence:
#
# PCOD9183475 Si02
#       7
#     8   8   8   8   8   8   8
#     4  11  24  40  56  76 103 135 174 216 257 303
#     4  11  21  31  49  80 112 136 164 211 266 310
#     4   9  17  31  52  77 106 141 176 207 246 304
#     4   8  15  30  54  81 104 130 170 214 250 296
#     4   9  18  35  57  77 101 136 175 210 248 303
#     4  10  21  37  55  73  98 138 181 214 249 303
#     4  10  19  33  55  80 105 135 173 215 257 300
#
# _framework density 21.651923
#
# number of rings (size 3 to 8) (size 9 to 14) (size 15 to 20)
#    0.000    2.286    0.000    4.286    0.000    9.143 
#    0.000    3.571    0.000    4.286    0.000    0.000 
#    0.000    0.000    0.000    0.000    0.000    0.000 
#
# Total GULP energy -156331.400901 kJ/mol
# GULP energy per Si atom -5583.264318 kJ/mol
# Density = 2.160264 g / cm^3
# Si number density = 21.651923 Si / 1000 Ang^3
#
#
#
# Elastic Constant Matrix: (Units=GPa)
#
#
# Indices 1 2 3 4 5 6 
#
# 1 76.8587 -9.7786 36.1933 0.0000 -37.8805 0.0000
# 2 -9.7786 37.3734 -1.3822 0.0000 -3.2173 0.0000
# 3 36.1933 -1.3822 128.7668 0.0000 -33.5547 0.0000
# 4 0.0000 0.0000 0.0000 3.1816 0.0000 4.7605
# 5 -37.8805 -3.2173 -33.5547 0.0000 35.1681 0.0000
# 6 0.0000 0.0000 0.0000 4.7605 0.0000 14.6981
#
#
#
# Elastic Compliance Matrix: (Units=1/GPa)
#
#
# Indices 1 2 3 4 5 6 
#
# 1 0.031947 0.011472 0.000511 0.000000 0.035949 0.000000
# 2 0.011472 0.031239 0.001431 0.000000 0.016581 0.000000
# 3 0.000511 0.001431 0.010401 0.000000 0.010606 0.000000
# 4 0.000000 0.000000 0.000000 0.609843 0.000000 -0.197520
# 5 0.035949 0.016581 0.010606 0.000000 0.078792 0.000000
# 6 0.000000 0.000000 0.000000 -0.197520 0.000000 0.132011
#
#
# Mechanical properties :
#
#
# Convention : Reuss Voigt Hill
#
# Bulk Modulus (GPa) = 9.95843 32.56266 21.26054
# Shear Modulus (GPa) = 5.55015 25.14065 15.34540
#
# Velocity S-wave (km/s) = 1.60278 3.41123 2.66509
# Velocity P-wave (km/s) = 2.83453 5.53056 4.39441
#
# Compressibility (1/GPa) = 0.10041748
#
# Stress axis : x y z
#
# Youngs Moduli (GPa) = 31.30151 32.01133 96.14131
#
# Poissons Ratio (x) = -0.36725 -0.04914
# Poissons Ratio (y) = -0.35910 -0.13762
# Poissons Ratio (z) = -0.01600 -0.04582
#
# Static dielectric constant tensor:
#      x y z
#    x 1.737660 0.000000 -0.023610 
#    y 0.000000 1.806910 0.000000 
#    z -0.023610 0.000000 1.828460 
# 
# From -- ./inp_files/238971.got.cif
#   From: 2010.05.17/outbox.cif.g08.bks.cpg/sg12_120_cif.got.tgz:238971.got - 2010.06.03 13:09:07.
