data_PCOD9183598
_publ_section_title
;
Structure prediction by ZEFSAII (Michael W. Deem and Ramdas Pophale) SiO2 
 PCOD9183598
Probable space group: C 2/M
;
_chemical_formula_sum "Si O2"
_cell_formula_units_Z 56
_cell_length_a 12.864100
_cell_length_b 14.685456
_cell_length_c 12.107156
_cell_angle_alpha 90.000000
_cell_angle_beta 98.076956
_cell_angle_gamma 90.000000
_cell_volume 2264.536777
_symmetry_space_group_name_H-M "C 2/M"
_symmetry_group_IT_number 12
_symmetry_cell_setting 'monoclinic'
loop_
_space_group_symop_operation_xyz
x,y,z
-x,y,-z
-x,-y,-z
x,-y,z
1/2+x,1/2+y,z
1/2-x,1/2+y,-z
1/2-x,1/2-y,-z
1/2+x,1/2-y,z
loop_
_atom_site_type_symbol
_atom_site_label
_atom_site_fract_x
_atom_site_fract_y
_atom_site_fract_z
Si Si1 0.977475 0.893354 0.209450
Si Si2 0.172991 0.111263 0.117562
Si Si3 0.598528 0.334307 0.440033
Si Si4 0.187054 0.359116 0.451228
Si Si5 0.436027 0.101331 0.778652
Si Si6 0.254694 0.388625 0.114666
Si Si7 0.859683 0.390055 0.302707
O O1 0.055743 0.856060 0.127429
O O2 0.045264 0.884656 0.330397
O O3 0.858695 0.857825 0.196984
O O4 0.963615 0.000000 0.181971
O O5 0.252638 0.137585 0.226950
O O6 0.169158 0.000000 0.116306
O O7 0.220983 0.137343 0.007347
O O8 0.500000 0.308238 0.500000
O O9 0.690635 0.385861 0.519908
O O10 0.663043 0.245132 0.414460
O O11 0.128863 0.409242 0.344607
O O12 0.139760 0.369712 0.567155
O O13 0.354871 0.145694 0.851923
O O14 0.542601 0.148356 0.753158
O O15 0.464248 0.000000 0.826253
O O16 0.246452 0.500000 0.119942
O O17 0.866471 0.500000 0.297632
#
# Coordination Sequence:
#
# PCOD9183598 Si02
#       7
#     8   8   8   8   8   8   8
#     4  10  19  34  55  81 111 141 179 225 271 325
#     4   9  17  31  53  82 111 141 179 222 270 321
#     4  11  23  36  54  80 106 144 179 221 277 324
#     4  11  22  37  54  78 109 145 183 222 268 327
#     4  10  20  33  53  80 110 145 182 225 269 313
#     4   9  18  32  53  84 114 140 176 224 274 318
#     4  10  19  33  55  82 112 146 184 223 263 317
#
# _framework density 24.729119000000001
#
# number of rings (size 3 to 8) (size 9 to 14) (size 15 to 20)
#    0.000    2.000    1.429    3.000    0.000    4.286 
#    0.000    2.857    0.000    0.857    7.429    0.000 
#    0.000    0.000    0.000    0.000    0.000    0.286 
#
# Total GULP energy -156437.079781 kJ/mol
# GULP energy per Si atom -5587.038564 kJ/mol
# Density = 2.467283 g / cm^3
# Si number density = 24.729119 Si / 1000 Ang^3
#
#
#
# Elastic Constant Matrix: (Units=GPa)
#
#
# Indices 1 2 3 4 5 6 
#
# 1 72.7817 14.7614 8.2409 0.0000 -29.2759 0.0000
# 2 14.7614 45.5592 -8.5830 0.0000 -4.3970 0.0000
# 3 8.2409 -8.5830 53.1872 0.0000 -16.8877 0.0000
# 4 0.0000 0.0000 0.0000 -521.4222 0.0000 -155.8586
# 5 -29.2759 -4.3970 -16.8877 0.0000 37.7162 0.0000
# 6 0.0000 0.0000 0.0000 -155.8586 0.0000 -28.0878
#
#
#
# Elastic Compliance Matrix: (Units=1/GPa)
#
#
# Indices 1 2 3 4 5 6 
#
# 1 0.021238 -0.005096 0.001087 0.000000 0.016378 0.000000
# 2 -0.005096 0.024693 0.005167 0.000000 0.001237 0.000000
# 3 0.001087 0.005167 0.023228 0.000000 0.011847 0.000000
# 4 0.000000 0.000000 0.000000 0.002912 0.000000 -0.016157
# 5 0.016378 0.001237 0.011847 0.000000 0.044676 0.000000
# 6 0.000000 0.000000 0.000000 -0.016157 0.000000 0.054054
#
#
# Mechanical properties :
#
#
# Convention : Reuss Voigt Hill
#
# Bulk Modulus (GPa) = 13.99042 22.26297 18.12670
# Shear Modulus (GPa) = 25.99972 -91.88484 -32.94256
#
# Velocity S-wave (km/s) = 3.24602 -6.10223 -3.65380
# Velocity P-wave (km/s) = 4.44056 6.37396 3.23332
#
# Compressibility (1/GPa) = 0.07147748
#
# Stress axis : x y z
#
# Youngs Moduli (GPa) = 47.08514 40.49674 43.05059
#
# Poissons Ratio (x) = 0.20636 -0.04681
# Poissons Ratio (y) = 0.23993 -0.22245
# Poissons Ratio (z) = -0.05120 -0.20925
#
# Static dielectric constant tensor:
#      x y z
#    x 1.977800 0.000000 -0.009140 
#    y 0.000000 2.148180 0.000000 
#    z -0.009140 0.000000 1.948000 
# 
# From -- ./inp_files/133216.got.cif
#   From: 2010.05.17/outbox.cif.g08.bks.cpg/sg12_67_cif.got.tgz:133216.got - 2010.06.03 13:09:07.
