data_PCOD9183515
_publ_section_title
;
Structure prediction by ZEFSAII (Michael W. Deem and Ramdas Pophale) SiO2 
 PCOD9183515
Probable space group: C 2/M
;
_chemical_formula_sum "Si O2"
_cell_formula_units_Z 64
_cell_length_a 24.089632
_cell_length_b 13.891297
_cell_length_c 14.118413
_cell_angle_alpha 90.000000
_cell_angle_beta 36.094495
_cell_angle_gamma 90.000000
_cell_volume 2783.310574
_symmetry_space_group_name_H-M "C 2/M"
_symmetry_group_IT_number 12
_symmetry_cell_setting 'monoclinic'
loop_
_space_group_symop_operation_xyz
x,y,z
-x,y,-z
-x,-y,-z
x,-y,z
1/2+x,1/2+y,z
1/2-x,1/2+y,-z
1/2-x,1/2-y,-z
1/2+x,1/2-y,z
loop_
_atom_site_type_symbol
_atom_site_label
_atom_site_fract_x
_atom_site_fract_y
_atom_site_fract_z
Si Si1 0.564940 0.608102 0.999170
Si Si2 0.193447 0.887484 0.153385
Si Si3 0.533264 0.886343 0.846824
Si Si4 0.923266 0.243435 0.542569
Si Si5 0.758003 0.245479 0.651759
Si Si6 0.755578 0.886203 0.491738
Si Si7 0.353046 0.206191 0.035540
Si Si8 0.476567 0.394708 0.735523
O O1 0.600792 0.500000 0.932316
O O2 0.640424 0.686230 0.929677
O O3 0.500000 0.636320 0.000000
O O4 0.504725 0.604230 0.179094
O O5 0.121736 0.838563 0.327132
O O6 0.288894 0.825788 0.036439
O O7 0.135842 0.884473 0.134129
O O8 0.212417 0.000000 0.147783
O O9 0.642238 0.870636 0.668690
O O10 0.516337 0.000000 0.861553
O O11 0.500000 0.859270 0.000000
O O12 0.458771 0.831423 0.883214
O O13 0.835718 0.292987 0.613281
O O14 0.000000 0.298435 0.500000
O O15 0.976507 0.190159 0.385252
O O16 0.801979 0.172401 0.513352
O O17 0.716751 0.330162 0.642373
O O18 0.700721 0.168294 0.796290
O O19 0.773721 0.000000 0.464343
O O20 0.503540 0.500000 0.659230
#
# Coordination Sequence:
#
# PCOD9183515 Si02
#       8
#     8   8   8   8   8   8   8   8
#     4  10  23  38  54  76 107 150 194 229 268 325
#     4   9  18  33  55  86 115 139 176 228 289 345
#     4  10  19  33  55  80 112 149 182 227 290 347
#     4   9  18  33  55  82 112 145 179 227 284 338
#     4  10  22  35  56  84 110 147 190 233 282 337
#     4  10  22  38  55  82 116 149 188 234 284 340
#     4  11  21  34  56  81 112 145 187 233 283 337
#     4   9  18  34  55  79 110 146 184 228 279 336
#
# _framework density 22.994198999999998
#
# number of rings (size 3 to 8) (size 9 to 14) (size 15 to 20)
#    0.000    2.250    1.250    1.125    1.750    6.000 
#    0.000    1.250    0.000    0.375    0.000    0.000 
#    0.000    0.000    0.000    0.000    0.000    0.000 
#
# Total GULP energy -178278.937844 kJ/mol
# GULP energy per Si atom -5571.216808 kJ/mol
# Density = 2.294186 g / cm^3
# Si number density = 22.994199 Si / 1000 Ang^3
#
#
#
# Elastic Constant Matrix: (Units=GPa)
#
#
# Indices 1 2 3 4 5 6 
#
# 1 137.3559 22.0134 17.6321 0.0000 -10.2837 0.0000
# 2 22.0134 80.5309 -5.2057 0.0000 -8.6207 0.0000
# 3 17.6321 -5.2057 30.4165 0.0000 -9.9961 0.0000
# 4 0.0000 0.0000 0.0000 17.0466 0.0000 -2.0236
# 5 -10.2837 -8.6207 -9.9961 0.0000 40.2194 0.0000
# 6 0.0000 0.0000 0.0000 -2.0236 0.0000 13.8943
#
#
#
# Elastic Compliance Matrix: (Units=1/GPa)
#
#
# Indices 1 2 3 4 5 6 
#
# 1 0.008388 -0.002598 -0.005211 0.000000 0.000293 0.000000
# 2 -0.002598 0.013834 0.005042 0.000000 0.003554 0.000000
# 3 -0.005211 0.005042 0.039940 0.000000 0.009675 0.000000
# 4 0.000000 0.000000 0.000000 0.059695 0.000000 0.008694
# 5 0.000293 0.003554 0.009675 0.000000 0.028105 0.000000
# 6 0.000000 0.000000 0.000000 0.008694 0.000000 0.073238
#
#
# Mechanical properties :
#
#
# Convention : Reuss Voigt Hill
#
# Bulk Modulus (GPa) = 17.65925 35.24255 26.45090
# Shear Modulus (GPa) = 20.19308 28.48963 24.34136
#
# Velocity S-wave (km/s) = 2.96663 3.52375 3.25712
# Velocity P-wave (km/s) = 4.40807 5.64940 5.06689
#
# Compressibility (1/GPa) = 0.05662754
#
# Stress axis : x y z
#
# Youngs Moduli (GPa) = 119.22414 72.28457 25.03757
#
# Poissons Ratio (x) = 0.18782 0.13046
# Poissons Ratio (y) = 0.30978 -0.12624
# Poissons Ratio (z) = 0.62124 -0.36445
#
# Static dielectric constant tensor:
#      x y z
#    x 1.942010 0.000000 -0.020700 
#    y 0.000000 1.902820 0.000000 
#    z -0.020700 0.000000 2.033700 
# 
# From -- ./inp_files/240672.got.cif
#   From: 2010.05.17/outbox.cif.g08.bks.cpg/sg12_121_cif.got.tgz:240672.got - 2010.06.03 13:09:07.
