data_PCOD9183577
_publ_section_title
;
Structure prediction by ZEFSAII (Michael W. Deem and Ramdas Pophale) SiO2 
 PCOD9183577
Probable space group: C 2/M
;
_chemical_formula_sum "Si O2"
_cell_formula_units_Z 56
_cell_length_a 18.574169
_cell_length_b 8.418912
_cell_length_c 19.403570
_cell_angle_alpha 90.000000
_cell_angle_beta 76.302343
_cell_angle_gamma 90.000000
_cell_volume 2947.922733
_symmetry_space_group_name_H-M "C 2/M"
_symmetry_group_IT_number 12
_symmetry_cell_setting 'monoclinic'
loop_
_space_group_symop_operation_xyz
x,y,z
-x,y,-z
-x,-y,-z
x,-y,z
1/2+x,1/2+y,z
1/2-x,1/2+y,-z
1/2-x,1/2-y,-z
1/2+x,1/2-y,z
loop_
_atom_site_type_symbol
_atom_site_label
_atom_site_fract_x
_atom_site_fract_y
_atom_site_fract_z
Si Si1 0.342851 0.310277 0.793659
Si Si2 0.990439 0.807809 0.210928
Si Si3 0.705996 0.190789 0.343669
Si Si4 0.332015 0.808661 0.501196
Si Si5 0.724987 0.689804 0.931181
Si Si6 0.560030 0.694084 0.929670
Si Si7 0.629855 0.809117 0.653748
O O1 0.341210 0.500000 0.800366
O O2 0.425573 0.254880 0.794126
O O3 0.322758 0.262560 0.720594
O O4 0.282935 0.241462 0.859963
O O5 0.962948 0.755124 0.141745
O O6 0.934996 0.748517 0.282162
O O7 0.989467 0.000000 0.211746
O O8 0.658268 0.243230 0.421852
O O9 0.791093 0.241658 0.338326
O O10 0.703623 0.000000 0.339401
O O11 0.250000 0.750000 0.500000
O O12 0.380714 0.759042 0.424272
O O13 0.332598 0.000000 0.502319
O O14 0.722303 0.500000 0.933903
O O15 0.642422 0.747682 0.930833
O O16 0.750000 0.750000 0.000000
O O17 0.560153 0.500000 0.929677
O O18 0.500000 0.744798 0.000000
O O19 0.634174 0.000000 0.654935
#
# Coordination Sequence:
#
# PCOD9183577 Si02
#       7
#     8   8   8   8   8   8   8
#     4  11  23  38  56  80 111 146 187 234 279 324
#     4  10  21  37  56  78 107 145 187 230 279 331
#     4  10  19  34  56  80 109 145 184 225 276 337
#     4   8  16  30  50  77 106 139 179 224 274 329
#     4  11  22  37  60  86 112 144 181 224 277 333
#     4   9  18  35  58  80 103 137 178 217 263 320
#     4  10  19  33  55  82 110 140 181 232 280 328
#
# _framework density 18.996427000000001
#
# number of rings (size 3 to 8) (size 9 to 14) (size 15 to 20)
#    0.000    2.143    0.000    3.429    0.000    5.714 
#    0.000    1.429    0.000    7.286    0.000    0.000 
#    0.000    0.000    0.000    0.000    0.000    0.000 
#
# Total GULP energy -156258.469630 kJ/mol
# GULP energy per Si atom -5580.659630 kJ/mol
# Density = 1.895319 g / cm^3
# Si number density = 18.996427 Si / 1000 Ang^3
#
#
#
# Elastic Constant Matrix: (Units=GPa)
#
#
# Indices 1 2 3 4 5 6 
#
# 1 138.9159 19.7773 100.5689 0.0000 -0.4357 0.0000
# 2 19.7773 22.5789 20.7630 0.0000 1.0043 0.0000
# 3 100.5689 20.7630 216.1549 0.0000 -0.2266 0.0000
# 4 0.0000 0.0000 0.0000 29.7362 0.0000 -0.3672
# 5 -0.4357 1.0043 -0.2266 0.0000 32.6596 0.0000
# 6 0.0000 0.0000 0.0000 -0.3672 0.0000 24.3800
#
#
#
# Elastic Compliance Matrix: (Units=1/GPa)
#
#
# Indices 1 2 3 4 5 6 
#
# 1 0.011477 -0.005655 -0.004796 0.000000 0.000294 0.000000
# 2 -0.005655 0.051443 -0.002312 0.000000 -0.001673 0.000000
# 3 -0.004796 -0.002312 0.007080 0.000000 0.000056 0.000000
# 4 0.000000 0.000000 0.000000 0.033635 0.000000 0.000507
# 5 0.000294 -0.001673 0.000056 0.000000 0.030675 0.000000
# 6 0.000000 0.000000 0.000000 0.000507 0.000000 0.041025
#
#
# Mechanical properties :
#
#
# Convention : Reuss Voigt Hill
#
# Bulk Modulus (GPa) = 22.48559 73.31869 47.90214
# Shear Modulus (GPa) = 23.18179 33.12452 28.15316
#
# Velocity S-wave (km/s) = 3.49710 4.18032 3.85388
# Velocity P-wave (km/s) = 5.30742 7.87274 6.71374
#
# Compressibility (1/GPa) = 0.04447293
#
# Stress axis : x y z
#
# Youngs Moduli (GPa) = 87.13116 19.43889 141.24357
#
# Poissons Ratio (x) = 0.10994 0.67744
# Poissons Ratio (y) = 0.49276 0.32655
# Poissons Ratio (z) = 0.41790 0.04494
#
# Static dielectric constant tensor:
#      x y z
#    x 1.632380 0.000000 0.003030 
#    y 0.000000 1.665220 0.000000 
#    z 0.003030 0.000000 1.667130 
# 
# From -- ./inp_files/275297.got.cif
#   From: 2010.05.17/outbox.cif.g08.bks.cpg/sg12_138_cif.got.tgz:275297.got - 2010.06.03 13:09:07.
