data_PCOD9183980
_publ_section_title
;
Structure prediction by ZEFSAII (Michael W. Deem and Ramdas Pophale) SiO2 
 PCOD9183980
Probable space group: C 2/M
;
_chemical_formula_sum "Si O2"
_cell_formula_units_Z 56
_cell_length_a 16.371755
_cell_length_b 21.731847
_cell_length_c 9.558965
_cell_angle_alpha 90.000000
_cell_angle_beta 62.494483
_cell_angle_gamma 90.000000
_cell_volume 3016.545632
_symmetry_space_group_name_H-M "C 2/M"
_symmetry_group_IT_number 12
_symmetry_cell_setting 'monoclinic'
loop_
_space_group_symop_operation_xyz
x,y,z
-x,y,-z
-x,-y,-z
x,-y,z
1/2+x,1/2+y,z
1/2-x,1/2+y,-z
1/2-x,1/2-y,-z
1/2+x,1/2-y,z
loop_
_atom_site_type_symbol
_atom_site_label
_atom_site_fract_x
_atom_site_fract_y
_atom_site_fract_z
Si Si1 0.555581 0.071182 0.259913
Si Si2 0.206443 0.192462 0.120933
Si Si3 0.138299 0.614892 0.643691
Si Si4 0.708914 0.239002 0.684471
Si Si5 0.733725 0.926278 0.298568
Si Si6 0.107070 0.845431 0.939843
Si Si7 0.822838 0.568423 0.090903
O O1 0.459668 0.105022 0.351942
O O2 0.645033 0.092443 0.274953
O O3 0.539761 0.000000 0.309998
O O4 0.585485 0.074161 0.074433
O O5 0.208119 0.219327 0.276359
O O6 0.262516 0.127979 0.094959
O O7 0.250000 0.250000 0.000000
O O8 0.121340 0.174300 0.090441
O O9 0.143132 0.681009 0.711568
O O10 0.215616 0.603353 0.464883
O O11 0.155365 0.570602 0.762106
O O12 0.750000 0.250000 0.500000
O O13 0.650219 0.292068 0.805991
O O14 0.825898 0.902104 0.152066
O O15 0.733834 0.000000 0.310459
O O16 0.000000 0.856268 0.000000
O O17 0.783613 0.500000 0.086279
#
# Coordination Sequence:
#
# PCOD9183980 Si02
#       7
#     8   8   8   8   8   8   8
#     4  10  20  34  55  89 124 154 190 235 298 377
#     4   9  20  37  61  83 117 157 197 245 301 350
#     4  11  21  34  59  87 123 154 194 243 311 374
#     4  10  21  41  63  87 119 156 196 249 309 370
#     4  11  22  38  59  84 123 162 199 252 305 355
#     4  11  23  42  61  85 117 158 212 254 288 349
#     4  10  19  33  56  86 120 154 192 240 301 372
#
# _framework density 18.564281000000001
#
# number of rings (size 3 to 8) (size 9 to 14) (size 15 to 20)
#    0.000    1.714    2.857    2.143    0.000    6.000 
#    0.000    0.714    0.000    0.000    0.000    3.000 
#    0.000    0.000    0.000    0.000    0.000    0.000 
#
# Total GULP energy -155955.023297 kJ/mol
# GULP energy per Si atom -5569.822261 kJ/mol
# Density = 1.852203 g / cm^3
# Si number density = 18.564281 Si / 1000 Ang^3
#
#
#
# Elastic Constant Matrix: (Units=GPa)
#
#
# Indices 1 2 3 4 5 6 
#
# 1 118.4410 21.0425 37.4826 0.0000 2.0011 0.0000
# 2 21.0425 79.2412 2.8389 0.0000 1.6991 0.0000
# 3 37.4826 2.8389 96.6108 0.0000 21.8513 0.0000
# 4 0.0000 0.0000 0.0000 19.7015 0.0000 4.3731
# 5 2.0011 1.6991 21.8513 0.0000 24.9311 0.0000
# 6 0.0000 0.0000 0.0000 4.3731 0.0000 18.8666
#
#
#
# Elastic Compliance Matrix: (Units=1/GPa)
#
#
# Indices 1 2 3 4 5 6 
#
# 1 0.010352 -0.002655 -0.004729 0.000000 0.003495 0.000000
# 2 -0.002655 0.013323 0.000992 0.000000 -0.001565 0.000000
# 3 -0.004729 0.000992 0.015074 0.000000 -0.012900 0.000000
# 4 0.000000 0.000000 0.000000 0.053511 0.000000 -0.012403
# 5 0.003495 -0.001565 -0.012900 0.000000 0.051243 0.000000
# 6 0.000000 0.000000 0.000000 -0.012403 0.000000 0.055879
#
#
# Mechanical properties :
#
#
# Convention : Reuss Voigt Hill
#
# Bulk Modulus (GPa) = 38.51090 46.33567 42.42328
# Shear Modulus (GPa) = 22.64303 28.22844 25.43574
#
# Velocity S-wave (km/s) = 3.49622 3.90369 3.70556
# Velocity P-wave (km/s) = 6.08997 6.73292 6.41950
#
# Compressibility (1/GPa) = 0.02596668
#
# Stress axis : x y z
#
# Youngs Moduli (GPa) = 96.59896 75.06038 66.33953
#
# Poissons Ratio (x) = 0.19925 0.31370
# Poissons Ratio (y) = 0.25642 -0.06583
# Poissons Ratio (z) = 0.45679 -0.07448
#
# Static dielectric constant tensor:
#      x y z
#    x 1.639730 0.000000 0.037520 
#    y 0.000000 1.700810 0.000000 
#    z 0.037520 0.000000 1.656000 
# 
# From -- ./inp_files/65790.got.cif
#   From: 2010.05.17/outbox.cif.g08.bks.cpg/sg12_33_cif.got.tgz:65790.got - 2010.06.03 13:09:07.
