data_PCOD9183748
_publ_section_title
;
Structure prediction by ZEFSAII (Michael W. Deem and Ramdas Pophale) SiO2 
 PCOD9183748
Probable space group: C 2/M
;
_chemical_formula_sum "Si O2"
_cell_formula_units_Z 56
_cell_length_a 23.402605
_cell_length_b 14.454376
_cell_length_c 24.152365
_cell_angle_alpha 90.000000
_cell_angle_beta 160.717400
_cell_angle_gamma 90.000000
_cell_volume 2697.967963
_symmetry_space_group_name_H-M "C 2/M"
_symmetry_group_IT_number 12
_symmetry_cell_setting 'monoclinic'
loop_
_space_group_symop_operation_xyz
x,y,z
-x,y,-z
-x,-y,-z
x,-y,z
1/2+x,1/2+y,z
1/2-x,1/2+y,-z
1/2-x,1/2-y,-z
1/2+x,1/2-y,z
loop_
_atom_site_type_symbol
_atom_site_label
_atom_site_fract_x
_atom_site_fract_y
_atom_site_fract_z
Si Si1 0.989923 0.242306 0.552880
Si Si2 0.287343 0.888655 0.869365
Si Si3 0.680215 0.891953 0.400166
Si Si4 0.960516 0.610248 0.304545
Si Si5 0.353417 0.319604 0.051615
Si Si6 0.903980 0.684285 0.789084
Si Si7 0.551205 0.394488 0.750518
O O1 0.797945 0.198455 0.382997
O O2 0.000000 0.279908 0.500000
O O3 0.145573 0.166444 0.703132
O O4 0.012507 0.324067 0.618211
O O5 0.212068 0.860853 0.861870
O O6 0.288064 0.000000 0.860179
O O7 0.484011 0.852484 0.056408
O O8 0.583802 0.858118 0.366394
O O9 0.585628 0.882483 0.255181
O O10 0.870371 0.848758 0.569028
O O11 0.700031 0.000000 0.429126
O O12 0.981806 0.500000 0.334961
O O13 0.774503 0.630353 0.107303
O O14 0.505499 0.274411 0.154675
O O15 0.429644 0.388614 0.166874
O O16 0.250000 0.250000 0.000000
O O17 0.541367 0.500000 0.723058
#
# Coordination Sequence:
#
# PCOD9183748 Si02
#       7
#     8   8   8   8   8   8   8
#     4  12  28  48  69  94 128 181 241 285 327 385
#     4  11  23  42  67  99 135 172 218 271 336 404
#     4  10  20  34  62 101 135 172 212 258 331 412
#     4  11  23  43  67  98 138 177 223 280 337 400
#     4  12  20  33  60  99 135 169 207 259 337 406
#     4  12  23  39  68  97 139 174 214 269 336 403
#     4  10  19  33  55  91 135 169 204 253 319 403
#
# _framework density 20.756361999999999
#
# number of rings (size 3 to 8) (size 9 to 14) (size 15 to 20)
#    0.000    0.857    5.714    1.714    0.000    5.143 
#    0.000    1.429    0.000    0.857    0.000    0.000 
#    0.000    0.000    0.000    0.000    0.000    0.000 
#
# Total GULP energy -156131.197373 kJ/mol
# GULP energy per Si atom -5576.114192 kJ/mol
# Density = 2.070912 g / cm^3
# Si number density = 20.756362 Si / 1000 Ang^3
#
#
#
# Elastic Constant Matrix: (Units=GPa)
#
#
# Indices 1 2 3 4 5 6 
#
# 1 68.4541 9.7948 28.2680 0.0024 -14.2315 -0.0004
# 2 9.7948 75.1190 22.7681 0.0123 -1.9320 0.0017
# 3 28.2680 22.7681 135.2519 0.0202 -4.6708 0.0041
# 4 0.0024 0.0123 0.0202 26.6594 0.0024 0.2736
# 5 -14.2315 -1.9320 -4.6708 0.0024 16.3965 -0.0005
# 6 -0.0004 0.0017 0.0041 0.2736 -0.0005 2.1565
#
#
#
# Elastic Compliance Matrix: (Units=1/GPa)
#
#
# Indices 1 2 3 4 5 6 
#
# 1 0.019422 -0.001119 -0.003326 0.000000 0.015778 0.000015
# 2 -0.001119 0.014108 -0.002138 -0.000005 0.000082 -0.000007
# 3 -0.003326 -0.002138 0.008423 -0.000005 -0.000739 -0.000015
# 4 0.000000 -0.000005 -0.000005 0.037559 -0.000008 -0.004765
# 5 0.015778 0.000082 -0.000739 -0.000008 0.074483 0.000024
# 6 0.000015 -0.000007 -0.000015 -0.004765 0.000024 0.464321
#
#
# Mechanical properties :
#
#
# Convention : Reuss Voigt Hill
#
# Bulk Modulus (GPa) = 34.73707 44.49855 39.61781
# Shear Modulus (GPa) = 7.79936 23.57542 15.68739
#
# Velocity S-wave (km/s) = 1.94055 3.37384 2.75214
# Velocity P-wave (km/s) = 4.66829 6.05493 5.40625
#
# Compressibility (1/GPa) = 0.02878769
#
# Stress axis : x y z
#
# Youngs Moduli (GPa) = 51.48755 70.88023 118.71961
#
# Poissons Ratio (x) = 0.07928 0.39487
# Poissons Ratio (y) = 0.05759 0.25386
# Poissons Ratio (z) = 0.17125 0.15157
#
# Static dielectric constant tensor:
#      x y z
#    x 1.759770 0.000000 0.065250 
#    y 0.000000 1.774730 -0.000010 
#    z 0.065250 -0.000010 1.849050 
# 
# From -- ./inp_files/349803.got.cif
#   From: 2010.05.17/outbox.cif.g08.bks.cpg/sg12_175_cif.got.tgz:349803.got - 2010.06.03 13:09:07.
