data_PCOD9183047
_publ_section_title
;
Structure prediction by ZEFSAII (Michael W. Deem and Ramdas Pophale) SiO2 
 PCOD9183047
Probable space group: C 2/M
;
_chemical_formula_sum "Si O2"
_cell_formula_units_Z 48
_cell_length_a 16.511458
_cell_length_b 8.016901
_cell_length_c 15.547073
_cell_angle_alpha 90.000000
_cell_angle_beta 108.494673
_cell_angle_gamma 90.000000
_cell_volume 1951.689270
_symmetry_space_group_name_H-M "C 2/M"
_symmetry_group_IT_number 12
_symmetry_cell_setting 'monoclinic'
loop_
_space_group_symop_operation_xyz
x,y,z
-x,y,-z
-x,-y,-z
x,-y,z
1/2+x,1/2+y,z
1/2-x,1/2+y,-z
1/2-x,1/2-y,-z
1/2+x,1/2-y,z
loop_
_atom_site_type_symbol
_atom_site_label
_atom_site_fract_x
_atom_site_fract_y
_atom_site_fract_z
Si Si1 0.459536 0.197405 0.114040
Si Si2 0.789941 0.703680 0.387437
Si Si3 0.317638 0.698267 0.948274
Si Si4 0.564722 0.798155 0.445658
Si Si5 0.103578 0.194988 0.277897
Si Si6 0.670503 0.796583 0.783988
O O1 0.410451 0.241521 0.009549
O O2 0.553139 0.249782 0.176055
O O3 0.397023 0.266384 0.168855
O O4 0.458377 0.000000 0.117634
O O5 0.787287 0.500000 0.391927
O O6 0.842468 0.760685 0.487936
O O7 0.695497 0.769432 0.335179
O O8 0.842883 0.747352 0.319105
O O9 0.322906 0.500000 0.946531
O O10 0.250000 0.750000 0.000000
O O11 0.265924 0.755001 0.846496
O O12 0.500000 0.751749 0.500000
O O13 0.548660 0.729703 0.345418
O O14 0.562676 0.000000 0.438498
O O15 0.117421 0.000000 0.271312
O O16 0.667962 0.000000 0.787087
#
# Coordination Sequence:
#
# PCOD9183047 Si02
#       6
#     8   8   8   8   8   8
#     4  10  19  33  54  76 102 138 179 219 257 305
#     4   9  18  33  52  76 104 134 170 209 254 310
#     4   9  16  28  50  79 107 135 172 219 265 305
#     4  10  20  36  59  80 100 133 174 211 250 305
#     4  11  22  34  51  76 107 137 166 211 264 309
#     4   8  15  30  53  77  99 130 174 216 251 298
#
# _framework density 24.594078
#
# number of rings (size 3 to 8) (size 9 to 14) (size 15 to 20)
#    0.000    2.500    0.000    4.000    0.000    3.000 
#    0.000    1.667    0.000   19.000    0.000    0.000 
#    0.000    0.000    0.000    0.000    0.000    0.000 
#
# Total GULP energy -134036.481445 kJ/mol
# GULP energy per Si atom -5584.853394 kJ/mol
# Density = 2.453810 g / cm^3
# Si number density = 24.594078 Si / 1000 Ang^3
#
#
#
# Elastic Constant Matrix: (Units=GPa)
#
#
# Indices 1 2 3 4 5 6 
#
# 1 97.6957 3.0499 21.3881 0.0000 28.6274 0.0000
# 2 3.0499 24.8093 2.3703 0.0000 13.5749 0.0000
# 3 21.3881 2.3703 147.4347 0.0000 34.3916 0.0000
# 4 0.0000 0.0000 0.0000 23.6268 0.0000 11.7547
# 5 28.6274 13.5749 34.3916 0.0000 45.0539 0.0000
# 6 0.0000 0.0000 0.0000 11.7547 0.0000 11.7842
#
#
#
# Elastic Compliance Matrix: (Units=1/GPa)
#
#
# Indices 1 2 3 4 5 6 
#
# 1 0.012829 0.003562 0.000284 0.000000 -0.009442 0.000000
# 2 0.003562 0.050513 0.003345 0.000000 -0.020037 0.000000
# 3 0.000284 0.003345 0.008474 0.000000 -0.007657 0.000000
# 4 0.000000 0.000000 0.000000 0.084023 0.000000 -0.083813
# 5 -0.009442 -0.020037 -0.007657 0.000000 0.040077 0.000000
# 6 0.000000 0.000000 0.000000 -0.083813 0.000000 0.168463
#
#
# Mechanical properties :
#
#
# Convention : Reuss Voigt Hill
#
# Bulk Modulus (GPa) = 11.60112 35.95069 23.77590
# Shear Modulus (GPa) = 13.20203 32.30174 22.75189
#
# Velocity S-wave (km/s) = 2.31940 3.62801 3.04484
# Velocity P-wave (km/s) = 3.44965 5.67444 4.69571
#
# Compressibility (1/GPa) = 0.08619861
#
# Stress axis : x y z
#
# Youngs Moduli (GPa) = 77.94738 19.79670 118.01162
#
# Poissons Ratio (x) = -0.07052 -0.03353
# Poissons Ratio (y) = -0.27765 -0.39475
# Poissons Ratio (z) = -0.02214 -0.06622
#
# Static dielectric constant tensor:
#      x y z
#    x 2.091840 0.000000 0.007460 
#    y 0.000000 1.867680 0.000000 
#    z 0.007460 0.000000 1.936740 
# 
# From -- ./inp_files/279859.got.cif
#   From: 2010.05.17/outbox.cif.g08.bks.cpg/sg12_140_cif.got.tgz:279859.got - 2010.06.03 13:09:07.
