data_PCOD9183702
_publ_section_title
;
Structure prediction by ZEFSAII (Michael W. Deem and Ramdas Pophale) SiO2 
 PCOD9183702
Probable space group: C 2/M
;
_chemical_formula_sum "Si O2"
_cell_formula_units_Z 64
_cell_length_a 24.107889
_cell_length_b 15.976008
_cell_length_c 17.496959
_cell_angle_alpha 90.000000
_cell_angle_beta 149.543399
_cell_angle_gamma 90.000000
_cell_volume 3415.859161
_symmetry_space_group_name_H-M "C 2/M"
_symmetry_group_IT_number 12
_symmetry_cell_setting 'monoclinic'
loop_
_space_group_symop_operation_xyz
x,y,z
-x,y,-z
-x,-y,-z
x,-y,z
1/2+x,1/2+y,z
1/2-x,1/2+y,-z
1/2-x,1/2-y,-z
1/2+x,1/2-y,z
loop_
_atom_site_type_symbol
_atom_site_label
_atom_site_fract_x
_atom_site_fract_y
_atom_site_fract_z
Si Si1 0.862001 0.246582 0.181617
Si Si2 0.756404 0.407232 0.318973
Si Si3 0.639334 0.640727 0.336112
Si Si4 0.418391 0.594733 0.150336
Si Si5 0.791487 0.791823 0.878543
Si Si6 0.649235 0.096364 0.332837
Si Si7 0.491115 0.782732 0.903478
Si Si8 0.986897 0.405750 0.672169
O O1 0.917980 0.160773 0.220104
O O2 0.818642 0.254246 0.216502
O O3 0.933329 0.328302 0.246914
O O4 0.750000 0.250000 0.000000
O O5 0.735189 0.500000 0.261406
O O6 0.689745 0.399756 0.319208
O O7 0.726032 0.335971 0.223242
O O8 0.884018 0.400807 0.492433
O O9 0.538893 0.593672 0.256215
O O10 0.739989 0.645862 0.514484
O O11 0.583429 0.725371 0.239761
O O12 0.385297 0.500000 0.130478
O O13 0.339175 0.636591 0.992310
O O14 0.886960 0.722423 0.985261
O O15 0.576310 0.131596 0.177541
O O16 0.568708 0.101205 0.310514
O O17 0.681054 0.000000 0.360528
O O18 0.500000 0.749240 0.000000
O O19 0.035366 0.500000 0.722776
#
# Coordination Sequence:
#
# PCOD9183702 Si02
#       8
#     8   8   8   8   8   8   8   8
#     4  10  21  36  52  75 110 146 190 233 272 331
#     4  10  19  33  55  85 117 144 176 221 291 354
#     4  10  19  35  57  86 115 146 183 237 290 347
#     4  10  20  34  55  82 111 146 192 233 278 332
#     4  10  21  36  51  79 114 149 182 229 279 341
#     4  10  20  35  57  82 112 146 190 240 283 335
#     4  11  21  36  55  82 113 152 190 230 290 346
#     4   9  19  35  56  83 110 143 185 231 282 340
#
# _framework density 18.736135999999998
#
# number of rings (size 3 to 8) (size 9 to 14) (size 15 to 20)
#    0.000    2.000    1.250    4.875    0.000    4.250 
#    0.000    3.750    0.000    0.000    0.000    1.750 
#    0.000    0.000    0.000    0.000    0.000    0.000 
#
# Total GULP energy -178356.490340 kJ/mol
# GULP energy per Si atom -5573.640323 kJ/mol
# Density = 1.869349 g / cm^3
# Si number density = 18.736136 Si / 1000 Ang^3
#
#
#
# Elastic Constant Matrix: (Units=GPa)
#
#
# Indices 1 2 3 4 5 6 
#
# 1 63.2552 35.1140 18.1675 0.0000 15.8188 0.0000
# 2 35.1140 79.2531 36.1634 0.0000 9.6277 0.0000
# 3 18.1675 36.1634 57.9909 0.0000 7.3094 0.0000
# 4 0.0000 0.0000 0.0000 18.5593 0.0000 -3.9768
# 5 15.8188 9.6277 7.3094 0.0000 21.2005 0.0000
# 6 0.0000 0.0000 0.0000 -3.9768 0.0000 4.6827
#
#
#
# Elastic Compliance Matrix: (Units=1/GPa)
#
#
# Indices 1 2 3 4 5 6 
#
# 1 0.024373 -0.008971 -0.000275 0.000000 -0.014018 0.000000
# 2 -0.008971 0.021341 -0.010580 0.000000 0.000650 0.000000
# 3 -0.000275 -0.010580 0.024355 0.000000 -0.003387 0.000000
# 4 0.000000 0.000000 0.000000 0.065868 0.000000 0.055938
# 5 -0.014018 0.000650 -0.003387 0.000000 0.058501 0.000000
# 6 0.000000 0.000000 0.000000 0.055938 0.000000 0.261057
#
#
# Mechanical properties :
#
#
# Convention : Reuss Voigt Hill
#
# Bulk Modulus (GPa) = 32.87472 42.15432 37.51452
# Shear Modulus (GPa) = 9.89543 16.29214 13.09378
#
# Velocity S-wave (km/s) = 2.30064 2.95202 2.64645
# Velocity P-wave (km/s) = 4.96402 5.84526 5.42257
#
# Compressibility (1/GPa) = 0.03041851
#
# Stress axis : x y z
#
# Youngs Moduli (GPa) = 41.02888 46.85808 41.05961
#
# Poissons Ratio (x) = 0.42034 0.01128
# Poissons Ratio (y) = 0.36805 0.43441
# Poissons Ratio (z) = 0.01127 0.49576
#
# Static dielectric constant tensor:
#      x y z
#    x 1.670000 0.000000 -0.000010 
#    y 0.000000 1.703190 0.000000 
#    z -0.000010 0.000000 1.645470 
# 
# From -- ./inp_files/290146.got.cif
#   From: 2010.05.17/outbox.cif.g08.bks.cpg/sg12_146_cif.got.tgz:290146.got - 2010.06.03 13:09:07.
