data_PCOD9183782
_publ_section_title
;
Structure prediction by ZEFSAII (Michael W. Deem and Ramdas Pophale) SiO2 
 PCOD9183782
Probable space group: C 2/M
;
_chemical_formula_sum "Si O2"
_cell_formula_units_Z 64
_cell_length_a 29.538281
_cell_length_b 12.104015
_cell_length_c 17.315093
_cell_angle_alpha 90.000000
_cell_angle_beta 150.205808
_cell_angle_gamma 90.000000
_cell_volume 3076.070287
_symmetry_space_group_name_H-M "C 2/M"
_symmetry_group_IT_number 12
_symmetry_cell_setting 'monoclinic'
loop_
_space_group_symop_operation_xyz
x,y,z
-x,y,-z
-x,-y,-z
x,-y,z
1/2+x,1/2+y,z
1/2-x,1/2+y,-z
1/2-x,1/2-y,-z
1/2+x,1/2-y,z
loop_
_atom_site_type_symbol
_atom_site_label
_atom_site_fract_x
_atom_site_fract_y
_atom_site_fract_z
Si Si1 0.970800 0.872345 0.753286
Si Si2 0.572580 0.125822 0.539214
Si Si3 0.671960 0.746259 0.559696
Si Si4 0.637952 0.723275 0.905196
Si Si5 0.513571 0.178138 0.111283
Si Si6 0.683216 0.126860 0.115527
Si Si7 0.677402 0.120883 0.838768
Si Si8 0.790668 0.627780 0.531914
O O1 0.054495 0.835783 0.822400
O O2 0.878733 0.839575 0.571892
O O3 0.979369 0.801492 0.843723
O O4 0.974781 0.000000 0.774991
O O5 0.500000 0.148974 0.500000
O O6 0.595017 0.207749 0.503873
O O7 0.663159 0.127246 0.726337
O O8 0.557165 0.000000 0.489151
O O9 0.753301 0.689671 0.728013
O O10 0.703201 0.847143 0.550848
O O11 0.617238 0.795406 0.799230
O O12 0.682150 0.807160 0.033241
O O13 0.716549 0.642213 0.992208
O O14 0.608220 0.125371 0.280491
O O15 0.500000 0.173563 0.000000
O O16 0.422042 0.128227 0.012804
O O17 0.713573 0.000000 0.151878
O O18 0.651114 0.000000 0.826099
O O19 0.753079 0.500000 0.488686
O O20 0.750000 0.750000 0.500000
#
# Coordination Sequence:
#
# PCOD9183782 Si02
#       8
#     8   8   8   8   8   8   8   8
#     4  10  22  39  60  85 120 162 200 248 315 378
#     4  10  20  35  58  86 117 158 206 258 313 367
#     4  11  22  40  61  91 128 163 208 258 314 380
#     4  10  20  36  55  83 116 154 203 255 303 369
#     4  10  23  42  64  93 122 157 208 261 307 369
#     4  11  22  38  62  90 123 165 209 258 313 372
#     4  10  19  33  56  80 111 153 200 253 307 363
#     4  11  25  44  69  99 132 169 212 262 320 383
#
# _framework density 20.805768
#
# number of rings (size 3 to 8) (size 9 to 14) (size 15 to 20)
#    0.000    1.625    1.250    3.375    0.000    4.750 
#    0.000    6.875    0.000    1.500    0.000    0.000 
#    0.000    0.000    0.000    0.000    0.000    0.000 
#
# Total GULP energy -178406.572568 kJ/mol
# GULP energy per Si atom -5575.205393 kJ/mol
# Density = 2.075841 g / cm^3
# Si number density = 20.805768 Si / 1000 Ang^3
#
#
#
# Elastic Constant Matrix: (Units=GPa)
#
#
# Indices 1 2 3 4 5 6 
#
# 1 52.3076 23.7248 3.9536 0.0000 3.9922 0.0000
# 2 23.7248 134.7850 26.0627 0.0000 -1.9775 0.0000
# 3 3.9536 26.0627 82.4100 0.0000 -3.0303 0.0000
# 4 0.0000 0.0000 0.0000 12.7773 0.0000 -2.9876
# 5 3.9922 -1.9775 -3.0303 0.0000 33.9001 0.0000
# 6 0.0000 0.0000 0.0000 -2.9876 0.0000 12.6109
#
#
#
# Elastic Compliance Matrix: (Units=1/GPa)
#
#
# Indices 1 2 3 4 5 6 
#
# 1 0.021020 -0.003755 0.000080 0.000000 -0.002687 0.000000
# 2 -0.003755 0.008575 -0.002505 0.000000 0.000718 0.000000
# 3 0.000080 -0.002505 0.012960 0.000000 0.001003 0.000000
# 4 0.000000 0.000000 0.000000 0.082853 0.000000 0.019628
# 5 -0.002687 0.000718 0.001003 0.000000 0.029946 0.000000
# 6 0.000000 0.000000 0.000000 0.019628 0.000000 0.083946
#
#
# Mechanical properties :
#
#
# Convention : Reuss Voigt Hill
#
# Bulk Modulus (GPa) = 33.11830 41.88721 37.50276
# Shear Modulus (GPa) = 19.10399 26.24176 22.67288
#
# Velocity S-wave (km/s) = 3.03348 3.55529 3.30470
# Velocity P-wave (km/s) = 5.31241 6.08520 5.71189
#
# Compressibility (1/GPa) = 0.03019478
#
# Stress axis : x y z
#
# Youngs Moduli (GPa) = 47.57429 116.61607 77.16156
#
# Poissons Ratio (x) = 0.43787 -0.00619
# Poissons Ratio (y) = 0.17863 0.19332
# Poissons Ratio (z) = -0.00382 0.29217
#
# Static dielectric constant tensor:
#      x y z
#    x 1.752130 0.000000 0.024760 
#    y 0.000000 1.753890 0.000000 
#    z 0.024760 0.000000 1.776240 
# 
# From -- ./inp_files/296502.got.cif
#   From: 2010.05.17/outbox.cif.g08.bks.cpg/sg12_149_cif.got.tgz:296502.got - 2010.06.03 13:09:07.
