data_PCOD9183870
_publ_section_title
;
Structure prediction by ZEFSAII (Michael W. Deem and Ramdas Pophale) SiO2 
 PCOD9183870
Probable space group: C 2/M
;
_chemical_formula_sum "Si O2"
_cell_formula_units_Z 48
_cell_length_a 30.054613
_cell_length_b 8.956906
_cell_length_c 19.749704
_cell_angle_alpha 90.000000
_cell_angle_beta 31.312937
_cell_angle_gamma 90.000000
_cell_volume 2763.074005
_symmetry_space_group_name_H-M "C 2/M"
_symmetry_group_IT_number 12
_symmetry_cell_setting 'monoclinic'
loop_
_space_group_symop_operation_xyz
x,y,z
-x,y,-z
-x,-y,-z
x,-y,z
1/2+x,1/2+y,z
1/2-x,1/2+y,-z
1/2-x,1/2-y,-z
1/2+x,1/2-y,z
loop_
_atom_site_type_symbol
_atom_site_label
_atom_site_fract_x
_atom_site_fract_y
_atom_site_fract_z
Si Si1 0.882504 0.322261 0.460009
Si Si2 0.724973 0.178168 0.604239
Si Si3 0.656634 0.321910 0.122854
Si Si4 0.522084 0.322159 0.181653
Si Si5 0.973527 0.321147 0.110111
Si Si6 0.982596 0.678981 0.599682
O O1 0.873979 0.500000 0.462742
O O2 0.791019 0.244709 0.572711
O O3 0.942441 0.257741 0.322379
O O4 0.934435 0.291326 0.461348
O O5 0.750000 0.250000 0.500000
O O6 0.626738 0.212640 0.748714
O O7 0.734605 0.000000 0.587856
O O8 0.663197 0.500000 0.120954
O O9 0.604488 0.289149 0.121209
O O10 0.597557 0.257502 0.259966
O O11 0.750000 0.250000 0.000000
O O12 0.508433 0.500000 0.199696
O O13 0.525896 0.260866 0.100872
O O14 0.984983 0.500000 0.102542
O O15 0.000000 0.278546 0.000000
O O16 0.967892 0.500000 0.619781
O O17 0.000000 0.725253 0.500000
#
# Coordination Sequence:
#
# PCOD9183870 Si02
#       6
#     8   8   8   8   8   8
#     4  10  19  33  56  83 109 144 183 221 271 325
#     4  11  21  34  56  82 109 141 182 227 267 319
#     4  10  21  37  58  84 111 144 186 229 273 328
#     4  10  20  35  57  82 108 141 183 228 270 320
#     4  10  22  39  56  77 110 148 182 220 272 326
#     4   9  19  37  59  82 113 148 181 226 279 327
#
# _framework density 17.371956000000001
#
# number of rings (size 3 to 8) (size 9 to 14) (size 15 to 20)
#    0.000    2.000    1.667    2.000    0.000    4.000 
#    3.000    0.000    0.000    0.000    0.000    0.000 
#    0.000    0.000    0.000    0.000    0.000    0.000 
#
# Total GULP energy -133984.527740 kJ/mol
# GULP energy per Si atom -5582.688656 kJ/mol
# Density = 1.733242 g / cm^3
# Si number density = 17.371956 Si / 1000 Ang^3
#
#
#
# Elastic Constant Matrix: (Units=GPa)
#
#
# Indices 1 2 3 4 5 6 
#
# 1 134.4141 63.0015 90.1233 0.0001 9.2090 -0.0004
# 2 63.0015 57.1819 60.5074 -0.0046 -3.3501 0.0006
# 3 90.1233 60.5074 118.1570 -0.0044 5.3642 0.0010
# 4 0.0001 -0.0046 -0.0044 24.7398 0.0012 -3.3484
# 5 9.2090 -3.3501 5.3642 0.0012 35.1659 0.0002
# 6 -0.0004 0.0006 0.0010 -3.3484 0.0002 32.4544
#
#
#
# Elastic Compliance Matrix: (Units=1/GPa)
#
#
# Indices 1 2 3 4 5 6 
#
# 1 0.019085 -0.013474 -0.007423 -0.000004 -0.005149 0.000000
# 2 -0.013474 0.049303 -0.015451 0.000006 0.010582 0.000000
# 3 -0.007423 -0.015451 0.022170 0.000001 -0.002910 0.000000
# 4 -0.000004 0.000006 0.000001 0.040993 0.000000 0.004229
# 5 -0.005149 0.010582 -0.002910 0.000000 0.031237 0.000000
# 6 0.000000 0.000000 0.000000 0.004229 0.000000 0.031249
#
#
# Mechanical properties :
#
#
# Convention : Reuss Voigt Hill
#
# Bulk Modulus (GPa) = 55.98694 81.89084 68.93889
# Shear Modulus (GPa) = 18.33601 24.88008 21.60804
#
# Velocity S-wave (km/s) = 3.25236 3.78854 3.53065
# Velocity P-wave (km/s) = 6.81191 8.14736 7.50938
#
# Compressibility (1/GPa) = 0.01786131
#
# Stress axis : x y z
#
# Youngs Moduli (GPa) = 52.39632 20.28268 45.10680
#
# Poissons Ratio (x) = 0.27330 0.33484
# Poissons Ratio (y) = 0.70601 0.69693
# Poissons Ratio (z) = 0.38895 0.31338
#
# Static dielectric constant tensor:
#      x y z
#    x 1.604560 0.000000 -0.002410 
#    y 0.000000 1.579860 0.000000 
#    z -0.002410 0.000000 1.557270 
# 
# From -- ./inp_files/229936.got.cif
#   From: 2010.05.17/outbox.cif.g08.bks.cpg/sg12_115_cif.got.tgz:229936.got - 2010.06.03 13:09:07.
