data_PCOD9183689
_publ_section_title
;
Structure prediction by ZEFSAII (Michael W. Deem and Ramdas Pophale) SiO2 
 PCOD9183689
Probable space group: C 2/M
;
_chemical_formula_sum "Si O2"
_cell_formula_units_Z 64
_cell_length_a 19.569516
_cell_length_b 21.940399
_cell_length_c 7.672526
_cell_angle_alpha 90.000000
_cell_angle_beta 117.126391
_cell_angle_gamma 90.000000
_cell_volume 2931.935335
_symmetry_space_group_name_H-M "C 2/M"
_symmetry_group_IT_number 12
_symmetry_cell_setting 'monoclinic'
loop_
_space_group_symop_operation_xyz
x,y,z
-x,y,-z
-x,-y,-z
x,-y,z
1/2+x,1/2+y,z
1/2-x,1/2+y,-z
1/2-x,1/2-y,-z
1/2+x,1/2-y,z
loop_
_atom_site_type_symbol
_atom_site_label
_atom_site_fract_x
_atom_site_fract_y
_atom_site_fract_z
Si Si1 0.086813 0.107443 0.284681
Si Si2 0.078252 0.104827 0.874943
Si Si3 0.699189 0.234261 0.710820
Si Si4 0.048363 0.240260 0.729910
Si Si5 0.746202 0.611316 0.098840
Si Si6 0.400908 0.244960 0.735978
Si Si7 0.756397 0.568873 0.501731
Si Si8 0.313491 0.157474 0.850713
O O1 0.092374 0.181279 0.268047
O O2 0.167602 0.084046 0.447330
O O3 0.007917 0.087498 0.288259
O O4 0.080890 0.084998 0.079198
O O5 0.072720 0.178043 0.851731
O O6 0.165239 0.089827 0.919507
O O7 0.624615 0.228584 0.746006
O O8 0.757384 0.180722 0.827947
O O9 0.666889 0.229859 0.478854
O O10 0.737988 0.299543 0.778828
O O11 0.000000 0.221230 0.500000
O O12 0.983576 0.275782 0.761965
O O13 0.764034 0.576622 0.300235
O O14 0.809190 0.616174 0.019248
O O15 0.377845 0.208389 0.881885
O O16 0.773954 0.500000 0.568129
O O17 0.806956 0.614199 0.675647
#
# Coordination Sequence:
#
# PCOD9183689 Si02
#       8
#     8   8   8   8   8   8   8   8
#     4   9  18  33  54  76 110 155 187 226 286 341
#     4   9  17  31  47  78 112 152 184 221 283 336
#     4  11  19  34  55  88 123 152 182 223 290 353
#     4   9  19  30  47  81 123 159 174 217 276 360
#     4  11  23  35  58  86 117 150 191 235 290 343
#     4  10  19  33  55  84 121 150 182 224 291 352
#     4  11  24  42  58  78 110 154 206 253 284 320
#     4  12  21  35  60  87 114 152 191 238 287 348
#
# _framework density 21.828585
#
# number of rings (size 3 to 8) (size 9 to 14) (size 15 to 20)
#    0.000    1.750    3.750    2.250    1.750    0.500 
#    0.000    5.000    0.000    0.750    0.000    1.750 
#    0.000    2.000    0.000    0.000    0.000    0.000 
#
# Total GULP energy -178377.059407 kJ/mol
# GULP energy per Si atom -5574.283106 kJ/mol
# Density = 2.177890 g / cm^3
# Si number density = 21.828585 Si / 1000 Ang^3
#
#
#
# Elastic Constant Matrix: (Units=GPa)
#
#
# Indices 1 2 3 4 5 6 
#
# 1 92.7359 1.1483 13.1600 0.0000 -5.3591 0.0000
# 2 1.1483 61.4804 2.3037 0.0000 -0.9062 0.0000
# 3 13.1600 2.3037 68.0933 0.0000 -4.4867 0.0000
# 4 0.0000 0.0000 0.0000 4.9187 0.0000 -3.4717
# 5 -5.3591 -0.9062 -4.4867 0.0000 25.8630 0.0000
# 6 0.0000 0.0000 0.0000 -3.4717 0.0000 2.1010
#
#
#
# Elastic Compliance Matrix: (Units=1/GPa)
#
#
# Indices 1 2 3 4 5 6 
#
# 1 0.011186 -0.000104 -0.002029 0.000000 0.001962 0.000000
# 2 -0.000104 0.016293 -0.000501 0.000000 0.000462 0.000000
# 3 -0.002029 -0.000501 0.015240 0.000000 0.002206 0.000000
# 4 0.000000 0.000000 0.000000 -1.222726 0.000000 -2.020414
# 5 0.001962 0.000462 0.002206 0.000000 0.039471 0.000000
# 6 0.000000 0.000000 0.000000 -2.020414 0.000000 -2.862542
#
#
# Mechanical properties :
#
#
# Convention : Reuss Voigt Hill
#
# Bulk Modulus (GPa) = 26.70111 28.39264 27.54688
# Shear Modulus (GPa) = -1.25460 20.28974 9.51757
#
# Velocity S-wave (km/s) = -0.75895 3.05208 2.09036
# Velocity P-wave (km/s) = 3.38980 5.04536 4.29804
#
# Compressibility (1/GPa) = 0.03745162
#
# Stress axis : x y z
#
# Youngs Moduli (GPa) = 89.39808 61.37656 65.61615
#
# Poissons Ratio (x) = 0.00638 0.13314
# Poissons Ratio (y) = 0.00930 0.03285
# Poissons Ratio (z) = 0.18139 0.03073
#
# Static dielectric constant tensor:
#      x y z
#    x 1.872530 0.000000 -0.039520 
#    y 0.000000 1.774440 0.000000 
#    z -0.039520 0.000000 1.883590 
# 
# From -- ./inp_files/90431.got.cif
#   From: 2010.05.17/outbox.cif.g08.bks.cpg/sg12_46_cif.got.tgz:90431.got - 2010.06.03 13:09:07.
