data_PCOD9183200
_publ_section_title
;
Structure prediction by ZEFSAII (Michael W. Deem and Ramdas Pophale) SiO2 
 PCOD9183200
Probable space group: C 2/M
;
_chemical_formula_sum "Si O2"
_cell_formula_units_Z 48
_cell_length_a 7.837127
_cell_length_b 17.140729
_cell_length_c 14.112254
_cell_angle_alpha 90.000000
_cell_angle_beta 74.118010
_cell_angle_gamma 90.000000
_cell_volume 1823.390518
_symmetry_space_group_name_H-M "C 2/M"
_symmetry_group_IT_number 12
_symmetry_cell_setting 'monoclinic'
loop_
_space_group_symop_operation_xyz
x,y,z
-x,y,-z
-x,-y,-z
x,-y,z
1/2+x,1/2+y,z
1/2-x,1/2+y,-z
1/2-x,1/2-y,-z
1/2+x,1/2-y,z
loop_
_atom_site_type_symbol
_atom_site_label
_atom_site_fract_x
_atom_site_fract_y
_atom_site_fract_z
Si Si1 0.034440 0.581161 0.884945
Si Si2 0.950876 0.911784 0.787899
Si Si3 0.620509 0.745976 0.112446
Si Si4 0.209719 0.410730 0.438942
Si Si5 0.591561 0.808109 0.309792
Si Si6 0.322773 0.341489 0.614789
O O1 0.961176 0.500000 0.849070
O O2 0.970721 0.668909 0.876937
O O3 0.241861 0.579959 0.840029
O O4 0.000000 0.573886 0.000000
O O5 0.983366 0.837252 0.856466
O O6 0.932221 0.889762 0.677791
O O7 0.025478 0.000000 0.793735
O O8 0.682281 0.758853 0.211839
O O9 0.750000 0.750000 0.000000
O O10 0.258751 0.500000 0.431009
O O11 0.213757 0.376824 0.331349
O O12 0.313215 0.371124 0.509181
O O13 0.000000 0.405883 0.500000
O O14 0.599960 0.745103 0.391952
O O15 0.389607 0.835980 0.326359
#
# Coordination Sequence:
#
# PCOD9183200 Si02
#       6
#     8   8   8   8   8   8
#     4  10  19  33  54  80 106 141 192 248 290 338
#     4  10  20  34  55  80 109 146 194 239 284 344
#     4  11  21  33  52  81 114 149 189 245 300 343
#     4   9  18  33  55  83 112 141 185 241 291 340
#     4  10  21  34  53  82 111 148 185 239 286 349
#     4  10  19  35  57  83 112 146 189 233 294 345
#
# _framework density 26.324586
#
# number of rings (size 3 to 8) (size 9 to 14) (size 15 to 20)
#    0.000    2.000    3.333    1.000    0.000    1.333 
#    0.000    0.000    0.000    7.500    0.000    0.000 
#    0.000    0.000    0.000    0.000    0.000    0.000 
#
# Total GULP energy -133706.544154 kJ/mol
# GULP energy per Si atom -5571.106006 kJ/mol
# Density = 2.626467 g / cm^3
# Si number density = 26.324586 Si / 1000 Ang^3
#
#
#
# Elastic Constant Matrix: (Units=GPa)
#
#
# Indices 1 2 3 4 5 6 
#
# 1 83.0338 17.1824 5.2077 0.0000 7.7686 0.0000
# 2 17.1824 213.9542 18.3474 0.0000 10.5698 0.0000
# 3 5.2077 18.3474 141.3676 0.0000 -26.9057 0.0000
# 4 0.0000 0.0000 0.0000 52.6313 0.0000 -2.0757
# 5 7.7686 10.5698 -26.9057 0.0000 34.2273 0.0000
# 6 0.0000 0.0000 0.0000 -2.0757 0.0000 42.6278
#
#
#
# Elastic Compliance Matrix: (Units=1/GPa)
#
#
# Indices 1 2 3 4 5 6 
#
# 1 0.012583 -0.000754 -0.001017 0.000000 -0.003423 0.000000
# 2 -0.000754 0.004929 -0.001022 0.000000 -0.002154 0.000000
# 3 -0.001017 -0.001022 0.008641 0.000000 0.007339 0.000000
# 4 0.000000 0.000000 0.000000 0.019037 0.000000 0.000927
# 5 -0.003423 -0.002154 0.007339 0.000000 0.036427 0.000000
# 6 0.000000 0.000000 0.000000 0.000927 0.000000 0.023504
#
#
# Mechanical properties :
#
#
# Convention : Reuss Voigt Hill
#
# Bulk Modulus (GPa) = 48.62356 57.75894 53.19125
# Shear Modulus (GPa) = 42.53069 52.40514 47.46791
#
# Velocity S-wave (km/s) = 4.02385 4.46660 4.25099
# Velocity P-wave (km/s) = 6.33240 6.97061 6.65916
#
# Compressibility (1/GPa) = 0.02056616
#
# Stress axis : x y z
#
# Youngs Moduli (GPa) = 79.46987 202.90099 115.73312
#
# Poissons Ratio (x) = 0.15304 0.11771
# Poissons Ratio (y) = 0.05994 0.11826
# Poissons Ratio (z) = 0.08083 0.20733
#
# Static dielectric constant tensor:
#      x y z
#    x 2.190900 0.000000 -0.035390 
#    y 0.000000 2.328150 0.000000 
#    z -0.035390 0.000000 2.381660 
# 
# From -- ./inp_files/195941.got.cif
#   From: 2010.05.17/outbox.cif.g08.bks.cpg/sg12_98_cif.got.tgz:195941.got - 2010.06.03 13:09:07.
