data_PCOD9183311
_publ_section_title
;
Structure prediction by ZEFSAII (Michael W. Deem and Ramdas Pophale) SiO2 
 PCOD9183311
Probable space group: C 2/M
;
_chemical_formula_sum "Si O2"
_cell_formula_units_Z 56
_cell_length_a 30.755341
_cell_length_b 8.891670
_cell_length_c 22.344319
_cell_angle_alpha 90.000000
_cell_angle_beta 147.128960
_cell_angle_gamma 90.000000
_cell_volume 3316.430003
_symmetry_space_group_name_H-M "C 2/M"
_symmetry_group_IT_number 12
_symmetry_cell_setting 'monoclinic'
loop_
_space_group_symop_operation_xyz
x,y,z
-x,y,-z
-x,-y,-z
x,-y,z
1/2+x,1/2+y,z
1/2-x,1/2+y,-z
1/2-x,1/2-y,-z
1/2+x,1/2-y,z
loop_
_atom_site_type_symbol
_atom_site_label
_atom_site_fract_x
_atom_site_fract_y
_atom_site_fract_z
Si Si1 0.750948 0.320896 0.904471
Si Si2 0.216545 0.179153 0.522775
Si Si3 0.547920 0.179711 0.310429
Si Si4 0.487694 0.179383 0.870866
Si Si5 0.335321 0.679399 0.755913
Si Si6 0.873322 0.319844 0.153702
Si Si7 0.659582 0.320894 0.098888
O O1 0.749101 0.500000 0.894809
O O2 0.669991 0.262285 0.841691
O O3 0.773960 0.241689 0.869481
O O4 0.821523 0.284781 0.034155
O O5 0.250000 0.250000 0.500000
O O6 0.124766 0.231178 0.421856
O O7 0.269857 0.242158 0.638402
O O8 0.223359 0.000000 0.527606
O O9 0.535350 0.207882 0.225069
O O10 0.465324 0.220125 0.248103
O O11 0.561065 0.000000 0.332542
O O12 0.421835 0.258068 0.836183
O O13 0.486672 0.000000 0.879019
O O14 0.575545 0.242764 0.985339
O O15 0.333303 0.500000 0.744019
O O16 0.321734 0.710146 0.810171
O O17 0.868239 0.500000 0.156367
O O18 0.651402 0.500000 0.081972
#
# Coordination Sequence:
#
# PCOD9183311 Si02
#       7
#     8   8   8   8   8   8   8
#     4  10  19  33  54  82 113 144 183 226 273 329
#     4  12  24  38  58  82 109 145 188 234 279 324
#     4  10  20  36  57  82 114 147 183 226 275 330
#     4  11  21  35  56  83 114 149 185 225 277 329
#     4  11  24  40  56  78 110 151 193 230 274 329
#     4   9  18  34  54  80 112 145 180 221 274 330
#     4  11  23  37  55  80 114 152 188 227 275 332
#
# _framework density 16.885626999999999
#
# number of rings (size 3 to 8) (size 9 to 14) (size 15 to 20)
#    0.000    1.429    2.857    3.429    0.000    5.714 
#    0.000    0.000    0.000    0.857    0.000    6.000 
#    0.000    0.000    0.000    0.000    0.000    0.000 
#
# Total GULP energy -156468.925420 kJ/mol
# GULP energy per Si atom -5588.175908 kJ/mol
# Density = 1.684719 g / cm^3
# Si number density = 16.885627 Si / 1000 Ang^3
#
#
#
# Elastic Constant Matrix: (Units=GPa)
#
#
# Indices 1 2 3 4 5 6 
#
# 1 143.6493 66.7158 45.5371 0.0000 5.3346 0.0000
# 2 66.7158 72.7208 37.7878 0.0000 -6.3221 0.0000
# 3 45.5371 37.7878 49.5796 0.0000 -0.2230 0.0000
# 4 0.0000 0.0000 0.0000 29.0790 0.0000 3.1189
# 5 5.3346 -6.3221 -0.2230 0.0000 24.2921 0.0000
# 6 0.0000 0.0000 0.0000 3.1189 0.0000 27.2623
#
#
#
# Elastic Compliance Matrix: (Units=1/GPa)
#
#
# Indices 1 2 3 4 5 6 
#
# 1 0.013475 -0.010628 -0.004302 0.000000 -0.005765 0.000000
# 2 -0.010628 0.031989 -0.014572 0.000000 0.010526 0.000000
# 3 -0.004302 -0.014572 0.035215 0.000000 -0.002524 0.000000
# 4 0.000000 0.000000 0.000000 0.034816 0.000000 -0.003983
# 5 -0.005765 0.010526 -0.002524 0.000000 0.045148 0.000000
# 6 0.000000 0.000000 0.000000 -0.003983 0.000000 0.037136
#
#
# Mechanical properties :
#
#
# Convention : Reuss Voigt Hill
#
# Bulk Modulus (GPa) = 46.13478 62.89235 54.51356
# Shear Modulus (GPa) = 18.93872 23.85396 21.39634
#
# Velocity S-wave (km/s) = 3.35265 3.76264 3.56354
# Velocity P-wave (km/s) = 6.50909 7.49690 7.02039
#
# Compressibility (1/GPa) = 0.02167562
#
# Stress axis : x y z
#
# Youngs Moduli (GPa) = 74.20914 31.26093 28.39662
#
# Poissons Ratio (x) = 0.33225 0.12216
# Poissons Ratio (y) = 0.78872 0.41378
# Poissons Ratio (z) = 0.31925 0.45552
#
# Static dielectric constant tensor:
#      x y z
#    x 1.558830 0.000000 0.002650 
#    y 0.000000 1.559770 0.000000 
#    z 0.002650 0.000000 1.546210 
# 
# From -- ./inp_files/288223.got.cif
#   From: 2010.05.17/outbox.cif.g08.bks.cpg/sg12_145_cif.got.tgz:288223.got - 2010.06.03 13:09:07.
