data_PCOD9183034
_publ_section_title
;
Structure prediction by ZEFSAII (Michael W. Deem and Ramdas Pophale) SiO2 
 PCOD9183034
Probable space group: C 2/M
;
_chemical_formula_sum "Si O2"
_cell_formula_units_Z 56
_cell_length_a 19.545561
_cell_length_b 7.911224
_cell_length_c 25.954749
_cell_angle_alpha 90.000000
_cell_angle_beta 40.029971
_cell_angle_gamma 90.000000
_cell_volume 2581.349122
_symmetry_space_group_name_H-M "C 2/M"
_symmetry_group_IT_number 12
_symmetry_cell_setting 'monoclinic'
loop_
_space_group_symop_operation_xyz
x,y,z
-x,y,-z
-x,-y,-z
x,-y,z
1/2+x,1/2+y,z
1/2-x,1/2+y,-z
1/2-x,1/2-y,-z
1/2+x,1/2-y,z
loop_
_atom_site_type_symbol
_atom_site_label
_atom_site_fract_x
_atom_site_fract_y
_atom_site_fract_z
Si Si1 0.805579 0.700836 0.244086
Si Si2 0.163221 0.706198 0.176173
Si Si3 0.706155 0.692901 0.580695
Si Si4 0.416976 0.694410 0.506526
Si Si5 0.384769 0.705426 0.085357
Si Si6 0.457208 0.197080 0.245897
Si Si7 0.417120 0.802939 0.664399
O O1 0.790737 0.500000 0.260120
O O2 0.858390 0.733085 0.158024
O O3 0.882841 0.770568 0.243995
O O4 0.688226 0.780090 0.309680
O O5 0.162756 0.500000 0.174284
O O6 0.286280 0.759362 0.105465
O O7 0.118965 0.752400 0.258210
O O8 0.075295 0.769101 0.186587
O O9 0.673224 0.500000 0.596197
O O10 0.750000 0.750000 0.500000
O O11 0.806753 0.713760 0.560876
O O12 0.608988 0.792192 0.662591
O O13 0.500000 0.767459 0.500000
O O14 0.393812 0.500000 0.534063
O O15 0.484590 0.701692 0.414978
O O16 0.384202 0.500000 0.087178
O O17 0.500000 0.762185 0.000000
O O18 0.470661 0.000000 0.225020
O O19 0.446851 0.000000 0.648740
#
# Coordination Sequence:
#
# PCOD9183034 Si02
#       7
#     8   8   8   8   8   8   8
#     4  10  20  33  53  80 110 143 175 218 274 327
#     4   8  16  32  54  76  98 131 173 212 254 311
#     4  12  25  39  56  78 108 147 190 236 285 334
#     4  11  23  37  53  76 107 141 181 231 282 329
#     4   9  18  35  59  83 107 138 177 220 264 318
#     4  10  20  36  55  76 106 142 181 223 271 328
#     4  10  19  33  54  76 100 136 182 226 267 317
#
# _framework density 21.694081000000001
#
# number of rings (size 3 to 8) (size 9 to 14) (size 15 to 20)
#    0.000    2.000    0.000    5.143    0.000    7.143 
#    0.000    3.571    0.000    0.000    0.000    0.000 
#    0.000    0.000    0.000    0.000    0.000    0.000 
#
# Total GULP energy -156426.402246 kJ/mol
# GULP energy per Si atom -5586.657223 kJ/mol
# Density = 2.164470 g / cm^3
# Si number density = 21.694081 Si / 1000 Ang^3
#
#
#
# Elastic Constant Matrix: (Units=GPa)
#
#
# Indices 1 2 3 4 5 6 
#
# 1 119.6842 -0.5701 24.2645 0.0003 -31.9742 -0.0002
# 2 -0.5701 32.6684 -7.4262 0.0002 -0.3088 -0.0004
# 3 24.2645 -7.4262 93.3985 0.0001 -28.7308 -0.0001
# 4 0.0003 0.0002 0.0001 19.0409 -0.0001 -0.3135
# 5 -31.9742 -0.3088 -28.7308 -0.0001 31.9995 0.0001
# 6 -0.0002 -0.0004 -0.0001 -0.3135 0.0001 19.1611
#
#
#
# Elastic Compliance Matrix: (Units=1/GPa)
#
#
# Indices 1 2 3 4 5 6 
#
# 1 0.011444 0.000499 0.000809 0.000000 0.012166 0.000000
# 2 0.000499 0.031481 0.003620 0.000000 0.004052 0.000001
# 3 0.000809 0.003620 0.015258 0.000000 0.014543 0.000000
# 4 0.000000 0.000000 0.000000 0.052533 0.000000 0.000860
# 5 0.012166 0.004052 0.014543 0.000000 0.056503 0.000000
# 6 0.000000 0.000001 0.000000 0.000860 0.000000 0.052203
#
#
# Mechanical properties :
#
#
# Convention : Reuss Voigt Hill
#
# Bulk Modulus (GPa) = 14.69769 30.92082 22.80926
# Shear Modulus (GPa) = 21.52897 29.33918 25.43407
#
# Velocity S-wave (km/s) = 3.15364 3.68150 3.42774
# Velocity P-wave (km/s) = 4.47775 5.68817 5.11886
#
# Compressibility (1/GPa) = 0.06803790
#
# Stress axis : x y z
#
# Youngs Moduli (GPa) = 87.38290 31.76561 65.53925
#
# Poissons Ratio (x) = -0.01584 -0.05302
# Poissons Ratio (y) = -0.04357 -0.23726
# Poissons Ratio (z) = -0.07070 -0.11499
#
# Static dielectric constant tensor:
#      x y z
#    x 1.862650 0.000000 -0.003650 
#    y 0.000000 1.760240 0.000000 
#    z -0.003650 0.000000 1.767100 
# 
# From -- ./inp_files/231007.got.cif
#   From: 2010.05.17/outbox.cif.g08.bks.cpg/sg12_116_cif.got.tgz:231007.got - 2010.06.03 13:09:07.
