data_PCOD9183263
_publ_section_title
;
Structure prediction by ZEFSAII (Michael W. Deem and Ramdas Pophale) SiO2 
 PCOD9183263
Probable space group: C 2/M
;
_chemical_formula_sum "Si O2"
_cell_formula_units_Z 56
_cell_length_a 14.913759
_cell_length_b 9.548881
_cell_length_c 22.962178
_cell_angle_alpha 90.000000
_cell_angle_beta 130.865230
_cell_angle_gamma 90.000000
_cell_volume 2472.967722
_symmetry_space_group_name_H-M "C 2/M"
_symmetry_group_IT_number 12
_symmetry_cell_setting 'monoclinic'
loop_
_space_group_symop_operation_xyz
x,y,z
-x,y,-z
-x,-y,-z
x,-y,z
1/2+x,1/2+y,z
1/2-x,1/2+y,-z
1/2-x,1/2-y,-z
1/2+x,1/2-y,z
loop_
_atom_site_type_symbol
_atom_site_label
_atom_site_fract_x
_atom_site_fract_y
_atom_site_fract_z
Si Si1 0.409042 0.160405 0.516063
Si Si2 0.273223 0.832515 0.634565
Si Si3 0.028632 0.847955 0.138899
Si Si4 0.297312 0.347024 0.969269
Si Si5 0.903851 0.834620 0.336054
Si Si6 0.012454 0.836899 0.748749
Si Si7 0.377898 0.844315 0.909080
O O1 0.500000 0.153624 0.500000
O O2 0.299773 0.252966 0.446929
O O3 0.483929 0.242240 0.596333
O O4 0.377554 0.000000 0.518381
O O5 0.204052 0.800967 0.666200
O O6 0.402567 0.766446 0.692926
O O7 0.273988 0.000000 0.626508
O O8 0.961681 0.824539 0.171468
O O9 0.099065 0.714176 0.145725
O O10 0.092283 0.000000 0.170524
O O11 0.933075 0.864295 0.047159
O O12 0.239921 0.500000 0.943411
O O13 0.299367 0.267877 0.909615
O O14 0.250000 0.250000 0.000000
O O15 0.892453 0.812104 0.261928
O O16 0.928492 0.000000 0.356308
O O17 0.974810 0.000000 0.724936
O O18 0.326365 0.000000 0.886822
O O19 0.500000 0.854883 0.000000
#
# Coordination Sequence:
#
# PCOD9183263 Si02
#       7
#     8   8   8   8   8   8   8
#     4   9  17  31  54  81 107 139 181 231 280 324
#     4  10  20  35  55  81 110 142 185 230 277 328
#     4   9  19  36  55  75 105 143 178 215 267 327
#     4  10  19  33  54  81 110 139 176 221 269 320
#     4   9  19  36  56  78 108 145 182 226 276 328
#     4  10  21  38  57  77 109 149 186 221 270 332
#     4   9  17  31  53  77 101 132 170 214 261 308
#
# _framework density 22.644856000000001
#
# number of rings (size 3 to 8) (size 9 to 14) (size 15 to 20)
#    0.000    2.571    0.000    1.714    0.000    6.286 
#    2.571    0.000    0.000    0.000    0.000    0.000 
#    0.000    0.000    0.000    0.000    0.000    0.000 
#
# Total GULP energy -156228.578456 kJ/mol
# GULP energy per Si atom -5579.592088 kJ/mol
# Density = 2.259332 g / cm^3
# Si number density = 22.644856 Si / 1000 Ang^3
#
#
#
# Elastic Constant Matrix: (Units=GPa)
#
#
# Indices 1 2 3 4 5 6 
#
# 1 75.4311 43.3980 17.6797 0.0000 -27.9522 0.0000
# 2 43.3980 119.1353 26.5759 0.0000 -14.8467 0.0000
# 3 17.6797 26.5759 79.8369 0.0000 -16.9349 0.0000
# 4 0.0000 0.0000 0.0000 20.5458 0.0000 -4.5943
# 5 -27.9522 -14.8467 -16.9349 0.0000 41.6810 0.0000
# 6 0.0000 0.0000 0.0000 -4.5943 0.0000 26.6966
#
#
#
# Elastic Compliance Matrix: (Units=1/GPa)
#
#
# Indices 1 2 3 4 5 6 
#
# 1 0.021340 -0.006252 -0.000089 0.000000 0.012048 0.000000
# 2 -0.006252 0.011086 -0.002580 0.000000 -0.001292 0.000000
# 3 -0.000089 -0.002580 0.014441 0.000000 0.004889 0.000000
# 4 0.000000 0.000000 0.000000 0.050620 0.000000 0.008711
# 5 0.012048 -0.001292 0.004889 0.000000 0.033597 0.000000
# 6 0.000000 0.000000 0.000000 0.008711 0.000000 0.038957
#
#
# Mechanical properties :
#
#
# Convention : Reuss Voigt Hill
#
# Bulk Modulus (GPa) = 34.45358 49.96785 42.21071
# Shear Modulus (GPa) = 25.30916 30.23465 27.77191
#
# Velocity S-wave (km/s) = 3.34676 3.65796 3.50581
# Velocity P-wave (km/s) = 5.49383 6.32097 5.92186
#
# Compressibility (1/GPa) = 0.02902456
#
# Stress axis : x y z
#
# Youngs Moduli (GPa) = 46.86141 90.20554 69.24735
#
# Poissons Ratio (x) = 0.56399 0.00615
# Poissons Ratio (y) = 0.29299 0.17864
# Poissons Ratio (z) = 0.00416 0.23271
#
# Static dielectric constant tensor:
#      x y z
#    x 1.896800 0.000000 0.022960 
#    y 0.000000 1.858190 0.000000 
#    z 0.022960 0.000000 1.865000 
# 
# From -- ./inp_files/342588.got.cif
#   From: 2010.05.17/outbox.cif.g08.bks.cpg/sg12_172_cif.got.tgz:342588.got - 2010.06.03 13:09:07.
