data_PCOD9183746
_publ_section_title
;
Structure prediction by ZEFSAII (Michael W. Deem and Ramdas Pophale) SiO2 
 PCOD9183746
Probable space group: C 2/M
;
_chemical_formula_sum "Si O2"
_cell_formula_units_Z 48
_cell_length_a 14.581994
_cell_length_b 26.188187
_cell_length_c 9.491942
_cell_angle_alpha 90.000000
_cell_angle_beta 36.925252
_cell_angle_gamma 90.000000
_cell_volume 2177.647347
_symmetry_space_group_name_H-M "C 2/M"
_symmetry_group_IT_number 12
_symmetry_cell_setting 'monoclinic'
loop_
_space_group_symop_operation_xyz
x,y,z
-x,y,-z
-x,-y,-z
x,-y,z
1/2+x,1/2+y,z
1/2-x,1/2+y,-z
1/2-x,1/2-y,-z
1/2+x,1/2-y,z
loop_
_atom_site_type_symbol
_atom_site_label
_atom_site_fract_x
_atom_site_fract_y
_atom_site_fract_z
Si Si1 0.663528 0.055832 0.371055
Si Si2 0.082841 0.940320 0.182509
Si Si3 0.625111 0.134423 0.657079
Si Si4 0.068952 0.839691 0.757442
Si Si5 0.608929 0.276137 0.251816
Si Si6 0.281796 0.126374 0.140568
O O1 0.500000 0.062701 0.500000
O O2 0.678681 0.094897 0.475320
O O3 0.667504 0.000000 0.430997
O O4 0.794125 0.059201 0.095029
O O5 0.181363 0.918846 0.194478
O O6 0.967189 0.895311 0.274200
O O7 0.031301 0.000000 0.264673
O O8 0.752655 0.176825 0.468227
O O9 0.664051 0.116830 0.767388
O O10 0.443227 0.139408 0.865157
O O11 0.983589 0.799560 0.764369
O O12 0.000000 0.840919 0.000000
O O13 0.500000 0.247762 0.500000
O O14 0.678553 0.323541 0.254905
O O15 0.750000 0.250000 0.000000
#
# Coordination Sequence:
#
# PCOD9183746 Si02
#       6
#     8   8   8   8   8   8
#     4  10  19  33  55  89 132 177 228 272 311 376
#     4  10  21  37  59  90 133 180 223 265 321 386
#     4  11  21  38  62  91 127 171 213 268 327 379
#     4  11  23  41  66  97 133 167 218 273 326 386
#     4  11  25  50  73  99 132 170 212 270 343 411
#     4  10  23  41  65  90 133 172 212 269 326 393
#
# _framework density 22.042135999999999
#
# number of rings (size 3 to 8) (size 9 to 14) (size 15 to 20)
#    0.000    1.500    5.000    0.000    0.000    3.000 
#    3.000    4.167    0.000    0.000    0.000    0.000 
#    0.000    0.000    0.000    0.000    0.000    0.000 
#
# Total GULP energy -133803.771287 kJ/mol
# GULP energy per Si atom -5575.157137 kJ/mol
# Density = 2.199197 g / cm^3
# Si number density = 22.042136 Si / 1000 Ang^3
#
#
#
# Elastic Constant Matrix: (Units=GPa)
#
#
# Indices 1 2 3 4 5 6 
#
# 1 163.0020 17.8132 20.4319 0.0000 17.3221 0.0000
# 2 17.8132 34.4554 21.8317 0.0000 2.3677 0.0000
# 3 20.4319 21.8317 106.2744 0.0000 -9.5162 0.0000
# 4 0.0000 0.0000 0.0000 14.2105 0.0000 -1.1443
# 5 17.3221 2.3677 -9.5162 0.0000 48.3578 0.0000
# 6 0.0000 0.0000 0.0000 -1.1443 0.0000 15.8808
#
#
#
# Elastic Compliance Matrix: (Units=1/GPa)
#
#
# Indices 1 2 3 4 5 6 
#
# 1 0.006822 -0.002739 -0.000973 0.000000 -0.002501 0.000000
# 2 -0.002739 0.034909 -0.006830 0.000000 -0.002072 0.000000
# 3 -0.000973 -0.006830 0.011259 0.000000 0.002899 0.000000
# 4 0.000000 0.000000 0.000000 0.070781 0.000000 0.005100
# 5 -0.002501 -0.002072 0.002899 0.000000 0.022247 0.000000
# 6 0.000000 0.000000 0.000000 0.005100 0.000000 0.063337
#
#
# Mechanical properties :
#
#
# Convention : Reuss Voigt Hill
#
# Bulk Modulus (GPa) = 31.34136 47.09836 39.21986
# Shear Modulus (GPa) = 20.74046 31.93347 26.33696
#
# Velocity S-wave (km/s) = 3.07081 3.81037 3.46040
# Velocity P-wave (km/s) = 5.17908 6.38532 5.81357
#
# Compressibility (1/GPa) = 0.03190672
#
# Stress axis : x y z
#
# Youngs Moduli (GPa) = 146.58665 28.64579 88.81500
#
# Poissons Ratio (x) = 0.07845 0.08641
# Poissons Ratio (y) = 0.40143 0.60664
# Poissons Ratio (z) = 0.14262 0.19566
#
# Static dielectric constant tensor:
#      x y z
#    x 1.860130 0.000000 -0.066060 
#    y 0.000000 1.824360 0.000000 
#    z -0.066060 0.000000 1.891820 
# 
# From -- ./inp_files/52777.got.cif
#   From: 2010.05.17/outbox.cif.g08.bks.cpg/sg12_27_cif.got.tgz:52777.got - 2010.06.03 13:09:07.
