data_PCOD9183778
_publ_section_title
;
Structure prediction by ZEFSAII (Michael W. Deem and Ramdas Pophale) SiO2 
 PCOD9183778
Probable space group: C 2/M
;
_chemical_formula_sum "Si O2"
_cell_formula_units_Z 60
_cell_length_a 19.145883
_cell_length_b 9.608541
_cell_length_c 28.529182
_cell_angle_alpha 90.000000
_cell_angle_beta 147.953532
_cell_angle_gamma 90.000000
_cell_volume 2784.806599
_symmetry_space_group_name_H-M "C 2/M"
_symmetry_group_IT_number 12
_symmetry_cell_setting 'monoclinic'
loop_
_space_group_symop_operation_xyz
x,y,z
-x,y,-z
-x,-y,-z
x,-y,z
1/2+x,1/2+y,z
1/2-x,1/2+y,-z
1/2-x,1/2-y,-z
1/2+x,1/2-y,z
loop_
_atom_site_type_symbol
_atom_site_label
_atom_site_fract_x
_atom_site_fract_y
_atom_site_fract_z
Si Si1 0.652408 0.340230 0.606243
Si Si2 0.769504 0.264864 0.444145
Si Si3 0.059660 0.342201 0.634176
Si Si4 0.388871 0.839874 0.233243
Si Si5 0.088809 0.844857 0.096391
Si Si6 0.306154 0.500000 0.534757
Si Si7 0.636810 0.663821 0.872791
Si Si8 0.436302 0.837178 0.078537
O O1 0.500000 0.339818 0.500000
O O2 0.688694 0.500000 0.634536
O O3 0.742479 0.272481 0.617330
O O4 0.646891 0.256712 0.651585
O O5 0.676951 0.377216 0.415463
O O6 0.778605 0.122548 0.478984
O O7 0.912887 0.337875 0.530554
O O8 0.110502 0.500000 0.662057
O O9 0.044876 0.301051 0.679844
O O10 0.236511 0.838461 0.162100
O O11 0.404258 0.738103 0.198631
O O12 0.425823 0.000000 0.242203
O O13 0.048774 0.727428 0.110042
O O14 0.064102 0.000000 0.102497
O O15 0.000000 0.830239 0.000000
O O16 0.605958 0.500000 0.855889
O O17 0.574456 0.747150 0.880581
O O18 0.795598 0.677523 0.971356
O O19 0.455323 0.000000 0.099281
#
# Coordination Sequence:
#
# PCOD9183778 Si02
#       8
#     8   8   8   8   8   4   8   8
#     4   9  18  32  54  80 105 137 178 227 263 306
#     4  10  19  35  56  84 111 141 184 222 268 317
#     4  10  21  35  56  79 110 143 180 226 275 325
#     4  10  21  37  56  79 110 146 186 226 278 333
#     4  10  19  33  56  80 106 142 183 230 274 320
#     4  10  20  32  58  84 110 140 174 222 264 324
#     4  10  20  34  54  82 106 141 183 225 275 332
#     4  10  20  33  55  80 110 137 177 232 279 326
#
# _framework density 21.545480999999999
#
# number of rings (size 3 to 8) (size 9 to 14) (size 15 to 20)
#    0.000    2.133    2.667    0.800    1.867    3.200 
#    0.000    0.000    5.867    0.000    0.000    0.000 
#    0.000    0.000    0.000    0.000    0.000    0.000 
#
# Total GULP energy -167080.258393 kJ/mol
# GULP energy per Si atom -5569.341946 kJ/mol
# Density = 2.149644 g / cm^3
# Si number density = 21.545481 Si / 1000 Ang^3
#
#
#
# Elastic Constant Matrix: (Units=GPa)
#
#
# Indices 1 2 3 4 5 6 
#
# 1 73.0372 82.8578 24.2402 0.0000 -28.3004 0.0000
# 2 82.8578 181.6980 39.7106 0.0000 -48.5833 0.0000
# 3 24.2402 39.7106 46.8609 0.0001 -22.6092 0.0000
# 4 0.0000 0.0000 0.0001 -55.3004 0.0001 51.5553
# 5 -28.3004 -48.5833 -22.6092 0.0001 36.5074 0.0000
# 6 0.0000 0.0000 0.0000 51.5553 0.0000 -33.6868
#
#
#
# Elastic Compliance Matrix: (Units=1/GPa)
#
#
# Indices 1 2 3 4 5 6 
#
# 1 0.029970 -0.011343 -0.002802 0.000000 0.006403 0.000000
# 2 -0.011343 0.013047 -0.001503 0.000000 0.007639 0.000000
# 3 -0.002802 -0.001503 0.031446 0.000000 0.015302 0.000000
# 4 0.000000 0.000000 0.000000 0.042371 0.000000 0.064845
# 5 0.006403 0.007639 0.015302 0.000000 0.051998 0.000000
# 6 0.000000 0.000000 0.000000 0.064845 0.000000 0.069556
#
#
# Mechanical properties :
#
#
# Convention : Reuss Voigt Hill
#
# Bulk Modulus (GPa) = 23.16531 66.13482 44.65007
# Shear Modulus (GPa) = 17.60110 -0.17679 8.71215
#
# Velocity S-wave (km/s) = 2.86130 -0.28676 2.01305
# Velocity P-wave (km/s) = 4.65738 5.53646 5.11584
#
# Compressibility (1/GPa) = 0.04316799
#
# Stress axis : x y z
#
# Youngs Moduli (GPa) = 33.36620 76.64436 31.80064
#
# Poissons Ratio (x) = 0.86935 0.08910
# Poissons Ratio (y) = 0.37846 0.04781
# Poissons Ratio (z) = 0.09349 0.11523
#
# Static dielectric constant tensor:
#      x y z
#    x 1.788000 0.000000 0.025570 
#    y 0.000000 1.735990 0.000000 
#    z 0.025570 0.000000 1.779140 
# 
# From -- ./inp_files/365509.got.cif
#   From: 2010.05.17/outbox.cif.g08.bks.cpg/sg12_183_cif.got.tgz:365509.got - 2010.06.03 13:09:07.
