data_PCOD9183226
_publ_section_title
;
Structure prediction by ZEFSAII (Michael W. Deem and Ramdas Pophale) SiO2 
 PCOD9183226
Probable space group: C 2/M
;
_chemical_formula_sum "Si O2"
_cell_formula_units_Z 56
_cell_length_a 34.470102
_cell_length_b 8.612156
_cell_length_c 12.894594
_cell_angle_alpha 90.000000
_cell_angle_beta 120.267114
_cell_angle_gamma 90.000000
_cell_volume 3306.111543
_symmetry_space_group_name_H-M "C 2/M"
_symmetry_group_IT_number 12
_symmetry_cell_setting 'monoclinic'
loop_
_space_group_symop_operation_xyz
x,y,z
-x,y,-z
-x,-y,-z
x,-y,z
1/2+x,1/2+y,z
1/2-x,1/2+y,-z
1/2-x,1/2-y,-z
1/2+x,1/2-y,z
loop_
_atom_site_type_symbol
_atom_site_label
_atom_site_fract_x
_atom_site_fract_y
_atom_site_fract_z
Si Si1 0.045871 0.312047 0.840218
Si Si2 0.111448 0.686138 0.521518
Si Si3 0.798221 0.814226 0.441635
Si Si4 0.700994 0.314206 0.315513
Si Si5 0.554863 0.811231 0.242983
Si Si6 0.451805 0.313965 0.387890
Si Si7 0.890750 0.312048 0.887702
O O1 0.045603 0.500000 0.834928
O O2 0.052548 0.247359 0.734489
O O3 0.996783 0.262220 0.815787
O O4 0.084030 0.264908 0.973300
O O5 0.110745 0.500000 0.523316
O O6 0.161921 0.744354 0.572627
O O7 0.082721 0.738378 0.381813
O O8 0.087058 0.751150 0.589837
O O9 0.748804 0.754515 0.346018
O O10 0.805770 0.766505 0.572578
O O11 0.799424 0.000000 0.438355
O O12 0.703032 0.500000 0.314912
O O13 0.658956 0.253375 0.194066
O O14 0.579369 0.760579 0.170974
O O15 0.554963 0.000000 0.241783
O O16 0.500000 0.262431 0.500000
O O17 0.451014 0.500000 0.386786
O O18 0.888723 0.500000 0.882718
#
# Coordination Sequence:
#
# PCOD9183226 Si02
#       7
#     8   8   8   8   8   8   8
#     4  10  20  35  55  78 106 145 188 224 263 317
#     4  11  20  33  57  81 107 141 180 223 270 320
#     4  10  20  34  53  79 110 141 177 221 270 318
#     4  10  20  33  52  78 110 144 179 217 264 322
#     4   9  17  30  51  79 109 141 176 218 263 315
#     4  11  23  37  53  75 107 144 184 229 271 311
#     4  10  19  33  54  80 111 144 180 221 268 320
#
# _framework density 16.938327000000001
#
# number of rings (size 3 to 8) (size 9 to 14) (size 15 to 20)
#    0.000    1.857    2.857    2.143    0.000    4.000 
#    0.000    0.714    0.000    2.571    0.000    0.000 
#    0.000    0.000    0.000    0.000    0.000    0.000 
#
# Total GULP energy -156343.319500 kJ/mol
# GULP energy per Si atom -5583.689982 kJ/mol
# Density = 1.689977 g / cm^3
# Si number density = 16.938327 Si / 1000 Ang^3
#
#
#
# Elastic Constant Matrix: (Units=GPa)
#
#
# Indices 1 2 3 4 5 6 
#
# 1 143.9898 32.0050 82.9836 0.0000 19.5202 0.0000
# 2 32.0050 28.6715 31.2984 0.0000 4.4415 0.0000
# 3 82.9836 31.2984 139.8054 0.0000 10.9818 0.0000
# 4 0.0000 0.0000 0.0000 20.8343 0.0000 4.2249
# 5 19.5202 4.4415 10.9818 0.0000 24.2032 0.0000
# 6 0.0000 0.0000 0.0000 4.2249 0.0000 19.5298
#
#
#
# Elastic Compliance Matrix: (Units=1/GPa)
#
#
# Indices 1 2 3 4 5 6 
#
# 1 0.012434 -0.007128 -0.005288 0.000000 -0.006321 0.000000
# 2 -0.007128 0.050606 -0.007073 0.000000 -0.000329 0.000000
# 3 -0.005288 -0.007073 0.011861 0.000000 0.000181 0.000000
# 4 0.000000 0.000000 0.000000 0.050200 0.000000 -0.010860
# 5 -0.006321 -0.000329 0.000181 0.000000 0.046393 0.000000
# 6 0.000000 0.000000 0.000000 -0.010860 0.000000 0.053553
#
#
# Mechanical properties :
#
#
# Convention : Reuss Voigt Hill
#
# Bulk Modulus (GPa) = 27.83690 67.22675 47.53182
# Shear Modulus (GPa) = 18.11615 23.99210 21.05413
#
# Velocity S-wave (km/s) = 3.27392 3.76764 3.52943
# Velocity P-wave (km/s) = 5.54629 7.66173 6.68818
#
# Compressibility (1/GPa) = 0.03592354
#
# Stress axis : x y z
#
# Youngs Moduli (GPa) = 80.42697 19.76064 84.31197
#
# Poissons Ratio (x) = 0.14085 0.44584
# Poissons Ratio (y) = 0.57325 0.59631
# Poissons Ratio (z) = 0.42530 0.13976
#
# Static dielectric constant tensor:
#      x y z
#    x 1.550020 0.000000 0.006830 
#    y 0.000000 1.572380 0.000000 
#    z 0.006830 0.000000 1.555350 
# 
# From -- ./inp_files/180999.got.cif
#   From: 2010.05.17/outbox.cif.g08.bks.cpg/sg12_91_cif.got.tgz:180999.got - 2010.06.03 13:09:07.
