data_PCOD9183397
_publ_section_title
;
Structure prediction by ZEFSAII (Michael W. Deem and Ramdas Pophale) SiO2 
 PCOD9183397
Probable space group: C 2/M
;
_chemical_formula_sum "Si O2"
_cell_formula_units_Z 56
_cell_length_a 14.822532
_cell_length_b 18.782916
_cell_length_c 16.699328
_cell_angle_alpha 90.000000
_cell_angle_beta 135.453815
_cell_angle_gamma 90.000000
_cell_volume 3261.385690
_symmetry_space_group_name_H-M "C 2/M"
_symmetry_group_IT_number 12
_symmetry_cell_setting 'monoclinic'
loop_
_space_group_symop_operation_xyz
x,y,z
-x,y,-z
-x,-y,-z
x,-y,z
1/2+x,1/2+y,z
1/2-x,1/2+y,-z
1/2-x,1/2-y,-z
1/2+x,1/2-y,z
loop_
_atom_site_type_symbol
_atom_site_label
_atom_site_fract_x
_atom_site_fract_y
_atom_site_fract_z
Si Si1 0.763039 0.919086 0.055105
Si Si2 0.141156 0.281012 0.051628
Si Si3 0.251304 0.327520 0.760009
Si Si4 0.601515 0.919176 0.789304
Si Si5 0.982193 0.178383 0.151598
Si Si6 0.627091 0.745951 0.538368
Si Si7 0.101340 0.297009 0.341169
O O1 0.693362 0.857975 0.061981
O O2 0.907066 0.889765 0.135604
O O3 0.756857 0.000000 0.081901
O O4 0.693962 0.918059 0.924942
O O5 0.235128 0.240800 0.172620
O O6 0.000000 0.289082 0.000000
O O7 0.116766 0.227678 0.961629
O O8 0.181248 0.388577 0.764881
O O9 0.398010 0.343789 0.828087
O O10 0.175242 0.304659 0.632705
O O11 0.483297 0.866082 0.729589
O O12 0.559403 0.000000 0.748926
O O13 0.038606 0.229647 0.255844
O O14 0.500000 0.713533 0.500000
O O15 0.752462 0.697557 0.599109
O O16 0.597987 0.780843 0.433759
#
# Coordination Sequence:
#
# PCOD9183397 Si02
#       7
#     8   8   8   8   8   8   8
#     4  11  22  33  50  79 115 148 175 211 267 330
#     4  10  19  33  55  77 103 137 179 226 265 316
#     4  10  20  34  54  83 106 136 180 224 272 316
#     4  11  21  34  53  79 116 146 172 215 273 333
#     4  10  19  34  56  79 107 140 180 225 266 316
#     4  10  20  34  59  85 103 132 185 237 267 313
#     4  10  20  36  56  83 110 141 182 229 270 313
#
# _framework density 17.170615999999999
#
# number of rings (size 3 to 8) (size 9 to 14) (size 15 to 20)
#    0.000    1.714    4.286    1.286    0.000    0.857 
#    0.000    2.857    0.000    5.571    0.000    0.000 
#    0.000    0.000    0.000    0.000    0.000    0.000 
#
# Total GULP energy -156177.817801 kJ/mol
# GULP energy per Si atom -5577.779207 kJ/mol
# Density = 1.713153 g / cm^3
# Si number density = 17.170616 Si / 1000 Ang^3
#
#
#
# Elastic Constant Matrix: (Units=GPa)
#
#
# Indices 1 2 3 4 5 6 
#
# 1 84.5330 19.9803 17.5248 0.0000 16.0679 0.0000
# 2 19.9803 76.1773 18.4085 0.0000 11.1431 0.0000
# 3 17.5248 18.4085 61.6104 0.0000 -6.7629 0.0000
# 4 0.0000 0.0000 0.0000 10.5776 0.0000 -7.6442
# 5 16.0679 11.1431 -6.7629 0.0000 27.1323 0.0000
# 6 0.0000 0.0000 0.0000 -7.6442 0.0000 4.2053
#
#
#
# Elastic Compliance Matrix: (Units=1/GPa)
#
#
# Indices 1 2 3 4 5 6 
#
# 1 0.014978 -0.001348 -0.004905 0.000000 -0.009539 0.000000
# 2 -0.001348 0.015719 -0.005073 0.000000 -0.006922 0.000000
# 3 -0.004905 -0.005073 0.020243 0.000000 0.010034 0.000000
# 4 0.000000 0.000000 0.000000 -0.301405 0.000000 -0.547884
# 5 -0.009539 -0.006922 0.010034 0.000000 0.047850 0.000000
# 6 0.000000 0.000000 0.000000 -0.547884 0.000000 -0.758127
#
#
# Mechanical properties :
#
#
# Convention : Reuss Voigt Hill
#
# Bulk Modulus (GPa) = 35.34929 37.12753 36.23841
# Shear Modulus (GPa) = -5.38410 19.47684 7.04637
#
# Velocity S-wave (km/s) = -1.77270 3.37161 2.02797
# Velocity P-wave (km/s) = 4.05485 6.06850 5.16084
#
# Compressibility (1/GPa) = 0.02828912
#
# Stress axis : x y z
#
# Youngs Moduli (GPa) = 66.76294 63.61598 49.39879
#
# Poissons Ratio (x) = 0.08575 0.24230
# Poissons Ratio (y) = 0.08999 0.25061
# Poissons Ratio (z) = 0.32746 0.32273
#
# Static dielectric constant tensor:
#      x y z
#    x 1.627930 0.000000 0.008920 
#    y 0.000000 1.540110 0.000000 
#    z 0.008920 0.000000 1.598270 
# 
# From -- ./inp_files/145513.got.cif
#   From: 2010.05.17/outbox.cif.g08.bks.cpg/sg12_73_cif.got.tgz:145513.got - 2010.06.03 13:09:07.
