data_PCOD9183172
_publ_section_title
;
Structure prediction by ZEFSAII (Michael W. Deem and Ramdas Pophale) SiO2 
 PCOD9183172
Probable space group: C 2/M
;
_chemical_formula_sum "Si O2"
_cell_formula_units_Z 40
_cell_length_a 18.378432
_cell_length_b 10.577652
_cell_length_c 18.847084
_cell_angle_alpha 90.000000
_cell_angle_beta 35.210603
_cell_angle_gamma 90.000000
_cell_volume 2112.536034
_symmetry_space_group_name_H-M "C 2/M"
_symmetry_group_IT_number 12
_symmetry_cell_setting 'monoclinic'
loop_
_space_group_symop_operation_xyz
x,y,z
-x,y,-z
-x,-y,-z
x,-y,z
1/2+x,1/2+y,z
1/2-x,1/2+y,-z
1/2-x,1/2-y,-z
1/2+x,1/2-y,z
loop_
_atom_site_type_symbol
_atom_site_label
_atom_site_fract_x
_atom_site_fract_y
_atom_site_fract_z
Si Si1 0.364730 0.271219 0.587457
Si Si2 0.421509 0.144984 0.392457
Si Si3 0.402445 0.852841 0.012297
Si Si4 0.606128 0.852863 0.739465
Si Si5 0.702498 0.141884 0.214959
O O1 0.500000 0.333799 0.500000
O O2 0.382818 0.213359 0.495235
O O3 0.234069 0.346104 0.683364
O O4 0.338926 0.170463 0.670632
O O5 0.379425 0.203179 0.350875
O O6 0.573851 0.144469 0.272356
O O7 0.376167 0.000000 0.433937
O O8 0.293156 0.754005 0.117377
O O9 0.360486 0.000000 0.035196
O O10 0.500000 0.855262 0.000000
O O11 0.486589 0.805179 0.878976
O O12 0.578464 0.000000 0.749521
O O13 0.757256 0.000000 0.166825
#
# Coordination Sequence:
#
# PCOD9183172 Si02
#       5
#     8   8   8   8   8
#     4  10  19  33  54  79 107 138 176 224 270 317
#     4   9  19  35  54  77 108 142 177 220 272 322
#     4  10  20  36  56  78 109 146 180 218 267 320
#     4  10  20  35  54  76 106 146 182 218 269 322
#     4  10  20  35  57  84 109 139 180 223 266 317
#
# _framework density 18.934588000000002
#
# number of rings (size 3 to 8) (size 9 to 14) (size 15 to 20)
#    0.000    2.200    2.000    1.200    0.000    4.000 
#    0.000    3.000    0.000    3.600    0.000    0.000 
#    0.000    0.000    0.000    0.000    0.000    0.000 
#
# Total GULP energy -111346.615885 kJ/mol
# GULP energy per Si atom -5567.330794 kJ/mol
# Density = 1.889149 g / cm^3
# Si number density = 18.934588 Si / 1000 Ang^3
#
#
#
# Elastic Constant Matrix: (Units=GPa)
#
#
# Indices 1 2 3 4 5 6 
#
# 1 95.2761 12.0047 26.3550 0.0000 8.6517 0.0000
# 2 12.0047 59.9395 37.6289 0.0000 -6.4823 0.0000
# 3 26.3550 37.6289 102.5726 0.0000 3.1142 0.0000
# 4 0.0000 0.0000 0.0000 6.2709 0.0000 -3.3149
# 5 8.6517 -6.4823 3.1142 0.0000 27.5122 0.0000
# 6 0.0000 0.0000 0.0000 -3.3149 0.0000 19.2630
#
#
#
# Elastic Compliance Matrix: (Units=1/GPa)
#
#
# Indices 1 2 3 4 5 6 
#
# 1 0.011656 -0.001197 -0.002444 0.000000 -0.003671 0.000000
# 2 -0.001197 0.022843 -0.008276 0.000000 0.006695 0.000000
# 3 -0.002444 -0.008276 0.013495 0.000000 -0.002709 0.000000
# 4 0.000000 0.000000 0.000000 0.175424 0.000000 0.030188
# 5 -0.003671 0.006695 -0.002709 0.000000 0.039386 0.000000
# 6 0.000000 0.000000 0.000000 0.030188 0.000000 0.057108
#
#
# Mechanical properties :
#
#
# Convention : Reuss Voigt Hill
#
# Bulk Modulus (GPa) = 41.39019 45.52948 43.45984
# Shear Modulus (GPa) = 14.21268 22.72919 18.47093
#
# Velocity S-wave (km/s) = 2.74272 3.46845 3.12671
# Velocity P-wave (km/s) = 5.65128 6.33546 6.00313
#
# Compressibility (1/GPa) = 0.02416031
#
# Stress axis : x y z
#
# Youngs Moduli (GPa) = 85.79186 43.77802 74.09944
#
# Poissons Ratio (x) = 0.05240 0.18113
# Poissons Ratio (y) = 0.10269 0.61321
# Poissons Ratio (z) = 0.20971 0.36229
#
# Static dielectric constant tensor:
#      x y z
#    x 1.683320 0.000000 0.022850 
#    y 0.000000 1.647320 0.000000 
#    z 0.022850 0.000000 1.698000 
# 
# From -- ./inp_files/71246.got.cif
#   From: 2010.05.17/outbox.cif.g08.bks.cpg/sg12_36_cif.got.tgz:71246.got - 2010.06.03 13:09:07.
