data_PCOD9183050
_publ_section_title
;
Structure prediction by ZEFSAII (Michael W. Deem and Ramdas Pophale) SiO2 
 PCOD9183050
Probable space group: C 2/M
;
_chemical_formula_sum "Si O2"
_cell_formula_units_Z 56
_cell_length_a 12.878638
_cell_length_b 13.534090
_cell_length_c 17.393751
_cell_angle_alpha 90.000000
_cell_angle_beta 101.363512
_cell_angle_gamma 90.000000
_cell_volume 2972.310341
_symmetry_space_group_name_H-M "C 2/M"
_symmetry_group_IT_number 12
_symmetry_cell_setting 'monoclinic'
loop_
_space_group_symop_operation_xyz
x,y,z
-x,y,-z
-x,-y,-z
x,-y,z
1/2+x,1/2+y,z
1/2-x,1/2+y,-z
1/2-x,1/2-y,-z
1/2+x,1/2-y,z
loop_
_atom_site_type_symbol
_atom_site_label
_atom_site_fract_x
_atom_site_fract_y
_atom_site_fract_z
Si Si1 0.117823 0.281643 0.329620
Si Si2 0.091531 0.729082 0.788644
Si Si3 0.420586 0.175934 0.371166
Si Si4 0.271101 0.115136 0.791277
Si Si5 0.506727 0.116877 0.089086
Si Si6 0.892888 0.889649 0.432979
Si Si7 0.263195 0.611440 0.561303
O O1 0.192023 0.349549 0.288329
O O2 0.175876 0.192642 0.379668
O O3 0.025907 0.240449 0.258745
O O4 0.045589 0.341621 0.380160
O O5 0.174960 0.816684 0.804488
O O6 0.125354 0.657912 0.721507
O O7 0.072188 0.673252 0.865093
O O8 0.406345 0.293856 0.382799
O O9 0.704740 0.372157 0.522562
O O10 0.357483 0.123007 0.428942
O O11 0.374580 0.128750 0.860058
O O12 0.243915 0.000000 0.787041
O O13 0.482525 0.000000 0.088068
O O14 0.500000 0.150300 0.000000
O O15 0.000000 0.890515 0.500000
O O16 0.883752 0.000000 0.397354
O O17 0.299497 0.500000 0.583606
#
# Coordination Sequence:
#
# PCOD9183050 Si02
#       7
#     8   8   8   8   8   8   8
#     4   9  18  35  49  75 102 137 174 217 262 311
#     4   9  19  32  55  80 105 135 177 213 261 303
#     4  10  20  33  54  75 107 132 178 222 262 304
#     4  10  19  34  54  78 108 138 172 213 263 314
#     4   9  19  36  58  82 109 141 174 209 255 315
#     4  10  19  33  54  76 102 141 180 218 268 317
#     4  11  21  34  52  76 104 139 178 222 269 312
#
# _framework density 18.840563
#
# number of rings (size 3 to 8) (size 9 to 14) (size 15 to 20)
#    0.857    1.429    2.857    0.429    0.000    2.857 
#    0.000    0.000    0.000    0.857    0.000    0.000 
#    0.000    0.000    0.000    0.000    0.000    0.000 
#
# Total GULP energy -156060.970019 kJ/mol
# GULP energy per Si atom -5573.606072 kJ/mol
# Density = 1.879768 g / cm^3
# Si number density = 18.840563 Si / 1000 Ang^3
#
#
#
# Elastic Constant Matrix: (Units=GPa)
#
#
# Indices 1 2 3 4 5 6 
#
# 1 89.0113 28.2950 24.1408 0.0000 -19.8495 0.0000
# 2 28.2950 60.4728 27.7260 0.0000 -11.9309 0.0000
# 3 24.1408 27.7260 95.2958 0.0000 -17.7360 0.0000
# 4 0.0000 0.0000 0.0000 22.3520 0.0000 -0.4085
# 5 -19.8495 -11.9309 -17.7360 0.0000 24.9896 0.0000
# 6 0.0000 0.0000 0.0000 -0.4085 0.0000 24.0043
#
#
#
# Elastic Compliance Matrix: (Units=1/GPa)
#
#
# Indices 1 2 3 4 5 6 
#
# 1 0.015010 -0.004918 -0.000679 0.000000 0.009092 0.000000
# 2 -0.004918 0.021495 -0.004407 0.000000 0.003228 0.000000
# 3 -0.000679 -0.004407 0.013200 0.000000 0.006724 0.000000
# 4 0.000000 0.000000 0.000000 0.044753 0.000000 0.000762
# 5 0.009092 0.003228 0.006724 0.000000 0.053552 0.000000
# 6 0.000000 0.000000 0.000000 0.000762 0.000000 0.041672
#
#
# Mechanical properties :
#
#
# Convention : Reuss Voigt Hill
#
# Bulk Modulus (GPa) = 33.67511 45.01149 39.34330
# Shear Modulus (GPa) = 22.76990 25.24374 24.00682
#
# Velocity S-wave (km/s) = 3.48020 3.66438 3.57348
# Velocity P-wave (km/s) = 5.83623 6.46886 6.16067
#
# Compressibility (1/GPa) = 0.02969552
#
# Stress axis : x y z
#
# Youngs Moduli (GPa) = 66.62424 46.52266 75.76034
#
# Poissons Ratio (x) = 0.22878 0.05147
# Poissons Ratio (y) = 0.32763 0.33390
# Poissons Ratio (z) = 0.04526 0.20504
#
# Static dielectric constant tensor:
#      x y z
#    x 1.720390 0.000000 0.001780 
#    y 0.000000 1.636260 0.000000 
#    z 0.001780 0.000000 1.675390 
# 
# From -- ./inp_files/304244.got.cif
#   From: 2010.05.17/outbox.cif.g08.bks.cpg/sg12_153_cif.got.tgz:304244.got - 2010.06.03 13:09:07.
