data_PCOD9183248
_publ_section_title
;
Structure prediction by ZEFSAII (Michael W. Deem and Ramdas Pophale) SiO2 
 PCOD9183248
Probable space group: C 2/M
;
_chemical_formula_sum "Si O2"
_cell_formula_units_Z 64
_cell_length_a 26.443840
_cell_length_b 17.646399
_cell_length_c 23.159310
_cell_angle_alpha 90.000000
_cell_angle_beta 163.197448
_cell_angle_gamma 90.000000
_cell_volume 3124.035204
_symmetry_space_group_name_H-M "C 2/M"
_symmetry_group_IT_number 12
_symmetry_cell_setting 'monoclinic'
loop_
_space_group_symop_operation_xyz
x,y,z
-x,y,-z
-x,-y,-z
x,-y,z
1/2+x,1/2+y,z
1/2-x,1/2+y,-z
1/2-x,1/2-y,-z
1/2+x,1/2-y,z
loop_
_atom_site_type_symbol
_atom_site_label
_atom_site_fract_x
_atom_site_fract_y
_atom_site_fract_z
Si Si1 0.334439 0.916488 0.210826
Si Si2 0.546253 0.174911 0.985828
Si Si3 0.255243 0.413959 0.684991
Si Si4 0.909440 0.186255 0.633324
Si Si5 0.553963 0.911177 0.232553
Si Si6 0.837736 0.201844 0.685029
Si Si7 0.293329 0.193952 0.264159
Si Si8 0.262028 0.588447 0.028537
O O1 0.544132 0.915170 0.447646
O O2 0.256439 0.850934 0.164938
O O3 0.274466 0.000000 0.165610
O O4 0.288901 0.908776 0.094331
O O5 0.726586 0.220766 0.187253
O O6 0.500000 0.151814 0.000000
O O7 0.526590 0.108731 0.918000
O O8 0.420151 0.240151 0.821140
O O9 0.312630 0.500000 0.758369
O O10 0.326733 0.378675 0.703867
O O11 0.290500 0.355927 0.775968
O O12 0.734718 0.134040 0.438554
O O13 0.934689 0.200830 0.729290
O O14 0.852995 0.263247 0.539345
O O15 0.072709 0.143556 0.784011
O O16 0.588851 0.000000 0.276996
O O17 0.405027 0.889386 0.115888
O O18 0.500000 0.193446 0.500000
O O19 0.305402 0.500000 0.089591
#
# Coordination Sequence:
#
# PCOD9183248 Si02
#       8
#     8   8   8   8   8   8   8   8
#     4   9  18  32  53  83 119 156 193 236 289 346
#     4  11  22  41  61  83 121 153 191 249 295 349
#     4  10  19  33  54  80 116 157 195 239 287 346
#     4  10  21  38  62  87 123 156 196 247 298 354
#     4  10  23  42  64  90 118 154 199 247 304 360
#     4  10  21  37  56  87 120 156 200 242 292 357
#     4  10  20  35  56  83 113 154 199 236 284 349
#     4  10  20  36  60  89 120 153 195 246 297 356
#
# _framework density 20.486325000000001
#
# number of rings (size 3 to 8) (size 9 to 14) (size 15 to 20)
#    0.000    2.000    1.250    2.250    0.000    5.750 
#    0.000    8.750    0.000    0.375    0.000    0.000 
#    0.000    0.000    0.000    0.000    0.000    0.000 
#
# Total GULP energy -178753.602516 kJ/mol
# GULP energy per Si atom -5586.050079 kJ/mol
# Density = 2.043970 g / cm^3
# Si number density = 20.486325 Si / 1000 Ang^3
#
#
#
# Elastic Constant Matrix: (Units=GPa)
#
#
# Indices 1 2 3 4 5 6 
#
# 1 70.7265 12.0854 16.3531 -0.0092 -9.9729 -0.0046
# 2 12.0854 38.9902 19.9821 -0.0068 6.9591 -0.0033
# 3 16.3531 19.9821 66.1204 -0.0142 -2.0781 -0.0104
# 4 -0.0092 -0.0068 -0.0142 26.7051 -0.0110 -3.7991
# 5 -9.9729 6.9591 -2.0781 -0.0110 23.0727 -0.0051
# 6 -0.0046 -0.0033 -0.0104 -3.7991 -0.0051 23.5834
#
#
#
# Elastic Compliance Matrix: (Units=1/GPa)
#
#
# Indices 1 2 3 4 5 6 
#
# 1 0.016854 -0.005680 -0.002175 0.000008 0.008802 0.000005
# 2 -0.005680 0.034756 -0.009532 -0.000004 -0.013797 -0.000004
# 3 -0.002175 -0.009532 0.018656 0.000009 0.003615 0.000009
# 4 0.000008 -0.000004 0.000009 0.038324 0.000025 0.006174
# 5 0.008802 -0.013797 0.003615 0.000025 0.051633 0.000017
# 6 0.000005 -0.000004 0.000009 0.006174 0.000017 0.043397
#
#
# Mechanical properties :
#
#
# Convention : Reuss Voigt Hill
#
# Bulk Modulus (GPa) = 28.17652 30.29760 29.23706
# Shear Modulus (GPa) = 19.98198 23.16667 21.57433
#
# Velocity S-wave (km/s) = 3.12650 3.36644 3.24868
# Velocity P-wave (km/s) = 5.17851 5.47100 5.32676
#
# Compressibility (1/GPa) = 0.03549054
#
# Stress axis : x y z
#
# Youngs Moduli (GPa) = 59.33425 28.77213 53.60153
#
# Poissons Ratio (x) = 0.16344 0.11658
# Poissons Ratio (y) = 0.33704 0.51094
# Poissons Ratio (z) = 0.12905 0.27426
#
# Static dielectric constant tensor:
#      x y z
#    x 1.716280 0.000000 0.002150 
#    y 0.000000 1.724880 0.000000 
#    z 0.002150 0.000000 1.757790 
# 
# From -- ./inp_files/326166.got.cif
#   From: 2010.05.17/outbox.cif.g08.bks.cpg/sg12_164_cif.got.tgz:326166.got - 2010.06.03 13:09:07.
