data_PCOD9183770
_publ_section_title
;
Structure prediction by ZEFSAII (Michael W. Deem and Ramdas Pophale) SiO2 
 PCOD9183770
Probable space group: C 2/M
;
_chemical_formula_sum "Si O2"
_cell_formula_units_Z 64
_cell_length_a 13.121260
_cell_length_b 13.476061
_cell_length_c 19.986237
_cell_angle_alpha 90.000000
_cell_angle_beta 69.895376
_cell_angle_gamma 90.000000
_cell_volume 3318.683965
_symmetry_space_group_name_H-M "C 2/M"
_symmetry_group_IT_number 12
_symmetry_cell_setting 'monoclinic'
loop_
_space_group_symop_operation_xyz
x,y,z
-x,y,-z
-x,-y,-z
x,-y,z
1/2+x,1/2+y,z
1/2-x,1/2+y,-z
1/2-x,1/2-y,-z
1/2+x,1/2-y,z
loop_
_atom_site_type_symbol
_atom_site_label
_atom_site_fract_x
_atom_site_fract_y
_atom_site_fract_z
Si Si1 0.384116 0.680724 0.237661
Si Si2 0.666020 0.882016 0.467157
Si Si3 0.123278 0.117714 0.984447
Si Si4 0.118567 0.886681 0.141654
Si Si5 0.014891 0.690006 0.389508
Si Si6 0.487430 0.112630 0.246656
Si Si7 0.214240 0.689643 0.163454
Si Si8 0.094741 0.885862 0.616078
O O1 0.490251 0.633903 0.178591
O O2 0.408413 0.798529 0.241041
O O3 0.280445 0.663516 0.215101
O O4 0.377834 0.632228 0.312103
O O5 0.588119 0.848538 0.544547
O O6 0.619574 0.831387 0.410675
O O7 0.793241 0.862727 0.448108
O O8 0.653669 0.000000 0.460995
O O9 0.207630 0.169976 0.916714
O O10 0.125611 0.000000 0.968231
O O11 0.148213 0.129032 0.057220
O O12 0.000000 0.153040 0.000000
O O13 0.178923 0.804656 0.171845
O O14 0.141719 0.000000 0.155089
O O15 0.996390 0.806717 0.382172
O O16 0.012980 0.635694 0.318828
O O17 0.602675 0.128631 0.183763
O O18 0.448485 0.000000 0.247026
O O19 0.064556 0.000000 0.611993
#
# Coordination Sequence:
#
# PCOD9183770 Si02
#       8
#     8   8   8   8   8   8   8   8
#     4  10  21  35  53  76 105 137 172 214 258 306
#     4  10  19  33  56  80 103 138 179 217 260 309
#     4  10  19  33  56  80 103 134 173 215 258 304
#     4  10  21  36  54  78 106 138 172 211 261 310
#     4  10  19  34  54  78 107 136 172 218 261 307
#     4  10  21  35  53  78 105 134 171 214 260 307
#     4  11  21  35  56  79 104 136 174 216 256 306
#     4  10  21  35  53  77 106 139 176 215 258 307
#
# _framework density 19.284752000000001
#
# number of rings (size 3 to 8) (size 9 to 14) (size 15 to 20)
#    0.000    1.875    1.250    3.750    0.000    3.000 
#    0.000    1.250    0.000    9.375    0.000    0.000 
#    0.000    0.000    0.000    0.000    0.000    0.000 
#
# Total GULP energy -178728.265098 kJ/mol
# GULP energy per Si atom -5585.258284 kJ/mol
# Density = 1.924086 g / cm^3
# Si number density = 19.284752 Si / 1000 Ang^3
#
#
#
# Elastic Constant Matrix: (Units=GPa)
#
#
# Indices 1 2 3 4 5 6 
#
# 1 22.6816 4.6904 -7.9470 0.0000 -2.7243 0.0000
# 2 4.6904 88.4282 -1.0608 0.0000 -4.9536 0.0000
# 3 -7.9470 -1.0608 37.8462 0.0000 -6.6262 0.0000
# 4 0.0000 0.0000 0.0000 19.6446 0.0000 -4.0761
# 5 -2.7243 -4.9536 -6.6262 0.0000 12.9821 0.0000
# 6 0.0000 0.0000 0.0000 -4.0761 0.0000 14.5412
#
#
#
# Elastic Compliance Matrix: (Units=1/GPa)
#
#
# Indices 1 2 3 4 5 6 
#
# 1 0.051291 -0.001594 0.013730 0.000000 0.017163 0.000000
# 2 -0.001594 0.011655 0.000782 0.000000 0.004512 0.000000
# 3 0.013730 0.000782 0.032817 0.000000 0.019930 0.000000
# 4 0.000000 0.000000 0.000000 0.054048 0.000000 0.015150
# 5 0.017163 0.004512 0.019930 0.000000 0.092525 0.000000
# 6 0.000000 0.000000 0.000000 0.015150 0.000000 0.073017
#
#
# Mechanical properties :
#
#
# Convention : Reuss Voigt Hill
#
# Bulk Modulus (GPa) = 8.22381 15.59124 11.90752
# Shear Modulus (GPa) = 15.14923 19.65181 17.40052
#
# Velocity S-wave (km/s) = 2.80582 3.19569 3.00708
# Velocity P-wave (km/s) = 3.84324 4.66036 4.27138
#
# Compressibility (1/GPa) = 0.12159820
#
# Stress axis : x y z
#
# Youngs Moduli (GPa) = 19.49677 85.79787 30.47201
#
# Poissons Ratio (x) = 0.13680 -0.41839
# Poissons Ratio (y) = 0.03109 -0.02382
# Poissons Ratio (z) = -0.26770 -0.06708
#
# Static dielectric constant tensor:
#      x y z
#    x 1.653550 0.000000 -0.013200 
#    y 0.000000 1.665360 0.000000 
#    z -0.013200 0.000000 1.676940 
# 
# From -- ./inp_files/309865.got.cif
#   From: 2010.05.17/outbox.cif.g08.bks.cpg/sg12_155_cif.got.tgz:309865.got - 2010.06.03 13:09:07.
