data_PCOD9183682
_publ_section_title
;
Structure prediction by ZEFSAII (Michael W. Deem and Ramdas Pophale) SiO2 
 PCOD9183682
Probable space group: C 2/M
;
_chemical_formula_sum "Si O2"
_cell_formula_units_Z 56
_cell_length_a 15.461927
_cell_length_b 18.912548
_cell_length_c 17.681269
_cell_angle_alpha 90.000000
_cell_angle_beta 33.565916
_cell_angle_gamma 90.000000
_cell_volume 2858.712717
_symmetry_space_group_name_H-M "C 2/M"
_symmetry_group_IT_number 12
_symmetry_cell_setting 'monoclinic'
loop_
_space_group_symop_operation_xyz
x,y,z
-x,y,-z
-x,-y,-z
x,-y,z
1/2+x,1/2+y,z
1/2-x,1/2+y,-z
1/2-x,1/2-y,-z
1/2+x,1/2-y,z
loop_
_atom_site_type_symbol
_atom_site_label
_atom_site_fract_x
_atom_site_fract_y
_atom_site_fract_z
Si Si1 0.075034 0.084648 0.677537
Si Si2 0.324436 0.581515 0.141006
Si Si3 0.983886 0.782129 0.835970
Si Si4 0.318409 0.201783 0.837728
Si Si5 0.101289 0.083426 0.352459
Si Si6 0.160541 0.704747 0.834217
Si Si7 0.345001 0.917795 0.577847
O O1 0.255493 0.104652 0.566992
O O2 0.989872 0.140443 0.794177
O O3 0.005139 0.095020 0.645089
O O4 0.057372 0.000000 0.708335
O O5 0.327093 0.500000 0.115877
O O6 0.199196 0.623803 0.182822
O O7 0.277424 0.584626 0.263144
O O8 0.500000 0.611328 0.000000
O O9 0.961593 0.726121 0.784214
O O10 0.119649 0.752092 0.790825
O O11 0.831945 0.785059 0.999598
O O12 0.288745 0.252719 0.788893
O O13 0.258338 0.129794 0.238929
O O14 0.000000 0.101116 0.500000
O O15 0.138725 0.000000 0.326981
O O16 0.000000 0.697351 0.000000
O O17 0.500000 0.882690 0.500000
O O18 0.385795 0.000000 0.533120
#
# Coordination Sequence:
#
# PCOD9183682 Si02
#       7
#     8   8   8   8   8   8   8
#     4  10  19  36  63  87 112 153 203 242 286 354
#     4  10  19  33  55  84 117 151 189 234 289 350
#     4  10  20  34  57  86 116 155 193 236 294 347
#     4  10  19  34  54  82 120 155 188 233 297 349
#     4  10  22  42  64  84 114 158 202 246 290 337
#     4  10  20  38  61  86 120 155 189 241 295 348
#     4   9  18  33  54  82 114 144 176 225 291 348
#
# _framework density 19.589236
#
# number of rings (size 3 to 8) (size 9 to 14) (size 15 to 20)
#    0.000    2.143    1.429    3.000    0.000    2.000 
#    2.571    4.286    0.000    0.429    0.000    0.000 
#    0.000    0.000    0.000    0.000    0.000    0.000 
#
# Total GULP energy -155943.972701 kJ/mol
# GULP energy per Si atom -5569.427596 kJ/mol
# Density = 1.954465 g / cm^3
# Si number density = 19.589236 Si / 1000 Ang^3
#
#
#
# Elastic Constant Matrix: (Units=GPa)
#
#
# Indices 1 2 3 4 5 6 
#
# 1 117.6290 46.4000 19.0395 0.0005 16.6127 -0.0001
# 2 46.4000 81.0447 18.3719 -0.0004 7.2282 0.0000
# 3 19.0395 18.3719 28.8703 -0.0011 0.5180 0.0004
# 4 0.0005 -0.0004 -0.0011 7.5294 -0.0002 7.1590
# 5 16.6127 7.2282 0.5180 -0.0002 17.1143 0.0001
# 6 -0.0001 0.0000 0.0004 7.1590 0.0001 30.4399
#
#
#
# Elastic Compliance Matrix: (Units=1/GPa)
#
#
# Indices 1 2 3 4 5 6 
#
# 1 0.012812 -0.005335 -0.004874 -0.000003 -0.010036 0.000001
# 2 -0.005335 0.017243 -0.007421 0.000000 -0.001879 0.000000
# 3 -0.004874 -0.007421 0.042456 0.000009 0.006580 -0.000003
# 4 -0.000003 0.000000 0.000009 0.171067 0.000005 -0.040233
# 5 -0.010036 -0.001879 0.006580 0.000005 0.068767 -0.000001
# 6 0.000001 0.000000 -0.000003 -0.040233 -0.000001 0.042314
#
#
# Mechanical properties :
#
#
# Convention : Reuss Voigt Hill
#
# Bulk Modulus (GPa) = 26.84464 43.90741 35.37602
# Shear Modulus (GPa) = 12.42741 20.59889 16.51315
#
# Velocity S-wave (km/s) = 2.52146 3.24627 2.90655
# Velocity P-wave (km/s) = 4.71281 6.04266 5.41868
#
# Compressibility (1/GPa) = 0.03725138
#
# Stress axis : x y z
#
# Youngs Moduli (GPa) = 78.05104 57.99394 23.55372
#
# Poissons Ratio (x) = 0.30941 0.11480
# Poissons Ratio (y) = 0.41642 0.17478
# Poissons Ratio (z) = 0.38043 0.43035
#
# Static dielectric constant tensor:
#      x y z
#    x 1.735730 0.000000 -0.015370 
#    y 0.000000 1.714670 0.000000 
#    z -0.015370 0.000000 1.711330 
# 
# From -- ./inp_files/271374.got.cif
#   From: 2010.05.17/outbox.cif.g08.bks.cpg/sg12_136_cif.got.tgz:271374.got - 2010.06.03 13:09:07.
