data_PCOD9183077
_publ_section_title
;
Structure prediction by ZEFSAII (Michael W. Deem and Ramdas Pophale) SiO2 
 PCOD9183077
Probable space group: C 2/M
;
_chemical_formula_sum "Si O2"
_cell_formula_units_Z 56
_cell_length_a 19.698994
_cell_length_b 7.429473
_cell_length_c 19.688541
_cell_angle_alpha 90.000000
_cell_angle_beta 120.503006
_cell_angle_gamma 90.000000
_cell_volume 2482.690356
_symmetry_space_group_name_H-M "C 2/M"
_symmetry_group_IT_number 12
_symmetry_cell_setting 'monoclinic'
loop_
_space_group_symop_operation_xyz
x,y,z
-x,y,-z
-x,-y,-z
x,-y,z
1/2+x,1/2+y,z
1/2-x,1/2+y,-z
1/2-x,1/2-y,-z
1/2+x,1/2-y,z
loop_
_atom_site_type_symbol
_atom_site_label
_atom_site_fract_x
_atom_site_fract_y
_atom_site_fract_z
Si Si1 0.559992 0.212163 0.587013
Si Si2 0.680819 0.785795 0.412735
Si Si3 0.509178 0.780780 0.313322
Si Si4 0.739008 0.283124 0.680049
Si Si5 0.652201 0.780021 0.145614
Si Si6 0.996016 0.279877 0.150397
Si Si7 0.668597 0.215375 0.998888
O O1 0.500000 0.287289 0.500000
O O2 0.550796 0.282578 0.659407
O O3 0.651071 0.230552 0.615698
O O4 0.541285 0.000000 0.581599
O O5 0.750000 0.750000 0.500000
O O6 0.593871 0.724546 0.386548
O O7 0.704277 0.716884 0.350781
O O8 0.674650 0.000000 0.404023
O O9 0.503109 0.720441 0.232453
O O10 0.504271 0.000000 0.306635
O O11 0.740989 0.500000 0.681684
O O12 0.775044 0.222781 0.769700
O O13 0.569938 0.725249 0.140316
O O14 0.665117 0.718760 0.075028
O O15 0.650766 0.000000 0.144065
O O16 0.997958 0.500000 0.151390
O O17 0.911047 0.221443 0.078946
O O18 0.662048 0.000000 0.998922
O O19 0.750000 0.250000 0.000000
#
# Coordination Sequence:
#
# PCOD9183077 Si02
#       7
#     8   8   8   8   8   8   8
#     4  10  21  35  51  74 106 142 177 215 260 311
#     4  10  19  33  54  77 102 133 172 218 261 303
#     4   9  17  31  51  74 101 135 174 214 254 301
#     4  10  20  34  54  78 105 138 173 215 266 312
#     4   9  17  33  54  79 107 135 174 220 259 301
#     4   9  16  31  55  79 101 133 178 216 250 301
#     4  10  21  34  55  84 110 137 170 212 260 311
#
# _framework density 22.556177000000002
#
# number of rings (size 3 to 8) (size 9 to 14) (size 15 to 20)
#    0.000    2.429    1.429    1.286    2.000    3.714 
#    0.000    0.714    0.000    3.429    0.000    0.000 
#    0.000    0.000    0.000    0.000    0.000    0.000 
#
# Total GULP energy -156294.057083 kJ/mol
# GULP energy per Si atom -5581.930610 kJ/mol
# Density = 2.250484 g / cm^3
# Si number density = 22.556177 Si / 1000 Ang^3
#
#
#
# Elastic Constant Matrix: (Units=GPa)
#
#
# Indices 1 2 3 4 5 6 
#
# 1 83.4239 -0.6027 18.9139 0.0000 -0.5428 0.0000
# 2 -0.6027 64.6389 8.5942 0.0000 -8.2711 0.0000
# 3 18.9139 8.5942 118.3678 0.0000 5.8834 0.0000
# 4 0.0000 0.0000 0.0000 2.1490 0.0000 1.2879
# 5 -0.5428 -8.2711 5.8834 0.0000 38.0786 0.0000
# 6 0.0000 0.0000 0.0000 1.2879 0.0000 11.6842
#
#
#
# Elastic Compliance Matrix: (Units=1/GPa)
#
#
# Indices 1 2 3 4 5 6 
#
# 1 0.012460 0.000466 -0.002054 0.000000 0.000596 0.000000
# 2 0.000466 0.016143 -0.001432 0.000000 0.003734 0.000000
# 3 -0.002054 -0.001432 0.008966 0.000000 -0.001726 0.000000
# 4 0.000000 0.000000 0.000000 0.498236 0.000000 -0.054916
# 5 0.000596 0.003734 -0.001726 0.000000 0.027348 0.000000
# 6 0.000000 0.000000 0.000000 -0.054916 0.000000 0.091638
#
#
# Mechanical properties :
#
#
# Convention : Reuss Voigt Hill
#
# Bulk Modulus (GPa) = 31.71822 35.58236 33.65029
# Shear Modulus (GPa) = 7.44776 26.35073 16.89925
#
# Velocity S-wave (km/s) = 1.81908 3.42164 2.74013
# Velocity P-wave (km/s) = 4.30168 5.60530 4.99619
#
# Compressibility (1/GPa) = 0.03152762
#
# Stress axis : x y z
#
# Youngs Moduli (GPa) = 80.25694 61.94577 111.52911
#
# Poissons Ratio (x) = -0.02884 0.22913
# Poissons Ratio (y) = -0.03737 0.15972
# Poissons Ratio (z) = 0.16488 0.08871
#
# Static dielectric constant tensor:
#      x y z
#    x 2.014150 0.000000 0.196970 
#    y 0.000000 1.891820 0.000000 
#    z 0.196970 0.000000 2.020530 
# 
# From -- ./inp_files/276670.got.cif
#   From: 2010.05.17/outbox.cif.g08.bks.cpg/sg12_139_cif.got.tgz:276670.got - 2010.06.03 13:09:07.
