data_PCOD9183069
_publ_section_title
;
Structure prediction by ZEFSAII (Michael W. Deem and Ramdas Pophale) SiO2 
 PCOD9183069
Probable space group: C 2/M
;
_chemical_formula_sum "Si O2"
_cell_formula_units_Z 56
_cell_length_a 15.091595
_cell_length_b 7.689298
_cell_length_c 23.962719
_cell_angle_alpha 90.000000
_cell_angle_beta 113.807313
_cell_angle_gamma 90.000000
_cell_volume 2544.107318
_symmetry_space_group_name_H-M "C 2/M"
_symmetry_group_IT_number 12
_symmetry_cell_setting 'monoclinic'
loop_
_space_group_symop_operation_xyz
x,y,z
-x,y,-z
-x,-y,-z
x,-y,z
1/2+x,1/2+y,z
1/2-x,1/2+y,-z
1/2-x,1/2-y,-z
1/2+x,1/2-y,z
loop_
_atom_site_type_symbol
_atom_site_label
_atom_site_fract_x
_atom_site_fract_y
_atom_site_fract_z
Si Si1 0.841996 0.209834 0.954231
Si Si2 0.115239 0.701709 0.730795
Si Si3 0.315807 0.286323 0.826045
Si Si4 0.117400 0.297652 0.916239
Si Si5 0.972714 0.197477 0.785604
Si Si6 0.147038 0.291633 0.501758
Si Si7 0.060632 0.286503 0.595988
O O1 0.861635 0.270963 0.896404
O O2 0.728827 0.257894 0.935105
O O3 0.849440 0.000000 0.958086
O O4 0.900660 0.276655 0.022357
O O5 0.139432 0.500000 0.727856
O O6 0.205727 0.772369 0.789219
O O7 0.097217 0.777467 0.665175
O O8 0.021632 0.711819 0.745925
O O9 0.319490 0.500000 0.829037
O O10 0.376106 0.226961 0.788000
O O11 0.111187 0.500000 0.898962
O O12 0.046627 0.199748 0.856782
O O13 0.953984 0.000000 0.763645
O O14 0.141796 0.500000 0.501842
O O15 0.250000 0.250000 0.500000
O O16 0.127689 0.232536 0.560732
O O17 0.050660 0.232153 0.443948
O O18 0.060244 0.500000 0.596857
#
# Coordination Sequence:
#
# PCOD9183069 Si02
#       7
#     8   8   8   8   8   8   8
#     4   9  17  33  54  74  97 132 175 219 265 322
#     4  10  19  38  59  75 102 145 185 219 256 312
#     4   9  19  35  54  74 100 137 178 213 264 327
#     4  10  19  33  54  77 101 134 175 218 267 326
#     4  11  22  35  53  79 107 136 173 223 271 318
#     4   9  17  33  55  85 114 144 180 218 259 306
#     4   8  17  33  56  79 108 147 184 213 256 316
#
# _framework density 22.011649999999999
#
# number of rings (size 3 to 8) (size 9 to 14) (size 15 to 20)
#    0.000    2.571    1.429    1.714    0.000    2.286 
#    0.000   10.000    0.000    0.000    0.000    0.000 
#    0.000    0.000    0.000    0.000    0.000    0.000 
#
# Total GULP energy -156247.147631 kJ/mol
# GULP energy per Si atom -5580.255273 kJ/mol
# Density = 2.196155 g / cm^3
# Si number density = 22.011650 Si / 1000 Ang^3
#
#
#
# Elastic Constant Matrix: (Units=GPa)
#
#
# Indices 1 2 3 4 5 6 
#
# 1 108.7894 -2.8411 37.8738 0.0000 -20.6958 0.0000
# 2 -2.8411 28.8650 0.3921 0.0000 1.7906 0.0000
# 3 37.8738 0.3921 118.7904 0.0000 -26.9875 0.0000
# 4 0.0000 0.0000 0.0000 7.5401 0.0000 -5.0759
# 5 -20.6958 1.7906 -26.9875 0.0000 18.6973 0.0000
# 6 0.0000 0.0000 0.0000 -5.0759 0.0000 19.3254
#
#
#
# Elastic Compliance Matrix: (Units=1/GPa)
#
#
# Indices 1 2 3 4 5 6 
#
# 1 0.011760 0.000476 -0.001196 0.000000 0.011245 0.000000
# 2 0.000476 0.035006 -0.001353 0.000000 -0.004778 0.000000
# 3 -0.001196 -0.001353 0.012696 0.000000 0.017130 0.000000
# 4 0.000000 0.000000 0.000000 0.161111 0.000000 0.042316
# 5 0.011245 -0.004778 0.017130 0.000000 0.091113 0.000000
# 6 0.000000 0.000000 0.000000 0.042316 0.000000 0.062860
#
#
# Mechanical properties :
#
#
# Convention : Reuss Voigt Hill
#
# Bulk Modulus (GPa) = 18.07809 36.36605 27.22207
# Shear Modulus (GPa) = 12.59030 23.84723 18.21877
#
# Velocity S-wave (km/s) = 2.39421 3.29506 2.88008
# Velocity P-wave (km/s) = 3.98419 5.57079 4.84291
#
# Compressibility (1/GPa) = 0.05531558
#
# Stress axis : x y z
#
# Youngs Moduli (GPa) = 85.03270 28.56675 78.76575
#
# Poissons Ratio (x) = -0.01360 0.09424
# Poissons Ratio (y) = -0.04050 0.10656
# Poissons Ratio (z) = 0.10174 0.03865
#
# Static dielectric constant tensor:
#      x y z
#    x 1.824000 0.000000 -0.006380 
#    y 0.000000 1.843300 0.000000 
#    z -0.006380 0.000000 1.798030 
# 
# From -- ./inp_files/338182.got.cif
#   From: 2010.05.17/outbox.cif.g08.bks.cpg/sg12_170_cif.got.tgz:338182.got - 2010.06.03 13:09:07.
