data_PCOD9183114
_publ_section_title
;
Structure prediction by ZEFSAII (Michael W. Deem and Ramdas Pophale) SiO2 
 PCOD9183114
Probable space group: C 2/M
;
_chemical_formula_sum "Si O2"
_cell_formula_units_Z 48
_cell_length_a 23.332094
_cell_length_b 17.591015
_cell_length_c 5.547151
_cell_angle_alpha 90.000000
_cell_angle_beta 124.499977
_cell_angle_gamma 90.000000
_cell_volume 1876.326617
_symmetry_space_group_name_H-M "C 2/M"
_symmetry_group_IT_number 12
_symmetry_cell_setting 'monoclinic'
loop_
_space_group_symop_operation_xyz
x,y,z
-x,y,-z
-x,-y,-z
x,-y,z
1/2+x,1/2+y,z
1/2-x,1/2+y,-z
1/2-x,1/2-y,-z
1/2+x,1/2-y,z
loop_
_atom_site_type_symbol
_atom_site_label
_atom_site_fract_x
_atom_site_fract_y
_atom_site_fract_z
Si Si1 0.827459 0.693202 0.410426
Si Si2 0.486114 0.758208 0.719264
Si Si3 0.418363 0.585729 0.303740
Si Si4 0.767030 0.653197 0.765416
Si Si5 0.958162 0.580566 0.150583
Si Si6 0.869720 0.086325 0.685791
O O1 0.907889 0.709963 0.547927
O O2 0.817011 0.656431 0.650439
O O3 0.779318 0.769021 0.320762
O O4 0.801206 0.646502 0.111479
O O5 0.500000 0.718225 0.500000
O O6 0.544021 0.826408 0.851592
O O7 0.500000 0.715112 0.000000
O O8 0.500000 0.573703 0.500000
O O9 0.385505 0.500000 0.233481
O O10 0.399305 0.622689 0.512450
O O11 0.387616 0.622199 0.987365
O O12 0.711697 0.589606 0.559177
O O13 0.913678 0.500000 0.044521
O O14 0.000000 0.573065 0.500000
O O15 0.000000 0.573765 0.000000
O O16 0.898271 0.000000 0.767207
#
# Coordination Sequence:
#
# PCOD9183114 Si02
#       6
#     8   8   8   8   8   8
#     4  10  21  38  58  76 102 142 181 216 258 320
#     4  10  19  33  54  78 103 128 163 214 264 304
#     4   9  17  30  50  77 110 147 178 209 266 333
#     4  10  21  38  57  76 103 143 185 214 255 317
#     4   8  14  25  42  65  94 126 154 184 236 303
#     4  10  19  33  54  79 109 140 178 230 272 309
#
# _framework density 25.581899
#
# number of rings (size 3 to 8) (size 9 to 14) (size 15 to 20)
#    0.000    2.500    0.000    2.500    0.000    2.000 
#    0.000    4.167    0.000    2.000    0.000    0.000 
#    0.000    0.000    0.000    0.000    0.000    0.000 
#
# Total GULP energy -133644.934344 kJ/mol
# GULP energy per Si atom -5568.538931 kJ/mol
# Density = 2.552367 g / cm^3
# Si number density = 25.581899 Si / 1000 Ang^3
#
#
#
# Elastic Constant Matrix: (Units=GPa)
#
#
# Indices 1 2 3 4 5 6 
#
# 1 171.5898 -2.8471 94.0639 0.0000 -30.0540 0.0000
# 2 -2.8471 84.4349 13.0503 0.0000 -12.7618 0.0000
# 3 94.0639 13.0503 228.7273 0.0000 -46.1298 0.0000
# 4 0.0000 0.0000 0.0000 28.2403 0.0000 1.5935
# 5 -30.0540 -12.7618 -46.1298 0.0000 62.1645 0.0000
# 6 0.0000 0.0000 0.0000 1.5935 0.0000 3.9211
#
#
#
# Elastic Compliance Matrix: (Units=1/GPa)
#
#
# Indices 1 2 3 4 5 6 
#
# 1 0.007735 0.000978 -0.002872 0.000000 0.001809 0.000000
# 2 0.000978 0.012356 -0.000588 0.000000 0.002573 0.000000
# 3 -0.002872 -0.000588 0.006212 0.000000 0.003100 0.000000
# 4 0.000000 0.000000 0.000000 0.036241 0.000000 -0.014728
# 5 0.001809 0.002573 0.003100 0.000000 0.019790 0.000000
# 6 0.000000 0.000000 0.000000 -0.014728 0.000000 0.261017
#
#
# Mechanical properties :
#
#
# Convention : Reuss Voigt Hill
#
# Bulk Modulus (GPa) = 46.86213 77.03178 61.94696
# Shear Modulus (GPa) = 14.06746 44.23084 29.14915
#
# Velocity S-wave (km/s) = 2.34754 4.16262 3.37923
# Velocity P-wave (km/s) = 5.07012 7.29935 6.28437
#
# Compressibility (1/GPa) = 0.02133919
#
# Stress axis : x y z
#
# Youngs Moduli (GPa) = 129.27499 80.93073 160.97822
#
# Poissons Ratio (x) = -0.07917 0.46235
# Poissons Ratio (y) = -0.12646 0.09472
# Poissons Ratio (z) = 0.37129 0.04762
#
# Static dielectric constant tensor:
#      x y z
#    x 2.203840 0.000000 0.125280 
#    y 0.000000 2.126950 0.000000 
#    z 0.125280 0.000000 2.155940 
# 
# From -- ./inp_files/21733.got.cif
#   From: 2010.05.17/outbox.cif.g08.bks.cpg/sg12_11_cif.got.tgz:21733.got - 2010.06.03 13:09:07.
