data_PCOD9183046
_publ_section_title
;
Structure prediction by ZEFSAII (Michael W. Deem and Ramdas Pophale) SiO2 
 PCOD9183046
Probable space group: C 2/M
;
_chemical_formula_sum "Si O2"
_cell_formula_units_Z 56
_cell_length_a 25.857625
_cell_length_b 9.024732
_cell_length_c 14.631510
_cell_angle_alpha 90.000000
_cell_angle_beta 90.607434
_cell_angle_gamma 90.000000
_cell_volume 3414.190017
_symmetry_space_group_name_H-M "C 2/M"
_symmetry_group_IT_number 12
_symmetry_cell_setting 'monoclinic'
loop_
_space_group_symop_operation_xyz
x,y,z
-x,y,-z
-x,-y,-z
x,-y,z
1/2+x,1/2+y,z
1/2-x,1/2+y,-z
1/2-x,1/2-y,-z
1/2+x,1/2-y,z
loop_
_atom_site_type_symbol
_atom_site_label
_atom_site_fract_x
_atom_site_fract_y
_atom_site_fract_z
Si Si1 0.688320 0.823659 0.401086
Si Si2 0.555085 0.822642 0.885943
Si Si3 0.351829 0.322505 0.212132
Si Si4 0.435336 0.177210 0.900435
Si Si5 0.742032 0.822373 0.900841
Si Si6 0.310606 0.676765 0.409529
Si Si7 0.844692 0.176333 0.783871
O O1 0.671869 0.760550 0.499107
O O2 0.749752 0.788855 0.393289
O O3 0.659877 0.749802 0.315460
O O4 0.682338 0.000000 0.398165
O O5 0.592980 0.735207 0.820591
O O6 0.494396 0.787682 0.873690
O O7 0.561287 0.000000 0.874034
O O8 0.569469 0.788446 0.991730
O O9 0.347754 0.500000 0.202597
O O10 0.308015 0.245818 0.149252
O O11 0.340564 0.284383 0.317607
O O12 0.393050 0.261075 0.840780
O O13 0.428461 0.000000 0.890565
O O14 0.792305 0.790015 0.839606
O O15 0.736586 0.000000 0.909132
O O16 0.750000 0.750000 0.000000
O O17 0.314552 0.500000 0.424520
O O18 0.848408 0.000000 0.774929
#
# Coordination Sequence:
#
# PCOD9183046 Si02
#       7
#     8   8   8   8   8   8   8
#     4  10  19  33  54  76 102 138 175 213 258 310
#     4   9  19  36  56  78 103 138 180 221 260 306
#     4  11  21  34  53  78 108 140 172 212 262 312
#     4   9  19  36  56  76 103 139 180 220 261 307
#     4  11  23  35  49  73 107 143 175 211 257 311
#     4   9  19  34  51  75 106 137 172 213 257 310
#     4  11  22  34  51  77 107 138 174 216 263 311
#
# _framework density 16.402132999999999
#
# number of rings (size 3 to 8) (size 9 to 14) (size 15 to 20)
#    0.000    2.000    1.429    3.429    0.000    6.857 
#    0.000    1.429    0.000    0.857    0.000    6.000 
#    0.000    0.000    0.000    0.000    0.000    0.000 
#
# Total GULP energy -156336.524703 kJ/mol
# GULP energy per Si atom -5583.447311 kJ/mol
# Density = 1.636480 g / cm^3
# Si number density = 16.402133 Si / 1000 Ang^3
#
#
#
# Elastic Constant Matrix: (Units=GPa)
#
#
# Indices 1 2 3 4 5 6 
#
# 1 58.0569 32.7144 36.1942 0.0000 -14.9296 0.0000
# 2 32.7144 39.9899 43.2696 0.0000 -8.6051 0.0000
# 3 36.1942 43.2696 93.4563 0.0000 -19.9097 0.0000
# 4 0.0000 0.0000 0.0000 31.9695 0.0000 1.4769
# 5 -14.9296 -8.6051 -19.9097 0.0000 23.7980 0.0000
# 6 0.0000 0.0000 0.0000 1.4769 0.0000 29.9818
#
#
#
# Elastic Compliance Matrix: (Units=1/GPa)
#
#
# Indices 1 2 3 4 5 6 
#
# 1 0.035412 -0.028744 0.002570 0.000000 0.013972 0.000000
# 2 -0.028744 0.073489 -0.025644 0.000000 -0.012913 0.000000
# 3 0.002570 -0.025644 0.024272 0.000000 0.012646 0.000000
# 4 0.000000 0.000000 0.000000 0.031351 0.000000 -0.001544
# 5 0.013972 -0.012913 0.012646 0.000000 0.056696 0.000000
# 6 0.000000 0.000000 0.000000 -0.001544 0.000000 0.033430
#
#
# Mechanical properties :
#
#
# Convention : Reuss Voigt Hill
#
# Bulk Modulus (GPa) = 33.85477 46.20660 40.03068
# Shear Modulus (GPa) = 13.58216 22.43820 18.01018
#
# Velocity S-wave (km/s) = 2.88075 3.70267 3.31726
# Velocity P-wave (km/s) = 5.63473 6.81996 6.25548
#
# Compressibility (1/GPa) = 0.02953794
#
# Stress axis : x y z
#
# Youngs Moduli (GPa) = 28.23906 13.60749 41.20026
#
# Poissons Ratio (x) = 0.39113 -0.10590
# Poissons Ratio (y) = 0.81170 1.05653
# Poissons Ratio (z) = -0.07258 0.34895
#
# Static dielectric constant tensor:
#      x y z
#    x 1.531070 0.000000 -0.011850 
#    y 0.000000 1.544060 0.000000 
#    z -0.011850 0.000000 1.530920 
# 
# From -- ./inp_files/231068.got.cif
#   From: 2010.05.17/outbox.cif.g08.bks.cpg/sg12_116_cif.got.tgz:231068.got - 2010.06.03 13:09:07.
