data_PCOD9183865
_publ_section_title
;
Structure prediction by ZEFSAII (Michael W. Deem and Ramdas Pophale) SiO2 
 PCOD9183865
Probable space group: C 2/M
;
_chemical_formula_sum "Si O2"
_cell_formula_units_Z 64
_cell_length_a 21.158035
_cell_length_b 8.407610
_cell_length_c 20.671600
_cell_angle_alpha 90.000000
_cell_angle_beta 103.556299
_cell_angle_gamma 90.000000
_cell_volume 3574.792392
_symmetry_space_group_name_H-M "C 2/M"
_symmetry_group_IT_number 12
_symmetry_cell_setting 'monoclinic'
loop_
_space_group_symop_operation_xyz
x,y,z
-x,y,-z
-x,-y,-z
x,-y,z
1/2+x,1/2+y,z
1/2-x,1/2+y,-z
1/2-x,1/2-y,-z
1/2+x,1/2-y,z
loop_
_atom_site_type_symbol
_atom_site_label
_atom_site_fract_x
_atom_site_fract_y
_atom_site_fract_z
Si Si1 0.927581 0.806532 0.673502
Si Si2 0.052481 0.192340 0.957814
Si Si3 0.699616 0.191090 0.542355
Si Si4 0.058050 0.192561 0.467808
Si Si5 0.193647 0.310239 0.033190
Si Si6 0.323964 0.809625 0.826346
Si Si7 0.717548 0.308309 0.317491
Si Si8 0.466490 0.692119 0.820321
O O1 0.949253 0.751330 0.608212
O O2 0.852548 0.761030 0.669051
O O3 0.967984 0.753321 0.746083
O O4 0.929150 0.000000 0.673150
O O5 0.023167 0.245954 0.881924
O O6 0.056149 0.000000 0.958924
O O7 0.123023 0.257810 0.991043
O O8 0.000000 0.238781 0.000000
O O9 0.750000 0.250000 0.500000
O O10 0.628231 0.254822 0.510196
O O11 0.727117 0.242713 0.619056
O O12 0.699134 0.000000 0.540872
O O13 0.000000 0.248458 0.500000
O O14 0.056985 0.000000 0.466868
O O15 0.196231 0.500000 0.034827
O O16 0.200307 0.253643 0.109306
O O17 0.250000 0.250000 0.000000
O O18 0.281120 0.756724 0.754821
O O19 0.396557 0.743061 0.831731
O O20 0.327711 0.000000 0.827538
O O21 0.717782 0.500000 0.314021
O O22 0.467382 0.500000 0.820402
#
# Coordination Sequence:
#
# PCOD9183865 Si02
#       8
#     8   8   8   8   8   8   8   8
#     4   8  14  29  50  74 103 137 178 216 261 317
#     4  10  19  33  56  83 108 140 183 223 267 325
#     4  11  21  35  56  82 112 143 184 231 274 323
#     4  10  20  35  54  77 110 149 185 222 270 326
#     4  11  24  39  56  79 112 149 183 227 276 327
#     4  10  20  33  52  81 110 137 178 229 274 318
#     4   9  18  33  54  77 105 141 179 224 276 329
#     4   9  17  31  53  78 107 141 176 220 269 323
#
# _framework density 17.903137000000001
#
# number of rings (size 3 to 8) (size 9 to 14) (size 15 to 20)
#    0.000    2.250    2.500    1.875    0.000    3.500 
#    0.000    1.250    0.000    3.000    0.000    0.000 
#    0.000    0.000    0.000    0.000    0.000    0.000 
#
# Total GULP energy -178488.000188 kJ/mol
# GULP energy per Si atom -5577.750006 kJ/mol
# Density = 1.786239 g / cm^3
# Si number density = 17.903137 Si / 1000 Ang^3
#
#
#
# Elastic Constant Matrix: (Units=GPa)
#
#
# Indices 1 2 3 4 5 6 
#
# 1 117.1068 16.2893 93.1431 0.0000 -7.8882 0.0000
# 2 16.2893 10.1740 26.0129 0.0000 -0.5820 0.0000
# 3 93.1431 26.0129 213.8545 0.0000 -4.8262 0.0000
# 4 0.0000 0.0000 0.0000 22.1167 0.0000 4.0881
# 5 -7.8882 -0.5820 -4.8262 0.0000 24.1075 0.0000
# 6 0.0000 0.0000 0.0000 4.0881 0.0000 23.2798
#
#
#
# Elastic Compliance Matrix: (Units=1/GPa)
#
#
# Indices 1 2 3 4 5 6 
#
# 1 0.013960 -0.009879 -0.004803 0.000000 0.003368 0.000000
# 2 -0.009879 0.149648 -0.013954 0.000000 -0.002413 0.000000
# 3 -0.004803 -0.013954 0.008460 0.000000 -0.000215 0.000000
# 4 0.000000 0.000000 0.000000 0.046732 0.000000 -0.008206
# 5 0.003368 -0.002413 -0.000215 0.000000 0.042482 0.000000
# 6 0.000000 0.000000 0.000000 -0.008206 0.000000 0.044397
#
#
# Mechanical properties :
#
#
# Convention : Reuss Voigt Hill
#
# Bulk Modulus (GPa) = 8.71114 68.00288 38.35701
# Shear Modulus (GPa) = 12.46212 27.61346 20.03779
#
# Velocity S-wave (km/s) = 2.64121 3.93158 3.34912
# Velocity P-wave (km/s) = 3.76531 7.66002 6.03546
#
# Compressibility (1/GPa) = 0.11479555
#
# Stress axis : x y z
#
# Youngs Moduli (GPa) = 71.63316 6.68237 118.19856
#
# Poissons Ratio (x) = 0.06602 0.56765
# Poissons Ratio (y) = 0.70768 1.64940
# Poissons Ratio (z) = 0.34402 0.09325
#
# Static dielectric constant tensor:
#      x y z
#    x 1.567380 0.000000 -0.001800 
#    y 0.000000 1.614570 0.000000 
#    z -0.001800 0.000000 1.651970 
# 
# From -- ./inp_files/319248.got.cif
#   From: 2010.05.17/outbox.cif.g08.bks.cpg/sg12_160_cif.got.tgz:319248.got - 2010.06.03 13:09:07.
