data_PCOD9183278
_publ_section_title
;
Structure prediction by ZEFSAII (Michael W. Deem and Ramdas Pophale) SiO2 
 PCOD9183278
Probable space group: C 2/M
;
_chemical_formula_sum "Si O2"
_cell_formula_units_Z 56
_cell_length_a 21.080460
_cell_length_b 8.726131
_cell_length_c 22.838196
_cell_angle_alpha 90.000000
_cell_angle_beta 131.398705
_cell_angle_gamma 90.000000
_cell_volume 3151.358678
_symmetry_space_group_name_H-M "C 2/M"
_symmetry_group_IT_number 12
_symmetry_cell_setting 'monoclinic'
loop_
_space_group_symop_operation_xyz
x,y,z
-x,y,-z
-x,-y,-z
x,-y,z
1/2+x,1/2+y,z
1/2-x,1/2+y,-z
1/2-x,1/2-y,-z
1/2+x,1/2-y,z
loop_
_atom_site_type_symbol
_atom_site_label
_atom_site_fract_x
_atom_site_fract_y
_atom_site_fract_z
Si Si1 0.316163 0.816083 0.493328
Si Si2 0.327399 0.683392 0.257430
Si Si3 0.754547 0.314319 0.669601
Si Si4 0.009869 0.684934 0.339204
Si Si5 0.249718 0.817399 0.094271
Si Si6 0.446903 0.813560 0.767389
Si Si7 0.118048 0.684474 0.928386
O O1 0.250000 0.750000 0.500000
O O2 0.292838 0.752555 0.415570
O O3 0.410565 0.773471 0.571698
O O4 0.310305 0.000000 0.490368
O O5 0.328609 0.500000 0.256591
O O6 0.288814 0.732079 0.296159
O O7 0.421952 0.745521 0.306365
O O8 0.271321 0.743417 0.169328
O O9 0.752887 0.500000 0.664680
O O10 0.852808 0.264876 0.726998
O O11 0.001931 0.500000 0.334020
O O12 0.031117 0.733405 0.285585
O O13 0.324694 0.777910 0.093772
O O14 0.248448 0.000000 0.099212
O O15 0.164024 0.758835 0.011764
O O16 0.522704 0.764810 0.856373
O O17 0.447418 0.000000 0.767891
O O18 0.119757 0.500000 0.935957
#
# Coordination Sequence:
#
# PCOD9183278 Si02
#       7
#     8   8   8   8   8   8   8
#     4  11  22  37  60  87 114 147 188 235 282 332
#     4  11  23  37  56  84 116 150 187 233 282 333
#     4  10  22  40  59  81 115 152 188 232 283 334
#     4  10  20  37  60  82 110 149 189 230 277 333
#     4  10  19  33  54  81 114 147 180 228 283 336
#     4   9  16  34  59  81 106 144 189 230 273 329
#     4   9  17  31  55  83 106 138 187 234 275 324
#
# _framework density 17.770112999999998
#
# number of rings (size 3 to 8) (size 9 to 14) (size 15 to 20)
#    0.000    2.000    2.857    1.286    0.000    3.429 
#    0.000    4.286    0.000    4.286    0.000    0.000 
#    0.000    0.000    0.000    0.000    0.000    0.000 
#
# Total GULP energy -156311.483055 kJ/mol
# GULP energy per Si atom -5582.552966 kJ/mol
# Density = 1.772967 g / cm^3
# Si number density = 17.770113 Si / 1000 Ang^3
#
#
#
# Elastic Constant Matrix: (Units=GPa)
#
#
# Indices 1 2 3 4 5 6 
#
# 1 146.8837 35.5374 104.8355 0.0000 -0.5396 0.0000
# 2 35.5374 20.9204 43.7965 0.0000 -2.0164 0.0000
# 3 104.8355 43.7965 194.3884 0.0000 6.2389 0.0000
# 4 0.0000 0.0000 0.0000 33.5078 0.0000 0.3336
# 5 -0.5396 -2.0164 6.2389 0.0000 31.0424 0.0000
# 6 0.0000 0.0000 0.0000 0.3336 0.0000 23.8445
#
#
#
# Elastic Compliance Matrix: (Units=1/GPa)
#
#
# Indices 1 2 3 4 5 6 
#
# 1 0.012904 -0.013885 -0.003834 0.000000 0.000093 0.000000
# 2 -0.013885 0.108633 -0.017318 0.000000 0.010296 0.000000
# 3 -0.003834 -0.017318 0.011224 0.000000 -0.003447 0.000000
# 4 0.000000 0.000000 0.000000 0.029848 0.000000 -0.000418
# 5 0.000093 0.010296 -0.003447 0.000000 0.033577 0.000000
# 6 0.000000 0.000000 0.000000 -0.000418 0.000000 0.041944
#
#
# Mechanical properties :
#
#
# Convention : Reuss Voigt Hill
#
# Bulk Modulus (GPa) = 15.95195 81.17014 48.56104
# Shear Modulus (GPa) = 15.19295 29.54715 22.37005
#
# Velocity S-wave (km/s) = 2.92716 4.08210 3.55189
# Velocity P-wave (km/s) = 4.51893 8.24591 6.64890
#
# Compressibility (1/GPa) = 0.06268827
#
# Stress axis : x y z
#
# Youngs Moduli (GPa) = 77.49360 9.20534 89.09133
#
# Poissons Ratio (x) = 0.12782 0.34158
# Poissons Ratio (y) = 1.07599 1.54284
# Poissons Ratio (z) = 0.29711 0.15941
#
# Static dielectric constant tensor:
#      x y z
#    x 1.586380 0.000000 0.010830 
#    y 0.000000 1.603630 0.000000 
#    z 0.010830 0.000000 1.594510 
# 
# From -- ./inp_files/320195.got.cif
#   From: 2010.05.17/outbox.cif.g08.bks.cpg/sg12_161_cif.got.tgz:320195.got - 2010.06.03 13:09:07.
