data_PCOD9183016
_publ_section_title
;
Structure prediction by ZEFSAII (Michael W. Deem and Ramdas Pophale) SiO2 
 PCOD9183016
Probable space group: C 2/M
;
_chemical_formula_sum "Si O2"
_cell_formula_units_Z 52
_cell_length_a 14.808690
_cell_length_b 16.813140
_cell_length_c 11.653114
_cell_angle_alpha 90.000000
_cell_angle_beta 71.673302
_cell_angle_gamma 90.000000
_cell_volume 2754.237386
_symmetry_space_group_name_H-M "C 2/M"
_symmetry_group_IT_number 12
_symmetry_cell_setting 'monoclinic'
loop_
_space_group_symop_operation_xyz
x,y,z
-x,y,-z
-x,-y,-z
x,-y,z
1/2+x,1/2+y,z
1/2-x,1/2+y,-z
1/2-x,1/2-y,-z
1/2+x,1/2-y,z
loop_
_atom_site_type_symbol
_atom_site_label
_atom_site_fract_x
_atom_site_fract_y
_atom_site_fract_z
Si Si1 0.822492 0.906725 0.693496
Si Si2 0.000000 0.728401 0.000000
Si Si3 0.534358 0.310374 0.226569
Si Si4 0.151182 0.409138 0.448218
Si Si5 0.636104 0.596177 0.584441
Si Si6 0.989454 0.363398 0.679823
Si Si7 0.606267 0.909859 0.848078
O O1 0.873192 0.859931 0.775203
O O2 0.860298 0.881969 0.552386
O O3 0.708879 0.898585 0.747903
O O4 0.844919 0.000000 0.695582
O O5 0.020105 0.784521 0.100671
O O6 0.915221 0.665080 0.061183
O O7 0.445525 0.359324 0.313462
O O8 0.540608 0.226322 0.287627
O O9 0.151250 0.500000 0.491930
O O10 0.259863 0.382775 0.406499
O O11 0.097138 0.406553 0.348863
O O12 0.081501 0.362644 0.560589
O O13 0.623737 0.500000 0.596516
O O14 0.025340 0.402635 0.782787
O O15 0.604644 0.000000 0.897877
#
# Coordination Sequence:
#
# PCOD9183016 Si02
#       7
#     8   4   8   8   8   8   8
#     4  10  21  38  63  90 114 149 193 240 291 348
#     4  10  25  42  55  84 114 156 198 246 283 336
#     4  11  24  39  57  82 122 153 194 239 287 341
#     4  10  19  33  53  84 120 148 185 228 282 351
#     4  10  21  38  61  88 118 153 192 237 286 348
#     4  10  20  31  53  86 119 154 179 225 294 341
#     4  10  19  39  64  85 113 153 196 238 285 339
#
# _framework density 18.879999999999999
#
# number of rings (size 3 to 8) (size 9 to 14) (size 15 to 20)
#    0.000    1.846    1.538    3.000    4.308    4.923 
#    0.000    3.077    0.000    7.385    0.000    0.000 
#    0.000    0.000    0.000    0.000    0.000    0.000 
#
# Total GULP energy -145055.836157 kJ/mol
# GULP energy per Si atom -5579.070621 kJ/mol
# Density = 1.883703 g / cm^3
# Si number density = 18.880000 Si / 1000 Ang^3
#
#
#
# Elastic Constant Matrix: (Units=GPa)
#
#
# Indices 1 2 3 4 5 6 
#
# 1 68.5215 29.8209 26.2806 0.0000 13.0182 0.0000
# 2 29.8209 68.1039 42.5483 0.0000 10.0223 0.0000
# 3 26.2806 42.5483 90.5674 0.0000 9.5378 0.0000
# 4 0.0000 0.0000 0.0000 34.1847 0.0000 -2.5626
# 5 13.0182 10.0223 9.5378 0.0000 13.1663 0.0000
# 6 0.0000 0.0000 0.0000 -2.5626 0.0000 41.0496
#
#
#
# Elastic Compliance Matrix: (Units=1/GPa)
#
#
# Indices 1 2 3 4 5 6 
#
# 1 0.020551 -0.005772 -0.001705 0.000000 -0.014691 0.000000
# 2 -0.005772 0.023556 -0.008774 0.000000 -0.005868 0.000000
# 3 -0.001705 -0.008774 0.015998 0.000000 -0.003225 0.000000
# 4 0.000000 0.000000 0.000000 0.029390 0.000000 0.001835
# 5 -0.014691 -0.005868 -0.003225 0.000000 0.097280 0.000000
# 6 0.000000 0.000000 0.000000 0.001835 0.000000 0.024475
#
#
# Mechanical properties :
#
#
# Convention : Reuss Voigt Hill
#
# Bulk Modulus (GPa) = 36.22639 47.16580 41.69610
# Shear Modulus (GPa) = 19.76666 26.24967 23.00817
#
# Velocity S-wave (km/s) = 3.23919 3.73277 3.49471
# Velocity P-wave (km/s) = 5.76361 6.60411 6.19812
#
# Compressibility (1/GPa) = 0.02760419
#
# Stress axis : x y z
#
# Youngs Moduli (GPa) = 48.66001 42.45273 62.50959
#
# Poissons Ratio (x) = 0.24502 0.10656
# Poissons Ratio (y) = 0.28085 0.54843
# Poissons Ratio (z) = 0.08295 0.37246
#
# Static dielectric constant tensor:
#      x y z
#    x 1.663210 0.000000 0.011310 
#    y 0.000000 1.654050 0.000000 
#    z 0.011310 0.000000 1.675010 
# 
# From -- ./inp_files/143681.got.cif
#   From: 2010.05.17/outbox.cif.g08.bks.cpg/sg12_72_cif.got.tgz:143681.got - 2010.06.03 13:09:07.
