data_PCOD9183433
_publ_section_title
;
Structure prediction by ZEFSAII (Michael W. Deem and Ramdas Pophale) SiO2 
 PCOD9183433
Probable space group: C 2/M
;
_chemical_formula_sum "Si O2"
_cell_formula_units_Z 56
_cell_length_a 16.379270
_cell_length_b 9.069158
_cell_length_c 20.972575
_cell_angle_alpha 90.000000
_cell_angle_beta 53.620251
_cell_angle_gamma 90.000000
_cell_volume 2508.216237
_symmetry_space_group_name_H-M "C 2/M"
_symmetry_group_IT_number 12
_symmetry_cell_setting 'monoclinic'
loop_
_space_group_symop_operation_xyz
x,y,z
-x,y,-z
-x,-y,-z
x,-y,z
1/2+x,1/2+y,z
1/2-x,1/2+y,-z
1/2-x,1/2-y,-z
1/2+x,1/2-y,z
loop_
_atom_site_type_symbol
_atom_site_label
_atom_site_fract_x
_atom_site_fract_y
_atom_site_fract_z
Si Si1 0.614831 0.825665 0.110343
Si Si2 0.365221 0.830305 0.685145
Si Si3 0.609740 0.827645 0.584809
Si Si4 0.816169 0.324617 0.177439
Si Si5 0.851437 0.172748 0.034430
Si Si6 0.584353 0.178431 0.734253
Si Si7 0.377115 0.332904 0.550237
O O1 0.730258 0.806313 0.078756
O O2 0.532798 0.778760 0.200753
O O3 0.599607 0.000000 0.105843
O O4 0.598913 0.742478 0.051173
O O5 0.486138 0.823675 0.639163
O O6 0.299208 0.731647 0.763045
O O7 0.345072 0.771156 0.623054
O O8 0.333956 0.000000 0.707386
O O9 0.632159 0.769959 0.645654
O O10 0.646718 0.730836 0.508405
O O11 0.639078 0.000000 0.563287
O O12 0.820210 0.500000 0.169553
O O13 0.871527 0.251865 0.091833
O O14 0.863562 0.280635 0.223572
O O15 0.873118 0.000000 0.028541
O O16 0.587221 0.000000 0.727739
O O17 0.500000 0.338919 0.500000
O O18 0.338390 0.500000 0.576696
#
# Coordination Sequence:
#
# PCOD9183433 Si02
#       7
#     8   8   8   8   8   8   8
#     4   9  18  36  59  79 101 133 174 214 252 300
#     4  10  19  33  55  79 103 134 172 215 260 305
#     4   9  17  33  56  78 101 133 174 215 255 302
#     4  11  22  35  52  75 105 139 173 210 254 306
#     4  10  20  35  56  81 106 132 167 213 260 305
#     4   9  19  35  54  75 101 137 177 212 250 301
#     4   9  17  30  50  79 109 133 165 212 261 307
#
# _framework density 22.326623999999999
#
# number of rings (size 3 to 8) (size 9 to 14) (size 15 to 20)
#    0.000    2.429    0.000    2.571    0.000    5.714 
#    0.000    7.143    0.000    0.000    0.000    0.000 
#    0.000    0.000    0.000    0.000    0.000    0.000 
#
# Total GULP energy -156532.897602 kJ/mol
# GULP energy per Si atom -5590.460629 kJ/mol
# Density = 2.227581 g / cm^3
# Si number density = 22.326624 Si / 1000 Ang^3
#
#
#
# Elastic Constant Matrix: (Units=GPa)
#
#
# Indices 1 2 3 4 5 6 
#
# 1 70.0350 30.2311 27.8095 0.0000 17.1398 0.0000
# 2 30.2311 46.8730 24.9195 0.0000 24.9957 0.0001
# 3 27.8095 24.9195 123.0843 0.0000 31.0800 0.0000
# 4 0.0000 0.0000 0.0000 32.7794 0.0000 8.4215
# 5 17.1398 24.9957 31.0800 0.0000 47.4377 0.0000
# 6 0.0000 0.0001 0.0000 8.4215 0.0000 14.3710
#
#
#
# Elastic Compliance Matrix: (Units=1/GPa)
#
#
# Indices 1 2 3 4 5 6 
#
# 1 0.020301 -0.012197 -0.002262 0.000000 0.000574 0.000000
# 2 -0.012197 0.037638 -0.001162 0.000000 -0.014664 0.000000
# 3 -0.002262 -0.001162 0.010197 0.000000 -0.005251 0.000000
# 4 0.000000 0.000000 0.000000 0.035914 0.000000 -0.021046
# 5 0.000574 -0.014664 -0.005251 0.000000 0.032040 0.000000
# 6 0.000000 0.000000 0.000000 -0.021046 0.000000 0.081918
#
#
# Mechanical properties :
#
#
# Convention : Reuss Voigt Hill
#
# Bulk Modulus (GPa) = 27.10402 45.10140 36.10271
# Shear Modulus (GPa) = 19.11696 29.38642 24.25169
#
# Velocity S-wave (km/s) = 2.92933 3.63189 3.29937
# Velocity P-wave (km/s) = 4.85875 6.15078 5.54254
#
# Compressibility (1/GPa) = 0.03689490
#
# Stress axis : x y z
#
# Youngs Moduli (GPa) = 49.25794 26.56877 98.06968
#
# Poissons Ratio (x) = 0.32405 0.22187
# Poissons Ratio (y) = 0.60078 0.11392
# Poissons Ratio (z) = 0.11144 0.03086
#
# Static dielectric constant tensor:
#      x y z
#    x 1.922200 0.000000 -0.027620 
#    y 0.000000 1.742960 0.000000 
#    z -0.027620 0.000000 1.801380 
# 
# From -- ./inp_files/313719.got.cif
#   From: 2010.05.17/outbox.cif.g08.bks.cpg/sg12_157_cif.got.tgz:313719.got - 2010.06.03 13:09:07.
