data_PCOD9183695
_publ_section_title
;
Structure prediction by ZEFSAII (Michael W. Deem and Ramdas Pophale) SiO2 
 PCOD9183695
Probable space group: C 2/M
;
_chemical_formula_sum "Si O2"
_cell_formula_units_Z 64
_cell_length_a 25.103611
_cell_length_b 8.755934
_cell_length_c 16.626477
_cell_angle_alpha 90.000000
_cell_angle_beta 88.411236
_cell_angle_gamma 90.000000
_cell_volume 3653.187176
_symmetry_space_group_name_H-M "C 2/M"
_symmetry_group_IT_number 12
_symmetry_cell_setting 'monoclinic'
loop_
_space_group_symop_operation_xyz
x,y,z
-x,y,-z
-x,-y,-z
x,-y,z
1/2+x,1/2+y,z
1/2-x,1/2+y,-z
1/2-x,1/2-y,-z
1/2+x,1/2-y,z
loop_
_atom_site_type_symbol
_atom_site_label
_atom_site_fract_x
_atom_site_fract_y
_atom_site_fract_z
Si Si1 0.206206 0.317956 0.261099
Si Si2 0.817439 0.315676 0.213958
Si Si3 0.306357 0.182858 0.026809
Si Si4 0.119000 0.817086 0.375535
Si Si5 0.365630 0.316494 0.878871
Si Si6 0.961563 0.182982 0.764733
Si Si7 0.059674 0.684257 0.526048
Si Si8 0.071438 0.316118 0.710979
O O1 0.203560 0.500000 0.256579
O O2 0.266655 0.260633 0.257830
O O3 0.172423 0.257755 0.338301
O O4 0.177121 0.246407 0.183911
O O5 0.812519 0.500000 0.220921
O O6 0.815908 0.276991 0.119348
O O7 0.873241 0.268059 0.250923
O O8 0.304661 0.000000 0.020009
O O9 0.250000 0.250000 0.000000
O O10 0.351049 0.248804 0.965543
O O11 0.072141 0.774037 0.313859
O O12 0.101199 0.758436 0.462918
O O13 0.124180 0.000000 0.373710
O O14 0.361435 0.500000 0.880238
O O15 0.423546 0.274275 0.841011
O O16 0.019354 0.255954 0.758615
O O17 0.966737 0.000000 0.764402
O O18 0.064213 0.500000 0.521230
O O19 0.068098 0.732413 0.617795
O O20 0.000000 0.725864 0.500000
O O21 0.069732 0.500000 0.712159
#
# Coordination Sequence:
#
# PCOD9183695 Si02
#       8
#     8   8   8   8   8   8   8   8
#     4  11  21  34  56  83 110 143 184 228 277 326
#     4  10  22  39  56  78 113 150 182 221 276 335
#     4  11  21  34  56  83 110 142 186 233 276 324
#     4  10  20  34  55  82 113 146 181 226 279 327
#     4  10  20  35  55  82 114 144 180 229 279 327
#     4   9  19  34  53  79 110 144 180 223 272 325
#     4  10  19  33  55  85 113 138 183 236 273 315
#     4  10  21  37  57  80 111 150 182 221 277 331
#
# _framework density 17.518948000000002
#
# number of rings (size 3 to 8) (size 9 to 14) (size 15 to 20)
#    0.000    1.875    2.500    3.000    0.000    4.250 
#    0.000    1.250    0.000    3.750    0.000    0.000 
#    0.000    0.000    0.000    0.000    0.000    0.000 
#
# Total GULP energy -178674.494535 kJ/mol
# GULP energy per Si atom -5583.577954 kJ/mol
# Density = 1.747907 g / cm^3
# Si number density = 17.518948 Si / 1000 Ang^3
#
#
#
# Elastic Constant Matrix: (Units=GPa)
#
#
# Indices 1 2 3 4 5 6 
#
# 1 168.3548 49.4105 84.8271 0.0000 -15.0651 0.0000
# 2 49.4105 42.9242 39.5652 0.0000 -5.3298 0.0000
# 3 84.8271 39.5652 109.3262 0.0000 -13.1769 0.0000
# 4 0.0000 0.0000 0.0000 24.4251 0.0000 -9.1254
# 5 -15.0651 -5.3298 -13.1769 0.0000 31.6471 0.0000
# 6 0.0000 0.0000 0.0000 -9.1254 0.0000 30.1296
#
#
#
# Elastic Compliance Matrix: (Units=1/GPa)
#
#
# Indices 1 2 3 4 5 6 
#
# 1 0.011157 -0.007265 -0.005827 0.000000 0.001661 0.000000
# 2 -0.007265 0.039702 -0.008783 0.000000 -0.000429 0.000000
# 3 -0.005827 -0.008783 0.017197 0.000000 0.002907 0.000000
# 4 0.000000 0.000000 0.000000 0.046165 0.000000 0.013982
# 5 0.001661 -0.000429 0.002907 0.000000 0.033528 0.000000
# 6 0.000000 0.000000 0.000000 0.013982 0.000000 0.037425
#
#
# Mechanical properties :
#
#
# Convention : Reuss Voigt Hill
#
# Bulk Modulus (GPa) = 41.14239 74.24565 57.69402
# Shear Modulus (GPa) = 21.09470 27.02717 24.06094
#
# Velocity S-wave (km/s) = 3.47379 3.93203 3.70999
# Velocity P-wave (km/s) = 6.29485 7.94271 7.16630
#
# Compressibility (1/GPa) = 0.02430583
#
# Stress axis : x y z
#
# Youngs Moduli (GPa) = 89.63094 25.18749 58.14910
#
# Poissons Ratio (x) = 0.18300 0.33884
# Poissons Ratio (y) = 0.65120 0.51071
# Poissons Ratio (z) = 0.52229 0.22121
#
# Static dielectric constant tensor:
#      x y z
#    x 1.581610 0.000000 -0.006880 
#    y 0.000000 1.587430 0.000000 
#    z -0.006880 0.000000 1.589070 
# 
# From -- ./inp_files/238789.got.cif
#   From: 2010.05.17/outbox.cif.g08.bks.cpg/sg12_120_cif.got.tgz:238789.got - 2010.06.03 13:09:07.
