data_PCOD9183376
_publ_section_title
;
Structure prediction by ZEFSAII (Michael W. Deem and Ramdas Pophale) SiO2 
 PCOD9183376
Probable space group: C 2/M
;
_chemical_formula_sum "Si O2"
_cell_formula_units_Z 58
_cell_length_a 11.693725
_cell_length_b 23.096021
_cell_length_c 11.309198
_cell_angle_alpha 90.000000
_cell_angle_beta 76.784506
_cell_angle_gamma 90.000000
_cell_volume 2973.482874
_symmetry_space_group_name_H-M "C 2/M"
_symmetry_group_IT_number 12
_symmetry_cell_setting 'monoclinic'
loop_
_space_group_symop_operation_xyz
x,y,z
-x,y,-z
-x,-y,-z
x,-y,z
1/2+x,1/2+y,z
1/2-x,1/2+y,-z
1/2-x,1/2-y,-z
1/2+x,1/2-y,z
loop_
_atom_site_type_symbol
_atom_site_label
_atom_site_fract_x
_atom_site_fract_y
_atom_site_fract_z
Si Si1 0.896822 0.315616 0.697548
Si Si2 0.627370 0.934217 0.924890
Si Si3 0.738120 0.679782 0.512852
Si Si4 0.672748 0.276684 0.877493
Si Si5 0.896674 0.595842 0.338231
Si Si6 0.510638 0.694100 0.691517
Si Si7 0.500000 0.000000 0.500000
Si Si8 0.801420 0.836415 0.892574
O O1 0.822461 0.335203 0.602626
O O2 0.801808 0.302936 0.820567
O O3 0.991922 0.362423 0.707073
O O4 0.959701 0.254626 0.655812
O O5 0.628671 0.932728 0.781991
O O6 0.735906 0.895060 0.940061
O O7 0.639214 0.000000 0.965178
O O8 0.500000 0.912672 0.000000
O O9 0.750000 0.750000 0.500000
O O10 0.790596 0.639519 0.398680
O O11 0.603012 0.667601 0.577766
O O12 0.590194 0.290426 0.787320
O O13 0.698429 0.208475 0.879357
O O14 0.637792 0.305011 0.009560
O O15 0.934648 0.550740 0.431572
O O16 0.399554 0.658930 0.767455
#
# Coordination Sequence:
#
# PCOD9183376 Si02
#       8
#     8   8   8   8   8   8   2   8
#     4  10  19  33  54  86 119 158 195 248 303 369
#     4  11  25  43  65  89 116 159 209 258 307 365
#     4  11  22  34  56  87 123 160 201 248 308 373
#     4   9  19  33  56  88 119 153 194 244 312 370
#     4  12  22  41  62  87 127 159 210 261 303 371
#     4  10  20  33  55  87 120 155 197 240 312 374
#     4  12  24  40  62  92 118 174 202 256 316 348
#     4  10  20  36  58  86 120 157 194 252 306 366
#
# _framework density 19.505747
#
# number of rings (size 3 to 8) (size 9 to 14) (size 15 to 20)
#    0.000    1.517    3.448    2.069    3.862    2.207 
#    0.000    0.000    1.517    2.483    0.000    0.000 
#    0.000    0.000    0.000    0.000    0.000    0.000 
#
# Total GULP energy -161655.323635 kJ/mol
# GULP energy per Si atom -5574.321505 kJ/mol
# Density = 1.946135 g / cm^3
# Si number density = 19.505747 Si / 1000 Ang^3
#
#
#
# Elastic Constant Matrix: (Units=GPa)
#
#
# Indices 1 2 3 4 5 6 
#
# 1 78.3601 21.5687 21.9069 0.0000 -13.4416 0.0000
# 2 21.5687 62.5961 17.7719 0.0000 -22.9405 0.0000
# 3 21.9069 17.7719 69.5420 0.0000 -12.2855 0.0000
# 4 0.0000 0.0000 0.0000 22.0152 0.0000 5.0447
# 5 -13.4416 -22.9405 -12.2855 0.0000 38.3941 0.0000
# 6 0.0000 0.0000 0.0000 5.0447 0.0000 18.3294
#
#
#
# Elastic Compliance Matrix: (Units=1/GPa)
#
#
# Indices 1 2 3 4 5 6 
#
# 1 0.015040 -0.003420 -0.003492 0.000000 0.002105 0.000000
# 2 -0.003420 0.021950 -0.002572 0.000000 0.011095 0.000000
# 3 -0.003492 -0.002572 0.016587 0.000000 0.002548 0.000000
# 4 0.000000 0.000000 0.000000 0.048481 0.000000 -0.013343
# 5 0.002105 0.011095 0.002548 0.000000 0.034227 0.000000
# 6 0.000000 0.000000 0.000000 -0.013343 0.000000 0.058230
#
#
# Mechanical properties :
#
#
# Convention : Reuss Voigt Hill
#
# Bulk Modulus (GPa) = 28.89344 36.99925 32.94634
# Shear Modulus (GPa) = 22.22028 25.69778 23.95903
#
# Velocity S-wave (km/s) = 3.37881 3.63360 3.50852
# Velocity P-wave (km/s) = 5.48332 6.05092 5.77410
#
# Compressibility (1/GPa) = 0.03460993
#
# Stress axis : x y z
#
# Youngs Moduli (GPa) = 66.48854 45.55788 60.28670
#
# Poissons Ratio (x) = 0.15579 0.21053
# Poissons Ratio (y) = 0.22736 0.15507
# Poissons Ratio (z) = 0.23219 0.11718
#
# Static dielectric constant tensor:
#      x y z
#    x 1.684890 0.000000 -0.011060 
#    y 0.000000 1.674470 0.000000 
#    z -0.011060 0.000000 1.760690 
# 
# From -- ./inp_files/135321.got.cif
#   From: 2010.05.17/outbox.cif.g08.bks.cpg/sg12_68_cif.got.tgz:135321.got - 2010.06.03 13:09:07.
