data_PCOD9183231
_publ_section_title
;
Structure prediction by ZEFSAII (Michael W. Deem and Ramdas Pophale) SiO2 
 PCOD9183231
Probable space group: C 2/M
;
_chemical_formula_sum "Si O2"
_cell_formula_units_Z 58
_cell_length_a 17.073469
_cell_length_b 14.816356
_cell_length_c 15.310947
_cell_angle_alpha 90.000000
_cell_angle_beta 52.900709
_cell_angle_gamma 90.000000
_cell_volume 3089.197586
_symmetry_space_group_name_H-M "C 2/M"
_symmetry_group_IT_number 12
_symmetry_cell_setting 'monoclinic'
loop_
_space_group_symop_operation_xyz
x,y,z
-x,y,-z
-x,-y,-z
x,-y,z
1/2+x,1/2+y,z
1/2-x,1/2+y,-z
1/2-x,1/2-y,-z
1/2+x,1/2-y,z
loop_
_atom_site_type_symbol
_atom_site_label
_atom_site_fract_x
_atom_site_fract_y
_atom_site_fract_z
Si Si1 0.527677 0.362851 0.077685
Si Si2 0.524935 0.201037 0.661035
Si Si3 0.935856 0.099907 0.319805
Si Si4 0.754583 0.395169 0.940011
Si Si5 0.850190 0.607597 0.693346
Si Si6 0.000000 0.500000 0.000000
Si Si7 0.940943 0.340959 0.904441
Si Si8 0.206395 0.395438 0.464618
O O1 0.456211 0.396331 0.202051
O O2 0.527316 0.254667 0.078427
O O3 0.500000 0.395866 0.000000
O O4 0.638620 0.388271 0.029486
O O5 0.515310 0.309309 0.675426
O O6 0.451211 0.160736 0.639054
O O7 0.492383 0.156007 0.774590
O O8 0.634580 0.170165 0.564950
O O9 0.819848 0.108685 0.414348
O O10 0.968582 0.000000 0.328697
O O11 0.783333 0.500000 0.930399
O O12 0.781745 0.368174 0.822223
O O13 0.824379 0.342599 0.960321
O O14 0.868880 0.500000 0.684700
O O15 0.802598 0.626736 0.632122
O O16 0.029546 0.421134 0.052183
O O17 0.173400 0.500000 0.498332
#
# Coordination Sequence:
#
# PCOD9183231 Si02
#       8
#     8   8   8   8   8   2   8   8
#     4  11  21  35  54  81 108 145 186 224 268 326
#     4  10  20  34  56  81 109 141 177 220 276 330
#     4  10  22  37  52  75 107 146 183 222 261 316
#     4  10  19  33  54  80 112 146 178 219 272 325
#     4   9  18  32  54  87 112 133 170 224 279 324
#     4  12  20  40  60  76 118 142 176 236 278 316
#     4  10  22  36  56  81 110 143 181 227 276 324
#     4  10  19  33  56  84 109 137 175 225 276 324
#
# _framework density 18.775103000000001
#
# number of rings (size 3 to 8) (size 9 to 14) (size 15 to 20)
#    0.000    1.931    1.379    2.897    1.931    3.310 
#    0.000    0.000    0.000    1.655    0.000    0.000 
#    0.000    0.000    0.000    0.000    0.000    0.000 
#
# Total GULP energy -161552.628712 kJ/mol
# GULP energy per Si atom -5570.780300 kJ/mol
# Density = 1.873237 g / cm^3
# Si number density = 18.775103 Si / 1000 Ang^3
#
#
#
# Elastic Constant Matrix: (Units=GPa)
#
#
# Indices 1 2 3 4 5 6 
#
# 1 40.7715 12.5883 8.7872 0.0000 4.3100 0.0000
# 2 12.5883 81.3129 3.0239 0.0000 7.0842 0.0000
# 3 8.7872 3.0239 40.7900 0.0000 -11.6908 0.0000
# 4 0.0000 0.0000 0.0000 -1.3391 0.0000 10.3223
# 5 4.3100 7.0842 -11.6908 0.0000 27.7070 0.0000
# 6 0.0000 0.0000 0.0000 10.3223 0.0000 4.1831
#
#
#
# Elastic Compliance Matrix: (Units=1/GPa)
#
#
# Indices 1 2 3 4 5 6 
#
# 1 0.027961 -0.003458 -0.007690 0.000000 -0.006710 0.000000
# 2 -0.003458 0.013168 -0.001185 0.000000 -0.003329 0.000000
# 3 -0.007690 -0.001185 0.030362 0.000000 0.014310 0.000000
# 4 0.000000 0.000000 0.000000 -0.037298 0.000000 0.092039
# 5 -0.006710 -0.003329 0.014310 0.000000 0.044025 0.000000
# 6 0.000000 0.000000 0.000000 0.092039 0.000000 0.011940
#
#
# Mechanical properties :
#
#
# Convention : Reuss Voigt Hill
#
# Bulk Modulus (GPa) = 21.35696 23.51924 22.43810
# Shear Modulus (GPa) = 38.33378 15.34186 26.83782
#
# Velocity S-wave (km/s) = 4.52346 2.86167 3.78489
# Velocity P-wave (km/s) = 6.21949 4.84488 5.57472
#
# Compressibility (1/GPa) = 0.04682314
#
# Stress axis : x y z
#
# Youngs Moduli (GPa) = 35.76356 75.94372 32.93604
#
# Poissons Ratio (x) = 0.26263 0.25329
# Poissons Ratio (y) = 0.12368 0.03904
# Poissons Ratio (z) = 0.27504 0.09002
#
# Static dielectric constant tensor:
#      x y z
#    x 1.637650 0.000000 -0.012030 
#    y 0.000000 1.666990 0.000000 
#    z -0.012030 0.000000 1.653740 
# 
# From -- ./inp_files/215212.got.cif
#   From: 2010.05.17/outbox.cif.g08.bks.cpg/sg12_108_cif.got.tgz:215212.got - 2010.06.03 13:09:07.
