data_PCOD9183360
_publ_section_title
;
Structure prediction by ZEFSAII (Michael W. Deem and Ramdas Pophale) SiO2 
 PCOD9183360
Probable space group: C 2/M
;
_chemical_formula_sum "Si O2"
_cell_formula_units_Z 64
_cell_length_a 22.918272
_cell_length_b 13.419255
_cell_length_c 12.112724
_cell_angle_alpha 90.000000
_cell_angle_beta 108.010734
_cell_angle_gamma 90.000000
_cell_volume 3542.680424
_symmetry_space_group_name_H-M "C 2/M"
_symmetry_group_IT_number 12
_symmetry_cell_setting 'monoclinic'
loop_
_space_group_symop_operation_xyz
x,y,z
-x,y,-z
-x,-y,-z
x,-y,z
1/2+x,1/2+y,z
1/2-x,1/2+y,-z
1/2-x,1/2-y,-z
1/2+x,1/2-y,z
loop_
_atom_site_type_symbol
_atom_site_label
_atom_site_fract_x
_atom_site_fract_y
_atom_site_fract_z
Si Si1 0.074196 0.880633 0.340126
Si Si2 0.564589 0.244793 0.539135
Si Si3 0.162742 0.802163 0.934471
Si Si4 0.351069 0.383388 0.304299
Si Si5 0.775066 0.618450 0.129504
Si Si6 0.795095 0.120430 0.510858
Si Si7 0.528120 0.617596 0.894770
Si Si8 0.684228 0.881549 0.594352
O O1 0.054667 0.829634 0.441754
O O2 0.146418 0.852377 0.377814
O O3 0.026772 0.849829 0.218543
O O4 0.071890 0.000000 0.346362
O O5 0.500000 0.189948 0.500000
O O6 0.590489 0.309215 0.656698
O O7 0.619040 0.170233 0.542733
O O8 0.179581 0.861186 0.830694
O O9 0.179492 0.687744 0.916427
O O10 0.091933 0.824124 0.919491
O O11 0.207344 0.844427 0.055309
O O12 0.367681 0.500000 0.321733
O O13 0.311777 0.357553 0.392084
O O14 0.781024 0.500000 0.113405
O O15 0.789772 0.637334 0.267104
O O16 0.732093 0.154184 0.529560
O O17 0.792243 0.000000 0.511710
O O18 0.541713 0.500000 0.880312
O O19 0.500000 0.624812 0.000000
O O20 0.677365 0.000000 0.580497
#
# Coordination Sequence:
#
# PCOD9183360 Si02
#       8
#     8   8   8   8   8   8   8   8
#     4   9  19  33  51  79 111 142 173 219 278 336
#     4  11  21  33  51  77 106 142 185 224 272 326
#     4  11  21  37  58  85 114 146 189 224 276 337
#     4  10  19  33  54  84 114 143 175 221 279 336
#     4  10  22  38  58  82 110 148 189 235 279 322
#     4   8  17  33  54  78 109 143 179 223 278 332
#     4  10  21  35  56  86 119 151 182 224 280 339
#     4  10  21  38  56  77 109 146 187 235 277 318
#
# _framework density 18.065418000000001
#
# number of rings (size 3 to 8) (size 9 to 14) (size 15 to 20)
#    0.000    2.125    1.250    3.000    1.750    4.250 
#    0.000    0.000    0.000    0.375    0.000    0.000 
#    0.000    0.000    0.000    0.000    0.000    0.000 
#
# Total GULP energy -178340.032064 kJ/mol
# GULP energy per Si atom -5573.126002 kJ/mol
# Density = 1.802430 g / cm^3
# Si number density = 18.065418 Si / 1000 Ang^3
#
#
#
# Elastic Constant Matrix: (Units=GPa)
#
#
# Indices 1 2 3 4 5 6 
#
# 1 134.7319 36.4202 38.0590 0.0000 18.9802 0.0000
# 2 36.4202 69.9475 13.4546 0.0000 2.2681 0.0000
# 3 38.0590 13.4546 62.3573 0.0000 17.8458 0.0000
# 4 0.0000 0.0000 0.0000 22.0363 0.0000 0.8728
# 5 18.9802 2.2681 17.8458 0.0000 20.6323 0.0000
# 6 0.0000 0.0000 0.0000 0.8728 0.0000 20.8537
#
#
#
# Elastic Compliance Matrix: (Units=1/GPa)
#
#
# Indices 1 2 3 4 5 6 
#
# 1 0.010561 -0.004584 -0.003748 0.000000 -0.005969 0.000000
# 2 -0.004584 0.016941 -0.002035 0.000000 0.004115 0.000000
# 3 -0.003748 -0.002035 0.023539 0.000000 -0.016688 0.000000
# 4 0.000000 0.000000 0.000000 0.045455 0.000000 -0.001902
# 5 -0.005969 0.004115 -0.016688 0.000000 0.067941 0.000000
# 6 0.000000 0.000000 0.000000 -0.001902 0.000000 0.048033
#
#
# Mechanical properties :
#
#
# Convention : Reuss Voigt Hill
#
# Bulk Modulus (GPa) = 32.99629 49.21160 41.10394
# Shear Modulus (GPa) = 20.55002 24.64465 22.59734
#
# Velocity S-wave (km/s) = 3.37639 3.69750 3.54059
# Velocity P-wave (km/s) = 5.78831 6.74749 6.28622
#
# Compressibility (1/GPa) = 0.03030644
#
# Stress axis : x y z
#
# Youngs Moduli (GPa) = 94.68668 59.02681 42.48186
#
# Poissons Ratio (x) = 0.27060 0.15924
# Poissons Ratio (y) = 0.43408 0.08645
# Poissons Ratio (z) = 0.35492 0.12012
#
# Static dielectric constant tensor:
#      x y z
#    x 1.682350 0.000000 0.016610 
#    y 0.000000 1.647040 0.000000 
#    z 0.016610 0.000000 1.635170 
# 
# From -- ./inp_files/167320.got.cif
#   From: 2010.05.17/outbox.cif.g08.bks.cpg/sg12_84_cif.got.tgz:167320.got - 2010.06.03 13:09:07.
