data_PCOD9183458
_publ_section_title
;
Structure prediction by ZEFSAII (Michael W. Deem and Ramdas Pophale) SiO2 
 PCOD9183458
Probable space group: C 2/M
;
_chemical_formula_sum "Si O2"
_cell_formula_units_Z 58
_cell_length_a 19.806621
_cell_length_b 7.195446
_cell_length_c 17.682371
_cell_angle_alpha 90.000000
_cell_angle_beta 104.941941
_cell_angle_gamma 90.000000
_cell_volume 2434.837973
_symmetry_space_group_name_H-M "C 2/M"
_symmetry_group_IT_number 12
_symmetry_cell_setting 'monoclinic'
loop_
_space_group_symop_operation_xyz
x,y,z
-x,y,-z
-x,-y,-z
x,-y,z
1/2+x,1/2+y,z
1/2-x,1/2+y,-z
1/2-x,1/2-y,-z
1/2+x,1/2-y,z
loop_
_atom_site_type_symbol
_atom_site_label
_atom_site_fract_x
_atom_site_fract_y
_atom_site_fract_z
Si Si1 0.870282 0.773978 0.993748
Si Si2 0.486150 0.725811 0.780517
Si Si3 0.109343 0.225185 0.561967
Si Si4 0.146913 0.224925 0.848264
Si Si5 0.646763 0.721301 0.174871
Si Si6 0.465166 0.725110 0.604937
Si Si7 0.000000 0.500000 0.000000
Si Si8 0.785311 0.783603 0.286231
O O1 0.832538 0.722321 0.903890
O O2 0.881395 0.000000 0.997927
O O3 0.832081 0.721611 0.060750
O O4 0.942861 0.663283 0.009285
O O5 0.486184 0.500000 0.782088
O O6 0.565653 0.780288 0.816512
O O7 0.430234 0.791382 0.825984
O O8 0.461263 0.785326 0.690116
O O9 0.093043 0.288112 0.471982
O O10 0.176689 0.290485 0.628117
O O11 0.040903 0.273778 0.591915
O O12 0.111221 0.000000 0.557855
O O13 0.186144 0.294728 0.785035
O O14 0.150410 0.000000 0.846954
O O15 0.643781 0.500000 0.173876
O O16 0.702482 0.772012 0.254653
O O17 0.463448 0.500000 0.605945
O O18 0.804722 0.000000 0.291113
#
# Coordination Sequence:
#
# PCOD9183458 Si02
#       8
#     8   8   8   8   8   8   2   8
#     4  10  22  39  57  84 119 154 192 239 283 337
#     4   9  15  27  49  74 101 137 181 220 272 336
#     4   8  13  23  43  76 107 130 166 230 286 324
#     4   9  17  33  56  79 104 142 188 236 279 326
#     4  10  22  37  52  73 110 154 184 225 280 338
#     4   8  12  21  43  75 106 129 169 227 280 329
#     4  12  22  36  64  90 116 148 196 232 300 334
#     4  10  19  33  55  79 108 143 184 229 283 336
#
# _framework density 23.820888
#
# number of rings (size 3 to 8) (size 9 to 14) (size 15 to 20)
#    0.000    2.759    1.379    1.862    0.966    2.759 
#    1.241    0.690    0.000    0.000    0.000    1.931 
#    0.000    0.000    0.000    0.000    0.000    0.000 
#
# Total GULP energy -161677.088050 kJ/mol
# GULP energy per Si atom -5575.072002 kJ/mol
# Density = 2.376667 g / cm^3
# Si number density = 23.820888 Si / 1000 Ang^3
#
#
#
# Elastic Constant Matrix: (Units=GPa)
#
#
# Indices 1 2 3 4 5 6 
#
# 1 36.1557 -14.9765 9.6081 0.0000 13.3879 0.0000
# 2 -14.9765 130.0271 -4.4389 0.0000 -1.3979 0.0000
# 3 9.6081 -4.4389 125.0565 0.0000 6.7291 0.0000
# 4 0.0000 0.0000 0.0000 -0.7006 0.0000 -8.1903
# 5 13.3879 -1.3979 6.7291 0.0000 33.5817 0.0000
# 6 0.0000 0.0000 0.0000 -8.1903 0.0000 42.1234
#
#
#
# Elastic Compliance Matrix: (Units=1/GPa)
#
#
# Indices 1 2 3 4 5 6 
#
# 1 0.034625 0.003784 -0.001811 0.000000 -0.013283 0.000000
# 2 0.003784 0.008116 0.000061 0.000000 -0.001183 0.000000
# 3 -0.001811 0.000061 0.008187 0.000000 -0.000916 0.000000
# 4 0.000000 0.000000 0.000000 -0.436091 0.000000 -0.084792
# 5 -0.013283 -0.001183 -0.000916 0.000000 0.035208 0.000000
# 6 0.000000 0.000000 0.000000 -0.084792 0.000000 0.007253
#
#
# Mechanical properties :
#
#
# Convention : Reuss Voigt Hill
#
# Bulk Modulus (GPa) = 18.18353 30.18051 24.18202
# Shear Modulus (GPa) = -15.22361 35.07067 9.92353
#
# Velocity S-wave (km/s) = -2.53076 3.84117 2.04327
# Velocity P-wave (km/s) = 0.94321 5.68947 3.96740
#
# Compressibility (1/GPa) = 0.05499484
#
# Stress axis : x y z
#
# Youngs Moduli (GPa) = 28.88061 123.21555 122.14500
#
# Poissons Ratio (x) = -0.46619 0.22123
# Poissons Ratio (y) = -0.10927 -0.00745
# Poissons Ratio (z) = 0.05231 -0.00752
#
# Static dielectric constant tensor:
#      x y z
#    x 1.843410 0.000000 0.012620 
#    y 0.000000 1.876070 0.000000 
#    z 0.012620 0.000000 1.945980 
# 
# From -- ./inp_files/281562.got.cif
#   From: 2010.05.17/outbox.cif.g08.bks.cpg/sg12_141_cif.got.tgz:281562.got - 2010.06.03 13:09:07.
