data_PCOD9183067
_publ_section_title
;
Structure prediction by ZEFSAII (Michael W. Deem and Ramdas Pophale) SiO2 
 PCOD9183067
Probable space group: C 2/M
;
_chemical_formula_sum "Si O2"
_cell_formula_units_Z 56
_cell_length_a 7.977514
_cell_length_b 19.293986
_cell_length_c 20.431778
_cell_angle_alpha 90.000000
_cell_angle_beta 67.001120
_cell_angle_gamma 90.000000
_cell_volume 2894.845442
_symmetry_space_group_name_H-M "C 2/M"
_symmetry_group_IT_number 12
_symmetry_cell_setting 'monoclinic'
loop_
_space_group_symop_operation_xyz
x,y,z
-x,y,-z
-x,-y,-z
x,-y,z
1/2+x,1/2+y,z
1/2-x,1/2+y,-z
1/2-x,1/2-y,-z
1/2+x,1/2-y,z
loop_
_atom_site_type_symbol
_atom_site_label
_atom_site_fract_x
_atom_site_fract_y
_atom_site_fract_z
Si Si1 0.201982 0.830985 0.999886
Si Si2 0.783064 0.329147 0.419722
Si Si3 0.087921 0.578419 0.710238
Si Si4 0.546430 0.669113 0.154944
Si Si5 0.121537 0.828959 0.580481
Si Si6 0.644869 0.169364 0.155185
Si Si7 0.490300 0.421583 0.710356
O O1 0.185910 0.856751 0.076892
O O2 0.250000 0.750000 0.000000
O O3 0.339465 0.856577 0.922716
O O4 0.000000 0.837416 0.000000
O O5 0.906752 0.381132 0.359418
O O6 0.848420 0.250138 0.402212
O O7 0.762187 0.344099 0.500162
O O8 0.579745 0.332803 0.420620
O O9 0.017613 0.500000 0.715448
O O10 0.296242 0.574721 0.703184
O O11 0.981675 0.623050 0.780190
O O12 0.587076 0.749832 0.163929
O O13 0.346060 0.666632 0.154637
O O14 0.543932 0.622636 0.219411
O O15 0.124295 0.880758 0.640965
O O16 0.550655 0.500000 0.715194
#
# Coordination Sequence:
#
# PCOD9183067 Si02
#       7
#     8   8   8   8   8   8   8
#     4   8  16  30  49  74  99 125 161 205 249 294
#     4   9  18  33  53  75  98 127 164 205 248 294
#     4  10  21  35  50  72 103 136 170 207 247 293
#     4  10  19  33  54  77 101 130 166 207 251 298
#     4   9  18  33  53  75  98 127 164 205 248 294
#     4  10  19  33  54  77 101 130 166 207 251 298
#     4  10  21  35  50  72 103 136 170 207 247 293
#
# _framework density 19.344728
#
# number of rings (size 3 to 8) (size 9 to 14) (size 15 to 20)
#    0.000    2.571    0.000    1.714    0.000    5.714 
#    0.000    3.571    0.000    4.286    0.000    6.000 
#    0.000    0.000    0.000    0.000    0.000    0.000 
#
# Total GULP energy -156115.173017 kJ/mol
# GULP energy per Si atom -5575.541893 kJ/mol
# Density = 1.930070 g / cm^3
# Si number density = 19.344728 Si / 1000 Ang^3
#
#
#
# Elastic Constant Matrix: (Units=GPa)
#
#
# Indices 1 2 3 4 5 6 
#
# 1 17.4943 5.6721 7.4605 0.0000 4.2615 0.0000
# 2 5.6721 130.6377 129.7332 0.0000 -21.9959 0.0000
# 3 7.4605 129.7332 205.1472 0.0000 -34.0420 0.0000
# 4 0.0000 0.0000 0.0000 -4.0429 0.0000 -0.6593
# 5 4.2615 -21.9959 -34.0420 0.0000 159.6515 0.0000
# 6 0.0000 0.0000 0.0000 -0.6593 0.0000 20.0230
#
#
#
# Elastic Compliance Matrix: (Units=1/GPa)
#
#
# Indices 1 2 3 4 5 6 
#
# 1 0.058799 -0.001175 -0.001744 0.000000 -0.002103 0.000000
# 2 -0.001175 0.020602 -0.012968 0.000000 0.000105 0.000000
# 3 -0.001744 -0.012968 0.013322 0.000000 0.001100 0.000000
# 4 0.000000 0.000000 0.000000 -0.246027 0.000000 -0.008101
# 5 -0.002103 0.000105 0.001100 0.000000 0.006569 0.000000
# 6 0.000000 0.000000 0.000000 -0.008101 0.000000 0.049676
#
#
# Mechanical properties :
#
#
# Convention : Reuss Voigt Hill
#
# Bulk Modulus (GPa) = 16.40764 71.00122 43.70443
# Shear Modulus (GPa) = -111.18896 49.15386 -31.01755
#
# Velocity S-wave (km/s) = -7.58963 5.04625 -4.00861
# Velocity P-wave (km/s) = 8.26457 8.41045 1.10284
#
# Compressibility (1/GPa) = 0.06094721
#
# Stress axis : x y z
#
# Youngs Moduli (GPa) = 17.00716 48.53885 75.06530
#
# Poissons Ratio (x) = 0.05702 0.13095
# Poissons Ratio (y) = 0.01998 0.97348
# Poissons Ratio (z) = 0.02967 0.62948
#
# Static dielectric constant tensor:
#      x y z
#    x 1.695670 0.000000 0.000810 
#    y 0.000000 1.632710 0.000000 
#    z 0.000810 0.000000 1.716990 
# 
# From -- ./inp_files/300706.got.cif
#   From: 2010.05.17/outbox.cif.g08.bks.cpg/sg12_151_cif.got.tgz:300706.got - 2010.06.03 13:09:07.
