data_PCOD9183789
_publ_section_title
;
Structure prediction by ZEFSAII (Michael W. Deem and Ramdas Pophale) SiO2 
 PCOD9183789
Probable space group: C 2/M
;
_chemical_formula_sum "Si O2"
_cell_formula_units_Z 64
_cell_length_a 14.809297
_cell_length_b 8.989689
_cell_length_c 26.790244
_cell_angle_alpha 90.000000
_cell_angle_beta 77.145925
_cell_angle_gamma 90.000000
_cell_volume 3477.231385
_symmetry_space_group_name_H-M "C 2/M"
_symmetry_group_IT_number 12
_symmetry_cell_setting 'monoclinic'
loop_
_space_group_symop_operation_xyz
x,y,z
-x,y,-z
-x,-y,-z
x,-y,z
1/2+x,1/2+y,z
1/2-x,1/2+y,-z
1/2-x,1/2-y,-z
1/2+x,1/2-y,z
loop_
_atom_site_type_symbol
_atom_site_label
_atom_site_fract_x
_atom_site_fract_y
_atom_site_fract_z
Si Si1 0.835204 0.177610 0.783853
Si Si2 0.846763 0.320855 0.131913
Si Si3 0.415129 0.822156 0.676910
Si Si4 0.608349 0.822188 0.619643
Si Si5 0.946390 0.321611 0.859499
Si Si6 0.100692 0.172497 0.513419
Si Si7 0.263207 0.177563 0.944576
Si Si8 0.685985 0.320528 0.401346
O O1 0.732379 0.214390 0.817219
O O2 0.857053 0.247105 0.727738
O O3 0.909208 0.241788 0.814425
O O4 0.842560 0.000000 0.780669
O O5 0.846592 0.500000 0.124781
O O6 0.810013 0.244164 0.086031
O O7 0.950471 0.277331 0.135789
O O8 0.523170 0.775906 0.664771
O O9 0.380758 0.764921 0.627563
O O10 0.408016 0.000000 0.681315
O O11 0.600362 0.759637 0.564823
O O12 0.709586 0.784140 0.626932
O O13 0.604331 0.000000 0.616177
O O14 0.947633 0.500000 0.850606
O O15 0.866579 0.291228 0.910431
O O16 0.169817 0.223116 0.461032
O O17 0.000000 0.180512 0.500000
O O18 0.120714 0.000000 0.522188
O O19 0.252459 0.000000 0.948609
O O20 0.250000 0.250000 0.000000
O O21 0.670357 0.500000 0.400256
#
# Coordination Sequence:
#
# PCOD9183789 Si02
#       8
#     8   8   8   8   8   8   8   8
#     4  10  21  37  58  81 106 138 176 225 276 319
#     4   9  19  37  59  81 107 143 186 226 269 320
#     4  11  23  38  55  78 107 139 176 218 264 317
#     4  10  22  37  55  78 105 139 175 212 257 316
#     4   9  19  37  59  81 108 145 185 224 267 318
#     4  10  19  33  56  81 105 135 169 213 264 312
#     4  10  20  34  54  82 117 152 185 224 267 312
#     4  10  21  38  56  77 106 138 173 213 262 317
#
# _framework density 18.405448
#
# number of rings (size 3 to 8) (size 9 to 14) (size 15 to 20)
#    0.000    2.125    1.250    1.500    0.000    4.750 
#    0.000    7.500    0.000    0.000    0.000    0.000 
#    0.000    0.000    0.000    0.000    0.000    0.000 
#
# Total GULP energy -178571.244563 kJ/mol
# GULP energy per Si atom -5580.351393 kJ/mol
# Density = 1.836356 g / cm^3
# Si number density = 18.405448 Si / 1000 Ang^3
#
#
#
# Elastic Constant Matrix: (Units=GPa)
#
#
# Indices 1 2 3 4 5 6 
#
# 1 102.0445 25.9502 17.5216 0.0000 -10.4366 0.0000
# 2 25.9502 15.0708 17.8353 0.0000 -5.6571 0.0000
# 3 17.5216 17.8353 68.2584 0.0000 -6.6942 0.0000
# 4 0.0000 0.0000 0.0000 33.8586 0.0000 4.7150
# 5 -10.4366 -5.6571 -6.6942 0.0000 12.4394 0.0000
# 6 0.0000 0.0000 0.0000 4.7150 0.0000 25.3756
#
#
#
# Elastic Compliance Matrix: (Units=1/GPa)
#
#
# Indices 1 2 3 4 5 6 
#
# 1 0.018648 -0.037810 0.005216 0.000000 0.001257 0.000000
# 2 -0.037810 0.186379 -0.035675 0.000000 0.033839 0.000000
# 3 0.005216 -0.035675 0.022667 0.000000 0.000350 0.000000
# 4 0.000000 0.000000 0.000000 0.030319 0.000000 -0.005634
# 5 0.001257 0.033839 0.000350 0.000000 0.097022 0.000000
# 6 0.000000 0.000000 0.000000 -0.005634 0.000000 0.040455
#
#
# Mechanical properties :
#
#
# Convention : Reuss Voigt Hill
#
# Bulk Modulus (GPa) = 10.97019 34.22086 22.59552
# Shear Modulus (GPa) = 8.89026 22.60582 15.74804
#
# Velocity S-wave (km/s) = 2.20016 3.50839 2.92827
# Velocity P-wave (km/s) = 3.52527 5.91987 4.87198
#
# Compressibility (1/GPa) = 0.09115615
#
# Stress axis : x y z
#
# Youngs Moduli (GPa) = 53.62548 5.36541 44.11671
#
# Poissons Ratio (x) = 0.20287 -0.23011
# Poissons Ratio (y) = 2.02759 1.57385
# Poissons Ratio (z) = -0.27971 0.19141
#
# Static dielectric constant tensor:
#      x y z
#    x 1.655450 0.000000 -0.034020 
#    y 0.000000 1.615040 0.000000 
#    z -0.034020 0.000000 1.617610 
# 
# From -- ./inp_files/359706.got.cif
#   From: 2010.05.17/outbox.cif.g08.bks.cpg/sg12_180_cif.got.tgz:359706.got - 2010.06.03 13:09:07.
