data_PCOD9183288
_publ_section_title
;
Structure prediction by ZEFSAII (Michael W. Deem and Ramdas Pophale) SiO2 
 PCOD9183288
Probable space group: C 2/M
;
_chemical_formula_sum "Si O2"
_cell_formula_units_Z 64
_cell_length_a 29.353610
_cell_length_b 7.903291
_cell_length_c 14.613141
_cell_angle_alpha 90.000000
_cell_angle_beta 59.956383
_cell_angle_gamma 90.000000
_cell_volume 2934.625270
_symmetry_space_group_name_H-M "C 2/M"
_symmetry_group_IT_number 12
_symmetry_cell_setting 'monoclinic'
loop_
_space_group_symop_operation_xyz
x,y,z
-x,y,-z
-x,-y,-z
x,-y,z
1/2+x,1/2+y,z
1/2-x,1/2+y,-z
1/2-x,1/2-y,-z
1/2+x,1/2-y,z
loop_
_atom_site_type_symbol
_atom_site_label
_atom_site_fract_x
_atom_site_fract_y
_atom_site_fract_z
Si Si1 0.610822 0.698417 0.457902
Si Si2 0.796078 0.301498 0.885194
Si Si3 0.960763 0.694066 0.616547
Si Si4 0.295339 0.703547 0.381872
Si Si5 0.222100 0.294442 0.301058
Si Si6 0.088877 0.206929 0.677886
Si Si7 0.507441 0.707717 0.097187
Si Si8 0.590905 0.695556 0.152641
O O1 0.600674 0.500000 0.452647
O O2 0.593544 0.799533 0.385887
O O3 0.672575 0.726256 0.408099
O O4 0.581746 0.757446 0.579060
O O5 0.792268 0.500000 0.876629
O O6 0.785512 0.227668 0.794415
O O7 0.853567 0.267175 0.869641
O O8 0.750000 0.250000 0.000000
O O9 0.975369 0.500000 0.620203
O O10 0.950146 0.787448 0.721529
O O11 0.000000 0.767625 0.500000
O O12 0.298879 0.500000 0.378466
O O13 0.250000 0.750000 0.500000
O O14 0.274432 0.756844 0.302794
O O15 0.353568 0.766792 0.347663
O O16 0.219959 0.500000 0.304211
O O17 0.042247 0.260810 0.791218
O O18 0.089333 0.000000 0.676581
O O19 0.508496 0.500000 0.097132
O O20 0.560715 0.766852 0.094451
O O21 0.500000 0.760627 0.000000
O O22 0.601238 0.500000 0.124247
#
# Coordination Sequence:
#
# PCOD9183288 Si02
#       8
#     8   8   8   8   8   8   8   8
#     4  11  20  32  55  83 115 151 190 242 296 354
#     4  11  24  42  63  89 122 160 203 250 299 358
#     4  11  23  37  55  83 120 161 199 242 300 360
#     4  10  19  33  54  81 116 155 195 242 296 356
#     4  10  21  36  56  82 116 156 194 238 295 357
#     4   9  18  32  52  83 117 151 194 246 296 344
#     4   9  19  36  59  86 117 153 198 248 295 350
#     4  11  22  38  63  92 120 155 200 250 304 358
#
# _framework density 21.808579000000002
#
# number of rings (size 3 to 8) (size 9 to 14) (size 15 to 20)
#    0.000    1.750    2.500    2.250    0.000    3.500 
#    0.000    3.750    0.000    2.250    0.000    0.000 
#    0.000    0.000    0.000    0.000    0.000    0.000 
#
# Total GULP energy -178718.696795 kJ/mol
# GULP energy per Si atom -5584.959275 kJ/mol
# Density = 2.175894 g / cm^3
# Si number density = 21.808579 Si / 1000 Ang^3
#
#
#
# Elastic Constant Matrix: (Units=GPa)
#
#
# Indices 1 2 3 4 5 6 
#
# 1 124.0701 8.9403 52.4787 0.0000 21.2920 0.0000
# 2 8.9403 31.8067 2.1275 0.0000 3.1464 0.0000
# 3 52.4787 2.1275 123.6497 0.0000 16.9442 0.0000
# 4 0.0000 0.0000 0.0000 17.3090 0.0000 -7.7949
# 5 21.2920 3.1464 16.9442 0.0000 37.8561 0.0000
# 6 0.0000 0.0000 0.0000 -7.7949 0.0000 19.8531
#
#
#
# Elastic Compliance Matrix: (Units=1/GPa)
#
#
# Indices 1 2 3 4 5 6 
#
# 1 0.010561 -0.002312 -0.003894 0.000000 -0.004005 0.000000
# 2 -0.002312 0.032211 0.000656 0.000000 -0.001671 0.000000
# 3 -0.003894 0.000656 0.010053 0.000000 -0.002364 0.000000
# 4 0.000000 0.000000 0.000000 0.070183 0.000000 0.027556
# 5 -0.004005 -0.001671 -0.002364 0.000000 0.029865 0.000000
# 6 0.000000 0.000000 0.000000 0.027556 0.000000 0.061189
#
#
# Mechanical properties :
#
#
# Convention : Reuss Voigt Hill
#
# Bulk Modulus (GPa) = 23.96625 45.17995 34.57310
# Shear Modulus (GPa) = 20.91444 29.40230 25.15837
#
# Velocity S-wave (km/s) = 3.10013 3.67577 3.40015
# Velocity P-wave (km/s) = 4.88136 6.22708 5.59483
#
# Compressibility (1/GPa) = 0.04172534
#
# Stress axis : x y z
#
# Youngs Moduli (GPa) = 94.69058 31.04522 99.47767
#
# Poissons Ratio (x) = 0.07177 0.38732
# Poissons Ratio (y) = 0.21891 -0.06524
# Poissons Ratio (z) = 0.36868 -0.02036
#
# Static dielectric constant tensor:
#      x y z
#    x 1.865160 0.000000 0.005440 
#    y 0.000000 1.776340 0.000000 
#    z 0.005440 0.000000 1.744300 
# 
# From -- ./inp_files/248949.got.cif
#   From: 2010.05.17/outbox.cif.g08.bks.cpg/sg12_125_cif.got.tgz:248949.got - 2010.06.03 13:09:07.
