data_PCOD9183958
_publ_section_title
;
Structure prediction by ZEFSAII (Michael W. Deem and Ramdas Pophale) SiO2 
 PCOD9183958
Probable space group: C 2/M
;
_chemical_formula_sum "Si O2"
_cell_formula_units_Z 64
_cell_length_a 15.396324
_cell_length_b 7.848635
_cell_length_c 35.027599
_cell_angle_alpha 90.000000
_cell_angle_beta 139.788546
_cell_angle_gamma 90.000000
_cell_volume 2732.700512
_symmetry_space_group_name_H-M "C 2/M"
_symmetry_group_IT_number 12
_symmetry_cell_setting 'monoclinic'
loop_
_space_group_symop_operation_xyz
x,y,z
-x,y,-z
-x,-y,-z
x,-y,z
1/2+x,1/2+y,z
1/2-x,1/2+y,-z
1/2-x,1/2-y,-z
1/2+x,1/2-y,z
loop_
_atom_site_type_symbol
_atom_site_label
_atom_site_fract_x
_atom_site_fract_y
_atom_site_fract_z
Si Si1 0.034384 0.295287 0.389684
Si Si2 0.286613 0.202267 0.055267
Si Si3 0.660985 0.205494 0.356539
Si Si4 0.495864 0.295859 0.231232
Si Si5 0.923124 0.704963 0.861565
Si Si6 0.044478 0.795115 0.556558
Si Si7 0.795162 0.703479 0.893242
Si Si8 0.244085 0.204922 0.263603
O O1 0.033772 0.500000 0.387705
O O2 0.047312 0.249323 0.438233
O O3 0.887729 0.231174 0.326298
O O4 0.139770 0.236438 0.393040
O O5 0.439388 0.272160 0.111099
O O6 0.191692 0.263705 0.057505
O O7 0.288444 0.000000 0.058877
O O8 0.250000 0.250000 0.000000
O O9 0.536971 0.257499 0.288394
O O10 0.802025 0.268410 0.386508
O O11 0.665380 0.000000 0.358040
O O12 0.492066 0.500000 0.225461
O O13 0.351860 0.228961 0.169147
O O14 0.620318 0.228527 0.247731
O O15 0.934231 0.500000 0.865876
O O16 0.901418 0.767515 0.897599
O O17 0.796034 0.750440 0.792971
O O18 0.000000 0.733283 0.500000
O O19 0.047312 0.000000 0.555872
O O20 0.793877 0.500000 0.888451
O O21 0.247238 0.000000 0.267807
#
# Coordination Sequence:
#
# PCOD9183958 Si02
#       8
#     8   8   8   8   8   8   8   8
#     4  10  21  37  56  82 113 144 181 224 276 332
#     4  11  24  41  60  83 111 147 189 232 274 321
#     4  10  21  36  56  81 111 146 182 226 276 328
#     4  10  19  33  57  86 115 146 179 220 273 330
#     4  10  22  38  59  86 114 146 185 225 271 327
#     4  10  22  39  56  77 107 144 188 234 277 323
#     4  10  21  39  60  84 115 148 181 224 275 327
#     4  10  19  33  56  85 116 145 176 222 275 328
#
# _framework density 23.420057
#
# number of rings (size 3 to 8) (size 9 to 14) (size 15 to 20)
#    0.000    1.875    2.500    1.125    0.000    4.250 
#    0.000    2.500    0.000    0.000    0.000    0.000 
#    0.000    0.000    0.000    0.000    0.000    0.000 
#
# Total GULP energy -178807.050407 kJ/mol
# GULP energy per Si atom -5587.720325 kJ/mol
# Density = 2.336675 g / cm^3
# Si number density = 23.420057 Si / 1000 Ang^3
#
#
#
# Elastic Constant Matrix: (Units=GPa)
#
#
# Indices 1 2 3 4 5 6 
#
# 1 95.0924 3.9874 0.8586 0.0000 -41.0668 0.0000
# 2 3.9874 20.5296 -16.1412 0.0000 5.1006 0.0000
# 3 0.8586 -16.1412 64.3403 0.0000 -31.4882 0.0000
# 4 0.0000 0.0000 0.0000 24.9536 0.0000 -12.0257
# 5 -41.0668 5.1006 -31.4882 0.0000 41.0631 0.0000
# 6 0.0000 0.0000 0.0000 -12.0257 0.0000 16.3068
#
#
#
# Elastic Compliance Matrix: (Units=1/GPa)
#
#
# Indices 1 2 3 4 5 6 
#
# 1 0.032601 0.000468 0.024988 0.000000 0.051708 0.000000
# 2 0.000468 0.061831 0.019170 0.000000 0.007487 0.000000
# 3 0.024988 0.019170 0.049755 0.000000 0.060763 0.000000
# 4 0.000000 0.000000 0.000000 0.062169 0.000000 0.045848
# 5 0.051708 0.007487 0.060763 0.000000 0.121729 0.000000
# 6 0.000000 0.000000 0.000000 0.045848 0.000000 0.095135
#
#
# Mechanical properties :
#
#
# Convention : Reuss Voigt Hill
#
# Bulk Modulus (GPa) = 4.28377 17.48576 10.88476
# Shear Modulus (GPa) = 12.14231 29.21521 20.67876
#
# Velocity S-wave (km/s) = 2.27944 3.53575 2.97467
# Velocity P-wave (km/s) = 2.95987 4.91437 4.05659
#
# Compressibility (1/GPa) = 0.23343921
#
# Stress axis : x y z
#
# Youngs Moduli (GPa) = 30.67355 16.17306 20.09835
#
# Poissons Ratio (x) = -0.00757 -0.50222
# Poissons Ratio (y) = -0.01435 -0.38528
# Poissons Ratio (z) = -0.76647 -0.31004
#
# Static dielectric constant tensor:
#      x y z
#    x 1.893110 0.000000 0.013580 
#    y 0.000000 1.835780 0.000000 
#    z 0.013580 0.000000 1.897660 
# 
# From -- ./inp_files/375543.got.cif
#   From: 2010.05.17/outbox.cif.g08.bks.cpg/sg12_188_cif.got.tgz:375543.got - 2010.06.03 13:09:07.
