data_PCOD9183198
_publ_section_title
;
Structure prediction by ZEFSAII (Michael W. Deem and Ramdas Pophale) SiO2 
 PCOD9183198
Probable space group: C 2/M
;
_chemical_formula_sum "Si O2"
_cell_formula_units_Z 56
_cell_length_a 19.183200
_cell_length_b 9.566868
_cell_length_c 20.648106
_cell_angle_alpha 90.000000
_cell_angle_beta 56.319850
_cell_angle_gamma 90.000000
_cell_volume 3153.339583
_symmetry_space_group_name_H-M "C 2/M"
_symmetry_group_IT_number 12
_symmetry_cell_setting 'monoclinic'
loop_
_space_group_symop_operation_xyz
x,y,z
-x,y,-z
-x,-y,-z
x,-y,z
1/2+x,1/2+y,z
1/2-x,1/2+y,-z
1/2-x,1/2-y,-z
1/2+x,1/2-y,z
loop_
_atom_site_type_symbol
_atom_site_label
_atom_site_fract_x
_atom_site_fract_y
_atom_site_fract_z
Si Si1 0.038015 0.837610 0.222006
Si Si2 0.593869 0.651207 0.426335
Si Si3 0.220563 0.158269 0.832290
Si Si4 0.253539 0.834944 0.431059
Si Si5 0.087266 0.345752 0.310335
Si Si6 0.772429 0.833497 0.923780
Si Si7 0.644118 0.332928 0.731995
O O1 0.033603 0.745567 0.288721
O O2 0.128010 0.812836 0.142098
O O3 0.955845 0.811711 0.221555
O O4 0.036748 0.000000 0.241728
O O5 0.500000 0.648070 0.500000
O O6 0.612721 0.500000 0.384678
O O7 0.660276 0.668196 0.449000
O O8 0.598791 0.773212 0.372676
O O9 0.319266 0.147437 0.766286
O O10 0.218636 0.266514 0.892537
O O11 0.177045 0.201884 0.787204
O O12 0.191159 0.000000 0.864532
O O13 0.250000 0.750000 0.500000
O O14 0.311168 0.757440 0.347316
O O15 0.276458 0.000000 0.427521
O O16 0.051775 0.500000 0.334782
O O17 0.758059 0.000000 0.936772
O O18 0.750000 0.750000 0.000000
O O19 0.661433 0.500000 0.713137
#
# Coordination Sequence:
#
# PCOD9183198 Si02
#       7
#     8   8   8   8   8   8   8
#     4   9  20  36  57  82 110 146 185 221 268 331
#     4  10  22  38  54  73 102 143 187 227 274 331
#     4   9  18  34  57  82 108 141 179 221 271 325
#     4  11  24  39  56  79 111 149 189 235 284 333
#     4  10  19  33  54  80 106 136 178 232 278 318
#     4  10  20  36  59  86 114 146 182 222 269 325
#     4  10  20  38  60  81 111 148 187 231 277 331
#
# _framework density 17.758949000000001
#
# number of rings (size 3 to 8) (size 9 to 14) (size 15 to 20)
#    0.000    2.143    1.429    1.286    2.000    3.143 
#    0.000    0.714    0.000    4.286    0.000    0.000 
#    0.000    0.000    0.000    0.000    0.000    0.000 
#
# Total GULP energy -156064.978763 kJ/mol
# GULP energy per Si atom -5573.749242 kJ/mol
# Density = 1.771853 g / cm^3
# Si number density = 17.758949 Si / 1000 Ang^3
#
#
#
# Elastic Constant Matrix: (Units=GPa)
#
#
# Indices 1 2 3 4 5 6 
#
# 1 114.5198 65.4679 42.8349 0.0000 19.4634 0.0001
# 2 65.4679 126.2586 78.6607 0.0000 23.7244 0.0001
# 3 42.8349 78.6607 73.3246 0.0000 28.5097 0.0000
# 4 0.0000 0.0000 0.0000 -33.1595 0.0000 58.8397
# 5 19.4634 23.7244 28.5097 0.0000 26.9227 0.0000
# 6 0.0001 0.0001 0.0000 58.8397 0.0000 -13.0341
#
#
#
# Elastic Compliance Matrix: (Units=1/GPa)
#
#
# Indices 1 2 3 4 5 6 
#
# 1 0.012829 -0.006837 0.001876 0.000000 -0.005236 0.000000
# 2 -0.006837 0.029349 -0.032905 0.000000 0.013925 0.000000
# 3 0.001876 -0.032905 0.063058 0.000000 -0.039135 0.000000
# 4 0.000000 0.000000 0.000000 0.004302 0.000000 0.019420
# 5 -0.005236 0.013925 -0.039135 0.000000 0.070100 0.000000
# 6 0.000000 0.000000 0.000000 0.019420 0.000000 0.010944
#
#
# Mechanical properties :
#
#
# Convention : Reuss Voigt Hill
#
# Bulk Modulus (GPa) = 33.89371 76.44778 55.17074
# Shear Modulus (GPa) = 18.10622 4.62179 11.36401
#
# Velocity S-wave (km/s) = 3.19651 1.61498 2.53237
# Velocity P-wave (km/s) = 5.72280 6.82777 6.29956
#
# Compressibility (1/GPa) = 0.02950400
#
# Stress axis : x y z
#
# Youngs Moduli (GPa) = 77.94946 34.07261 15.85846
#
# Poissons Ratio (x) = 0.23295 -0.02975
# Poissons Ratio (y) = 0.53293 0.52182
# Poissons Ratio (z) = -0.14624 1.12116
#
# Static dielectric constant tensor:
#      x y z
#    x 1.666300 0.000000 -0.042620 
#    y 0.000000 1.687920 0.000000 
#    z -0.042620 0.000000 1.608860 
# 
# From -- ./inp_files/275309.got.cif
#   From: 2010.05.17/outbox.cif.g08.bks.cpg/sg12_138_cif.got.tgz:275309.got - 2010.06.03 13:09:07.
