data_PCOD9183422
_publ_section_title
;
Structure prediction by ZEFSAII (Michael W. Deem and Ramdas Pophale) SiO2 
 PCOD9183422
Probable space group: C 2/M
;
_chemical_formula_sum "Si O2"
_cell_formula_units_Z 64
_cell_length_a 20.609032
_cell_length_b 8.852922
_cell_length_c 25.038746
_cell_angle_alpha 90.000000
_cell_angle_beta 126.201979
_cell_angle_gamma 90.000000
_cell_volume 3686.362187
_symmetry_space_group_name_H-M "C 2/M"
_symmetry_group_IT_number 12
_symmetry_cell_setting 'monoclinic'
loop_
_space_group_symop_operation_xyz
x,y,z
-x,y,-z
-x,-y,-z
x,-y,z
1/2+x,1/2+y,z
1/2-x,1/2+y,-z
1/2-x,1/2-y,-z
1/2+x,1/2-y,z
loop_
_atom_site_type_symbol
_atom_site_label
_atom_site_fract_x
_atom_site_fract_y
_atom_site_fract_z
Si Si1 0.788011 0.818920 0.324843
Si Si2 0.225865 0.181846 0.183952
Si Si3 0.366285 0.818992 0.685428
Si Si4 0.887071 0.681327 0.205464
Si Si5 0.476571 0.320282 0.652909
Si Si6 0.994856 0.680539 0.161706
Si Si7 0.456898 0.682126 0.925032
Si Si8 0.464169 0.180322 0.424511
O O1 0.751733 0.759868 0.251516
O O2 0.723220 0.780140 0.339286
O O3 0.874399 0.745565 0.375978
O O4 0.795466 0.000000 0.326251
O O5 0.295189 0.216291 0.174486
O O6 0.136695 0.228855 0.123397
O O7 0.225757 0.000000 0.191886
O O8 0.400537 0.737726 0.649955
O O9 0.427162 0.781282 0.763906
O O10 0.371781 0.000000 0.680367
O O11 0.898831 0.500000 0.217159
O O12 0.945425 0.760941 0.276446
O O13 0.919023 0.721688 0.162179
O O14 0.477742 0.500000 0.651335
O O15 0.483204 0.251606 0.597285
O O16 0.995117 0.500000 0.154084
O O17 0.000572 0.759675 0.107810
O O18 0.458826 0.500000 0.925780
O O19 0.500000 0.735214 0.000000
O O20 0.500000 0.215038 0.500000
O O21 0.461652 0.000000 0.416256
#
# Coordination Sequence:
#
# PCOD9183422 Si02
#       8
#     8   8   8   8   8   8   8   8
#     4  11  21  35  58  87 113 139 183 238 277 319
#     4  10  19  33  55  78 106 147 186 224 273 331
#     4   9  19  35  55  81 114 145 177 227 281 328
#     4   9  18  33  53  77 106 141 181 226 276 328
#     4  11  21  33  55  85 113 143 183 230 274 322
#     4   9  17  32  52  75 104 139 181 224 273 328
#     4  10  21  35  51  76 110 146 185 229 277 329
#     4  11  24  41  59  80 113 154 187 219 272 337
#
# _framework density 17.36129
#
# number of rings (size 3 to 8) (size 9 to 14) (size 15 to 20)
#    0.000    2.000    2.500    2.625    0.000    4.250 
#    0.000    1.250    0.000    0.000    0.000    0.000 
#    0.000    0.000    0.000    0.000    0.000    0.000 
#
# Total GULP energy -178600.248654 kJ/mol
# GULP energy per Si atom -5581.257770 kJ/mol
# Density = 1.732177 g / cm^3
# Si number density = 17.361290 Si / 1000 Ang^3
#
#
#
# Elastic Constant Matrix: (Units=GPa)
#
#
# Indices 1 2 3 4 5 6 
#
# 1 139.2174 43.4827 56.5751 0.0000 -18.7039 0.0000
# 2 43.4827 34.6423 36.7852 0.0000 -8.6922 0.0000
# 3 56.5751 36.7852 83.6105 0.0000 -12.1037 0.0000
# 4 0.0000 0.0000 0.0000 8.7124 0.0000 -7.7331
# 5 -18.7039 -8.6922 -12.1037 0.0000 25.5610 0.0000
# 6 0.0000 0.0000 0.0000 -7.7331 0.0000 28.1724
#
#
#
# Elastic Compliance Matrix: (Units=1/GPa)
#
#
# Indices 1 2 3 4 5 6 
#
# 1 0.012497 -0.011887 -0.002670 0.000000 0.003837 0.000000
# 2 -0.011887 0.066918 -0.020788 0.000000 0.004214 0.000000
# 3 -0.002670 -0.020788 0.023197 0.000000 0.001961 0.000000
# 4 0.000000 0.000000 0.000000 0.151752 0.000000 0.041655
# 5 0.003837 0.004214 0.001961 0.000000 0.044292 0.000000
# 6 0.000000 0.000000 0.000000 0.041655 0.000000 0.046930
#
#
# Mechanical properties :
#
#
# Convention : Reuss Voigt Hill
#
# Bulk Modulus (GPa) = 31.32744 59.01737 45.17240
# Shear Modulus (GPa) = 11.71192 20.53097 16.12144
#
# Velocity S-wave (km/s) = 2.60012 3.44258 3.05058
# Velocity P-wave (km/s) = 5.20555 7.06182 6.20351
#
# Compressibility (1/GPa) = 0.03192090
#
# Stress axis : x y z
#
# Youngs Moduli (GPa) = 80.02201 14.94364 43.10926
#
# Poissons Ratio (x) = 0.17764 0.11512
# Poissons Ratio (y) = 0.95123 0.89615
# Poissons Ratio (z) = 0.21370 0.31065
#
# Static dielectric constant tensor:
#      x y z
#    x 1.604580 0.000000 0.002170 
#    y 0.000000 1.580500 0.000000 
#    z 0.002170 0.000000 1.556930 
# 
# From -- ./inp_files/346195.got.cif
#   From: 2010.05.17/outbox.cif.g08.bks.cpg/sg12_174_cif.got.tgz:346195.got - 2010.06.03 13:09:07.
