data_PCOD9183336
_publ_section_title
;
Structure prediction by ZEFSAII (Michael W. Deem and Ramdas Pophale) SiO2 
 PCOD9183336
Probable space group: C 2/M
;
_chemical_formula_sum "Si O2"
_cell_formula_units_Z 56
_cell_length_a 19.290737
_cell_length_b 8.835090
_cell_length_c 20.299743
_cell_angle_alpha 90.000000
_cell_angle_beta 126.493133
_cell_angle_gamma 90.000000
_cell_volume 2781.426392
_symmetry_space_group_name_H-M "C 2/M"
_symmetry_group_IT_number 12
_symmetry_cell_setting 'monoclinic'
loop_
_space_group_symop_operation_xyz
x,y,z
-x,y,-z
-x,-y,-z
x,-y,z
1/2+x,1/2+y,z
1/2-x,1/2+y,-z
1/2-x,1/2-y,-z
1/2+x,1/2-y,z
loop_
_atom_site_type_symbol
_atom_site_label
_atom_site_fract_x
_atom_site_fract_y
_atom_site_fract_z
Si Si1 0.661366 0.178234 0.302841
Si Si2 0.939101 0.824694 0.868891
Si Si3 0.303669 0.321784 0.904159
Si Si4 0.311994 0.680674 0.479020
Si Si5 0.613131 0.821493 0.925827
Si Si6 0.371035 0.680121 0.210482
Si Si7 0.539288 0.178610 0.363266
O O1 0.628575 0.285334 0.226834
O O2 0.758653 0.210508 0.382169
O O3 0.597204 0.198930 0.329359
O O4 0.655723 0.000000 0.281072
O O5 0.889406 0.803390 0.909103
O O6 0.019319 0.715692 0.902659
O O7 0.967926 0.000000 0.880643
O O8 0.286334 0.500000 0.900900
O O9 0.223095 0.241731 0.823838
O O10 0.320255 0.249030 0.984600
O O11 0.316183 0.500000 0.489707
O O12 0.250000 0.750000 0.500000
O O13 0.404846 0.751976 0.545594
O O14 0.615301 0.744281 0.855697
O O15 0.626346 0.000000 0.926596
O O16 0.372369 0.500000 0.210416
O O17 0.448298 0.742604 0.298811
O O18 0.528161 0.000000 0.366151
#
# Coordination Sequence:
#
# PCOD9183336 Si02
#       7
#     8   8   8   8   8   8   8
#     4   9  18  32  53  81 115 150 187 230 280 334
#     4  11  23  38  60  86 115 152 192 235 284 338
#     4  11  25  43  59  82 116 151 191 238 287 340
#     4   9  17  29  48  78 114 149 185 232 282 332
#     4  12  24  40  62  86 114 148 190 239 287 337
#     4  12  24  39  61  86 114 151 192 235 286 343
#     4  10  19  33  54  83 115 149 186 232 284 336
#
# _framework density 20.133555000000001
#
# number of rings (size 3 to 8) (size 9 to 14) (size 15 to 20)
#    0.000    1.429    1.429    6.000    0.000    6.857 
#    0.000    0.000    0.000    0.857    0.000    6.000 
#    0.000    0.000    0.000    0.000    0.000    0.000 
#
# Total GULP energy -156521.400890 kJ/mol
# GULP energy per Si atom -5590.050032 kJ/mol
# Density = 2.008773 g / cm^3
# Si number density = 20.133555 Si / 1000 Ang^3
#
#
#
# Elastic Constant Matrix: (Units=GPa)
#
#
# Indices 1 2 3 4 5 6 
#
# 1 31.4234 12.6401 -5.5363 0.0000 11.2335 0.0000
# 2 12.6401 89.8834 19.1152 0.0000 7.6662 0.0000
# 3 -5.5363 19.1152 73.4251 0.0000 26.6650 0.0000
# 4 0.0000 0.0000 0.0000 36.5478 0.0000 8.2497
# 5 11.2335 7.6662 26.6650 0.0000 28.4277 0.0000
# 6 0.0000 0.0000 0.0000 8.2497 0.0000 23.5869
#
#
#
# Elastic Compliance Matrix: (Units=1/GPa)
#
#
# Indices 1 2 3 4 5 6 
#
# 1 0.051338 -0.008207 0.019066 0.000000 -0.035957 0.000000
# 2 -0.008207 0.013094 -0.005950 0.000000 0.005293 0.000000
# 3 0.019066 -0.005950 0.028451 0.000000 -0.032616 0.000000
# 4 0.000000 0.000000 0.000000 0.029707 0.000000 -0.010390
# 5 -0.035957 0.005293 -0.032616 0.000000 0.078552 0.000000
# 6 0.000000 0.000000 0.000000 -0.010390 0.000000 0.046031
#
#
# Mechanical properties :
#
#
# Convention : Reuss Voigt Hill
#
# Bulk Modulus (GPa) = 9.73719 27.46331 18.60025
# Shear Modulus (GPa) = 18.41030 28.94666 23.67848
#
# Velocity S-wave (km/s) = 3.02720 3.79586 3.43311
# Velocity P-wave (km/s) = 4.13103 5.73424 4.99735
#
# Compressibility (1/GPa) = 0.10269908
#
# Stress axis : x y z
#
# Youngs Moduli (GPa) = 19.47875 76.37340 35.14869
#
# Poissons Ratio (x) = 0.62682 -0.67013
# Poissons Ratio (y) = 0.15987 0.20913
# Poissons Ratio (z) = -0.37137 0.45440
#
# Static dielectric constant tensor:
#      x y z
#    x 1.726090 0.000000 0.023250 
#    y 0.000000 1.665300 0.000000 
#    z 0.023250 0.000000 1.722860 
# 
# From -- ./inp_files/320219.got.cif
#   From: 2010.05.17/outbox.cif.g08.bks.cpg/sg12_161_cif.got.tgz:320219.got - 2010.06.03 13:09:07.
