data_PCOD9183230
_publ_section_title
;
Structure prediction by ZEFSAII (Michael W. Deem and Ramdas Pophale) SiO2 
 PCOD9183230
Probable space group: C 2/M
;
_chemical_formula_sum "Si O2"
_cell_formula_units_Z 56
_cell_length_a 31.440424
_cell_length_b 8.911265
_cell_length_c 19.874054
_cell_angle_alpha 90.000000
_cell_angle_beta 36.782069
_cell_angle_gamma 90.000000
_cell_volume 3334.083023
_symmetry_space_group_name_H-M "C 2/M"
_symmetry_group_IT_number 12
_symmetry_cell_setting 'monoclinic'
loop_
_space_group_symop_operation_xyz
x,y,z
-x,y,-z
-x,-y,-z
x,-y,z
1/2+x,1/2+y,z
1/2-x,1/2+y,-z
1/2-x,1/2-y,-z
1/2+x,1/2-y,z
loop_
_atom_site_type_symbol
_atom_site_label
_atom_site_fract_x
_atom_site_fract_y
_atom_site_fract_z
Si Si1 0.692309 0.318836 0.268358
Si Si2 0.570576 0.671910 0.863849
Si Si3 0.514119 0.179552 0.144328
Si Si4 0.472137 0.319662 0.727970
Si Si5 0.815620 0.820095 0.878116
Si Si6 0.849652 0.680329 0.118911
Si Si7 0.549397 0.179977 0.501834
O O1 0.684767 0.500000 0.282916
O O2 0.685495 0.276082 0.198660
O O3 0.770939 0.278636 0.194490
O O4 0.628355 0.240503 0.388442
O O5 0.587624 0.500000 0.825325
O O6 0.547719 0.764323 0.827296
O O7 0.629759 0.745599 0.836279
O O8 0.500000 0.671921 0.000000
O O9 0.508004 0.255153 0.224555
O O10 0.512517 0.000000 0.152341
O O11 0.589437 0.221851 0.012969
O O12 0.477722 0.500000 0.720503
O O13 0.390315 0.277055 0.816526
O O14 0.517826 0.252093 0.609271
O O15 0.809698 0.000000 0.888210
O O16 0.750000 0.750000 0.000000
O O17 0.853205 0.500000 0.121330
O O18 0.500000 0.222157 0.500000
O O19 0.549005 0.000000 0.507581
#
# Coordination Sequence:
#
# PCOD9183230 Si02
#       7
#     8   8   8   8   8   8   8
#     4  10  20  36  55  76 105 141 180 220 264 316
#     4   9  17  30  50  77 110 143 178 217 260 315
#     4  10  19  33  54  80 112 143 177 219 264 317
#     4  11  22  36  55  77 105 141 180 221 266 316
#     4  10  21  34  51  76 107 141 174 212 261 315
#     4   9  18  32  53  80 110 144 178 215 265 319
#     4  11  23  38  56  77 101 136 184 230 269 312
#
# _framework density 16.796222
#
# number of rings (size 3 to 8) (size 9 to 14) (size 15 to 20)
#    0.000    2.000    1.429    2.571    0.000    6.286 
#    0.000    0.000    0.000    0.857    0.000    0.000 
#    0.000    0.000    0.000    0.000    0.000    0.000 
#
# Total GULP energy -156290.801993 kJ/mol
# GULP energy per Si atom -5581.814357 kJ/mol
# Density = 1.675799 g / cm^3
# Si number density = 16.796222 Si / 1000 Ang^3
#
#
#
# Elastic Constant Matrix: (Units=GPa)
#
#
# Indices 1 2 3 4 5 6 
#
# 1 114.6637 39.7198 41.8761 -0.0026 31.4955 0.0013
# 2 39.7198 44.1512 35.7108 -0.0024 14.5452 0.0028
# 3 41.8761 35.7108 100.0858 -0.0066 25.8831 0.0038
# 4 -0.0026 -0.0024 -0.0066 29.2924 0.0029 1.6789
# 5 31.4955 14.5452 25.8831 0.0029 16.1267 -0.0010
# 6 0.0013 0.0028 0.0038 1.6789 -0.0010 26.5459
#
#
#
# Elastic Compliance Matrix: (Units=1/GPa)
#
#
# Indices 1 2 3 4 5 6 
#
# 1 0.021840 -0.010101 0.005369 0.000007 -0.042160 -0.000003
# 2 -0.010101 0.039858 -0.009916 0.000000 -0.000307 -0.000002
# 3 0.005369 -0.009916 0.019971 0.000008 -0.033596 -0.000004
# 4 0.000007 0.000000 0.000008 0.034263 -0.000032 -0.002167
# 5 -0.042160 -0.000307 -0.033596 -0.000032 0.198545 0.000017
# 6 -0.000003 -0.000002 -0.000004 -0.002167 0.000017 0.037808
#
#
# Mechanical properties :
#
#
# Convention : Reuss Voigt Hill
#
# Bulk Modulus (GPa) = 19.09362 54.83492 36.96427
# Shear Modulus (GPa) = 12.53013 23.83261 18.18137
#
# Velocity S-wave (km/s) = 2.73428 3.77095 3.29366
# Velocity P-wave (km/s) = 4.62178 7.18875 6.04314
#
# Compressibility (1/GPa) = 0.05237352
#
# Stress axis : x y z
#
# Youngs Moduli (GPa) = 45.78805 25.08897 50.07212
#
# Poissons Ratio (x) = 0.25343 -0.26886
# Poissons Ratio (y) = 0.46253 0.49650
# Poissons Ratio (z) = -0.24585 0.24878
#
# Static dielectric constant tensor:
#      x y z
#    x 1.554270 0.000000 -0.002620 
#    y 0.000000 1.566190 0.000000 
#    z -0.002620 0.000000 1.537890 
# 
# From -- ./inp_files/280925.got.cif
#   From: 2010.05.17/outbox.cif.g08.bks.cpg/sg12_141_cif.got.tgz:280925.got - 2010.06.03 13:09:07.
