data_PCOD9183389
_publ_section_title
;
Structure prediction by ZEFSAII (Michael W. Deem and Ramdas Pophale) SiO2 
 PCOD9183389
Probable space group: C 2/M
;
_chemical_formula_sum "Si O2"
_cell_formula_units_Z 64
_cell_length_a 20.438999
_cell_length_b 9.494056
_cell_length_c 23.331153
_cell_angle_alpha 90.000000
_cell_angle_beta 135.509058
_cell_angle_gamma 90.000000
_cell_volume 3172.776901
_symmetry_space_group_name_H-M "C 2/M"
_symmetry_group_IT_number 12
_symmetry_cell_setting 'monoclinic'
loop_
_space_group_symop_operation_xyz
x,y,z
-x,y,-z
-x,-y,-z
x,-y,z
1/2+x,1/2+y,z
1/2-x,1/2+y,-z
1/2-x,1/2-y,-z
1/2+x,1/2-y,z
loop_
_atom_site_type_symbol
_atom_site_label
_atom_site_fract_x
_atom_site_fract_y
_atom_site_fract_z
Si Si1 0.938382 0.160731 0.518715
Si Si2 0.300274 0.836401 0.146354
Si Si3 0.202877 0.171801 0.197965
Si Si4 0.501624 0.838491 0.663264
Si Si5 0.004854 0.828627 0.936775
Si Si6 0.719262 0.163178 0.637287
Si Si7 0.078043 0.843119 0.292391
Si Si8 0.885344 0.836172 0.100062
O O1 0.992790 0.242443 0.602277
O O2 0.845172 0.243896 0.443168
O O3 0.000000 0.160305 0.500000
O O4 0.918902 0.000000 0.523384
O O5 0.227928 0.782317 0.149192
O O6 0.397848 0.832023 0.242831
O O7 0.317161 0.752247 0.098321
O O8 0.278877 0.000000 0.120147
O O9 0.098000 0.212661 0.149330
O O10 0.273986 0.214593 0.292466
O O11 0.205732 0.000000 0.198565
O O12 0.430140 0.776132 0.665087
O O13 0.482584 0.000000 0.636689
O O14 0.088801 0.782277 0.947672
O O15 0.010293 0.000000 0.939048
O O16 0.000000 0.786101 0.000000
O O17 0.825263 0.164699 0.680770
O O18 0.686913 0.000000 0.617057
O O19 0.987328 0.832412 0.194897
O O20 0.072500 0.000000 0.315519
O O21 0.856241 0.000000 0.079889
#
# Coordination Sequence:
#
# PCOD9183389 Si02
#       8
#     8   8   8   8   8   8   8   8
#     4  11  24  38  50  69 100 134 167 210 265 313
#     4   9  18  31  51  76 102 136 174 214 255 299
#     4   9  16  30  51  76 103 132 174 217 253 299
#     4  10  20  34  52  74  99 132 174 212 254 307
#     4   9  16  28  51  81 107 133 169 212 254 299
#     4  10  19  33  55  76  97 130 173 216 256 301
#     4   9  17  31  52  76 100 130 166 211 261 301
#     4   9  16  30  51  76 105 135 170 209 253 305
#
# _framework density 20.171603999999999
#
# number of rings (size 3 to 8) (size 9 to 14) (size 15 to 20)
#    0.000    2.500    1.250    1.500    0.000    3.500 
#    0.000    1.250    0.000    1.125    0.000    0.000 
#    0.000    0.000    0.000    0.000    0.000    0.000 
#
# Total GULP energy -178522.752553 kJ/mol
# GULP energy per Si atom -5578.836017 kJ/mol
# Density = 2.012569 g / cm^3
# Si number density = 20.171604 Si / 1000 Ang^3
#
#
#
# Elastic Constant Matrix: (Units=GPa)
#
#
# Indices 1 2 3 4 5 6 
#
# 1 98.4510 27.3871 14.4608 0.0000 -22.5315 0.0000
# 2 27.3871 70.2145 33.5852 0.0000 -13.1668 0.0000
# 3 14.4608 33.5852 77.0133 0.0000 -16.6343 0.0000
# 4 0.0000 0.0000 0.0000 11.1651 0.0000 -8.5037
# 5 -22.5315 -13.1668 -16.6343 0.0000 36.7019 0.0000
# 6 0.0000 0.0000 0.0000 -8.5037 0.0000 20.7341
#
#
#
# Elastic Compliance Matrix: (Units=1/GPa)
#
#
# Indices 1 2 3 4 5 6 
#
# 1 0.012712 -0.004108 0.000855 0.000000 0.006718 0.000000
# 2 -0.004108 0.019672 -0.007569 0.000000 0.001105 0.000000
# 3 0.000855 -0.007569 0.017350 0.000000 0.005673 0.000000
# 4 0.000000 0.000000 0.000000 0.130251 0.000000 0.053420
# 5 0.006718 0.001105 0.005673 0.000000 0.034339 0.000000
# 6 0.000000 0.000000 0.000000 0.053420 0.000000 0.070139
#
#
# Mechanical properties :
#
#
# Convention : Reuss Voigt Hill
#
# Bulk Modulus (GPa) = 35.59737 44.06054 39.82896
# Shear Modulus (GPa) = 15.84946 25.06994 20.45970
#
# Velocity S-wave (km/s) = 2.80613 3.52921 3.18823
# Velocity P-wave (km/s) = 5.30893 6.20462 5.77417
#
# Compressibility (1/GPa) = 0.02809196
#
# Stress axis : x y z
#
# Youngs Moduli (GPa) = 78.66699 50.83406 57.63584
#
# Poissons Ratio (x) = 0.20881 -0.04931
# Poissons Ratio (y) = 0.32314 0.43624
# Poissons Ratio (z) = -0.06730 0.38475
#
# Static dielectric constant tensor:
#      x y z
#    x 1.732440 0.000000 -0.006370 
#    y 0.000000 1.678970 0.000000 
#    z -0.006370 0.000000 1.761080 
# 
# From -- ./inp_files/320173.got.cif
#   From: 2010.05.17/outbox.cif.g08.bks.cpg/sg12_161_cif.got.tgz:320173.got - 2010.06.03 13:09:07.
