data_PCOD9183241
_publ_section_title
;
Structure prediction by ZEFSAII (Michael W. Deem and Ramdas Pophale) SiO2 
 PCOD9183241
Probable space group: C 2/M
;
_chemical_formula_sum "Si O2"
_cell_formula_units_Z 56
_cell_length_a 27.745937
_cell_length_b 7.651501
_cell_length_c 12.167795
_cell_angle_alpha 90.000000
_cell_angle_beta 104.399560
_cell_angle_gamma 90.000000
_cell_volume 2502.048306
_symmetry_space_group_name_H-M "C 2/M"
_symmetry_group_IT_number 12
_symmetry_cell_setting 'monoclinic'
loop_
_space_group_symop_operation_xyz
x,y,z
-x,y,-z
-x,-y,-z
x,-y,z
1/2+x,1/2+y,z
1/2-x,1/2+y,-z
1/2-x,1/2-y,-z
1/2+x,1/2-y,z
loop_
_atom_site_type_symbol
_atom_site_label
_atom_site_fract_x
_atom_site_fract_y
_atom_site_fract_z
Si Si1 0.808001 0.792638 0.023086
Si Si2 0.898134 0.214344 0.214916
Si Si3 0.484794 0.298471 0.108557
Si Si4 0.614023 0.287992 0.549997
Si Si5 0.322604 0.793326 0.784852
Si Si6 0.918706 0.294478 0.709010
Si Si7 0.227814 0.790449 0.606777
O O1 0.828515 0.730146 0.917567
O O2 0.811767 0.000000 0.025539
O O3 0.750000 0.750000 0.000000
O O4 0.843589 0.730311 0.141565
O O5 0.938765 0.277743 0.150432
O O6 0.908144 0.268437 0.345590
O O7 0.899423 0.000000 0.216819
O O8 0.470413 0.500000 0.076904
O O9 0.532757 0.293931 0.213713
O O10 0.500000 0.218076 0.000000
O O11 0.613823 0.500000 0.546348
O O12 0.587369 0.226862 0.424586
O O13 0.671506 0.225392 0.581572
O O14 0.368791 0.723342 0.740425
O O15 0.268928 0.722247 0.715943
O O16 0.321141 0.000000 0.760175
O O17 0.922945 0.500000 0.737301
O O18 0.250000 0.750000 0.500000
O O19 0.224141 0.000000 0.619439
#
# Coordination Sequence:
#
# PCOD9183241 Si02
#       7
#     8   8   8   8   8   8   8
#     4  11  22  38  61  88 119 153 194 239 289 348
#     4   9  20  39  61  84 114 153 193 240 290 339
#     4  10  21  40  65  88 111 146 197 246 286 343
#     4  10  20  36  59  83 112 153 198 238 284 348
#     4  10  21  37  56  82 119 156 192 240 294 346
#     4  11  23  38  58  86 120 152 187 242 300 345
#     4  10  19  33  54  80 114 153 192 238 286 341
#
# _framework density 22.381663
#
# number of rings (size 3 to 8) (size 9 to 14) (size 15 to 20)
#    0.000    1.857    1.429    2.571    0.000    6.000 
#    0.000    7.857    0.000    0.000    0.000    0.000 
#    0.000    0.000    0.000    0.000    0.000    0.000 
#
# Total GULP energy -156474.714965 kJ/mol
# GULP energy per Si atom -5588.382677 kJ/mol
# Density = 2.233072 g / cm^3
# Si number density = 22.381663 Si / 1000 Ang^3
#
#
#
# Elastic Constant Matrix: (Units=GPa)
#
#
# Indices 1 2 3 4 5 6 
#
# 1 109.9551 -3.1717 48.5713 0.0000 -10.3286 0.0000
# 2 -3.1717 31.8725 -24.1079 0.0000 1.8918 0.0000
# 3 48.5713 -24.1079 130.4574 0.0000 -9.7905 0.0000
# 4 0.0000 0.0000 0.0000 14.6120 0.0000 -4.9220
# 5 -10.3286 1.8918 -9.7905 0.0000 40.2667 0.0000
# 6 0.0000 0.0000 0.0000 -4.9220 0.0000 12.0785
#
#
#
# Elastic Compliance Matrix: (Units=1/GPa)
#
#
# Indices 1 2 3 4 5 6 
#
# 1 0.011172 -0.002371 -0.004456 0.000000 0.001894 0.000000
# 2 -0.002371 0.036976 0.007680 0.000000 -0.000478 0.000000
# 3 -0.004456 0.007680 0.010828 0.000000 0.001129 0.000000
# 4 0.000000 0.000000 0.000000 0.079325 0.000000 0.032325
# 5 0.001894 -0.000478 0.001129 0.000000 0.025617 0.000000
# 6 0.000000 0.000000 0.000000 0.032325 0.000000 0.095964
#
#
# Mechanical properties :
#
#
# Convention : Reuss Voigt Hill
#
# Bulk Modulus (GPa) = 16.47886 34.98538 25.73212
# Shear Modulus (GPa) = 17.95947 30.12433 24.04190
#
# Velocity S-wave (km/s) = 2.83577 3.67268 3.28102
# Velocity P-wave (km/s) = 4.25450 5.80086 5.08679
#
# Compressibility (1/GPa) = 0.06068381
#
# Stress axis : x y z
#
# Youngs Moduli (GPa) = 89.50674 27.04430 92.35162
#
# Poissons Ratio (x) = 0.06412 0.41148
# Poissons Ratio (y) = 0.21220 -0.70925
# Poissons Ratio (z) = 0.39881 -0.20770
#
# Static dielectric constant tensor:
#      x y z
#    x 1.817090 0.000000 0.006210 
#    y 0.000000 1.845520 0.000000 
#    z 0.006210 0.000000 1.787310 
# 
# From -- ./inp_files/180762.got.cif
#   From: 2010.05.17/outbox.cif.g08.bks.cpg/sg12_91_cif.got.tgz:180762.got - 2010.06.03 13:09:07.
