data_PCOD9183194
_publ_section_title
;
Structure prediction by ZEFSAII (Michael W. Deem and Ramdas Pophale) SiO2 
 PCOD9183194
Probable space group: C 2/M
;
_chemical_formula_sum "Si O2"
_cell_formula_units_Z 56
_cell_length_a 21.558326
_cell_length_b 14.541515
_cell_length_c 9.669302
_cell_angle_alpha 90.000000
_cell_angle_beta 86.868720
_cell_angle_gamma 90.000000
_cell_volume 3026.710812
_symmetry_space_group_name_H-M "C 2/M"
_symmetry_group_IT_number 12
_symmetry_cell_setting 'monoclinic'
loop_
_space_group_symop_operation_xyz
x,y,z
-x,y,-z
-x,-y,-z
x,-y,z
1/2+x,1/2+y,z
1/2-x,1/2+y,-z
1/2-x,1/2-y,-z
1/2+x,1/2-y,z
loop_
_atom_site_type_symbol
_atom_site_label
_atom_site_fract_x
_atom_site_fract_y
_atom_site_fract_z
Si Si1 0.384001 0.700244 0.697591
Si Si2 0.014924 0.806370 0.834421
Si Si3 0.309390 0.196215 0.940541
Si Si4 0.142023 0.282194 0.776879
Si Si5 0.693799 0.822310 0.494588
Si Si6 0.039738 0.000000 0.712091
Si Si7 0.228913 0.098803 0.745028
Si Si8 0.597589 0.500000 0.409565
O O1 0.454505 0.705493 0.744554
O O2 0.344358 0.734168 0.833514
O O3 0.361862 0.770432 0.580746
O O4 0.372277 0.595854 0.645722
O O5 0.069638 0.740226 0.776800
O O6 0.041017 0.909027 0.804390
O O7 0.000000 0.794689 0.000000
O O8 0.280514 0.113426 0.857722
O O9 0.250000 0.250000 0.000000
O O10 0.347396 0.175615 0.073200
O O11 0.168824 0.343379 0.649567
O O12 0.180856 0.184715 0.759445
O O13 0.750000 0.750000 0.500000
O O14 0.728686 0.896951 0.397729
O O15 0.086940 0.000000 0.576289
O O16 0.971244 0.000000 0.649323
O O17 0.197686 0.000000 0.763424
#
# Coordination Sequence:
#
# PCOD9183194 Si02
#       8
#     8   8   8   8   8   4   8   4
#     4  10  19  35  52  76 108 149 179 221 265 325
#     4  11  20  31  49  79 111 146 187 210 265 328
#     4   9  18  35  53  72 107 140 183 229 272 309
#     4  10  19  33  54  79 114 143 177 223 273 322
#     4   9  19  36  56  75 105 140 183 232 272 306
#     4   9  19  30  42  68 117 150 179 220 242 303
#     4   9  19  36  57  80 104 146 188 224 273 324
#     4   9  18  32  48  72 108 151 182 211 262 316
#
# _framework density 18.501933000000001
#
# number of rings (size 3 to 8) (size 9 to 14) (size 15 to 20)
#    0.000    2.429    1.429    1.929    1.000    1.714 
#   10.286    0.714    0.000    0.000    0.000   16.000 
#    0.000    0.000    0.000    0.000    0.000    0.000 
#
# Total GULP energy -155896.982081 kJ/mol
# GULP energy per Si atom -5567.749360 kJ/mol
# Density = 1.845982 g / cm^3
# Si number density = 18.501933 Si / 1000 Ang^3
#
#
#
# Elastic Constant Matrix: (Units=GPa)
#
#
# Indices 1 2 3 4 5 6 
#
# 1 72.4215 7.5475 19.2502 0.0000 3.3596 0.0000
# 2 7.5475 28.3170 16.3755 0.0000 4.3069 0.0000
# 3 19.2502 16.3755 90.7834 0.0000 -20.7056 0.0000
# 4 0.0000 0.0000 0.0000 -5.4096 0.0000 -6.9199
# 5 3.3596 4.3069 -20.7056 0.0000 25.8283 0.0000
# 6 0.0000 0.0000 0.0000 -6.9199 0.0000 19.4664
#
#
#
# Elastic Compliance Matrix: (Units=1/GPa)
#
#
# Indices 1 2 3 4 5 6 
#
# 1 0.015282 -0.000769 -0.004315 0.000000 -0.005319 0.000000
# 2 -0.000769 0.044884 -0.011769 0.000000 -0.016819 0.000000
# 3 -0.004315 -0.011769 0.017902 0.000000 0.016875 0.000000
# 4 0.000000 0.000000 0.000000 -0.127073 0.000000 -0.045172
# 5 -0.005319 -0.016819 0.016875 0.000000 0.055742 0.000000
# 6 0.000000 0.000000 0.000000 -0.045172 0.000000 0.035313
#
#
# Mechanical properties :
#
#
# Convention : Reuss Voigt Hill
#
# Bulk Modulus (GPa) = 22.54207 30.87425 26.70816
# Shear Modulus (GPa) = 55.22302 17.86693 36.54498
#
# Velocity S-wave (km/s) = 5.46918 3.11091 4.44914
# Velocity P-wave (km/s) = 7.21753 5.44306 6.39217
#
# Compressibility (1/GPa) = 0.04436150
#
# Stress axis : x y z
#
# Youngs Moduli (GPa) = 65.43718 22.27987 55.86003
#
# Poissons Ratio (x) = 0.01713 0.24102
# Poissons Ratio (y) = 0.05032 0.65742
# Poissons Ratio (z) = 0.28235 0.26221
#
# Static dielectric constant tensor:
#      x y z
#    x 1.669100 0.000000 0.016170 
#    y 0.000000 1.627380 0.000000 
#    z 0.016170 0.000000 1.706940 
# 
# From -- ./inp_files/86410.got.cif
#   From: 2010.05.17/outbox.cif.g08.bks.cpg/sg12_44_cif.got.tgz:86410.got - 2010.06.03 13:09:07.
