data_PCOD9183004
_publ_section_title
;
Structure prediction by ZEFSAII (Michael W. Deem and Ramdas Pophale) SiO2 
 PCOD9183004
Probable space group: C 2/M
;
_chemical_formula_sum "Si O2"
_cell_formula_units_Z 48
_cell_length_a 24.308312
_cell_length_b 19.410477
_cell_length_c 5.448497
_cell_angle_alpha 90.000000
_cell_angle_beta 63.210500
_cell_angle_gamma 90.000000
_cell_volume 2294.869016
_symmetry_space_group_name_H-M "C 2/M"
_symmetry_group_IT_number 12
_symmetry_cell_setting 'monoclinic'
loop_
_space_group_symop_operation_xyz
x,y,z
-x,y,-z
-x,-y,-z
x,-y,z
1/2+x,1/2+y,z
1/2-x,1/2+y,-z
1/2-x,1/2-y,-z
1/2+x,1/2-y,z
loop_
_atom_site_type_symbol
_atom_site_label
_atom_site_fract_x
_atom_site_fract_y
_atom_site_fract_z
Si Si1 0.539840 0.866082 0.169963
Si Si2 0.911173 0.000000 0.387077
Si Si3 0.283113 0.079183 0.653541
Si Si4 0.565351 0.346880 0.619222
Si Si5 0.830844 0.420756 0.057383
Si Si6 0.835201 0.000000 0.039809
Si Si7 0.573973 0.290592 0.101172
O O1 0.500000 0.871442 0.500000
O O2 0.573247 0.791492 0.103677
O O3 0.500000 0.871533 0.000000
O O4 0.595942 0.919249 0.061005
O O5 0.946378 0.928352 0.347727
O O6 0.882016 0.000000 0.173233
O O7 0.863140 0.000000 0.711738
O O8 0.300502 0.111701 0.359932
O O9 0.310322 0.000000 0.584653
O O10 0.210994 0.064667 0.833263
O O11 0.311776 0.112357 0.837406
O O12 0.598420 0.324062 0.302491
O O13 0.498865 0.310550 0.752524
O O14 0.599016 0.322225 0.798447
O O15 0.807129 0.500000 0.090896
#
# Coordination Sequence:
#
# PCOD9183004 Si02
#       7
#     8   4   8   8   8   4   8
#     4  12  21  34  54  80 111 150 195 213 253 314
#     4  12  22  32  55  98 100 133 180 236 282 314
#     4   8  17  34  54  72 108 142 170 214 285 333
#     4  10  20  34  54  74 116 138 187 216 264 321
#     4  10  19  33  53  83 110 139 184 225 265 316
#     4  10  20  36  57  80 118 131 174 224 296 344
#     4  10  19  37  51  70 109 167 178 206 250 323
#
# _framework density 20.916226000000002
#
# number of rings (size 3 to 8) (size 9 to 14) (size 15 to 20)
#    0.500    1.333    3.333    3.000    0.000    3.333 
#    0.000    0.000    0.000    0.000    0.000   23.333 
#    0.000    0.000    0.000    0.000    0.000    0.000 
#
# Total GULP energy -133746.871662 kJ/mol
# GULP energy per Si atom -5572.786319 kJ/mol
# Density = 2.086862 g / cm^3
# Si number density = 20.916226 Si / 1000 Ang^3
#
#
#
# Elastic Constant Matrix: (Units=GPa)
#
#
# Indices 1 2 3 4 5 6 
#
# 1 32.2974 10.0786 5.3757 0.0000 23.9609 0.0000
# 2 10.0786 42.5032 6.6601 0.0000 -0.2835 0.0000
# 3 5.3757 6.6601 110.9575 0.0000 36.2713 0.0000
# 4 0.0000 0.0000 0.0000 11.5919 0.0000 7.5996
# 5 23.9609 -0.2835 36.2713 0.0000 40.0385 0.0000
# 6 0.0000 0.0000 0.0000 7.5996 0.0000 11.2129
#
#
#
# Elastic Compliance Matrix: (Units=1/GPa)
#
#
# Indices 1 2 3 4 5 6 
#
# 1 0.088665 -0.024754 0.020733 0.000000 -0.072019 0.000000
# 2 -0.024754 0.030784 -0.007902 0.000000 0.022191 0.000000
# 3 0.020733 -0.007902 0.017839 0.000000 -0.028624 0.000000
# 4 0.000000 0.000000 0.000000 0.155251 0.000000 -0.105222
# 5 -0.072019 0.022191 -0.028624 0.000000 0.094163 0.000000
# 6 0.000000 0.000000 0.000000 -0.105222 0.000000 0.160498
#
#
# Mechanical properties :
#
#
# Convention : Reuss Voigt Hill
#
# Bulk Modulus (GPa) = 8.81515 25.55410 17.18463
# Shear Modulus (GPa) = 8.21205 23.47825 15.84515
#
# Velocity S-wave (km/s) = 1.98360 3.35399 2.75535
# Velocity P-wave (km/s) = 3.07732 5.21947 4.28444
#
# Compressibility (1/GPa) = 0.11344101
#
# Stress axis : x y z
#
# Youngs Moduli (GPa) = 11.27835 32.48479 56.05576
#
# Poissons Ratio (x) = 0.80412 -1.16218
# Poissons Ratio (y) = 0.27918 0.44298
# Poissons Ratio (z) = -0.23383 0.25671
#
# Static dielectric constant tensor:
#      x y z
#    x 1.825930 0.000000 0.171060 
#    y 0.000000 1.750090 0.000000 
#    z 0.171060 0.000000 1.996770 
# 
# From -- ./inp_files/29018.got.cif
#   From: 2010.05.17/outbox.cif.g08.bks.cpg/sg12_15_cif.got.tgz:29018.got - 2010.06.03 13:09:07.
