data_PCOD9183033
_publ_section_title
;
Structure prediction by ZEFSAII (Michael W. Deem and Ramdas Pophale) SiO2 
 PCOD9183033
Probable space group: C 2/M
;
_chemical_formula_sum "Si O2"
_cell_formula_units_Z 56
_cell_length_a 16.695945
_cell_length_b 7.545308
_cell_length_c 23.790746
_cell_angle_alpha 90.000000
_cell_angle_beta 57.296297
_cell_angle_gamma 90.000000
_cell_volume 2521.957143
_symmetry_space_group_name_H-M "C 2/M"
_symmetry_group_IT_number 12
_symmetry_cell_setting 'monoclinic'
loop_
_space_group_symop_operation_xyz
x,y,z
-x,y,-z
-x,-y,-z
x,-y,z
1/2+x,1/2+y,z
1/2-x,1/2+y,-z
1/2-x,1/2-y,-z
1/2+x,1/2-y,z
loop_
_atom_site_type_symbol
_atom_site_label
_atom_site_fract_x
_atom_site_fract_y
_atom_site_fract_z
Si Si1 0.057606 0.283138 0.422683
Si Si2 0.277366 0.712233 0.344656
Si Si3 0.338263 0.212698 0.926171
Si Si4 0.629763 0.783683 0.210892
Si Si5 0.455106 0.787832 0.346839
Si Si6 0.011036 0.709657 0.933140
Si Si7 0.311221 0.713392 0.209829
O O1 0.059725 0.500000 0.419837
O O2 0.167813 0.224344 0.386125
O O3 0.000000 0.231458 0.500000
O O4 0.000389 0.224007 0.388539
O O5 0.271536 0.500000 0.343251
O O6 0.346638 0.749558 0.370677
O O7 0.325444 0.777667 0.268111
O O8 0.336550 0.279323 0.862987
O O9 0.431611 0.283947 0.921691
O O10 0.344730 0.000000 0.919185
O O11 0.250000 0.250000 0.000000
O O12 0.525933 0.724439 0.270351
O O13 0.707234 0.732027 0.227869
O O14 0.628890 0.000000 0.210115
O O15 0.462280 0.000000 0.346135
O O16 0.991704 0.500000 0.944988
O O17 0.111961 0.730244 0.865164
O O18 0.000000 0.784114 0.000000
O O19 0.314004 0.500000 0.209452
#
# Coordination Sequence:
#
# PCOD9183033 Si02
#       7
#     8   8   8   8   8   8   8
#     4   9  18  35  59  84 113 151 190 226 271 334
#     4  10  20  35  55  83 115 143 182 236 282 321
#     4  10  20  33  49  69  96 131 171 215 264 317
#     4   9  17  32  53  74  98 134 180 222 259 315
#     4  10  19  35  59  83 109 147 191 225 270 337
#     4  10  21  35  49  72 106 138 170 219 281 332
#     4  10  19  33  54  76 100 136 181 227 270 320
#
# _framework density 22.204977
#
# number of rings (size 3 to 8) (size 9 to 14) (size 15 to 20)
#    0.000    2.286    1.429    1.714    0.000    3.143 
#    0.000    2.143    0.000    0.857    0.000    0.000 
#    0.000    0.000    0.000    0.000    0.000    0.000 
#
# Total GULP energy -156318.988738 kJ/mol
# GULP energy per Si atom -5582.821026 kJ/mol
# Density = 2.215444 g / cm^3
# Si number density = 22.204977 Si / 1000 Ang^3
#
#
#
# Elastic Constant Matrix: (Units=GPa)
#
#
# Indices 1 2 3 4 5 6 
#
# 1 163.6802 -2.0186 68.2810 0.0002 9.0167 0.0001
# 2 -2.0186 47.1576 -2.0235 0.0002 6.9045 0.0003
# 3 68.2810 -2.0235 138.9788 0.0000 9.7942 0.0000
# 4 0.0002 0.0002 0.0000 -5.1766 0.0000 -0.4125
# 5 9.0167 6.9045 9.7942 0.0000 28.8177 0.0001
# 6 0.0001 0.0003 0.0000 -0.4125 0.0001 5.6502
#
#
#
# Elastic Compliance Matrix: (Units=1/GPa)
#
#
# Indices 1 2 3 4 5 6 
#
# 1 0.007727 0.000354 -0.003704 0.000000 -0.001244 0.000000
# 2 0.000354 0.022061 0.000541 0.000001 -0.005580 -0.000001
# 3 -0.003704 0.000541 0.009170 0.000000 -0.002087 0.000000
# 4 0.000000 0.000001 0.000000 -0.192058 0.000000 -0.014022
# 5 -0.001244 -0.005580 -0.002087 0.000000 0.037136 0.000000
# 6 0.000000 -0.000001 0.000000 -0.014022 0.000000 0.175962
#
#
# Mechanical properties :
#
#
# Convention : Reuss Voigt Hill
#
# Bulk Modulus (GPa) = 29.99416 53.14380 41.56898
# Shear Modulus (GPa) = 65.16411 24.89676 45.03044
#
# Velocity S-wave (km/s) = 5.42313 3.35210 4.50815
# Velocity P-wave (km/s) = 7.26299 6.24238 6.77194
#
# Compressibility (1/GPa) = 0.03333983
#
# Stress axis : x y z
#
# Youngs Moduli (GPa) = 129.40965 45.32915 109.05181
#
# Poissons Ratio (x) = -0.01604 0.40390
# Poissons Ratio (y) = -0.04581 -0.05895
# Poissons Ratio (z) = 0.47929 -0.02450
#
# Static dielectric constant tensor:
#      x y z
#    x 1.818710 0.000000 0.009820 
#    y 0.000000 1.845980 0.000000 
#    z 0.009820 0.000000 1.823620 
# 
# From -- ./inp_files/338543.got.cif
#   From: 2010.05.17/outbox.cif.g08.bks.cpg/sg12_170_cif.got.tgz:338543.got - 2010.06.03 13:09:07.
