data_PCOD9183107
_publ_section_title
;
Structure prediction by ZEFSAII (Michael W. Deem and Ramdas Pophale) SiO2 
 PCOD9183107
Probable space group: C 2/M
;
_chemical_formula_sum "Si O2"
_cell_formula_units_Z 60
_cell_length_a 27.172912
_cell_length_b 9.350629
_cell_length_c 12.644581
_cell_angle_alpha 90.000000
_cell_angle_beta 65.693092
_cell_angle_gamma 90.000000
_cell_volume 2927.981921
_symmetry_space_group_name_H-M "C 2/M"
_symmetry_group_IT_number 12
_symmetry_cell_setting 'monoclinic'
loop_
_space_group_symop_operation_xyz
x,y,z
-x,y,-z
-x,-y,-z
x,-y,z
1/2+x,1/2+y,z
1/2-x,1/2+y,-z
1/2-x,1/2-y,-z
1/2+x,1/2-y,z
loop_
_atom_site_type_symbol
_atom_site_label
_atom_site_fract_x
_atom_site_fract_y
_atom_site_fract_z
Si Si1 0.338173 0.168355 0.599241
Si Si2 0.123145 0.157493 0.876173
Si Si3 0.000000 0.785082 0.000000
Si Si4 0.171241 0.338246 0.017946
Si Si5 0.374055 0.332030 0.366060
Si Si6 0.998397 0.828855 0.773709
Si Si7 0.450438 0.833327 0.625098
Si Si8 0.793046 0.837597 0.820352
O O1 0.344804 0.236020 0.478078
O O2 0.395184 0.190463 0.610193
O O3 0.295358 0.250483 0.709751
O O4 0.327180 0.000000 0.604059
O O5 0.137957 0.266865 0.953818
O O6 0.140386 0.201996 0.742994
O O7 0.146035 0.000000 0.880160
O O8 0.058329 0.144774 0.929990
O O9 0.991583 0.733021 0.886156
O O10 0.154336 0.500000 0.056487
O O11 0.232681 0.341156 0.920190
O O12 0.171715 0.244040 0.122910
O O13 0.362424 0.500000 0.393563
O O14 0.439129 0.314774 0.317529
O O15 0.960399 0.770205 0.715147
O O16 0.988722 0.000000 0.804459
O O17 0.500000 0.812290 0.500000
O O18 0.451716 0.000000 0.658128
O O19 0.811789 0.000000 0.788102
#
# Coordination Sequence:
#
# PCOD9183107 Si02
#       8
#     8   8   4   8   8   8   8   8
#     4  11  22  36  57  83 114 149 190 244 294 344
#     4  10  20  37  61  86 118 159 198 239 284 338
#     4  10  21  38  57  86 121 154 197 238 275 330
#     4  10  22  41  63  89 119 149 188 237 293 351
#     4   9  19  35  54  79 113 152 195 236 279 336
#     4  10  19  33  54  77 108 150 195 236 271 328
#     4  10  21  36  51  75 115 153 186 230 289 344
#     4  10  22  41  64  87 115 150 189 240 294 349
#
# _framework density 20.49193
#
# number of rings (size 3 to 8) (size 9 to 14) (size 15 to 20)
#    0.000    2.000    1.333    3.200    1.867    3.467 
#    0.000    3.333    0.000    0.000    0.000    0.000 
#    0.000    0.000    0.000    0.000    0.000    0.000 
#
# Total GULP energy -167348.184738 kJ/mol
# GULP energy per Si atom -5578.272825 kJ/mol
# Density = 2.044529 g / cm^3
# Si number density = 20.491930 Si / 1000 Ang^3
#
#
#
# Elastic Constant Matrix: (Units=GPa)
#
#
# Indices 1 2 3 4 5 6 
#
# 1 30.3733 25.8177 3.5553 0.0000 16.9573 0.0000
# 2 25.8177 87.8572 57.3973 0.0000 15.4467 0.0000
# 3 3.5553 57.3973 124.9141 0.0000 9.1335 0.0000
# 4 0.0000 0.0000 0.0000 -11.7362 0.0000 -2.6795
# 5 16.9573 15.4467 9.1335 0.0000 25.5490 0.0000
# 6 0.0000 0.0000 0.0000 -2.6795 0.0000 13.7164
#
#
#
# Elastic Compliance Matrix: (Units=1/GPa)
#
#
# Indices 1 2 3 4 5 6 
#
# 1 0.070619 -0.020829 0.010338 0.000000 -0.037974 0.000000
# 2 -0.020829 0.023875 -0.010610 0.000000 0.003183 0.000000
# 3 0.010338 -0.010610 0.012958 0.000000 -0.005079 0.000000
# 4 0.000000 0.000000 0.000000 -0.081568 0.000000 -0.015934
# 5 -0.037974 0.003183 -0.005079 0.000000 0.064235 0.000000
# 6 0.000000 0.000000 0.000000 -0.015934 0.000000 0.069793
#
#
# Mechanical properties :
#
#
# Convention : Reuss Voigt Hill
#
# Bulk Modulus (GPa) = 15.32609 46.29834 30.81221
# Shear Modulus (GPa) = 22.33475 15.93077 19.13276
#
# Velocity S-wave (km/s) = 3.30499 2.79124 3.05892
# Velocity P-wave (km/s) = 4.69673 5.74722 5.24832
#
# Compressibility (1/GPa) = 0.06524822
#
# Stress axis : x y z
#
# Youngs Moduli (GPa) = 14.16040 41.88449 77.17211
#
# Poissons Ratio (x) = 0.87243 -0.79778
# Poissons Ratio (y) = 0.29495 0.81883
# Poissons Ratio (z) = -0.14639 0.44441
#
# Static dielectric constant tensor:
#      x y z
#    x 1.738360 0.000000 -0.013090 
#    y 0.000000 1.710480 0.000000 
#    z -0.013090 0.000000 1.739540 
# 
# From -- ./inp_files/187360.got.cif
#   From: 2010.05.17/outbox.cif.g08.bks.cpg/sg12_94_cif.got.tgz:187360.got - 2010.06.03 13:09:07.
