data_PCOD9183018
_publ_section_title
;
Structure prediction by ZEFSAII (Michael W. Deem and Ramdas Pophale) SiO2 
 PCOD9183018
Probable space group: C 2/M
;
_chemical_formula_sum "Si O2"
_cell_formula_units_Z 40
_cell_length_a 15.258776
_cell_length_b 10.620511
_cell_length_c 11.595040
_cell_angle_alpha 90.000000
_cell_angle_beta 102.384381
_cell_angle_gamma 90.000000
_cell_volume 1835.321853
_symmetry_space_group_name_H-M "C 2/M"
_symmetry_group_IT_number 12
_symmetry_cell_setting 'monoclinic'
loop_
_space_group_symop_operation_xyz
x,y,z
-x,y,-z
-x,-y,-z
x,-y,z
1/2+x,1/2+y,z
1/2-x,1/2+y,-z
1/2-x,1/2-y,-z
1/2+x,1/2-y,z
loop_
_atom_site_type_symbol
_atom_site_label
_atom_site_fract_x
_atom_site_fract_y
_atom_site_fract_z
Si Si1 0.066216 0.739122 0.744996
Si Si2 0.725313 0.000000 0.418182
Si Si3 0.155076 0.000000 0.351784
Si Si4 0.041678 0.000000 0.639040
Si Si5 0.351654 0.233076 0.742093
Si Si6 0.606291 0.854468 0.998934
Si Si7 0.407246 0.000000 0.404933
O O1 0.111817 0.722944 0.882438
O O2 0.094803 0.623053 0.674265
O O3 0.088119 0.870051 0.688163
O O4 0.957411 0.726692 0.733190
O O5 0.822108 0.000000 0.505231
O O6 0.699865 0.877295 0.338916
O O7 0.666806 0.000000 0.517983
O O8 0.047947 0.000000 0.306368
O O9 0.185159 0.869490 0.303517
O O10 0.000000 0.000000 0.500000
O O11 0.347851 0.207272 0.877186
O O12 0.635105 0.000000 0.991363
O O13 0.500000 0.858756 0.000000
O O14 0.500000 0.000000 0.500000
#
# Coordination Sequence:
#
# PCOD9183018 Si02
#       7
#     8   4   4   4   8   8   4
#     4  10  19  33  53  85 108 136 175 226 272 317
#     4  12  22  35  55  79 110 148 182 219 262 317
#     4  10  24  37  51  81 111 146 181 212 269 326
#     4  10  22  37  55  79 118 142 171 216 276 328
#     4  10  19  35  55  78 109 141 180 225 266 313
#     4   9  16  29  53  81 107 132 176 228 270 309
#     4  12  20  31  55  80 111 138 180 224 265 309
#
# _framework density 21.794543000000001
#
# number of rings (size 3 to 8) (size 9 to 14) (size 15 to 20)
#    0.000    1.800    4.000    1.200    2.800    0.800 
#    0.000    4.000    0.000    1.200    5.200    0.000 
#    0.000    0.000    0.000    0.000    0.000    0.000 
#
# Total GULP energy -111804.814510 kJ/mol
# GULP energy per Si atom -5590.240726 kJ/mol
# Density = 2.174494 g / cm^3
# Si number density = 21.794543 Si / 1000 Ang^3
#
#
#
# Elastic Constant Matrix: (Units=GPa)
#
#
# Indices 1 2 3 4 5 6 
#
# 1 64.0525 9.9293 14.3650 0.0000 1.5579 0.0000
# 2 9.9293 249.2254 132.1096 0.0000 1.8752 0.0000
# 3 14.3650 132.1096 211.8628 0.0000 0.9231 0.0000
# 4 0.0000 0.0000 0.0000 48.0007 0.0000 6.0286
# 5 1.5579 1.8752 0.9231 0.0000 23.6694 0.0000
# 6 0.0000 0.0000 0.0000 6.0286 0.0000 -7.0200
#
#
#
# Elastic Compliance Matrix: (Units=1/GPa)
#
#
# Indices 1 2 3 4 5 6 
#
# 1 0.015878 -0.000085 -0.001019 0.000000 -0.000999 0.000000
# 2 -0.000085 0.005997 -0.003732 0.000000 -0.000324 0.000000
# 3 -0.001019 -0.003732 0.007116 0.000000 0.000085 0.000000
# 4 0.000000 0.000000 0.000000 0.018805 0.000000 0.016149
# 5 -0.000999 -0.000324 0.000085 0.000000 0.042337 0.000000
# 6 0.000000 0.000000 0.000000 0.016149 0.000000 -0.128581
#
#
# Mechanical properties :
#
#
# Convention : Reuss Voigt Hill
#
# Bulk Modulus (GPa) = 51.76427 93.10537 72.43482
# Shear Modulus (GPa) = -223.84539 37.51246 -93.16646
#
# Velocity S-wave (km/s) = -10.14544 4.15322 -6.54526
# Velocity P-wave (km/s) = 10.65070 8.11242 4.87987
#
# Compressibility (1/GPa) = 0.01931834
#
# Stress axis : x y z
#
# Youngs Moduli (GPa) = 62.97932 166.76290 140.52926
#
# Poissons Ratio (x) = 0.01413 0.14326
# Poissons Ratio (y) = 0.00533 0.52446
# Poissons Ratio (z) = 0.06420 0.62237
#
# Static dielectric constant tensor:
#      x y z
#    x 2.094560 0.000000 0.047670 
#    y 0.000000 1.753000 0.000000 
#    z 0.047670 0.000000 1.751230 
# 
# From -- ./inp_files/162798.got.cif
#   From: 2010.05.17/outbox.cif.g08.bks.cpg/sg12_82_cif.got.tgz:162798.got - 2010.06.03 13:09:07.
