data_PCOD9183965
_publ_section_title
;
Structure prediction by ZEFSAII (Michael W. Deem and Ramdas Pophale) SiO2 
 PCOD9183965
Probable space group: C 2/M
;
_chemical_formula_sum "Si O2"
_cell_formula_units_Z 56
_cell_length_a 24.393907
_cell_length_b 13.693528
_cell_length_c 13.927504
_cell_angle_alpha 90.000000
_cell_angle_beta 31.514790
_cell_angle_gamma 90.000000
_cell_volume 2431.856808
_symmetry_space_group_name_H-M "C 2/M"
_symmetry_group_IT_number 12
_symmetry_cell_setting 'monoclinic'
loop_
_space_group_symop_operation_xyz
x,y,z
-x,y,-z
-x,-y,-z
x,-y,z
1/2+x,1/2+y,z
1/2-x,1/2+y,-z
1/2-x,1/2-y,-z
1/2+x,1/2-y,z
loop_
_atom_site_type_symbol
_atom_site_label
_atom_site_fract_x
_atom_site_fract_y
_atom_site_fract_z
Si Si1 0.356308 0.890054 0.299447
Si Si2 0.060109 0.249790 0.504313
Si Si3 0.575886 0.183829 0.996106
Si Si4 0.420869 0.604906 0.999033
Si Si5 0.726037 0.889957 0.159298
Si Si6 0.634435 0.612408 0.566353
Si Si7 0.118106 0.384400 0.133540
O O1 0.452133 0.831247 0.203956
O O2 0.237718 0.852863 0.469322
O O3 0.356499 0.000000 0.339119
O O4 0.390709 0.889432 0.136305
O O5 0.156472 0.313518 0.320746
O O6 0.101568 0.175477 0.522994
O O7 0.000000 0.206764 0.500000
O O8 0.977574 0.325318 0.675571
O O9 0.596909 0.292069 0.923634
O O10 0.636962 0.161578 0.001772
O O11 0.401622 0.500000 0.077205
O O12 0.537045 0.608325 0.784101
O O13 0.342889 0.609249 0.024616
O O14 0.714182 0.872512 0.063862
O O15 0.682616 0.000000 0.240862
O O16 0.656693 0.500000 0.503353
O O17 0.095312 0.500000 0.157378
#
# Coordination Sequence:
#
# PCOD9183965 Si02
#       7
#     8   8   8   8   8   8   8
#     4  10  22  39  60  84 110 141 179 233 286 321
#     4  10  19  35  55  84 113 144 185 227 274 321
#     4  11  20  37  61  83 108 141 185 235 274 325
#     4  10  21  38  57  81 113 151 185 219 270 330
#     4   9  19  35  57  82 115 148 178 224 276 324
#     4  10  21  39  56  78 114 151 185 222 271 328
#     4  10  19  33  56  86 113 142 183 230 275 324
#
# _framework density 23.027673
#
# number of rings (size 3 to 8) (size 9 to 14) (size 15 to 20)
#    0.000    2.000    1.429    3.000    0.000    3.143 
#    2.571    1.429    0.000    0.857    0.000    0.000 
#    0.000    0.000    0.000    0.000    0.000    0.000 
#
# Total GULP energy -156425.248044 kJ/mol
# GULP energy per Si atom -5586.616002 kJ/mol
# Density = 2.297526 g / cm^3
# Si number density = 23.027673 Si / 1000 Ang^3
#
#
#
# Elastic Constant Matrix: (Units=GPa)
#
#
# Indices 1 2 3 4 5 6 
#
# 1 75.6174 19.4627 -0.1192 0.0000 -12.5111 0.0000
# 2 19.4627 136.3058 -11.0056 0.0000 -2.7181 0.0000
# 3 -0.1192 -11.0056 36.8155 0.0000 -21.3465 0.0000
# 4 0.0000 0.0000 0.0000 15.9241 0.0000 -5.6626
# 5 -12.5111 -2.7181 -21.3465 0.0000 39.6502 0.0000
# 6 0.0000 0.0000 0.0000 -5.6626 0.0000 31.3639
#
#
#
# Elastic Compliance Matrix: (Units=1/GPa)
#
#
# Indices 1 2 3 4 5 6 
#
# 1 0.014699 -0.001722 0.003131 0.000000 0.006206 0.000000
# 2 -0.001722 0.007895 0.003421 0.000000 0.001840 0.000000
# 3 0.003131 0.003421 0.042022 0.000000 0.023846 0.000000
# 4 0.000000 0.000000 0.000000 0.067106 0.000000 0.012116
# 5 0.006206 0.001840 0.023846 0.000000 0.040143 0.000000
# 6 0.000000 0.000000 0.000000 0.012116 0.000000 0.034071
#
#
# Mechanical properties :
#
#
# Convention : Reuss Voigt Hill
#
# Bulk Modulus (GPa) = 13.46319 29.49051 21.47685
# Shear Modulus (GPa) = 22.62080 33.41436 28.01758
#
# Velocity S-wave (km/s) = 3.13762 3.81340 3.49190
# Velocity P-wave (km/s) = 4.35722 5.67659 5.06010
#
# Compressibility (1/GPa) = 0.07427658
#
# Stress axis : x y z
#
# Youngs Moduli (GPa) = 68.02959 126.65752 23.79718
#
# Poissons Ratio (x) = 0.21815 -0.07451
# Poissons Ratio (y) = 0.11717 -0.08142
# Poissons Ratio (z) = -0.21300 -0.43334
#
# Static dielectric constant tensor:
#      x y z
#    x 1.865120 0.000000 -0.037780 
#    y 0.000000 1.910170 0.000000 
#    z -0.037780 0.000000 1.831300 
# 
# From -- ./inp_files/246518.got.cif
#   From: 2010.05.17/outbox.cif.g08.bks.cpg/sg12_124_cif.got.tgz:246518.got - 2010.06.03 13:09:07.
