data_PCOD9183074
_publ_section_title
;
Structure prediction by ZEFSAII (Michael W. Deem and Ramdas Pophale) SiO2 
 PCOD9183074
Probable space group: C 2/M
;
_chemical_formula_sum "Si O2"
_cell_formula_units_Z 56
_cell_length_a 19.748963
_cell_length_b 7.959370
_cell_length_c 19.371245
_cell_angle_alpha 90.000000
_cell_angle_beta 68.547257
_cell_angle_gamma 90.000000
_cell_volume 2833.996796
_symmetry_space_group_name_H-M "C 2/M"
_symmetry_group_IT_number 12
_symmetry_cell_setting 'monoclinic'
loop_
_space_group_symop_operation_xyz
x,y,z
-x,y,-z
-x,-y,-z
x,-y,z
1/2+x,1/2+y,z
1/2-x,1/2+y,-z
1/2-x,1/2-y,-z
1/2+x,1/2-y,z
loop_
_atom_site_type_symbol
_atom_site_label
_atom_site_fract_x
_atom_site_fract_y
_atom_site_fract_z
Si Si1 0.541276 0.194841 0.916064
Si Si2 0.489811 0.693776 0.789663
Si Si3 0.893008 0.303456 0.361687
Si Si4 0.176145 0.801492 0.939498
Si Si5 0.263954 0.701995 0.574651
Si Si6 0.077711 0.197418 0.495237
Si Si7 0.338182 0.296270 0.896466
O O1 0.520331 0.294159 0.855926
O O2 0.625691 0.210289 0.903471
O O3 0.521159 0.000000 0.912978
O O4 0.500000 0.258115 0.000000
O O5 0.486201 0.500000 0.769148
O O6 0.544636 0.783414 0.717912
O O7 0.407699 0.761450 0.827216
O O8 0.885346 0.500000 0.382174
O O9 0.813380 0.244245 0.363647
O O10 0.914647 0.212990 0.424770
O O11 0.261157 0.766959 0.898320
O O12 0.162034 0.000000 0.940917
O O13 0.156613 0.742826 0.024923
O O14 0.268688 0.500000 0.579309
O O15 0.250000 0.750000 0.500000
O O16 0.344910 0.767856 0.562702
O O17 0.000000 0.270708 0.500000
O O18 0.076206 0.000000 0.477029
O O19 0.337874 0.500000 0.896872
#
# Coordination Sequence:
#
# PCOD9183074 Si02
#       7
#     8   8   8   8   8   8   8
#     4  11  22  35  54  79 106 137 178 227 274 320
#     4  11  22  37  56  77 106 143 183 226 274 324
#     4  10  20  34  52  77 109 142 176 216 266 319
#     4  10  19  33  54  77 102 132 173 222 271 325
#     4   8  15  29  50  75 103 135 171 210 252 303
#     4   9  17  32  56  83 107 136 176 216 259 314
#     4   9  19  34  52  75 102 135 174 220 272 323
#
# _framework density 19.760079999999999
#
# number of rings (size 3 to 8) (size 9 to 14) (size 15 to 20)
#    0.000    2.286    1.429    1.714    0.000    3.143 
#    0.000    1.429    0.000    6.857    0.000    0.000 
#    0.000    0.000    0.000    0.000    0.000    0.000 
#
# Total GULP energy -156085.723504 kJ/mol
# GULP energy per Si atom -5574.490125 kJ/mol
# Density = 1.971511 g / cm^3
# Si number density = 19.760080 Si / 1000 Ang^3
#
#
#
# Elastic Constant Matrix: (Units=GPa)
#
#
# Indices 1 2 3 4 5 6 
#
# 1 145.8539 1.5135 32.1461 0.0001 -33.3527 0.0002
# 2 1.5135 22.8923 -3.9444 0.0002 -5.4954 0.0004
# 3 32.1461 -3.9444 54.1712 0.0000 -30.7943 0.0001
# 4 0.0001 0.0002 0.0000 17.5656 0.0000 0.3422
# 5 -33.3527 -5.4954 -30.7943 0.0000 32.9122 0.0001
# 6 0.0002 0.0004 0.0001 0.3422 0.0001 17.9491
#
#
#
# Elastic Compliance Matrix: (Units=1/GPa)
#
#
# Indices 1 2 3 4 5 6 
#
# 1 0.008986 0.001785 0.000307 0.000000 0.009692 0.000000
# 2 0.001785 0.053776 0.019202 -0.000001 0.028755 -0.000001
# 3 0.000307 0.019202 0.046304 0.000000 0.046841 -0.000001
# 4 0.000000 -0.000001 0.000000 0.056950 0.000000 -0.001086
# 5 0.009692 0.028755 0.046841 0.000000 0.088834 -0.000001
# 6 0.000000 -0.000001 -0.000001 -0.001086 -0.000001 0.055734
#
#
# Mechanical properties :
#
#
# Convention : Reuss Voigt Hill
#
# Bulk Modulus (GPa) = 6.59392 31.37197 18.98295
# Shear Modulus (GPa) = 15.69628 26.56553 21.13090
#
# Velocity S-wave (km/s) = 2.82147 3.67059 3.27368
# Velocity P-wave (km/s) = 3.73610 5.82024 4.89048
#
# Compressibility (1/GPa) = 0.15165485
#
# Stress axis : x y z
#
# Youngs Moduli (GPa) = 111.28125 18.59562 21.59652
#
# Poissons Ratio (x) = -0.03320 -0.00662
# Poissons Ratio (y) = -0.19866 -0.41471
# Poissons Ratio (z) = -0.03413 -0.35708
#
# Static dielectric constant tensor:
#      x y z
#    x 1.736420 0.000000 -0.047740 
#    y 0.000000 1.718730 0.000000 
#    z -0.047740 0.000000 1.671210 
# 
# From -- ./inp_files/275271.got.cif
#   From: 2010.05.17/outbox.cif.g08.bks.cpg/sg12_138_cif.got.tgz:275271.got - 2010.06.03 13:09:07.
