data_PCOD9183344
_publ_section_title
;
Structure prediction by ZEFSAII (Michael W. Deem and Ramdas Pophale) SiO2 
 PCOD9183344
Probable space group: C 2/M
;
_chemical_formula_sum "Si O2"
_cell_formula_units_Z 52
_cell_length_a 13.994052
_cell_length_b 17.282449
_cell_length_c 8.770890
_cell_angle_alpha 90.000000
_cell_angle_beta 88.122119
_cell_angle_gamma 90.000000
_cell_volume 2120.113577
_symmetry_space_group_name_H-M "C 2/M"
_symmetry_group_IT_number 12
_symmetry_cell_setting 'monoclinic'
loop_
_space_group_symop_operation_xyz
x,y,z
-x,y,-z
-x,-y,-z
x,-y,z
1/2+x,1/2+y,z
1/2-x,1/2+y,-z
1/2-x,1/2-y,-z
1/2+x,1/2-y,z
loop_
_atom_site_type_symbol
_atom_site_label
_atom_site_fract_x
_atom_site_fract_y
_atom_site_fract_z
Si Si1 0.532568 0.867535 0.261084
Si Si2 0.250000 0.750000 0.000000
Si Si3 0.689994 0.913257 0.026425
Si Si4 0.884772 0.912127 0.208631
Si Si5 0.859821 0.586905 0.459355
Si Si6 0.357475 0.409940 0.571621
Si Si7 0.947965 0.801121 0.817670
O O1 0.591663 0.908786 0.125515
O O2 0.603832 0.861341 0.403324
O O3 0.439544 0.910890 0.325454
O O4 0.505429 0.781136 0.221174
O O5 0.200324 0.667621 0.939380
O O6 0.147379 0.776406 0.085549
O O7 0.779251 0.901964 0.141894
O O8 0.701408 0.000000 0.958076
O O9 0.878790 0.902100 0.390918
O O10 0.962037 0.854019 0.138773
O O11 0.913709 0.000000 0.173795
O O12 0.855722 0.500000 0.525723
O O13 0.755255 0.604496 0.407040
O O14 0.378560 0.500000 0.612850
O O15 0.411416 0.349594 0.673374
#
# Coordination Sequence:
#
# PCOD9183344 Si02
#       7
#     8   4   8   8   8   8   8
#     4  10  20  32  54  85 116 160 197 237 298 362
#     4  10  26  44  56  90 116 164 222 258 294 370
#     4  10  20  41  66  87 123 163 205 261 313 364
#     4  10  21  38  64  95 123 160 202 251 324 393
#     4  10  19  33  54  83 117 149 195 239 291 370
#     4  10  21  37  60  92 127 158 196 254 318 382
#     4  11  24  39  57  83 126 157 204 256 308 363
#
# _framework density 24.526987999999999
#
# number of rings (size 3 to 8) (size 9 to 14) (size 15 to 20)
#    0.000    1.846    1.538    2.769    4.308    6.154 
#    0.000    3.077    0.000    0.000    0.000    8.615 
#    0.000    0.000    0.000    0.000    0.000    0.000 
#
# Total GULP energy -144890.482513 kJ/mol
# GULP energy per Si atom -5572.710866 kJ/mol
# Density = 2.447116 g / cm^3
# Si number density = 24.526988 Si / 1000 Ang^3
#
#
#
# Elastic Constant Matrix: (Units=GPa)
#
#
# Indices 1 2 3 4 5 6 
#
# 1 102.3255 43.0702 25.1669 0.0000 -7.1403 0.0000
# 2 43.0702 105.6126 33.0548 0.0000 -1.0965 0.0000
# 3 25.1669 33.0548 49.3239 0.0000 -11.4660 0.0000
# 4 0.0000 0.0000 0.0000 80.6632 0.0000 -9.5390
# 5 -7.1403 -1.0965 -11.4660 0.0000 28.7302 0.0000
# 6 0.0000 0.0000 0.0000 -9.5390 0.0000 18.2785
#
#
#
# Elastic Compliance Matrix: (Units=1/GPa)
#
#
# Indices 1 2 3 4 5 6 
#
# 1 0.012374 -0.004013 -0.003246 0.000000 0.001627 0.000000
# 2 -0.004013 0.013527 -0.007859 0.000000 -0.003618 0.000000
# 3 -0.003246 -0.007859 0.029694 0.000000 0.010744 0.000000
# 4 0.000000 0.000000 0.000000 0.013213 0.000000 0.006895
# 5 0.001627 -0.003618 0.010744 0.000000 0.039361 0.000000
# 6 0.000000 0.000000 0.000000 0.006895 0.000000 0.058308
#
#
# Mechanical properties :
#
#
# Convention : Reuss Voigt Hill
#
# Bulk Modulus (GPa) = 39.43226 51.09397 45.26311
# Shear Modulus (GPa) = 24.37055 35.93238 30.15146
#
# Velocity S-wave (km/s) = 3.15560 3.83170 3.50997
# Velocity P-wave (km/s) = 5.42117 6.36026 5.90940
#
# Compressibility (1/GPa) = 0.02535995
#
# Stress axis : x y z
#
# Youngs Moduli (GPa) = 80.81545 73.92441 33.67640
#
# Poissons Ratio (x) = 0.29669 0.10931
# Poissons Ratio (y) = 0.32435 0.26465
# Poissons Ratio (z) = 0.26231 0.58094
#
# Static dielectric constant tensor:
#      x y z
#    x 1.351860 0.000000 0.505310 
#    y 0.000000 1.928890 0.000000 
#    z 0.505310 0.000000 1.681210 
# 
# From -- ./inp_files/143672.got.cif
#   From: 2010.05.17/outbox.cif.g08.bks.cpg/sg12_72_cif.got.tgz:143672.got - 2010.06.03 13:09:07.
