data_PCOD9183817
_publ_section_title
;
Structure prediction by ZEFSAII (Michael W. Deem and Ramdas Pophale) SiO2 
 PCOD9183817
Probable space group: C 2/M
;
_chemical_formula_sum "Si O2"
_cell_formula_units_Z 64
_cell_length_a 20.536150
_cell_length_b 7.584449
_cell_length_c 22.471524
_cell_angle_alpha 90.000000
_cell_angle_beta 118.975123
_cell_angle_gamma 90.000000
_cell_volume 3061.958627
_symmetry_space_group_name_H-M "C 2/M"
_symmetry_group_IT_number 12
_symmetry_cell_setting 'monoclinic'
loop_
_space_group_symop_operation_xyz
x,y,z
-x,y,-z
-x,-y,-z
x,-y,z
1/2+x,1/2+y,z
1/2-x,1/2+y,-z
1/2-x,1/2-y,-z
1/2+x,1/2-y,z
loop_
_atom_site_type_symbol
_atom_site_label
_atom_site_fract_x
_atom_site_fract_y
_atom_site_fract_z
Si Si1 0.101918 0.296863 0.793528
Si Si2 0.516730 0.293036 0.942377
Si Si3 0.116567 0.284964 0.430864
Si Si4 0.305790 0.790149 0.654330
Si Si5 0.333641 0.210327 0.056203
Si Si6 0.444703 0.783378 0.350977
Si Si7 0.858208 0.296642 0.425750
Si Si8 0.452136 0.711015 0.790975
O O1 0.126162 0.500000 0.798667
O O2 0.147447 0.218396 0.869129
O O3 0.101142 0.220365 0.726961
O O4 0.016074 0.291605 0.777374
O O5 0.497863 0.500000 0.937324
O O6 0.602821 0.277349 0.960651
O O7 0.469210 0.222844 0.865349
O O8 0.500000 0.216171 0.000000
O O9 0.120494 0.500000 0.431364
O O10 0.166821 0.223331 0.398290
O O11 0.139509 0.221304 0.506584
O O12 0.030863 0.234615 0.382937
O O13 0.226206 0.710289 0.634099
O O14 0.371233 0.751720 0.729845
O O15 0.296092 0.000000 0.646769
O O16 0.343418 0.000000 0.062547
O O17 0.250000 0.250000 0.000000
O O18 0.411332 0.720169 0.398609
O O19 0.442044 0.000000 0.349369
O O20 0.882298 0.500000 0.443257
O O21 0.463160 0.500000 0.794660
#
# Coordination Sequence:
#
# PCOD9183817 Si02
#       8
#     8   8   8   8   8   8   8   8
#     4   9  17  33  56  79 103 138 177 211 257 313
#     4   9  19  37  59  82 108 137 173 221 272 321
#     4   9  17  31  55  79  98 133 178 218 259 310
#     4  11  21  35  53  73 107 144 174 211 262 316
#     4  10  20  34  55  81 111 145 180 217 259 312
#     4   9  16  31  55  79 102 131 172 217 259 306
#     4  10  20  33  52  79 106 132 174 224 263 305
#     4  10  19  33  56  82 104 133 176 219 257 306
#
# _framework density 20.901655999999999
#
# number of rings (size 3 to 8) (size 9 to 14) (size 15 to 20)
#    0.000    2.375    1.250    1.875    0.000    2.750 
#    2.250    1.250    0.000    0.750    0.000    0.000 
#    0.000    0.000    0.000    0.000    0.000    0.000 
#
# Total GULP energy -178594.676571 kJ/mol
# GULP energy per Si atom -5581.083643 kJ/mol
# Density = 2.085408 g / cm^3
# Si number density = 20.901656 Si / 1000 Ang^3
#
#
#
# Elastic Constant Matrix: (Units=GPa)
#
#
# Indices 1 2 3 4 5 6 
#
# 1 29.2780 -12.6688 7.1920 0.0000 -7.5792 0.0000
# 2 -12.6688 51.6105 -7.6086 0.0000 -9.7796 0.0000
# 3 7.1920 -7.6086 102.5114 0.0000 -5.1109 0.0000
# 4 0.0000 0.0000 0.0000 -0.9874 0.0000 8.5788
# 5 -7.5792 -9.7796 -5.1109 0.0000 35.2466 0.0000
# 6 0.0000 0.0000 0.0000 8.5788 0.0000 14.0580
#
#
#
# Elastic Compliance Matrix: (Units=1/GPa)
#
#
# Indices 1 2 3 4 5 6 
#
# 1 0.043341 0.012824 -0.001457 0.000000 0.012667 0.000000
# 2 0.012824 0.024586 0.001413 0.000000 0.009784 0.000000
# 3 -0.001457 0.001413 0.010039 0.000000 0.001534 0.000000
# 4 0.000000 0.000000 0.000000 -0.160706 0.000000 0.098069
# 5 0.012667 0.009784 0.001534 0.000000 0.034032 0.000000
# 6 0.000000 0.000000 0.000000 0.098069 0.000000 0.011288
#
#
# Mechanical properties :
#
#
# Convention : Reuss Voigt Hill
#
# Bulk Modulus (GPa) = 9.65941 17.46992 13.56467
# Shear Modulus (GPa) = -175.62398 22.76245 -76.43077
#
# Velocity S-wave (km/s) = -9.17640 3.30362 -6.05361
# Velocity P-wave (km/s) = 10.37515 4.78834 6.50829
#
# Compressibility (1/GPa) = 0.10352594
#
# Stress axis : x y z
#
# Youngs Moduli (GPa) = 23.07258 40.67328 99.61524
#
# Poissons Ratio (x) = -0.52161 0.14518
# Poissons Ratio (y) = -0.29589 -0.14075
# Poissons Ratio (z) = 0.03363 -0.05747
#
# Static dielectric constant tensor:
#      x y z
#    x 1.698210 0.000000 -0.026300 
#    y 0.000000 1.811240 0.000000 
#    z -0.026300 0.000000 1.785770 
# 
# From -- ./inp_files/320179.got.cif
#   From: 2010.05.17/outbox.cif.g08.bks.cpg/sg12_161_cif.got.tgz:320179.got - 2010.06.03 13:09:07.
