data_PCOD9183502
_publ_section_title
;
Structure prediction by ZEFSAII (Michael W. Deem and Ramdas Pophale) SiO2 
 PCOD9183502
Probable space group: C 2/M
;
_chemical_formula_sum "Si O2"
_cell_formula_units_Z 64
_cell_length_a 20.497906
_cell_length_b 7.535260
_cell_length_c 25.668417
_cell_angle_alpha 90.000000
_cell_angle_beta 132.749606
_cell_angle_gamma 90.000000
_cell_volume 2911.363460
_symmetry_space_group_name_H-M "C 2/M"
_symmetry_group_IT_number 12
_symmetry_cell_setting 'monoclinic'
loop_
_space_group_symop_operation_xyz
x,y,z
-x,y,-z
-x,-y,-z
x,-y,z
1/2+x,1/2+y,z
1/2-x,1/2+y,-z
1/2-x,1/2-y,-z
1/2+x,1/2-y,z
loop_
_atom_site_type_symbol
_atom_site_label
_atom_site_fract_x
_atom_site_fract_y
_atom_site_fract_z
Si Si1 0.688926 0.204479 0.811074
Si Si2 0.843924 0.712529 0.578783
Si Si3 0.207932 0.787077 0.032835
Si Si4 0.215481 0.717710 0.342641
Si Si5 0.175147 0.705079 0.204860
Si Si6 0.461719 0.215963 0.343954
Si Si7 0.489872 0.285382 0.054876
Si Si8 0.590817 0.292519 0.569874
O O1 0.733513 0.283716 0.887029
O O2 0.762540 0.207032 0.804965
O O3 0.598210 0.278459 0.737188
O O4 0.668275 0.000000 0.812622
O O5 0.851567 0.500000 0.584025
O O6 0.750000 0.750000 0.500000
O O7 0.837544 0.775810 0.635192
O O8 0.935701 0.777081 0.602525
O O9 0.202497 0.000000 0.037293
O O10 0.250000 0.750000 0.000000
O O11 0.106624 0.722115 0.979468
O O12 0.213704 0.500000 0.341664
O O13 0.184210 0.775522 0.268530
O O14 0.317566 0.779192 0.402725
O O15 0.203770 0.500000 0.221272
O O16 0.073532 0.716573 0.132038
O O17 0.413424 0.277308 0.370291
O O18 0.460191 0.000000 0.343772
O O19 0.493445 0.500000 0.060022
O O20 0.500000 0.236277 0.000000
O O21 0.500000 0.209644 0.500000
O O22 0.590533 0.500000 0.555087
#
# Coordination Sequence:
#
# PCOD9183502 Si02
#       8
#     8   8   8   8   8   8   8   8
#     4  10  20  38  59  81 114 156 187 226 293 348
#     4  10  21  39  58  80 112 149 189 230 280 338
#     4  10  22  39  60  85 116 152 189 232 283 339
#     4   9  19  35  54  80 112 144 180 229 282 328
#     4  11  21  34  58  89 115 145 191 245 284 327
#     4  10  21  35  57  84 109 144 188 231 277 334
#     4  10  20  38  60  82 114 156 193 229 284 346
#     4  10  19  33  55  80 108 144 182 224 278 334
#
# _framework density 21.982827
#
# number of rings (size 3 to 8) (size 9 to 14) (size 15 to 20)
#    0.000    2.000    2.500    1.125    0.000    4.000 
#    0.000    4.375    0.000    0.000    0.000    0.000 
#    0.000    0.000    0.000    0.000    0.000    0.000 
#
# Total GULP energy -178741.534796 kJ/mol
# GULP energy per Si atom -5585.672962 kJ/mol
# Density = 2.193279 g / cm^3
# Si number density = 21.982827 Si / 1000 Ang^3
#
#
#
# Elastic Constant Matrix: (Units=GPa)
#
#
# Indices 1 2 3 4 5 6 
#
# 1 83.0187 -12.8770 -4.2837 0.0000 7.0739 0.0000
# 2 -12.8770 54.2709 -10.7229 0.0001 2.7351 -0.0002
# 3 -4.2837 -10.7229 92.6442 0.0000 9.0181 0.0000
# 4 0.0000 0.0001 0.0000 15.3055 0.0000 -2.4740
# 5 7.0739 2.7351 9.0181 0.0000 40.9645 0.0000
# 6 0.0000 -0.0002 0.0000 -2.4740 0.0000 14.4257
#
#
#
# Elastic Compliance Matrix: (Units=1/GPa)
#
#
# Indices 1 2 3 4 5 6 
#
# 1 0.012877 0.003442 0.001260 0.000000 -0.002731 0.000000
# 2 0.003442 0.019905 0.002708 0.000000 -0.002520 0.000000
# 3 0.001260 0.002708 0.011450 0.000000 -0.002919 0.000000
# 4 0.000000 0.000000 0.000000 0.067199 0.000000 0.011524
# 5 -0.002731 -0.002520 -0.002919 0.000000 0.025694 0.000000
# 6 0.000000 0.000000 0.000000 0.011524 0.000000 0.071297
#
#
# Mechanical properties :
#
#
# Convention : Reuss Voigt Hill
#
# Bulk Modulus (GPa) = 16.93452 19.35186 18.14319
# Shear Modulus (GPa) = 23.44275 31.32697 27.38486
#
# Velocity S-wave (km/s) = 3.26914 3.77910 3.53333
# Velocity P-wave (km/s) = 4.68721 5.27867 4.99171
#
# Compressibility (1/GPa) = 0.05905097
#
# Stress axis : x y z
#
# Youngs Moduli (GPa) = 77.65776 50.23916 87.33765
#
# Poissons Ratio (x) = -0.17292 -0.11001
# Poissons Ratio (y) = -0.26729 -0.23653
# Poissons Ratio (z) = -0.09782 -0.13606
#
# Static dielectric constant tensor:
#      x y z
#    x 1.779280 0.000000 0.012000 
#    y 0.000000 1.860000 0.000000 
#    z 0.012000 0.000000 1.815240 
# 
# From -- ./inp_files/346138.got.cif
#   From: 2010.05.17/outbox.cif.g08.bks.cpg/sg12_174_cif.got.tgz:346138.got - 2010.06.03 13:09:07.
