data_PCOD9183216
_publ_section_title
;
Structure prediction by ZEFSAII (Michael W. Deem and Ramdas Pophale) SiO2 
 PCOD9183216
Probable space group: C 2/M
;
_chemical_formula_sum "Si O2"
_cell_formula_units_Z 56
_cell_length_a 14.717078
_cell_length_b 8.655878
_cell_length_c 21.434964
_cell_angle_alpha 90.000000
_cell_angle_beta 98.639387
_cell_angle_gamma 90.000000
_cell_volume 2699.600624
_symmetry_space_group_name_H-M "C 2/M"
_symmetry_group_IT_number 12
_symmetry_cell_setting 'monoclinic'
loop_
_space_group_symop_operation_xyz
x,y,z
-x,y,-z
-x,-y,-z
x,-y,z
1/2+x,1/2+y,z
1/2-x,1/2+y,-z
1/2-x,1/2-y,-z
1/2+x,1/2-y,z
loop_
_atom_site_type_symbol
_atom_site_label
_atom_site_fract_x
_atom_site_fract_y
_atom_site_fract_z
Si Si1 0.359449 0.681178 0.074931
Si Si2 0.865186 0.818053 0.816082
Si Si3 0.728933 0.316177 0.403676
Si Si4 0.363103 0.821987 0.945012
Si Si5 0.898468 0.686213 0.509364
Si Si6 0.056385 0.187478 0.786365
Si Si7 0.714275 0.318095 0.720529
O O1 0.383290 0.500000 0.071761
O O2 0.248574 0.691097 0.065991
O O3 0.399101 0.743149 0.144041
O O4 0.393128 0.767236 0.016475
O O5 0.894038 0.780715 0.889851
O O6 0.779648 0.715668 0.786250
O O7 0.949430 0.777413 0.779222
O O8 0.844194 0.000000 0.808462
O O9 0.722151 0.500000 0.407387
O O10 0.820237 0.265096 0.451460
O O11 0.640350 0.244819 0.428620
O O12 0.744375 0.267138 0.334466
O O13 0.387750 0.000000 0.936952
O O14 0.900270 0.500000 0.510736
O O15 0.000000 0.740531 0.500000
O O16 0.114238 0.239733 0.732684
O O17 0.064858 0.000000 0.788124
O O18 0.710934 0.500000 0.707041
#
# Coordination Sequence:
#
# PCOD9183216 Si02
#       7
#     8   8   8   8   8   8   8
#     4   9  17  34  56  76 103 142 187 229 282 346
#     4  11  22  37  58  83 109 143 190 238 288 342
#     4  10  21  37  59  90 122 154 193 231 276 330
#     4  10  19  33  54  80 109 141 182 231 289 346
#     4   9  19  38  63  91 124 157 191 232 276 321
#     4   9  20  38  58  79 107 147 190 232 283 346
#     4  11  22  41  61  80 114 155 192 233 281 331
#
# _framework density 20.743808999999999
#
# number of rings (size 3 to 8) (size 9 to 14) (size 15 to 20)
#    0.000    2.143    1.429    1.714    0.000    3.143 
#    0.000   10.000    0.000    0.000    0.000    0.000 
#    0.000    0.000    0.000    0.000    0.000    0.000 
#
# Total GULP energy -156368.314267 kJ/mol
# GULP energy per Si atom -5584.582652 kJ/mol
# Density = 2.069659 g / cm^3
# Si number density = 20.743809 Si / 1000 Ang^3
#
#
#
# Elastic Constant Matrix: (Units=GPa)
#
#
# Indices 1 2 3 4 5 6 
#
# 1 84.6589 15.4021 19.8138 0.0000 -32.1048 0.0000
# 2 15.4021 18.4099 -0.2907 0.0000 -7.5796 0.0000
# 3 19.8138 -0.2907 78.2678 0.0000 -28.4013 0.0000
# 4 0.0000 0.0000 0.0000 26.0457 0.0000 -1.6111
# 5 -32.1048 -7.5796 -28.4013 0.0000 29.4531 0.0000
# 6 0.0000 0.0000 0.0000 -1.6111 0.0000 18.5038
#
#
#
# Elastic Compliance Matrix: (Units=1/GPa)
#
#
# Indices 1 2 3 4 5 6 
#
# 1 0.022091 -0.007894 0.003660 0.000000 0.025578 0.000000
# 2 -0.007894 0.068077 0.008439 0.000000 0.017053 0.000000
# 3 0.003660 0.008439 0.021716 0.000000 0.027101 0.000000
# 4 0.000000 0.000000 0.000000 0.038602 0.000000 0.003361
# 5 0.025578 0.017053 0.027101 0.000000 0.092355 0.000000
# 6 0.000000 0.000000 0.000000 0.003361 0.000000 0.054336
#
#
# Mechanical properties :
#
#
# Convention : Reuss Voigt Hill
#
# Bulk Modulus (GPa) = 8.31293 27.90967 18.11130
# Shear Modulus (GPa) = 15.20385 24.56130 19.88258
#
# Velocity S-wave (km/s) = 2.71021 3.44471 3.09930
# Velocity P-wave (km/s) = 3.71615 5.41341 4.64300
#
# Compressibility (1/GPa) = 0.12029451
#
# Stress axis : x y z
#
# Youngs Moduli (GPa) = 45.26631 14.68933 46.04938
#
# Poissons Ratio (x) = 0.11595 -0.16853
# Poissons Ratio (y) = 0.35731 -0.38861
# Poissons Ratio (z) = -0.16566 -0.12396
#
# Static dielectric constant tensor:
#      x y z
#    x 1.785050 0.000000 0.007800 
#    y 0.000000 1.698770 0.000000 
#    z 0.007800 0.000000 1.749680 
# 
# From -- ./inp_files/309056.got.cif
#   From: 2010.05.17/outbox.cif.g08.bks.cpg/sg12_155_cif.got.tgz:309056.got - 2010.06.03 13:09:07.
