data_PCOD9183093
_publ_section_title
;
Structure prediction by ZEFSAII (Michael W. Deem and Ramdas Pophale) SiO2 
 PCOD9183093
Probable space group: C 2/M
;
_chemical_formula_sum "Si O2"
_cell_formula_units_Z 56
_cell_length_a 19.712993
_cell_length_b 9.379103
_cell_length_c 21.525305
_cell_angle_alpha 90.000000
_cell_angle_beta 125.133882
_cell_angle_gamma 90.000000
_cell_volume 3254.732954
_symmetry_space_group_name_H-M "C 2/M"
_symmetry_group_IT_number 12
_symmetry_cell_setting 'monoclinic'
loop_
_space_group_symop_operation_xyz
x,y,z
-x,y,-z
-x,-y,-z
x,-y,z
1/2+x,1/2+y,z
1/2-x,1/2+y,-z
1/2-x,1/2-y,-z
1/2+x,1/2-y,z
loop_
_atom_site_type_symbol
_atom_site_label
_atom_site_fract_x
_atom_site_fract_y
_atom_site_fract_z
Si Si1 0.169878 0.670866 0.643334
Si Si2 0.992747 0.670848 0.364880
Si Si3 0.594093 0.333089 0.053429
Si Si4 0.665149 0.665537 0.952828
Si Si5 0.766358 0.332408 0.799904
Si Si6 0.901691 0.832875 0.209905
Si Si7 0.679279 0.828203 0.502513
O O1 0.180116 0.500000 0.656730
O O2 0.233433 0.754354 0.720891
O O3 0.183152 0.704616 0.578123
O O4 0.076715 0.706052 0.619130
O O5 0.990972 0.500000 0.357100
O O6 0.086194 0.711966 0.431708
O O7 0.962290 0.744035 0.285604
O O8 0.594603 0.500000 0.073369
O O9 0.653607 0.243237 0.129106
O O10 0.500000 0.281706 0.000000
O O11 0.626388 0.326337 0.000113
O O12 0.683215 0.500000 0.947895
O O13 0.606076 0.715351 0.865529
O O14 0.750000 0.750000 0.000000
O O15 0.780030 0.500000 0.796523
O O16 0.690395 0.318065 0.809062
O O17 0.924701 0.000000 0.224629
O O18 0.750000 0.750000 0.500000
O O19 0.687795 0.000000 0.500203
#
# Coordination Sequence:
#
# PCOD9183093 Si02
#       7
#     8   8   8   8   8   8   8
#     4   9  18  35  59  81 102 137 179 218 260 309
#     4   9  18  34  57  81 104 134 178 221 256 304
#     4  10  21  36  53  75 106 144 182 217 259 316
#     4  10  19  33  54  77 104 138 177 221 262 308
#     4  10  19  33  54  80 109 136 171 222 268 312
#     4   9  18  32  51  79 108 134 170 218 268 309
#     4  10  21  37  56  80 111 142 173 213 261 314
#
# _framework density 17.205712999999999
#
# number of rings (size 3 to 8) (size 9 to 14) (size 15 to 20)
#    0.000    2.429    1.429    0.857    0.000    4.286 
#    2.571    0.000    0.000    4.286    0.000    0.000 
#    0.000    0.000    0.000    0.000    0.000    0.000 
#
# Total GULP energy -156136.502955 kJ/mol
# GULP energy per Si atom -5576.303677 kJ/mol
# Density = 1.716655 g / cm^3
# Si number density = 17.205713 Si / 1000 Ang^3
#
#
#
# Elastic Constant Matrix: (Units=GPa)
#
#
# Indices 1 2 3 4 5 6 
#
# 1 78.4274 47.5105 77.9814 0.0000 12.9111 0.0000
# 2 47.5105 49.9137 71.3253 0.0000 7.9429 0.0000
# 3 77.9814 71.3253 169.5447 0.0000 12.3892 0.0000
# 4 0.0000 0.0000 0.0000 30.4328 0.0000 -0.1048
# 5 12.9111 7.9429 12.3892 0.0000 21.5595 0.0000
# 6 0.0000 0.0000 0.0000 -0.1048 0.0000 23.3492
#
#
#
# Elastic Compliance Matrix: (Units=1/GPa)
#
#
# Indices 1 2 3 4 5 6 
#
# 1 0.032930 -0.023166 -0.004784 0.000000 -0.008437 0.000000
# 2 -0.023166 0.067456 -0.017662 0.000000 -0.000829 0.000000
# 3 -0.004784 -0.017662 0.015495 0.000000 0.000468 0.000000
# 4 0.000000 0.000000 0.000000 0.032860 0.000000 0.000148
# 5 -0.008437 -0.000829 0.000468 0.000000 0.051472 0.000000
# 6 0.000000 0.000000 0.000000 0.000148 0.000000 0.042829
#
#
# Mechanical properties :
#
#
# Convention : Reuss Voigt Hill
#
# Bulk Modulus (GPa) = 40.55739 76.83559 58.69649
# Shear Modulus (GPa) = 14.59928 21.80622 18.20275
#
# Velocity S-wave (km/s) = 2.91609 3.56389 3.25614
# Velocity P-wave (km/s) = 5.91281 7.85424 6.95163
#
# Compressibility (1/GPa) = 0.02465642
#
# Stress axis : x y z
#
# Youngs Moduli (GPa) = 30.36773 14.82457 64.53877
#
# Poissons Ratio (x) = 0.34342 0.30875
# Poissons Ratio (y) = 0.70349 1.13990
# Poissons Ratio (z) = 0.14528 0.26183
#
# Static dielectric constant tensor:
#      x y z
#    x 1.565810 0.000000 -0.007990 
#    y 0.000000 1.576370 0.000000 
#    z -0.007990 0.000000 1.570590 
# 
# From -- ./inp_files/281720.got.cif
#   From: 2010.05.17/outbox.cif.g08.bks.cpg/sg12_141_cif.got.tgz:281720.got - 2010.06.03 13:09:07.
