data_PCOD9183752
_publ_section_title
;
Structure prediction by ZEFSAII (Michael W. Deem and Ramdas Pophale) SiO2 
 PCOD9183752
Probable space group: C 2/M
;
_chemical_formula_sum "Si O2"
_cell_formula_units_Z 48
_cell_length_a 8.775834
_cell_length_b 14.420774
_cell_length_c 18.999328
_cell_angle_alpha 90.000000
_cell_angle_beta 83.700702
_cell_angle_gamma 90.000000
_cell_volume 2389.929682
_symmetry_space_group_name_H-M "C 2/M"
_symmetry_group_IT_number 12
_symmetry_cell_setting 'monoclinic'
loop_
_space_group_symop_operation_xyz
x,y,z
-x,y,-z
-x,-y,-z
x,-y,z
1/2+x,1/2+y,z
1/2-x,1/2+y,-z
1/2-x,1/2-y,-z
1/2+x,1/2-y,z
loop_
_atom_site_type_symbol
_atom_site_label
_atom_site_fract_x
_atom_site_fract_y
_atom_site_fract_z
Si Si1 0.677216 0.150308 0.015575
Si Si2 0.943789 0.785238 0.751960
Si Si3 0.522891 0.888840 0.415003
Si Si4 0.278825 0.755483 0.349033
Si Si5 0.055876 0.393396 0.169666
Si Si6 0.288396 0.600735 0.867836
O O1 0.669645 0.122231 0.097449
O O2 0.500000 0.145642 0.000000
O O3 0.750000 0.250000 0.000000
O O4 0.774038 0.095720 0.952437
O O5 0.825195 0.816094 0.698584
O O6 0.918541 0.676265 0.768235
O O7 0.910203 0.829930 0.828949
O O8 0.106887 0.798051 0.709329
O O9 0.500000 0.891398 0.500000
O O10 0.382086 0.827160 0.389268
O O11 0.671309 0.822020 0.391595
O O12 0.531193 0.000000 0.392020
O O13 0.063535 0.500000 0.189826
O O14 0.882251 0.373546 0.150771
O O15 0.325635 0.500000 0.837210
#
# Coordination Sequence:
#
# PCOD9183752 Si02
#       6
#     8   8   8   8   8   8
#     4  10  19  33  56  74 102 142 197 259 302 351
#     4  11  20  36  57  85 121 161 191 243 300 358
#     4  10  22  44  72  98 127 164 202 244 295 354
#     4  10  23  38  63  95 130 159 202 243 297 360
#     4  10  20  35  57  79 107 153 207 251 301 362
#     4  10  20  34  54  79 108 149 199 248 303 356
#
# _framework density 20.084274000000001
#
# number of rings (size 3 to 8) (size 9 to 14) (size 15 to 20)
#    0.000    1.833    3.333    1.000    0.000    6.000 
#    0.000    2.500    0.000   10.000    0.000    0.000 
#    0.000    0.000    0.000    0.000    0.000    0.000 
#
# Total GULP energy -133619.897293 kJ/mol
# GULP energy per Si atom -5567.495721 kJ/mol
# Density = 2.003856 g / cm^3
# Si number density = 20.084274 Si / 1000 Ang^3
#
#
#
# Elastic Constant Matrix: (Units=GPa)
#
#
# Indices 1 2 3 4 5 6 
#
# 1 67.7460 32.8916 33.2412 0.0000 -17.3934 0.0000
# 2 32.8916 107.1682 40.3842 0.0000 -11.5919 0.0000
# 3 33.2412 40.3842 83.5620 0.0000 -21.9872 0.0000
# 4 0.0000 0.0000 0.0000 13.1514 0.0000 8.7928
# 5 -17.3934 -11.5919 -21.9872 0.0000 31.7274 0.0000
# 6 0.0000 0.0000 0.0000 8.7928 0.0000 14.3314
#
#
#
# Elastic Compliance Matrix: (Units=1/GPa)
#
#
# Indices 1 2 3 4 5 6 
#
# 1 0.020605 -0.003882 -0.004552 0.000000 0.006724 0.000000
# 2 -0.003882 0.012145 -0.004547 0.000000 -0.000842 0.000000
# 3 -0.004552 -0.004547 0.018200 0.000000 0.008456 0.000000
# 4 0.000000 0.000000 0.000000 0.128921 0.000000 -0.079098
# 5 0.006724 -0.000842 0.008456 0.000000 0.040757 0.000000
# 6 0.000000 0.000000 0.000000 -0.079098 0.000000 0.118306
#
#
# Mechanical properties :
#
#
# Convention : Reuss Voigt Hill
#
# Bulk Modulus (GPa) = 40.01582 52.39003 46.20292
# Shear Modulus (GPa) = 13.39672 21.97264 17.68468
#
# Velocity S-wave (km/s) = 2.58549 3.31119 2.97058
# Velocity P-wave (km/s) = 5.37403 6.38438 5.90087
#
# Compressibility (1/GPa) = 0.02499012
#
# Stress axis : x y z
#
# Youngs Moduli (GPa) = 48.53128 82.34013 54.94408
#
# Poissons Ratio (x) = 0.31961 0.25010
# Poissons Ratio (y) = 0.18838 0.24982
# Poissons Ratio (z) = 0.22091 0.37438
#
# Static dielectric constant tensor:
#      x y z
#    x 1.748710 0.000000 -0.006140 
#    y 0.000000 1.779330 0.000000 
#    z -0.006140 0.000000 1.734310 
# 
# From -- ./inp_files/255785.got.cif
#   From: 2010.05.17/outbox.cif.g08.bks.cpg/sg12_128_cif.got.tgz:255785.got - 2010.06.03 13:09:07.
