data_PCOD9183776
_publ_section_title
;
Structure prediction by ZEFSAII (Michael W. Deem and Ramdas Pophale) SiO2 
 PCOD9183776
Probable space group: C 2/M
;
_chemical_formula_sum "Si O2"
_cell_formula_units_Z 64
_cell_length_a 24.544154
_cell_length_b 14.301555
_cell_length_c 11.614292
_cell_angle_alpha 90.000000
_cell_angle_beta 38.038536
_cell_angle_gamma 90.000000
_cell_volume 2512.115808
_symmetry_space_group_name_H-M "C 2/M"
_symmetry_group_IT_number 12
_symmetry_cell_setting 'monoclinic'
loop_
_space_group_symop_operation_xyz
x,y,z
-x,y,-z
-x,-y,-z
x,-y,z
1/2+x,1/2+y,z
1/2-x,1/2+y,-z
1/2-x,1/2-y,-z
1/2+x,1/2-y,z
loop_
_atom_site_type_symbol
_atom_site_label
_atom_site_fract_x
_atom_site_fract_y
_atom_site_fract_z
Si Si1 0.225151 0.110152 0.640817
Si Si2 0.342317 0.198690 0.273575
Si Si3 0.940170 0.601690 0.483954
Si Si4 0.080708 0.395872 0.058712
Si Si5 0.845198 0.102484 0.991049
Si Si6 0.679828 0.607243 0.409542
Si Si7 0.740863 0.851175 0.959249
Si Si8 0.016847 0.187331 0.603094
O O1 0.319170 0.141280 0.428338
O O2 0.159094 0.190592 0.701631
O O3 0.207715 0.126079 0.804752
O O4 0.210197 0.000000 0.643487
O O5 0.416340 0.167822 0.059372
O O6 0.254662 0.170214 0.343786
O O7 0.889295 0.500000 0.568386
O O8 0.927348 0.714930 0.507788
O O9 0.000000 0.593675 0.500000
O O10 0.991176 0.599433 0.277552
O O11 0.104986 0.500000 0.977387
O O12 0.149364 0.370312 0.046968
O O13 0.888172 0.000000 0.933954
O O14 0.769476 0.092727 0.022086
O O15 0.919547 0.176896 0.825173
O O16 0.696891 0.500000 0.410896
O O17 0.691983 0.622696 0.253000
O O18 0.578088 0.631703 0.590360
O O19 0.750000 0.750000 0.000000
O O20 0.000000 0.152365 0.500000
#
# Coordination Sequence:
#
# PCOD9183776 Si02
#       8
#     8   8   8   8   8   8   8   8
#     4  10  21  37  58  83 112 142 179 232 284 326
#     4  10  20  38  60  81 109 144 186 230 273 326
#     4   9  19  34  50  74 108 144 183 223 270 326
#     4  10  19  33  56  80 105 143 186 225 271 332
#     4  11  21  34  51  80 114 143 178 224 279 327
#     4  11  22  36  55  81 109 144 190 227 264 326
#     4  11  20  30  49  76 111 140 175 221 274 327
#     4  11  21  34  55  75 109 154 188 221 266 328
#
# _framework density 25.476533
#
# number of rings (size 3 to 8) (size 9 to 14) (size 15 to 20)
#    0.000    1.625    1.250    6.375    1.750    0.500 
#    0.000    1.250    0.000    2.250    0.000    0.000 
#    0.000    8.000    0.000    0.000    0.000    0.000 
#
# Total GULP energy -178204.409409 kJ/mol
# GULP energy per Si atom -5568.887794 kJ/mol
# Density = 2.541855 g / cm^3
# Si number density = 25.476533 Si / 1000 Ang^3
#
#
#
# Elastic Constant Matrix: (Units=GPa)
#
#
# Indices 1 2 3 4 5 6 
#
# 1 92.6700 16.1628 45.2404 0.0000 3.9158 0.0000
# 2 16.1628 153.4928 9.2992 0.0000 -2.6201 0.0000
# 3 45.2404 9.2992 123.3973 0.0000 44.9801 0.0000
# 4 0.0000 0.0000 0.0000 14.5903 0.0000 -12.1217
# 5 3.9158 -2.6201 44.9801 0.0000 34.9347 0.0000
# 6 0.0000 0.0000 0.0000 -12.1217 0.0000 -1.8209
#
#
#
# Elastic Compliance Matrix: (Units=1/GPa)
#
#
# Indices 1 2 3 4 5 6 
#
# 1 0.014913 -0.000858 -0.008989 0.000000 0.009838 0.000000
# 2 -0.000858 0.006679 -0.000766 0.000000 0.001583 0.000000
# 3 -0.008989 -0.000766 0.020937 0.000000 -0.026008 0.000000
# 4 0.000000 0.000000 0.000000 0.010495 0.000000 -0.069865
# 5 0.009838 0.001583 -0.026008 0.000000 0.061127 0.000000
# 6 0.000000 0.000000 0.000000 -0.069865 0.000000 -0.084093
#
#
# Mechanical properties :
#
#
# Convention : Reuss Voigt Hill
#
# Bulk Modulus (GPa) = 46.93940 56.77387 51.85664
# Shear Modulus (GPa) = 85.63968 29.46468 57.55218
#
# Velocity S-wave (km/s) = 5.80414 3.40449 4.75808
# Velocity P-wave (km/s) = 7.96128 6.14713 7.11229
#
# Compressibility (1/GPa) = 0.02130406
#
# Stress axis : x y z
#
# Youngs Moduli (GPa) = 67.05505 149.72930 47.76175
#
# Poissons Ratio (x) = 0.12844 0.42932
# Poissons Ratio (y) = 0.05752 0.03658
# Poissons Ratio (z) = 0.60274 0.11468
#
# Static dielectric constant tensor:
#      x y z
#    x 2.002920 0.000000 -0.054000 
#    y 0.000000 2.158450 0.000000 
#    z -0.054000 0.000000 2.190860 
# 
# From -- ./inp_files/189433.got.cif
#   From: 2010.05.17/outbox.cif.g08.bks.cpg/sg12_95_cif.got.tgz:189433.got - 2010.06.03 13:09:07.
