data_PCOD9183953
_publ_section_title
;
Structure prediction by ZEFSAII (Michael W. Deem and Ramdas Pophale) SiO2 
 PCOD9183953
Probable space group: C 2/M
;
_chemical_formula_sum "Si O2"
_cell_formula_units_Z 58
_cell_length_a 24.705746
_cell_length_b 9.215003
_cell_length_c 15.305315
_cell_angle_alpha 90.000000
_cell_angle_beta 104.878200
_cell_angle_gamma 90.000000
_cell_volume 3367.641326
_symmetry_space_group_name_H-M "C 2/M"
_symmetry_group_IT_number 12
_symmetry_cell_setting 'monoclinic'
loop_
_space_group_symop_operation_xyz
x,y,z
-x,y,-z
-x,-y,-z
x,-y,z
1/2+x,1/2+y,z
1/2-x,1/2+y,-z
1/2-x,1/2-y,-z
1/2+x,1/2-y,z
loop_
_atom_site_type_symbol
_atom_site_label
_atom_site_fract_x
_atom_site_fract_y
_atom_site_fract_z
Si Si1 0.054713 0.829814 0.216203
Si Si2 0.919860 0.825176 0.393516
Si Si3 0.000000 0.500000 0.000000
Si Si4 0.865925 0.167440 0.906744
Si Si5 0.352030 0.830823 0.214817
Si Si6 0.254119 0.826097 0.907435
Si Si7 0.050444 0.175145 0.405734
Si Si8 0.562419 0.760529 0.904925
O O1 0.093285 0.775557 0.153241
O O2 0.066104 0.765305 0.316884
O O3 0.989386 0.816008 0.165126
O O4 0.067123 0.000000 0.226358
O O5 0.880938 0.737242 0.312093
O O6 0.916260 0.779005 0.493829
O O7 0.984524 0.797736 0.393603
O O8 0.910537 0.000000 0.382595
O O9 0.967943 0.376735 0.046259
O O10 0.812736 0.271111 0.892573
O O11 0.848928 0.000000 0.883145
O O12 0.900334 0.169345 0.011731
O O13 0.297796 0.736205 0.168649
O O14 0.395725 0.818816 0.152028
O O15 0.337738 0.000000 0.220509
O O16 0.252254 0.000000 0.914314
O O17 0.250000 0.750000 0.000000
O O18 0.055806 0.000000 0.405938
#
# Coordination Sequence:
#
# PCOD9183953 Si02
#       8
#     8   8   2   8   8   8   8   8
#     4  10  19  33  56  85 113 146 187 227 274 331
#     4   9  17  32  56  81 113 148 186 226 275 334
#     4  12  24  36  46  80 114 168 194 220 274 346
#     4  11  23  37  56  82 114 150 190 235 280 332
#     4  12  24  37  56  82 113 150 187 234 283 326
#     4  12  26  41  60  80 108 147 192 238 281 331
#     4   8  15  29  53  85 113 145 183 227 274 334
#     4  12  22  33  54  76 118 153 190 223 275 330
#
# _framework density 17.222736999999999
#
# number of rings (size 3 to 8) (size 9 to 14) (size 15 to 20)
#    0.000    1.379    4.828    2.897    0.966    2.207 
#    0.000    1.379    1.517    0.828    0.000    0.000 
#    0.000    0.000    0.000    0.000    0.000    0.000 
#
# Total GULP energy -161451.458247 kJ/mol
# GULP energy per Si atom -5567.291664 kJ/mol
# Density = 1.718354 g / cm^3
# Si number density = 17.222737 Si / 1000 Ang^3
#
#
#
# Elastic Constant Matrix: (Units=GPa)
#
#
# Indices 1 2 3 4 5 6 
#
# 1 87.7503 38.3597 54.7393 0.0000 2.7457 0.0000
# 2 38.3597 91.6031 44.3081 0.0000 8.5685 0.0000
# 3 54.7393 44.3081 150.0818 0.0000 5.8206 0.0000
# 4 0.0000 0.0000 0.0000 1.7434 0.0000 -9.3410
# 5 2.7457 8.5685 5.8206 0.0000 21.8676 0.0000
# 6 0.0000 0.0000 0.0000 -9.3410 0.0000 25.2085
#
#
#
# Elastic Compliance Matrix: (Units=1/GPa)
#
#
# Indices 1 2 3 4 5 6 
#
# 1 0.016279 -0.004691 -0.004592 0.000000 0.001016 0.000000
# 2 -0.004691 0.014449 -0.002383 0.000000 -0.004438 0.000000
# 3 -0.004592 -0.002383 0.009076 0.000000 -0.000906 0.000000
# 4 0.000000 0.000000 0.000000 -0.582115 0.000000 -0.215702
# 5 0.001016 -0.004438 -0.000906 0.000000 0.047582 0.000000
# 6 0.000000 0.000000 0.000000 -0.215702 0.000000 -0.040259
#
#
# Mechanical properties :
#
#
# Convention : Reuss Voigt Hill
#
# Bulk Modulus (GPa) = 60.70480 67.13882 63.92181
# Shear Modulus (GPa) = -9.87821 22.56577 6.34378
#
# Velocity S-wave (km/s) = -2.39750 3.62364 1.92129
# Velocity P-wave (km/s) = 5.25922 7.52163 6.48978
#
# Compressibility (1/GPa) = 0.01647316
#
# Stress axis : x y z
#
# Youngs Moduli (GPa) = 61.42715 69.21048 110.17555
#
# Poissons Ratio (x) = 0.32467 0.50594
# Poissons Ratio (y) = 0.28816 0.26250
# Poissons Ratio (z) = 0.28208 0.16490
#
# Static dielectric constant tensor:
#      x y z
#    x 1.572230 0.000000 -0.013710 
#    y 0.000000 1.584110 0.000000 
#    z -0.013710 0.000000 1.621150 
# 
# From -- ./inp_files/237722.got.cif
#   From: 2010.05.17/outbox.cif.g08.bks.cpg/sg12_119_cif.got.tgz:237722.got - 2010.06.03 13:09:07.
