data_PCOD9183616
_publ_section_title
;
Structure prediction by ZEFSAII (Michael W. Deem and Ramdas Pophale) SiO2 
 PCOD9183616
Probable space group: C 2/M
;
_chemical_formula_sum "Si O2"
_cell_formula_units_Z 58
_cell_length_a 25.099906
_cell_length_b 8.735511
_cell_length_c 14.418197
_cell_angle_alpha 90.000000
_cell_angle_beta 93.570400
_cell_angle_gamma 90.000000
_cell_volume 3155.205099
_symmetry_space_group_name_H-M "C 2/M"
_symmetry_group_IT_number 12
_symmetry_cell_setting 'monoclinic'
loop_
_space_group_symop_operation_xyz
x,y,z
-x,y,-z
-x,-y,-z
x,-y,z
1/2+x,1/2+y,z
1/2-x,1/2+y,-z
1/2-x,1/2-y,-z
1/2+x,1/2-y,z
loop_
_atom_site_type_symbol
_atom_site_label
_atom_site_fract_x
_atom_site_fract_y
_atom_site_fract_z
Si Si1 0.565994 0.817633 0.284304
Si Si2 0.748057 0.313816 0.727099
Si Si3 0.475547 0.685013 0.397858
Si Si4 0.000000 0.000000 0.000000
Si Si5 0.598938 0.669150 0.094051
Si Si6 0.792438 0.315966 0.932297
Si Si7 0.353597 0.684556 0.384361
Si Si8 0.331351 0.184079 0.580258
O O1 0.512389 0.745057 0.319325
O O2 0.582007 0.756250 0.185430
O O3 0.613259 0.779279 0.361680
O O4 0.561365 0.000000 0.280356
O O5 0.749109 0.500000 0.727666
O O6 0.773115 0.266740 0.827198
O O7 0.687511 0.265109 0.699781
O O8 0.784648 0.265400 0.644636
O O9 0.500000 0.734032 0.500000
O O10 0.476342 0.500000 0.396379
O O11 0.414508 0.738410 0.382056
O O12 0.046119 0.868671 0.028809
O O13 0.619690 0.500000 0.124021
O O14 0.647372 0.754755 0.048848
O O15 0.792429 0.500000 0.936395
O O16 0.750000 0.250000 0.000000
O O17 0.354914 0.500000 0.384083
O O18 0.331067 0.738270 0.480667
O O19 0.328153 0.000000 0.568890
#
# Coordination Sequence:
#
# PCOD9183616 Si02
#       8
#     8   8   8   2   8   8   8   8
#     4  11  21  35  60  88 114 157 201 246 305 369
#     4   9  19  37  57  82 115 155 196 241 300 359
#     4  10  20  34  51  79 117 159 208 247 288 352
#     4   8  24  44  70  96 118 156 202 266 330 380
#     4  10  21  43  67  91 119 152 203 254 315 384
#     4  11  22  41  66  95 127 163 208 260 317 384
#     4  10  20  35  54  80 115 159 202 245 292 348
#     4  10  19  33  55  82 117 152 192 244 299 350
#
# _framework density 18.382324000000001
#
# number of rings (size 3 to 8) (size 9 to 14) (size 15 to 20)
#    0.414    1.517    2.759    1.655    0.000    1.379 
#    2.483    2.759    0.000    0.000    0.000    0.000 
#    0.000    0.000    0.000    0.000    0.000    0.000 
#
# Total GULP energy -161477.287320 kJ/mol
# GULP energy per Si atom -5568.182321 kJ/mol
# Density = 1.834048 g / cm^3
# Si number density = 18.382324 Si / 1000 Ang^3
#
#
#
# Elastic Constant Matrix: (Units=GPa)
#
#
# Indices 1 2 3 4 5 6 
#
# 1 145.6341 30.7597 53.9003 0.0000 1.8443 0.0000
# 2 30.7597 21.3198 17.8864 0.0000 2.6054 0.0000
# 3 53.9003 17.8864 50.6688 0.0000 -13.5371 0.0000
# 4 0.0000 0.0000 0.0000 27.8003 0.0000 -4.8351
# 5 1.8443 2.6054 -13.5371 0.0000 32.9211 0.0000
# 6 0.0000 0.0000 0.0000 -4.8351 0.0000 20.9619
#
#
#
# Elastic Compliance Matrix: (Units=1/GPa)
#
#
# Indices 1 2 3 4 5 6 
#
# 1 0.013360 -0.007764 -0.012927 0.000000 -0.005450 0.000000
# 2 -0.007764 0.080586 -0.024463 0.000000 -0.016002 0.000000
# 3 -0.012927 -0.024463 0.048120 0.000000 0.022447 0.000000
# 4 0.000000 0.000000 0.000000 0.037474 0.000000 0.008644
# 5 -0.005450 -0.016002 0.022447 0.000000 0.041178 0.000000
# 6 0.000000 0.000000 0.000000 0.008644 0.000000 0.049699
#
#
# Mechanical properties :
#
#
# Convention : Reuss Voigt Hill
#
# Bulk Modulus (GPa) = 19.32101 46.96840 33.14470
# Shear Modulus (GPa) = 13.22826 24.00842 18.61834
#
# Velocity S-wave (km/s) = 2.68548 3.61787 3.18597
# Velocity P-wave (km/s) = 4.48879 6.56188 5.62172
#
# Compressibility (1/GPa) = 0.05175714
#
# Stress axis : x y z
#
# Youngs Moduli (GPa) = 74.85148 12.40913 20.78116
#
# Poissons Ratio (x) = 0.09634 0.26864
# Poissons Ratio (y) = 0.58114 0.50838
# Poissons Ratio (z) = 0.96761 0.30357
#
# Static dielectric constant tensor:
#      x y z
#    x 1.653230 0.000000 0.011060 
#    y 0.000000 1.621810 0.000000 
#    z 0.011060 0.000000 1.606620 
# 
# From -- ./inp_files/237536.got.cif
#   From: 2010.05.17/outbox.cif.g08.bks.cpg/sg12_119_cif.got.tgz:237536.got - 2010.06.03 13:09:07.
