data_PCOD9183146
_publ_section_title
;
Structure prediction by ZEFSAII (Michael W. Deem and Ramdas Pophale) SiO2 
 PCOD9183146
Probable space group: C 2/M
;
_chemical_formula_sum "Si O2"
_cell_formula_units_Z 48
_cell_length_a 30.783310
_cell_length_b 9.170486
_cell_length_c 9.590127
_cell_angle_alpha 90.000000
_cell_angle_beta 99.831269
_cell_angle_gamma 90.000000
_cell_volume 2667.516162
_symmetry_space_group_name_H-M "C 2/M"
_symmetry_group_IT_number 12
_symmetry_cell_setting 'monoclinic'
loop_
_space_group_symop_operation_xyz
x,y,z
-x,y,-z
-x,-y,-z
x,-y,z
1/2+x,1/2+y,z
1/2-x,1/2+y,-z
1/2-x,1/2-y,-z
1/2+x,1/2-y,z
loop_
_atom_site_type_symbol
_atom_site_label
_atom_site_fract_x
_atom_site_fract_y
_atom_site_fract_z
Si Si1 0.542152 0.677575 0.612828
Si Si2 0.543174 0.322038 0.936265
Si Si3 0.776332 0.833348 0.896851
Si Si4 0.218186 0.666960 0.587830
Si Si5 0.371625 0.323768 0.515813
Si Si6 0.128727 0.177686 0.158800
O O1 0.500000 0.726335 0.500000
O O2 0.540781 0.500000 0.615167
O O3 0.541721 0.725762 0.773943
O O4 0.586263 0.717825 0.553568
O O5 0.543283 0.500000 0.935043
O O6 0.500000 0.277201 0.000000
O O7 0.587503 0.275945 0.041438
O O8 0.744587 0.834489 0.746226
O O9 0.824201 0.773194 0.877214
O O10 0.783756 0.000000 0.947182
O O11 0.750000 0.750000 0.000000
O O12 0.211083 0.500000 0.539176
O O13 0.250000 0.750000 0.500000
O O14 0.172119 0.750392 0.567854
O O15 0.367272 0.500000 0.509395
O O16 0.376446 0.281041 0.681530
O O17 0.129479 0.000000 0.158708
#
# Coordination Sequence:
#
# PCOD9183146 Si02
#       6
#     8   8   8   8   8   8
#     4   9  17  28  46  76 107 138 176 218 266 318
#     4   9  16  26  43  69 103 139 171 211 264 317
#     4  10  22  37  53  76 108 142 180 221 266 318
#     4  11  22  38  57  80 109 143 185 225 270 324
#     4  10  19  33  54  78 109 142 177 224 271 317
#     4   9  17  31  47  69 103 138 171 213 264 314
#
# _framework density 17.994266
#
# number of rings (size 3 to 8) (size 9 to 14) (size 15 to 20)
#    0.000    2.333    1.667    1.500    2.333    5.333 
#    0.000    0.000    0.000    0.500    0.000    0.000 
#    0.000    3.333    0.000    0.000    0.000    0.000 
#
# Total GULP energy -133830.546335 kJ/mol
# GULP energy per Si atom -5576.272764 kJ/mol
# Density = 1.795331 g / cm^3
# Si number density = 17.994266 Si / 1000 Ang^3
#
#
#
# Elastic Constant Matrix: (Units=GPa)
#
#
# Indices 1 2 3 4 5 6 
#
# 1 206.7768 31.5205 96.7420 0.0000 -8.9139 0.0000
# 2 31.5205 22.6895 25.4353 0.0000 -8.1061 0.0000
# 3 96.7420 25.4353 122.8377 0.0000 -17.9395 0.0000
# 4 0.0000 0.0000 0.0000 16.2543 0.0000 0.2338
# 5 -8.9139 -8.1061 -17.9395 0.0000 38.0095 0.0000
# 6 0.0000 0.0000 0.0000 0.2338 0.0000 21.1161
#
#
#
# Elastic Compliance Matrix: (Units=1/GPa)
#
#
# Indices 1 2 3 4 5 6 
#
# 1 0.008258 -0.005938 -0.005560 0.000000 -0.001954 0.000000
# 2 -0.005938 0.063519 -0.007197 0.000000 0.008757 0.000000
# 3 -0.005560 -0.007197 0.014601 0.000000 0.004053 0.000000
# 4 0.000000 0.000000 0.000000 0.061532 0.000000 -0.000681
# 5 -0.001954 0.008757 0.004053 0.000000 0.029631 0.000000
# 6 0.000000 0.000000 0.000000 -0.000681 0.000000 0.047365
#
#
# Mechanical properties :
#
#
# Convention : Reuss Voigt Hill
#
# Bulk Modulus (GPa) = 20.41267 73.29997 46.85632
# Shear Modulus (GPa) = 17.94524 28.31640 23.13082
#
# Velocity S-wave (km/s) = 3.16139 3.97121 3.58921
# Velocity P-wave (km/s) = 4.96936 7.86454 6.57820
#
# Compressibility (1/GPa) = 0.04898918
#
# Stress axis : x y z
#
# Youngs Moduli (GPa) = 121.09226 15.74338 68.48622
#
# Poissons Ratio (x) = 0.09348 0.38076
# Poissons Ratio (y) = 0.71903 0.49290
# Poissons Ratio (z) = 0.67322 0.11331
#
# Static dielectric constant tensor:
#      x y z
#    x 1.605990 0.000000 -0.002830 
#    y 0.000000 1.610120 0.000000 
#    z -0.002830 0.000000 1.600140 
# 
# From -- ./inp_files/108729.got.cif
#   From: 2010.05.17/outbox.cif.g08.bks.cpg/sg12_55_cif.got.tgz:108729.got - 2010.06.03 13:09:07.
