data_PCOD9184867
_publ_section_title
;
Structure prediction by ZEFSAII (Michael W. Deem and Ramdas Pophale) SiO2 
 PCOD9184867
Probable space group: C 2/M
;
_chemical_formula_sum "Si O2"
_cell_formula_units_Z 64
_cell_length_a 30.500473
_cell_length_b 7.468262
_cell_length_c 12.014970
_cell_angle_alpha 90.000000
_cell_angle_beta 87.387305
_cell_angle_gamma 90.000000
_cell_volume 2733.991274
_symmetry_space_group_name_H-M "C 2/M"
_symmetry_group_IT_number 12
_symmetry_cell_setting 'monoclinic'
loop_
_space_group_symop_operation_xyz
x,y,z
-x,y,-z
-x,-y,-z
x,-y,z
1/2+x,1/2+y,z
1/2-x,1/2+y,-z
1/2-x,1/2-y,-z
1/2+x,1/2-y,z
loop_
_atom_site_type_symbol
_atom_site_label
_atom_site_fract_x
_atom_site_fract_y
_atom_site_fract_z
Si Si1 0.926346 0.220291 0.291281
Si Si2 0.894018 0.206470 0.524629
Si Si3 0.006726 0.781716 0.126863
Si Si4 0.702654 0.787937 0.451931
Si Si5 0.260084 0.779988 0.779552
Si Si6 0.099316 0.782430 0.223809
Si Si7 0.822819 0.706499 0.953506
Si Si8 0.163845 0.796494 0.800413
O O1 0.922828 0.280443 0.419900
O O2 0.881250 0.282114 0.238193
O O3 0.967709 0.276832 0.213369
O O4 0.926866 0.000000 0.290873
O O5 0.842531 0.211596 0.495304
O O6 0.897615 0.282905 0.648693
O O7 0.907315 0.000000 0.534239
O O8 0.053432 0.729678 0.172638
O O9 0.005933 0.000000 0.125012
O O10 0.000000 0.722722 0.000000
O O11 0.750000 0.750000 0.500000
O O12 0.708500 0.724067 0.324293
O O13 0.696763 0.000000 0.453668
O O14 0.280346 0.720534 0.893674
O O15 0.210833 0.715530 0.763034
O O16 0.259486 0.000000 0.781315
O O17 0.138486 0.716325 0.141302
O O18 0.101935 0.000000 0.223873
O O19 0.815146 0.500000 0.983604
O O20 0.835704 0.800083 0.065818
O O21 0.164988 0.000000 0.758046
#
# Coordination Sequence:
#
# PCOD9184867 Si02
#       8
#     8   8   8   8   8   8   8   8
#     4   9  18  33  55  81 112 144 178 228 285 332
#     4  10  20  35  55  82 112 145 186 230 278 331
#     4   9  17  31  54  84 112 142 184 231 280 331
#     4  11  21  36  56  79 110 150 191 230 274 325
#     4   9  19  34  52  75 106 143 180 220 274 331
#     4  10  20  34  56  83 110 144 190 235 273 330
#     4  11  21  35  53  77 110 145 181 224 279 334
#     4  10  19  34  55  77 103 140 183 226 275 330
#
# _framework density 23.408999000000001
#
# number of rings (size 3 to 8) (size 9 to 14) (size 15 to 20)
#    0.000    2.125    1.250    2.625    0.000    4.500 
#    0.000    6.250    0.000    4.125    0.000    1.750 
#    0.000    0.000    0.000    0.000    0.000    0.000 
#
# Total GULP energy -178866.116067 kJ/mol
# GULP energy per Si atom -5589.566127 kJ/mol
# Density = 2.335572 g / cm^3
# Si number density = 23.408999 Si / 1000 Ang^3
#
#
#
# Elastic Constant Matrix: (Units=GPa)
#
#
# Indices 1 2 3 4 5 6 
#
# 1 103.8727 -6.2894 20.2676 0.0000 -11.8399 0.0000
# 2 -6.2894 76.9053 -3.4980 0.0000 1.2365 0.0000
# 3 20.2676 -3.4980 102.5934 0.0000 -18.8994 0.0000
# 4 0.0000 0.0000 0.0000 -1.5851 0.0000 -1.8262
# 5 -11.8399 1.2365 -18.8994 0.0000 45.1706 0.0000
# 6 0.0000 0.0000 0.0000 -1.8262 0.0000 9.1004
#
#
#
# Elastic Compliance Matrix: (Units=1/GPa)
#
#
# Indices 1 2 3 4 5 6 
#
# 1 0.010214 0.000729 -0.001629 0.000000 0.001976 0.000000
# 2 0.000729 0.013077 0.000294 0.000000 -0.000044 0.000000
# 3 -0.001629 0.000294 0.010834 0.000000 0.004098 0.000000
# 4 0.000000 0.000000 0.000000 -0.512401 0.000000 -0.102826
# 5 0.001976 -0.000044 0.004098 0.000000 0.024372 0.000000
# 6 0.000000 0.000000 0.000000 -0.102826 0.000000 0.089251
#
#
# Mechanical properties :
#
#
# Convention : Reuss Voigt Hill
#
# Bulk Modulus (GPa) = 30.38288 33.81467 32.09878
# Shear Modulus (GPa) = -14.18559 28.72992 7.27217
#
# Velocity S-wave (km/s) = -2.46435 3.50709 1.76446
# Velocity P-wave (km/s) = 2.21584 5.55662 4.23001
#
# Compressibility (1/GPa) = 0.03291327
#
# Stress axis : x y z
#
# Youngs Moduli (GPa) = 97.90101 76.47171 92.30244
#
# Poissons Ratio (x) = -0.05578 0.15036
# Poissons Ratio (y) = -0.07142 -0.02711
# Poissons Ratio (z) = 0.15948 -0.02246
#
# Static dielectric constant tensor:
#      x y z
#    x 1.853420 0.000000 0.009160 
#    y 0.000000 1.932490 0.000000 
#    z 0.009160 0.000000 1.883230 
# 
# From -- ./inp_files/187546.got.cif
#   From: 2010.05.17/outbox.cif.g08.bks.cpg/sg12_94_cif.got.tgz:187546.got - 2010.06.03 13:09:07.
