data_PCOD9184490
_publ_section_title
;
Structure prediction by ZEFSAII (Michael W. Deem and Ramdas Pophale) SiO2 
 PCOD9184490
Probable space group: C 2/M
;
_chemical_formula_sum "Si O2"
_cell_formula_units_Z 60
_cell_length_a 27.706782
_cell_length_b 9.402559
_cell_length_c 27.726236
_cell_angle_alpha 90.000000
_cell_angle_beta 28.953514
_cell_angle_gamma 90.000000
_cell_volume 3496.697158
_symmetry_space_group_name_H-M "C 2/M"
_symmetry_group_IT_number 12
_symmetry_cell_setting 'monoclinic'
loop_
_space_group_symop_operation_xyz
x,y,z
-x,y,-z
-x,-y,-z
x,-y,z
1/2+x,1/2+y,z
1/2-x,1/2+y,-z
1/2-x,1/2-y,-z
1/2+x,1/2-y,z
loop_
_atom_site_type_symbol
_atom_site_label
_atom_site_fract_x
_atom_site_fract_y
_atom_site_fract_z
Si Si1 0.279091 0.340296 0.679230
Si Si2 0.000000 0.748175 0.500000
Si Si3 0.529776 0.831099 0.030031
Si Si4 0.655714 0.832662 0.643760
Si Si5 0.116852 0.830162 0.769897
Si Si6 0.251434 0.667331 0.816505
Si Si7 0.448969 0.161665 0.650813
Si Si8 0.862393 0.331557 0.451460
O O1 0.247975 0.500000 0.692307
O O2 0.398807 0.331929 0.575642
O O3 0.225647 0.225123 0.692617
O O4 0.244154 0.314573 0.764804
O O5 0.972763 0.666407 0.572829
O O6 0.460617 0.736456 0.124340
O O7 0.518262 0.000000 0.051308
O O8 0.500000 0.814281 0.000000
O O9 0.646383 0.791027 0.931596
O O10 0.599164 0.742273 0.733579
O O11 0.766550 0.765524 0.544813
O O12 0.613496 0.819083 0.626470
O O13 0.658833 0.000000 0.653122
O O14 0.113246 0.000000 0.771423
O O15 0.265713 0.500000 0.812139
O O16 0.349608 0.749258 0.746763
O O17 0.545398 0.212529 0.595851
O O18 0.431119 0.000000 0.681148
O O19 0.839549 0.500000 0.480792
#
# Coordination Sequence:
#
# PCOD9184490 Si02
#       8
#     8   4   8   8   8   8   8   8
#     4  10  19  34  51  71 101 140 179 214 253 306
#     4  10  20  30  48  78 108 142 174 210 250 308
#     4  10  19  37  58  76 103 141 178 219 265 316
#     4  10  20  35  56  79 104 141 184 224 266 312
#     4  12  24  34  51  80 110 137 172 223 273 319
#     4   9  19  34  53  75 101 135 177 213 251 311
#     4  10  20  33  50  74 109 144 172 209 260 317
#     4   9  19  36  56  79 109 143 180 221 264 312
#
# _framework density 17.159050000000001
#
# number of rings (size 3 to 8) (size 9 to 14) (size 15 to 20)
#    0.000    2.000    1.333    2.800    0.000    6.133 
#    0.000    0.000    0.000    0.800    0.000    0.000 
#    0.000    0.000    0.000    0.000    0.000    0.000 
#
# Total GULP energy -167369.904736 kJ/mol
# GULP energy per Si atom -5578.996825 kJ/mol
# Density = 1.711999 g / cm^3
# Si number density = 17.159050 Si / 1000 Ang^3
#
#
#
# Elastic Constant Matrix: (Units=GPa)
#
#
# Indices 1 2 3 4 5 6 
#
# 1 84.3353 36.2336 34.6496 -0.0008 -5.6294 0.0004
# 2 36.2336 82.3431 36.4580 -0.0029 8.2721 0.0019
# 3 34.6496 36.4580 84.5709 -0.0001 0.0171 0.0002
# 4 -0.0008 -0.0029 -0.0001 22.5061 0.0007 -2.3600
# 5 -5.6294 8.2721 0.0171 0.0007 25.6295 -0.0006
# 6 0.0004 0.0019 0.0002 -2.3600 -0.0006 21.8014
#
#
#
# Elastic Compliance Matrix: (Units=1/GPa)
#
#
# Indices 1 2 3 4 5 6 
#
# 1 0.016516 -0.005969 -0.004195 0.000000 0.005557 0.000000
# 2 -0.005969 0.017791 -0.005223 0.000002 -0.007050 -0.000001
# 3 -0.004195 -0.005223 0.015795 -0.000001 0.000754 0.000000
# 4 0.000000 0.000002 -0.000001 0.044943 -0.000002 0.004865
# 5 0.005557 -0.007050 0.000754 -0.000002 0.042513 0.000001
# 6 0.000000 -0.000001 0.000000 0.004865 0.000001 0.046395
#
#
# Mechanical properties :
#
#
# Convention : Reuss Voigt Hill
#
# Bulk Modulus (GPa) = 51.73527 51.77019 51.75273
# Shear Modulus (GPa) = 22.60713 23.58125 23.09419
#
# Velocity S-wave (km/s) = 3.63368 3.71114 3.67262
# Velocity P-wave (km/s) = 6.91525 6.97135 6.94336
#
# Compressibility (1/GPa) = 0.01932917
#
# Stress axis : x y z
#
# Youngs Moduli (GPa) = 60.54664 56.20697 63.31290
#
# Poissons Ratio (x) = 0.33547 0.26560
# Poissons Ratio (y) = 0.36138 0.33068
# Poissons Ratio (z) = 0.25399 0.29357
#
# Static dielectric constant tensor:
#      x y z
#    x 1.587760 0.000000 0.002750 
#    y 0.000000 1.578270 0.000000 
#    z 0.002750 0.000000 1.591740 
# 
# From -- ./inp_files/368867.got.cif
#   From: 2010.05.17/outbox.cif.g08.bks.cpg/sg12_185_cif.got.tgz:368867.got - 2010.06.03 13:09:07.
