data_PCOD9184324
_publ_section_title
;
Structure prediction by ZEFSAII (Michael W. Deem and Ramdas Pophale) SiO2 
 PCOD9184324
Probable space group: C 2/M
;
_chemical_formula_sum "Si O2"
_cell_formula_units_Z 56
_cell_length_a 27.880246
_cell_length_b 8.314277
_cell_length_c 13.051010
_cell_angle_alpha 90.000000
_cell_angle_beta 112.211109
_cell_angle_gamma 90.000000
_cell_volume 2800.793740
_symmetry_space_group_name_H-M "C 2/M"
_symmetry_group_IT_number 12
_symmetry_cell_setting 'monoclinic'
loop_
_space_group_symop_operation_xyz
x,y,z
-x,y,-z
-x,-y,-z
x,-y,z
1/2+x,1/2+y,z
1/2-x,1/2+y,-z
1/2-x,1/2-y,-z
1/2+x,1/2-y,z
loop_
_atom_site_type_symbol
_atom_site_label
_atom_site_fract_x
_atom_site_fract_y
_atom_site_fract_z
Si Si1 0.611985 0.802924 0.732141
Si Si2 0.504936 0.195673 0.315474
Si Si3 0.196008 0.807580 0.410133
Si Si4 0.957138 0.693632 0.880132
Si Si5 0.156719 0.190015 0.161803
Si Si6 0.691857 0.809175 0.969660
Si Si7 0.110150 0.694407 0.500912
O O1 0.553017 0.749607 0.706483
O O2 0.651916 0.745774 0.850977
O O3 0.626273 0.754403 0.628006
O O4 0.611773 0.000000 0.734316
O O5 0.522055 0.240997 0.214703
O O6 0.551278 0.246687 0.428189
O O7 0.503449 0.000000 0.318245
O O8 0.250000 0.750000 0.500000
O O9 0.187220 0.747982 0.286774
O O10 0.149051 0.752537 0.444886
O O11 0.195701 0.000000 0.406534
O O12 0.948787 0.500000 0.872646
O O13 0.903355 0.776485 0.863629
O O14 0.000000 0.729481 0.000000
O O15 0.165945 0.000000 0.160389
O O16 0.172843 0.266975 0.067890
O O17 0.692006 0.000000 0.958957
O O18 0.750000 0.750000 0.000000
O O19 0.110592 0.500000 0.498958
#
# Coordination Sequence:
#
# PCOD9184324 Si02
#       7
#     8   8   8   8   8   8   8
#     4   9  19  35  58  89 121 155 195 245 294 349
#     4   9  16  30  55  89 121 151 192 237 292 355
#     4  11  25  42  62  88 120 156 202 253 305 362
#     4  10  19  33  58  90 123 159 202 248 295 355
#     4  11  24  42  62  87 121 158 202 252 304 362
#     4  11  24  42  63  87 121 159 204 253 301 358
#     4  10  19  35  62  92 121 153 194 242 300 362
#
# _framework density 19.994333000000001
#
# number of rings (size 3 to 8) (size 9 to 14) (size 15 to 20)
#    0.000    1.857    1.429    2.571    2.000    6.000 
#    0.000    0.714    0.000    3.429    0.000    0.000 
#    0.000    0.000    0.000    0.000    0.000    0.000 
#
# Total GULP energy -156435.744461 kJ/mol
# GULP energy per Si atom -5586.990874 kJ/mol
# Density = 1.994883 g / cm^3
# Si number density = 19.994333 Si / 1000 Ang^3
#
#
#
# Elastic Constant Matrix: (Units=GPa)
#
#
# Indices 1 2 3 4 5 6 
#
# 1 67.8767 9.9720 60.1396 0.0000 10.5999 0.0000
# 2 9.9720 14.3869 22.6965 0.0000 2.4299 0.0000
# 3 60.1396 22.6965 188.4658 0.0000 5.7122 0.0000
# 4 0.0000 0.0000 0.0000 18.0494 0.0000 -0.2801
# 5 10.5999 2.4299 5.7122 0.0000 36.7196 0.0000
# 6 0.0000 0.0000 0.0000 -0.2801 0.0000 29.0818
#
#
#
# Elastic Compliance Matrix: (Units=1/GPa)
#
#
# Indices 1 2 3 4 5 6 
#
# 1 0.021684 -0.004331 -0.006246 0.000000 -0.005001 0.000000
# 2 -0.004331 0.087291 -0.009036 0.000000 -0.003120 0.000000
# 3 -0.006246 -0.009036 0.008354 0.000000 0.001101 0.000000
# 4 0.000000 0.000000 0.000000 0.055412 0.000000 0.000534
# 5 -0.005001 -0.003120 0.001101 0.000000 0.028712 0.000000
# 6 0.000000 0.000000 0.000000 0.000534 0.000000 0.034391
#
#
# Mechanical properties :
#
#
# Convention : Reuss Voigt Hill
#
# Bulk Modulus (GPa) = 12.80364 50.70507 31.75436
# Shear Modulus (GPa) = 16.60552 28.63156 22.61854
#
# Velocity S-wave (km/s) = 2.88499 3.78826 3.36705
# Velocity P-wave (km/s) = 4.18510 6.67453 5.57066
#
# Compressibility (1/GPa) = 0.07810278
#
# Stress axis : x y z
#
# Youngs Moduli (GPa) = 46.11654 11.45594 119.70417
#
# Poissons Ratio (x) = 0.04962 0.74770
# Poissons Ratio (y) = 0.19975 1.08159
# Poissons Ratio (z) = 0.28806 0.10351
#
# Static dielectric constant tensor:
#      x y z
#    x 1.659280 0.000000 0.010030 
#    y 0.000000 1.695950 0.000000 
#    z 0.010030 0.000000 1.717350 
# 
# From -- ./inp_files/181091.got.cif
#   From: 2010.05.17/outbox.cif.g08.bks.cpg/sg12_91_cif.got.tgz:181091.got - 2010.06.03 13:09:07.
