data_PCOD9184771
_publ_section_title
;
Structure prediction by ZEFSAII (Michael W. Deem and Ramdas Pophale) SiO2 
 PCOD9184771
Probable space group: C 2/M
;
_chemical_formula_sum "Si O2"
_cell_formula_units_Z 56
_cell_length_a 27.975792
_cell_length_b 9.689018
_cell_length_c 9.763488
_cell_angle_alpha 90.000000
_cell_angle_beta 103.886588
_cell_angle_gamma 90.000000
_cell_volume 2569.121830
_symmetry_space_group_name_H-M "C 2/M"
_symmetry_group_IT_number 12
_symmetry_cell_setting 'monoclinic'
loop_
_space_group_symop_operation_xyz
x,y,z
-x,y,-z
-x,-y,-z
x,-y,z
1/2+x,1/2+y,z
1/2-x,1/2+y,-z
1/2-x,1/2-y,-z
1/2+x,1/2-y,z
loop_
_atom_site_type_symbol
_atom_site_label
_atom_site_fract_x
_atom_site_fract_y
_atom_site_fract_z
Si Si1 0.143963 0.154052 0.604213
Si Si2 0.708366 0.660597 0.895504
Si Si3 0.856028 0.345681 0.787210
Si Si4 0.287496 0.655104 0.606743
Si Si5 0.014857 0.336063 0.848779
Si Si6 0.101794 0.841153 0.965378
Si Si7 0.573942 0.151947 0.420826
O O1 0.187580 0.210148 0.732795
O O2 0.168361 0.137395 0.471902
O O3 0.095516 0.245140 0.548786
O O4 0.131673 0.000000 0.648471
O O5 0.724704 0.500000 0.894645
O O6 0.750000 0.750000 0.000000
O O7 0.656616 0.662517 0.941690
O O8 0.846961 0.500000 0.835467
O O9 0.808033 0.250427 0.741810
O O10 0.893759 0.257134 0.900560
O O11 0.881137 0.362137 0.656838
O O12 0.270884 0.500000 0.633611
O O13 0.250000 0.750000 0.500000
O O14 0.026936 0.500000 0.847668
O O15 0.971958 0.308548 0.707675
O O16 0.060194 0.234775 0.849289
O O17 0.000000 0.313636 0.000000
O O18 0.089257 0.000000 0.986980
O O19 0.563824 0.000000 0.472949
#
# Coordination Sequence:
#
# PCOD9184771 Si02
#       7
#     8   8   8   8   8   8   8
#     4   9  20  39  58  78 110 150 192 235 288 347
#     4  10  24  44  62  83 113 154 201 247 291 344
#     4  10  19  34  54  79 114 153 186 230 289 346
#     4  10  20  33  52  81 111 142 186 240 293 352
#     4  10  19  36  59  87 122 158 192 233 289 353
#     4  11  23  37  56  87 120 150 196 247 289 346
#     4   9  18  34  58  86 115 148 187 231 282 341
#
# _framework density 21.797329999999999
#
# number of rings (size 3 to 8) (size 9 to 14) (size 15 to 20)
#    0.000    2.143    1.429    1.286    2.000    3.714 
#    0.000    0.714    0.000    4.286    0.000    0.000 
#    0.000    0.000    0.000    0.000    0.000    0.000 
#
# Total GULP energy -156038.653688 kJ/mol
# GULP energy per Si atom -5572.809060 kJ/mol
# Density = 2.174772 g / cm^3
# Si number density = 21.797330 Si / 1000 Ang^3
#
#
#
# Elastic Constant Matrix: (Units=GPa)
#
#
# Indices 1 2 3 4 5 6 
#
# 1 44.2143 52.3660 32.6910 0.0000 29.1155 0.0000
# 2 52.3660 172.0796 87.1180 0.0000 48.8344 0.0000
# 3 32.6910 87.1180 121.9511 0.0000 44.6117 0.0000
# 4 0.0000 0.0000 0.0000 30.8447 0.0000 12.9513
# 5 29.1155 48.8344 44.6117 0.0000 51.9532 0.0000
# 6 0.0000 0.0000 0.0000 12.9513 0.0000 18.4392
#
#
#
# Elastic Compliance Matrix: (Units=1/GPa)
#
#
# Indices 1 2 3 4 5 6 
#
# 1 0.043628 -0.008936 0.000816 0.000000 -0.016751 0.000000
# 2 -0.008936 0.011657 -0.005475 0.000000 -0.001247 0.000000
# 3 0.000816 -0.005475 0.014838 0.000000 -0.008052 0.000000
# 4 0.000000 0.000000 0.000000 0.045981 0.000000 -0.032296
# 5 -0.016751 -0.001247 -0.008052 0.000000 0.036723 0.000000
# 6 0.000000 0.000000 0.000000 -0.032296 0.000000 0.076916
#
#
# Mechanical properties :
#
#
# Convention : Reuss Voigt Hill
#
# Bulk Modulus (GPa) = 23.29228 75.84388 49.56808
# Shear Modulus (GPa) = 18.43360 31.31877 24.87618
#
# Velocity S-wave (km/s) = 2.91121 3.79465 3.38190
# Velocity P-wave (km/s) = 4.69140 7.35321 6.16762
#
# Compressibility (1/GPa) = 0.04293267
#
# Stress axis : x y z
#
# Youngs Moduli (GPa) = 22.92113 85.78882 67.39327
#
# Poissons Ratio (x) = 0.76660 -0.05501
# Poissons Ratio (y) = 0.20482 0.36900
# Poissons Ratio (z) = -0.01871 0.46973
#
# Static dielectric constant tensor:
#      x y z
#    x 1.874530 0.000000 0.025380 
#    y 0.000000 1.842550 0.000000 
#    z 0.025380 0.000000 1.983230 
# 
# From -- ./inp_files/187742.got.cif
#   From: 2010.05.17/outbox.cif.g08.bks.cpg/sg12_94_cif.got.tgz:187742.got - 2010.06.03 13:09:07.
