data_PCOD9184259
_publ_section_title
;
Structure prediction by ZEFSAII (Michael W. Deem and Ramdas Pophale) SiO2 
 PCOD9184259
Probable space group: C 2/M
;
_chemical_formula_sum "Si O2"
_cell_formula_units_Z 56
_cell_length_a 16.910860
_cell_length_b 7.652405
_cell_length_c 28.699379
_cell_angle_alpha 90.000000
_cell_angle_beta 44.290859
_cell_angle_gamma 90.000000
_cell_volume 2593.455875
_symmetry_space_group_name_H-M "C 2/M"
_symmetry_group_IT_number 12
_symmetry_cell_setting 'monoclinic'
loop_
_space_group_symop_operation_xyz
x,y,z
-x,y,-z
-x,-y,-z
x,-y,z
1/2+x,1/2+y,z
1/2-x,1/2+y,-z
1/2-x,1/2-y,-z
1/2+x,1/2-y,z
loop_
_atom_site_type_symbol
_atom_site_label
_atom_site_fract_x
_atom_site_fract_y
_atom_site_fract_z
Si Si1 0.003802 0.706630 0.136728
Si Si2 0.669237 0.203509 0.145665
Si Si3 0.405173 0.212699 0.001359
Si Si4 0.082728 0.213251 0.505021
Si Si5 0.813679 0.707057 0.423368
Si Si6 0.541338 0.300118 0.350694
Si Si7 0.757861 0.801292 0.206815
O O1 0.027605 0.500000 0.127912
O O2 0.868953 0.725346 0.185069
O O3 0.065647 0.776449 0.157580
O O4 0.059177 0.773387 0.065196
O O5 0.710530 0.281412 0.178263
O O6 0.641046 0.000000 0.167790
O O7 0.782459 0.216982 0.066924
O O8 0.400651 0.000000 0.003663
O O9 0.500000 0.262897 0.000000
O O10 0.208411 0.265817 0.436847
O O11 0.000000 0.262632 0.500000
O O12 0.022592 0.277725 0.577403
O O13 0.087686 0.000000 0.508057
O O14 0.831686 0.500000 0.413092
O O15 0.750000 0.750000 0.500000
O O16 0.932121 0.796231 0.362970
O O17 0.574588 0.500000 0.345872
O O18 0.650132 0.204680 0.286152
O O19 0.790192 0.000000 0.182006
#
# Coordination Sequence:
#
# PCOD9184259 Si02
#       7
#     8   8   8   8   8   8   8
#     4  10  21  39  59  82 113 148 189 233 283 340
#     4  10  22  38  58  83 111 148 192 234 279 339
#     4  10  19  33  58  87 113 144 183 235 291 335
#     4   8  15  30  53  81 106 132 172 218 264 317
#     4   9  16  29  52  77 103 134 173 218 263 316
#     4  10  20  35  56  78 106 145 182 221 276 333
#     4  11  23  39  57  80 113 151 192 234 279 333
#
# _framework density 21.592811999999999
#
# number of rings (size 3 to 8) (size 9 to 14) (size 15 to 20)
#    0.000    2.286    1.429    2.571    0.000    2.000 
#    2.571    0.000    0.000   14.571    0.000    0.000 
#    0.000    0.000    0.000    0.000    0.000    0.000 
#
# Total GULP energy -155887.054262 kJ/mol
# GULP energy per Si atom -5567.394795 kJ/mol
# Density = 2.154367 g / cm^3
# Si number density = 21.592812 Si / 1000 Ang^3
#
#
#
# Elastic Constant Matrix: (Units=GPa)
#
#
# Indices 1 2 3 4 5 6 
#
# 1 146.6607 0.8695 31.5879 -0.0003 -21.6897 -0.0006
# 2 0.8695 43.2160 -9.2315 -0.0033 5.7356 -0.0032
# 3 31.5879 -9.2315 79.0539 0.0005 -23.4334 0.0011
# 4 -0.0003 -0.0033 0.0005 21.6918 -0.0002 -9.5664
# 5 -21.6897 5.7356 -23.4334 -0.0002 22.1478 -0.0002
# 6 -0.0006 -0.0032 0.0011 -9.5664 -0.0002 10.9682
#
#
#
# Elastic Compliance Matrix: (Units=1/GPa)
#
#
# Indices 1 2 3 4 5 6 
#
# 1 0.008139 -0.001369 -0.001376 0.000000 0.006870 0.000000
# 2 -0.001369 0.024300 0.001635 0.000011 -0.005905 0.000016
# 3 -0.001376 0.001635 0.018744 -0.000001 0.018062 -0.000002
# 4 0.000000 0.000011 -0.000001 0.074917 -0.000002 0.065342
# 5 0.006870 -0.005905 0.018062 -0.000002 0.072518 -0.000004
# 6 0.000000 0.000016 -0.000002 0.065342 -0.000004 0.148163
#
#
# Mechanical properties :
#
#
# Convention : Reuss Voigt Hill
#
# Bulk Modulus (GPa) = 20.42409 35.04248 27.73329
# Shear Modulus (GPa) = 13.68652 27.34187 20.51420
#
# Velocity S-wave (km/s) = 2.52036 3.56230 3.08563
# Velocity P-wave (km/s) = 4.23661 5.76055 5.05633
#
# Compressibility (1/GPa) = 0.04896179
#
# Stress axis : x y z
#
# Youngs Moduli (GPa) = 122.86806 41.15234 53.35039
#
# Poissons Ratio (x) = 0.05635 0.07339
# Poissons Ratio (y) = 0.16825 -0.08720
# Poissons Ratio (z) = 0.16903 -0.06726
#
# Static dielectric constant tensor:
#      x y z
#    x 2.020620 0.000000 0.029860 
#    y 0.000000 1.880480 0.000000 
#    z 0.029860 0.000000 1.739350 
# 
# From -- ./inp_files/377668.got.cif
#   From: 2010.05.17/outbox.cif.g08.bks.cpg/sg12_189_cif.got.tgz:377668.got - 2010.06.03 13:09:07.
