data_PCOD9184418
_publ_section_title
;
Structure prediction by ZEFSAII (Michael W. Deem and Ramdas Pophale) SiO2 
 PCOD9184418
Probable space group: C 2/M
;
_chemical_formula_sum "Si O2"
_cell_formula_units_Z 48
_cell_length_a 11.645193
_cell_length_b 14.981783
_cell_length_c 12.497801
_cell_angle_alpha 90.000000
_cell_angle_beta 66.974281
_cell_angle_gamma 90.000000
_cell_volume 2006.721387
_symmetry_space_group_name_H-M "C 2/M"
_symmetry_group_IT_number 12
_symmetry_cell_setting 'monoclinic'
loop_
_space_group_symop_operation_xyz
x,y,z
-x,y,-z
-x,-y,-z
x,-y,z
1/2+x,1/2+y,z
1/2-x,1/2+y,-z
1/2-x,1/2-y,-z
1/2+x,1/2-y,z
loop_
_atom_site_type_symbol
_atom_site_label
_atom_site_fract_x
_atom_site_fract_y
_atom_site_fract_z
Si Si1 0.480307 0.098448 0.119064
Si Si2 0.242936 0.391632 0.655516
Si Si3 0.135612 0.822926 0.185083
Si Si4 0.625026 0.602284 0.768703
Si Si5 0.355776 0.891526 0.538286
Si Si6 0.252997 0.867046 0.930794
O O1 0.382335 0.135900 0.235979
O O2 0.612566 0.088602 0.125333
O O3 0.429229 0.000000 0.110465
O O4 0.500000 0.149295 0.000000
O O5 0.258698 0.500000 0.648190
O O6 0.343838 0.350019 0.699124
O O7 0.215420 0.363062 0.544514
O O8 0.204068 0.731797 0.124634
O O9 0.989059 0.833277 0.217027
O O10 0.202809 0.883249 0.069244
O O11 0.596811 0.500000 0.743001
O O12 0.757798 0.629555 0.667765
O O13 0.650220 0.602260 0.885415
O O14 0.500000 0.859454 0.500000
O O15 0.365217 0.000000 0.529967
#
# Coordination Sequence:
#
# PCOD9184418 Si02
#       6
#     8   8   8   8   8   8
#     4  10  19  33  61  91 115 153 210 263 308 371
#     4  10  20  37  64  94 125 160 209 267 316 378
#     4  11  25  39  60  91 130 172 207 257 325 384
#     4  11  24  42  67  95 126 171 223 268 316 384
#     4   9  19  39  67  97 126 163 213 270 328 380
#     4  11  24  40  61  87 133 172 207 257 322 385
#
# _framework density 23.919615
#
# number of rings (size 3 to 8) (size 9 to 14) (size 15 to 20)
#    0.000    1.667    1.667    2.500    2.333    6.000 
#    0.000    3.333    3.667    0.000    0.000    0.000 
#    0.000    0.000    0.000    0.000    0.000    0.000 
#
# Total GULP energy -133876.325900 kJ/mol
# GULP energy per Si atom -5578.180246 kJ/mol
# Density = 2.386517 g / cm^3
# Si number density = 23.919615 Si / 1000 Ang^3
#
#
#
# Elastic Constant Matrix: (Units=GPa)
#
#
# Indices 1 2 3 4 5 6 
#
# 1 131.2648 19.4173 17.2428 0.0000 14.0953 0.0000
# 2 19.4173 59.0768 14.2088 0.0000 6.7862 0.0000
# 3 17.2428 14.2088 58.7849 0.0000 17.1047 0.0000
# 4 0.0000 0.0000 0.0000 30.2681 0.0000 -6.8160
# 5 14.0953 6.7862 17.1047 0.0000 45.3613 0.0000
# 6 0.0000 0.0000 0.0000 -6.8160 0.0000 34.2913
#
#
#
# Elastic Compliance Matrix: (Units=1/GPa)
#
#
# Indices 1 2 3 4 5 6 
#
# 1 0.008313 -0.002196 -0.001406 0.000000 -0.001724 0.000000
# 2 -0.002196 0.018608 -0.003642 0.000000 -0.000728 0.000000
# 3 -0.001406 -0.003642 0.020239 0.000000 -0.006650 0.000000
# 4 0.000000 0.000000 0.000000 0.034586 0.000000 0.006875
# 5 -0.001724 -0.000728 -0.006650 0.000000 0.025198 0.000000
# 6 0.000000 0.000000 0.000000 0.006875 0.000000 0.030528
#
#
# Mechanical properties :
#
#
# Convention : Reuss Voigt Hill
#
# Bulk Modulus (GPa) = 30.60646 38.98493 34.79570
# Shear Modulus (GPa) = 30.70305 35.20131 32.95218
#
# Velocity S-wave (km/s) = 3.58661 3.84037 3.71566
# Velocity P-wave (km/s) = 5.47495 5.99986 5.74340
#
# Compressibility (1/GPa) = 0.03267284
#
# Stress axis : x y z
#
# Youngs Moduli (GPa) = 120.29528 53.73893 49.41036
#
# Poissons Ratio (x) = 0.11802 0.06946
# Poissons Ratio (y) = 0.26418 0.17994
# Poissons Ratio (z) = 0.16911 0.19570
#
# Static dielectric constant tensor:
#      x y z
#    x 1.929650 0.000000 0.077610 
#    y 0.000000 2.027090 0.000000 
#    z 0.077610 0.000000 1.986210 
# 
# From -- ./inp_files/131637.got.cif
#   From: 2010.05.17/outbox.cif.g08.bks.cpg/sg12_66_cif.got.tgz:131637.got - 2010.06.03 13:09:07.
