data_PCOD9184909
_publ_section_title
;
Structure prediction by ZEFSAII (Michael W. Deem and Ramdas Pophale) SiO2 
 PCOD9184909
Probable space group: C 2/M
;
_chemical_formula_sum "Si O2"
_cell_formula_units_Z 56
_cell_length_a 12.638809
_cell_length_b 13.654057
_cell_length_c 29.463046
_cell_angle_alpha 90.000000
_cell_angle_beta 35.398212
_cell_angle_gamma 90.000000
_cell_volume 2945.207164
_symmetry_space_group_name_H-M "C 2/M"
_symmetry_group_IT_number 12
_symmetry_cell_setting 'monoclinic'
loop_
_space_group_symop_operation_xyz
x,y,z
-x,y,-z
-x,-y,-z
x,-y,z
1/2+x,1/2+y,z
1/2-x,1/2+y,-z
1/2-x,1/2-y,-z
1/2+x,1/2-y,z
loop_
_atom_site_type_symbol
_atom_site_label
_atom_site_fract_x
_atom_site_fract_y
_atom_site_fract_z
Si Si1 0.744230 0.386029 0.689301
Si Si2 0.974101 0.791665 0.316038
Si Si3 0.045447 0.215455 0.578188
Si Si4 0.426599 0.387270 0.073616
Si Si5 0.881052 0.781902 0.178226
Si Si6 0.756530 0.888496 0.627870
Si Si7 0.490751 0.107307 0.807695
O O1 0.793213 0.500000 0.669459
O O2 0.609308 0.355596 0.695305
O O3 0.654534 0.361077 0.769422
O O4 0.913989 0.311099 0.625752
O O5 0.969703 0.837641 0.367656
O O6 0.849526 0.693362 0.363646
O O7 0.181405 0.759895 0.234502
O O8 0.250000 0.250000 0.500000
O O9 0.959715 0.146866 0.569285
O O10 0.490425 0.500000 0.055494
O O11 0.474209 0.327110 0.101606
O O12 0.206715 0.388963 0.146625
O O13 0.500000 0.348337 0.000000
O O14 0.988085 0.693579 0.164183
O O15 0.644252 0.883377 0.715049
O O16 0.747042 0.000000 0.614584
O O17 0.510551 0.000000 0.822203
#
# Coordination Sequence:
#
# PCOD9184909 Si02
#       7
#     8   8   8   8   8   8   8
#     4  10  21  34  52  80 105 136 178 222 268 319
#     4  10  19  35  53  77 103 137 173 224 264 317
#     4  10  22  38  53  75 108 142 176 221 271 321
#     4  10  21  35  55  83 113 145 178 219 271 319
#     4  11  18  35  57  80 108 142 178 222 266 313
#     4  10  19  34  55  79 101 136 181 220 262 317
#     4  10  19  34  55  81 107 136 182 221 259 321
#
# _framework density 19.013942
#
# number of rings (size 3 to 8) (size 9 to 14) (size 15 to 20)
#    0.000    1.857    5.714    0.429    0.000    6.857 
#    0.000    1.429    0.000    0.429    0.000    0.000 
#    0.000    0.000    0.000    0.000    0.000    0.000 
#
# Total GULP energy -156259.154918 kJ/mol
# GULP energy per Si atom -5580.684104 kJ/mol
# Density = 1.897067 g / cm^3
# Si number density = 19.013942 Si / 1000 Ang^3
#
#
#
# Elastic Constant Matrix: (Units=GPa)
#
#
# Indices 1 2 3 4 5 6 
#
# 1 61.0088 11.5472 -3.0643 -0.0001 12.9947 -0.0001
# 2 11.5472 70.7867 -4.5358 0.0000 5.9912 0.0001
# 3 -3.0643 -4.5358 34.0283 0.0002 17.6035 0.0004
# 4 -0.0001 0.0000 0.0002 13.3061 0.0002 1.0320
# 5 12.9947 5.9912 17.6035 0.0002 23.8468 0.0001
# 6 -0.0001 0.0001 0.0004 1.0320 0.0001 13.8015
#
#
#
# Elastic Compliance Matrix: (Units=1/GPa)
#
#
# Indices 1 2 3 4 5 6 
#
# 1 0.021653 -0.000956 0.012622 0.000000 -0.020876 0.000000
# 2 -0.000956 0.015317 0.005948 0.000000 -0.007718 0.000000
# 3 0.012622 0.005948 0.057672 0.000000 -0.050945 -0.000001
# 4 0.000000 0.000000 0.000000 0.075592 -0.000001 -0.005652
# 5 -0.020876 -0.007718 -0.050945 -0.000001 0.092857 0.000000
# 6 0.000000 0.000000 -0.000001 -0.005652 0.000000 0.072879
#
#
# Mechanical properties :
#
#
# Convention : Reuss Voigt Hill
#
# Bulk Modulus (GPa) = 7.70002 19.30200 13.50101
# Shear Modulus (GPa) = 14.53356 20.98266 17.75811
#
# Velocity S-wave (km/s) = 2.76771 3.32556 3.05938
# Velocity P-wave (km/s) = 3.77784 4.99193 4.42671
#
# Compressibility (1/GPa) = 0.12986985
#
# Stress axis : x y z
#
# Youngs Moduli (GPa) = 46.18364 65.28540 17.33950
#
# Poissons Ratio (x) = 0.06244 -0.21886
# Poissons Ratio (y) = 0.04417 -0.10314
# Poissons Ratio (z) = -0.58294 -0.38834
#
# Static dielectric constant tensor:
#      x y z
#    x 1.660330 0.000000 0.009960 
#    y 0.000000 1.663670 0.000000 
#    z 0.009960 0.000000 1.679890 
# 
# From -- ./inp_files/358173.got.cif
#   From: 2010.05.17/outbox.cif.g08.bks.cpg/sg12_180_cif.got.tgz:358173.got - 2010.06.03 13:09:07.
