data_PCOD9184947
_publ_section_title
;
Structure prediction by ZEFSAII (Michael W. Deem and Ramdas Pophale) SiO2 
 PCOD9184947
Probable space group: C 2/M
;
_chemical_formula_sum "Si O2"
_cell_formula_units_Z 48
_cell_length_a 16.528487
_cell_length_b 29.912793
_cell_length_c 9.808243
_cell_angle_alpha 90.000000
_cell_angle_beta 35.247708
_cell_angle_gamma 90.000000
_cell_volume 2798.606125
_symmetry_space_group_name_H-M "C 2/M"
_symmetry_group_IT_number 12
_symmetry_cell_setting 'monoclinic'
loop_
_space_group_symop_operation_xyz
x,y,z
-x,y,-z
-x,-y,-z
x,-y,z
1/2+x,1/2+y,z
1/2-x,1/2+y,-z
1/2-x,1/2-y,-z
1/2+x,1/2-y,z
loop_
_atom_site_type_symbol
_atom_site_label
_atom_site_fract_x
_atom_site_fract_y
_atom_site_fract_z
Si Si1 0.157999 0.879141 0.267719
Si Si2 0.350188 0.879571 0.269342
Si Si3 0.160758 0.224596 0.240017
Si Si4 0.155852 0.275606 0.739992
Si Si5 0.637830 0.050839 0.508719
Si Si6 0.189593 0.449594 0.125819
O O1 0.236512 0.881624 0.305051
O O2 0.153918 0.828334 0.217666
O O3 0.000000 0.894446 0.500000
O O4 0.233894 0.911187 0.059174
O O5 0.362346 0.826806 0.287152
O O6 0.322822 0.911788 0.435017
O O7 0.500000 0.893487 0.000000
O O8 0.252462 0.226553 0.249999
O O9 0.000000 0.239423 0.500000
O O10 0.250000 0.250000 0.000000
O O11 0.250000 0.250000 0.500000
O O12 0.000000 0.259356 0.000000
O O13 0.472348 0.052791 0.699833
O O14 0.704572 0.056929 0.267491
O O15 0.667837 0.000000 0.515777
O O16 0.238336 0.500000 0.026627
#
# Coordination Sequence:
#
# PCOD9184947 Si02
#       6
#     8   8   8   8   8   8
#     4  10  21  36  53  78 112 143 174 221 271 321
#     4  10  19  34  55  80 105 138 183 221 262 317
#     4  10  21  38  56  79 109 143 185 225 269 325
#     4  10  21  36  55  79 110 140 178 227 271 320
#     4   9  18  33  55  82 108 135 179 229 265 310
#     4   9  18  34  54  80 110 139 175 222 271 318
#
# _framework density 17.151395999999998
#
# number of rings (size 3 to 8) (size 9 to 14) (size 15 to 20)
#    0.000    2.333    1.667    2.000    0.000    2.667 
#    3.000    0.833    0.000    2.000    0.000    0.000 
#    0.000    0.000    0.000    0.000    0.000    0.000 
#
# Total GULP energy -133661.046612 kJ/mol
# GULP energy per Si atom -5569.210276 kJ/mol
# Density = 1.711236 g / cm^3
# Si number density = 17.151396 Si / 1000 Ang^3
#
#
#
# Elastic Constant Matrix: (Units=GPa)
#
#
# Indices 1 2 3 4 5 6 
#
# 1 51.7647 24.3955 25.1897 0.0000 -2.1976 0.0000
# 2 24.3955 75.2570 53.8585 0.0000 24.0031 0.0000
# 3 25.1897 53.8585 97.0756 0.0000 3.2697 0.0000
# 4 0.0000 0.0000 0.0000 14.2431 0.0000 -26.4481
# 5 -2.1976 24.0031 3.2697 0.0000 31.6657 0.0000
# 6 0.0000 0.0000 0.0000 -26.4481 0.0000 -25.2485
#
#
#
# Elastic Compliance Matrix: (Units=1/GPa)
#
#
# Indices 1 2 3 4 5 6 
#
# 1 0.025231 -0.010645 -0.000975 0.000000 0.009921 0.000000
# 2 -0.010645 0.038079 -0.017428 0.000000 -0.027804 0.000000
# 3 -0.000975 -0.017428 0.019850 0.000000 0.011093 0.000000
# 4 0.000000 0.000000 0.000000 0.023839 0.000000 -0.024972
# 5 0.009921 -0.027804 0.011093 0.000000 0.052199 0.000000
# 6 0.000000 0.000000 0.000000 -0.024972 0.000000 -0.013448
#
#
# Mechanical properties :
#
#
# Convention : Reuss Voigt Hill
#
# Bulk Modulus (GPa) = 39.89931 47.88719 43.89325
# Shear Modulus (GPa) = 23.56261 12.17561 17.86911
#
# Velocity S-wave (km/s) = 3.71050 2.66727 3.23127
# Velocity P-wave (km/s) = 6.45528 6.12100 6.29036
#
# Compressibility (1/GPa) = 0.02506309
#
# Stress axis : x y z
#
# Youngs Moduli (GPa) = 39.63415 26.26111 50.37839
#
# Poissons Ratio (x) = 0.27956 0.04912
# Poissons Ratio (y) = 0.42192 0.87799
# Poissons Ratio (z) = 0.03864 0.45768
#
# Static dielectric constant tensor:
#      x y z
#    x 1.565310 0.000000 -0.014240 
#    y 0.000000 1.591980 0.000000 
#    z -0.014240 0.000000 1.492640 
# 
# From -- ./inp_files/67296.got.cif
#   From: 2010.05.17/outbox.cif.g08.bks.cpg/sg12_34_cif.got.tgz:67296.got - 2010.06.03 13:09:07.
