data_PCOD9184251
_publ_section_title
;
Structure prediction by ZEFSAII (Michael W. Deem and Ramdas Pophale) SiO2 
 PCOD9184251
Probable space group: C 2/M
;
_chemical_formula_sum "Si O2"
_cell_formula_units_Z 64
_cell_length_a 29.758308
_cell_length_b 9.072600
_cell_length_c 13.011211
_cell_angle_alpha 90.000000
_cell_angle_beta 78.855191
_cell_angle_gamma 90.000000
_cell_volume 3446.588989
_symmetry_space_group_name_H-M "C 2/M"
_symmetry_group_IT_number 12
_symmetry_cell_setting 'monoclinic'
loop_
_space_group_symop_operation_xyz
x,y,z
-x,y,-z
-x,-y,-z
x,-y,z
1/2+x,1/2+y,z
1/2-x,1/2+y,-z
1/2-x,1/2-y,-z
1/2+x,1/2-y,z
loop_
_atom_site_type_symbol
_atom_site_label
_atom_site_fract_x
_atom_site_fract_y
_atom_site_fract_z
Si Si1 0.706578 0.174360 0.967956
Si Si2 0.201362 0.825765 0.538053
Si Si3 0.929111 0.171189 0.104331
Si Si4 0.888597 0.678310 0.496410
Si Si5 0.561575 0.821170 0.316765
Si Si6 0.538165 0.177664 0.709598
Si Si7 0.677448 0.667913 0.786287
Si Si8 0.895808 0.677948 0.919070
O O1 0.657366 0.219470 0.038355
O O2 0.710525 0.000000 0.976733
O O3 0.750000 0.250000 0.000000
O O4 0.702809 0.221550 0.850983
O O5 0.250000 0.750000 0.500000
O O6 0.161020 0.750489 0.491039
O O7 0.187986 0.805856 0.663338
O O8 0.203741 0.000000 0.515680
O O9 0.958198 0.250327 0.179904
O O10 0.876709 0.179697 0.168967
O O11 0.941777 0.000000 0.088102
O O12 0.926581 0.250335 0.995101
O O13 0.884438 0.500000 0.499766
O O14 0.914686 0.727080 0.588419
O O15 0.919482 0.717387 0.383367
O O16 0.508748 0.777849 0.326172
O O17 0.588057 0.777341 0.201372
O O18 0.562047 0.000000 0.319720
O O19 0.538214 0.000000 0.721260
O O20 0.691246 0.500000 0.806469
O O21 0.899163 0.500000 0.926442
#
# Coordination Sequence:
#
# PCOD9184251 Si02
#       8
#     8   8   8   8   8   8   8   8
#     4  10  20  33  54  81 107 141 186 231 279 338
#     4  11  23  39  58  84 114 147 188 232 286 339
#     4  10  19  34  56  80 109 144 183 230 282 330
#     4  10  20  36  59  85 114 149 191 236 282 335
#     4   9  19  36  57  82 114 151 189 233 283 338
#     4  10  19  33  58  86 111 146 193 235 277 337
#     4   9  19  36  55  74 104 143 181 226 276 329
#     4   9  19  36  55  77 108 146 188 230 279 336
#
# _framework density 18.569082999999999
#
# number of rings (size 3 to 8) (size 9 to 14) (size 15 to 20)
#    0.000    2.250    1.250    1.500    0.000    5.000 
#    0.000    6.875    0.000    1.500    0.000    0.000 
#    0.000    0.000    0.000    0.000    0.000    0.000 
#
# Total GULP energy -178604.132294 kJ/mol
# GULP energy per Si atom -5581.379134 kJ/mol
# Density = 1.852682 g / cm^3
# Si number density = 18.569083 Si / 1000 Ang^3
#
#
#
# Elastic Constant Matrix: (Units=GPa)
#
#
# Indices 1 2 3 4 5 6 
#
# 1 111.8238 37.6967 39.4366 0.0000 24.6345 0.0000
# 2 37.6967 33.4912 31.7858 0.0000 10.8505 0.0000
# 3 39.4366 31.7858 76.2190 0.0000 16.5697 0.0000
# 4 0.0000 0.0000 0.0000 22.7651 0.0000 6.2126
# 5 24.6345 10.8505 16.5697 0.0000 31.2222 0.0000
# 6 0.0000 0.0000 0.0000 6.2126 0.0000 24.1718
#
#
#
# Elastic Compliance Matrix: (Units=1/GPa)
#
#
# Indices 1 2 3 4 5 6 
#
# 1 0.015672 -0.015103 -0.000298 0.000000 -0.006959 0.000000
# 2 -0.015103 0.065385 -0.019335 0.000000 -0.000546 0.000000
# 3 -0.000298 -0.019335 0.022411 0.000000 -0.004940 0.000000
# 4 0.000000 0.000000 0.000000 0.047240 0.000000 -0.012142
# 5 -0.006959 -0.000546 -0.004940 0.000000 0.040330 0.000000
# 6 0.000000 0.000000 0.000000 -0.012142 0.000000 0.044491
#
#
# Mechanical properties :
#
#
# Convention : Reuss Voigt Hill
#
# Bulk Modulus (GPa) = 29.41389 48.81915 39.11652
# Shear Modulus (GPa) = 15.80621 23.13948 19.47284
#
# Velocity S-wave (km/s) = 2.92072 3.53389 3.24183
# Velocity P-wave (km/s) = 5.22003 6.55734 5.92653
#
# Compressibility (1/GPa) = 0.03399755
#
# Stress axis : x y z
#
# Youngs Moduli (GPa) = 63.80867 15.29412 44.62081
#
# Poissons Ratio (x) = 0.23098 0.01328
# Poissons Ratio (y) = 0.96369 0.86272
# Poissons Ratio (z) = 0.01899 0.29570
#
# Static dielectric constant tensor:
#      x y z
#    x 1.633380 0.000000 -0.010670 
#    y 0.000000 1.631160 0.000000 
#    z -0.010670 0.000000 1.627480 
# 
# From -- ./inp_files/187585.got.cif
#   From: 2010.05.17/outbox.cif.g08.bks.cpg/sg12_94_cif.got.tgz:187585.got - 2010.06.03 13:09:07.
