data_PCOD9184227
_publ_section_title
;
Structure prediction by ZEFSAII (Michael W. Deem and Ramdas Pophale) SiO2 
 PCOD9184227
Probable space group: C 2/M
;
_chemical_formula_sum "Si O2"
_cell_formula_units_Z 48
_cell_length_a 23.126486
_cell_length_b 16.984349
_cell_length_c 8.746995
_cell_angle_alpha 90.000000
_cell_angle_beta 128.267958
_cell_angle_gamma 90.000000
_cell_volume 2697.460227
_symmetry_space_group_name_H-M "C 2/M"
_symmetry_group_IT_number 12
_symmetry_cell_setting 'monoclinic'
loop_
_space_group_symop_operation_xyz
x,y,z
-x,y,-z
-x,-y,-z
x,-y,z
1/2+x,1/2+y,z
1/2-x,1/2+y,-z
1/2-x,1/2-y,-z
1/2+x,1/2-y,z
loop_
_atom_site_type_symbol
_atom_site_label
_atom_site_fract_x
_atom_site_fract_y
_atom_site_fract_z
Si Si1 0.830174 0.755387 0.202273
Si Si2 0.085001 0.086742 0.587392
Si Si3 0.442609 0.091722 0.765483
Si Si4 0.454764 0.344377 0.787801
Si Si5 0.468984 0.789150 0.283642
Si Si6 0.170430 0.274376 0.433160
O O1 0.865715 0.843214 0.263622
O O2 0.883128 0.704090 0.178592
O O3 0.830537 0.730556 0.382116
O O4 0.750000 0.750000 0.000000
O O5 0.078017 0.098824 0.393796
O O6 0.000000 0.091152 0.500000
O O7 0.113550 0.000000 0.672965
O O8 0.487364 0.134736 0.702935
O O9 0.367993 0.142102 0.670341
O O10 0.427575 0.000000 0.712918
O O11 0.500000 0.098363 0.000000
O O12 0.509343 0.281364 0.794648
O O13 0.386764 0.289892 0.726367
O O14 0.500000 0.381318 0.000000
O O15 0.500000 0.767018 0.500000
O O16 0.250000 0.250000 0.500000
#
# Coordination Sequence:
#
# PCOD9184227 Si02
#       6
#     8   8   8   8   8   8
#     4  11  22  35  57  86 114 151 199 237 279 352
#     4  10  19  37  59  81 113 145 184 241 290 330
#     4  10  22  39  61  88 117 153 195 246 299 347
#     4  10  19  33  58  83 112 146 196 237 272 349
#     4  11  17  37  58  85 110 148 203 242 282 341
#     4  10  21  36  55  84 115 154 190 232 287 345
#
# _framework density 17.794516000000002
#
# number of rings (size 3 to 8) (size 9 to 14) (size 15 to 20)
#    0.000    1.667    6.667    2.000    4.667    0.667 
#    0.000    5.000    0.000    0.000    0.000    0.000 
#    0.000    0.000    0.000    0.000    0.000    0.000 
#
# Total GULP energy -133693.547649 kJ/mol
# GULP energy per Si atom -5570.564485 kJ/mol
# Density = 1.775402 g / cm^3
# Si number density = 17.794516 Si / 1000 Ang^3
#
#
#
# Elastic Constant Matrix: (Units=GPa)
#
#
# Indices 1 2 3 4 5 6 
#
# 1 118.7894 36.8691 20.5145 0.0000 25.2589 0.0000
# 2 36.8691 114.7900 25.0659 0.0000 7.4644 0.0000
# 3 20.5145 25.0659 77.0365 0.0000 20.6538 0.0000
# 4 0.0000 0.0000 0.0000 15.6542 0.0000 2.3520
# 5 25.2589 7.4644 20.6538 0.0000 27.0820 0.0000
# 6 0.0000 0.0000 0.0000 2.3520 0.0000 13.0732
#
#
#
# Elastic Compliance Matrix: (Units=1/GPa)
#
#
# Indices 1 2 3 4 5 6 
#
# 1 0.011490 -0.003181 0.000771 0.000000 -0.010427 0.000000
# 2 -0.003181 0.010261 -0.003179 0.000000 0.002563 0.000000
# 3 0.000771 -0.003179 0.017306 0.000000 -0.013041 0.000000
# 4 0.000000 0.000000 0.000000 0.065655 0.000000 -0.011812
# 5 -0.010427 0.002563 -0.013041 0.000000 0.055890 0.000000
# 6 0.000000 0.000000 0.000000 -0.011812 0.000000 0.078617
#
#
# Mechanical properties :
#
#
# Convention : Reuss Voigt Hill
#
# Bulk Modulus (GPa) = 35.86833 52.83498 44.35165
# Shear Modulus (GPa) = 19.25384 26.37299 22.81341
#
# Velocity S-wave (km/s) = 3.29296 3.85396 3.58445
# Velocity P-wave (km/s) = 5.88717 7.03990 6.48918
#
# Compressibility (1/GPa) = 0.02787975
#
# Stress axis : x y z
#
# Youngs Moduli (GPa) = 87.03576 97.46048 57.78267
#
# Poissons Ratio (x) = 0.30998 -0.04454
# Poissons Ratio (y) = 0.27682 0.18367
# Poissons Ratio (z) = -0.06709 0.30979
#
# Static dielectric constant tensor:
#      x y z
#    x 1.670960 0.000000 -0.002870 
#    y 0.000000 1.622030 0.000000 
#    z -0.002870 0.000000 1.632970 
# 
# From -- ./inp_files/97881.got.cif
#   From: 2010.05.17/outbox.cif.g08.bks.cpg/sg12_49_cif.got.tgz:97881.got - 2010.06.03 13:09:07.
