data_PCOD9184475
_publ_section_title
;
Structure prediction by ZEFSAII (Michael W. Deem and Ramdas Pophale) SiO2 
 PCOD9184475
Probable space group: C 2/M
;
_chemical_formula_sum "Si O2"
_cell_formula_units_Z 64
_cell_length_a 14.202947
_cell_length_b 28.060137
_cell_length_c 9.139596
_cell_angle_alpha 90.000000
_cell_angle_beta 85.135834
_cell_angle_gamma 90.000000
_cell_volume 3629.345618
_symmetry_space_group_name_H-M "C 2/M"
_symmetry_group_IT_number 12
_symmetry_cell_setting 'monoclinic'
loop_
_space_group_symop_operation_xyz
x,y,z
-x,y,-z
-x,-y,-z
x,-y,z
1/2+x,1/2+y,z
1/2-x,1/2+y,-z
1/2-x,1/2-y,-z
1/2+x,1/2-y,z
loop_
_atom_site_type_symbol
_atom_site_label
_atom_site_fract_x
_atom_site_fract_y
_atom_site_fract_z
Si Si1 0.062126 0.444925 0.638876
Si Si2 0.543379 0.128541 0.154947
Si Si3 0.559422 0.694242 0.848884
Si Si4 0.161715 0.254120 0.401637
Si Si5 0.072432 0.150761 0.362437
Si Si6 0.414278 0.795311 0.320477
Si Si7 0.764366 0.337226 0.762740
Si Si8 0.269796 0.870822 0.418021
O O1 0.082110 0.500000 0.668572
O O2 0.156915 0.414161 0.602154
O O3 0.000000 0.442026 0.500000
O O4 0.999016 0.419467 0.770548
O O5 0.498034 0.171684 0.254069
O O6 0.656281 0.133157 0.160623
O O7 0.500000 0.133913 0.000000
O O8 0.490886 0.657852 0.771595
O O9 0.579474 0.743634 0.757257
O O10 0.661215 0.668416 0.847265
O O11 0.500000 0.707309 0.000000
O O12 0.250000 0.250000 0.500000
O O13 0.113782 0.203932 0.383818
O O14 0.091957 0.285835 0.506682
O O15 0.195607 0.283166 0.257726
O O16 0.167013 0.119680 0.362753
O O17 0.000000 0.138080 0.500000
O O18 0.319981 0.828334 0.316394
O O19 0.757410 0.355758 0.592758
#
# Coordination Sequence:
#
# PCOD9184475 Si02
#       8
#     8   8   8   8   8   8   8   8
#     4  10  21  39  65  92 110 131 171 225 284 341
#     4  11  24  37  56  82 116 150 176 219 280 348
#     4  12  24  34  48  76 117 155 192 236 264 300
#     4  11  17  31  54  75 103 145 202 240 266 307
#     4  12  19  32  53  78 102 148 200 225 260 318
#     4  10  19  34  50  77 107 147 192 230 271 306
#     4  11  20  36  52  78 109 150 191 231 272 315
#     4  10  19  34  61  83 106 138 186 233 274 324
#
# _framework density 17.634032999999999
#
# number of rings (size 3 to 8) (size 9 to 14) (size 15 to 20)
#    0.000    1.125    7.500    1.125    0.000    2.250 
#    0.000    2.500    0.000    0.375    0.000    0.000 
#    0.000    2.500    0.000    0.000    0.000    0.000 
#
# Total GULP energy -178336.130312 kJ/mol
# GULP energy per Si atom -5573.004072 kJ/mol
# Density = 1.759390 g / cm^3
# Si number density = 17.634033 Si / 1000 Ang^3
#
#
#
# Elastic Constant Matrix: (Units=GPa)
#
#
# Indices 1 2 3 4 5 6 
#
# 1 163.3387 37.7389 30.2839 0.0000 -12.0095 0.0000
# 2 37.7389 73.5751 11.5304 0.0000 -4.9635 0.0000
# 3 30.2839 11.5304 60.8202 0.0000 -5.6331 0.0000
# 4 0.0000 0.0000 0.0000 8.6269 0.0000 1.5081
# 5 -12.0095 -4.9635 -5.6331 0.0000 22.9308 0.0000
# 6 0.0000 0.0000 0.0000 1.5081 0.0000 9.0183
#
#
#
# Elastic Compliance Matrix: (Units=1/GPa)
#
#
# Indices 1 2 3 4 5 6 
#
# 1 0.007610 -0.003271 -0.002932 0.000000 0.002557 0.000000
# 2 -0.003271 0.015548 -0.001193 0.000000 0.001359 0.000000
# 3 -0.002932 -0.001193 0.018380 0.000000 0.002721 0.000000
# 4 0.000000 0.000000 0.000000 0.119407 0.000000 -0.019968
# 5 0.002557 0.001359 0.002721 0.000000 0.045911 0.000000
# 6 0.000000 0.000000 0.000000 -0.019968 0.000000 0.114225
#
#
# Mechanical properties :
#
#
# Convention : Reuss Voigt Hill
#
# Bulk Modulus (GPa) = 37.38954 50.76004 44.07479
# Shear Modulus (GPa) = 14.50163 22.66058 18.58110
#
# Velocity S-wave (km/s) = 2.87080 3.58865 3.24961
# Velocity P-wave (km/s) = 5.67783 6.78373 6.25527
#
# Compressibility (1/GPa) = 0.02674545
#
# Stress axis : x y z
#
# Youngs Moduli (GPa) = 131.41150 64.31644 54.40680
#
# Poissons Ratio (x) = 0.21039 0.15952
# Poissons Ratio (y) = 0.42988 0.06490
# Poissons Ratio (z) = 0.38531 0.07672
#
# Static dielectric constant tensor:
#      x y z
#    x 1.704130 0.000000 -0.003460 
#    y 0.000000 1.590210 0.000000 
#    z -0.003460 0.000000 1.653350 
# 
# From -- ./inp_files/67834.got.cif
#   From: 2010.05.17/outbox.cif.g08.bks.cpg/sg12_34_cif.got.tgz:67834.got - 2010.06.03 13:09:07.
