data_PCOD9184740
_publ_section_title
;
Structure prediction by ZEFSAII (Michael W. Deem and Ramdas Pophale) SiO2 
 PCOD9184740
Probable space group: C 2/M
;
_chemical_formula_sum "Si O2"
_cell_formula_units_Z 56
_cell_length_a 30.018834
_cell_length_b 7.437662
_cell_length_c 13.070228
_cell_angle_alpha 90.000000
_cell_angle_beta 120.762940
_cell_angle_gamma 90.000000
_cell_volume 2507.573328
_symmetry_space_group_name_H-M "C 2/M"
_symmetry_group_IT_number 12
_symmetry_cell_setting 'monoclinic'
loop_
_space_group_symop_operation_xyz
x,y,z
-x,y,-z
-x,-y,-z
x,-y,z
1/2+x,1/2+y,z
1/2-x,1/2+y,-z
1/2-x,1/2-y,-z
1/2+x,1/2-y,z
loop_
_atom_site_type_symbol
_atom_site_label
_atom_site_fract_x
_atom_site_fract_y
_atom_site_fract_z
Si Si1 0.287891 0.786572 0.950472
Si Si2 0.053339 0.280422 0.010792
Si Si3 0.244654 0.204886 0.314396
Si Si4 0.639494 0.779013 0.503749
Si Si5 0.902740 0.280482 0.147845
Si Si6 0.559384 0.219683 0.585131
Si Si7 0.635150 0.793240 0.271148
O O1 0.267086 0.707918 0.820280
O O2 0.291390 0.000000 0.936826
O O3 0.250000 0.750000 0.000000
O O4 0.344962 0.722852 0.048974
O O5 0.053937 0.500000 0.008710
O O6 0.101275 0.218272 0.137925
O O7 0.060429 0.223656 0.902024
O O8 0.000000 0.224254 0.000000
O O9 0.301906 0.279749 0.401171
O O10 0.195684 0.290923 0.313336
O O11 0.245212 0.000000 0.352004
O O12 0.597895 0.723013 0.539710
O O13 0.626672 0.716541 0.373973
O O14 0.639828 0.000000 0.505124
O O15 0.902383 0.500000 0.150387
O O16 0.919753 0.221066 0.279835
O O17 0.500000 0.275805 0.500000
O O18 0.559699 0.000000 0.585071
O O19 0.618330 0.000000 0.259396
#
# Coordination Sequence:
#
# PCOD9184740 Si02
#       7
#     8   8   8   8   8   8   8
#     4  11  21  35  55  80 111 145 179 219 265 315
#     4   9  17  28  48  77 105 134 171 221 275 321
#     4  11  21  35  53  77 110 143 178 220 268 320
#     4   9  19  32  48  73 106 142 177 221 269 317
#     4   9  17  30  47  72 106 137 169 214 263 313
#     4   9  17  28  45  71 104 138 170 210 267 324
#     4  10  19  34  54  78 108 139 178 222 269 324
#
# _framework density 22.332346999999999
#
# number of rings (size 3 to 8) (size 9 to 14) (size 15 to 20)
#    0.000    2.286    1.429    2.143    2.000    2.286 
#    0.000    0.714    0.000    0.429    0.000    0.000 
#    0.000    7.429    0.000    0.000    0.000    0.000 
#
# Total GULP energy -156482.671701 kJ/mol
# GULP energy per Si atom -5588.666846 kJ/mol
# Density = 2.228152 g / cm^3
# Si number density = 22.332347 Si / 1000 Ang^3
#
#
#
# Elastic Constant Matrix: (Units=GPa)
#
#
# Indices 1 2 3 4 5 6 
#
# 1 151.6929 -7.7353 59.7893 0.0000 -28.8776 0.0000
# 2 -7.7353 67.1189 -2.3572 0.0000 2.2716 0.0000
# 3 59.7893 -2.3572 129.5134 0.0000 -31.8413 0.0000
# 4 0.0000 0.0000 0.0000 -6.8344 0.0000 11.7870
# 5 -28.8776 2.2716 -31.8413 0.0000 43.3318 0.0000
# 6 0.0000 0.0000 0.0000 11.7870 0.0000 -0.2280
#
#
#
# Elastic Compliance Matrix: (Units=1/GPa)
#
#
# Indices 1 2 3 4 5 6 
#
# 1 0.008482 0.000756 -0.003078 0.000000 0.003351 0.000000
# 2 0.000756 0.014994 -0.000178 0.000000 -0.000413 0.000000
# 3 -0.003078 -0.000178 0.010541 0.000000 0.005704 0.000000
# 4 0.000000 0.000000 0.000000 0.001660 0.000000 0.085801
# 5 0.003351 -0.000413 0.005704 0.000000 0.029524 0.000000
# 6 0.000000 0.000000 0.000000 0.085801 0.000000 0.049749
#
#
# Mechanical properties :
#
#
# Convention : Reuss Voigt Hill
#
# Bulk Modulus (GPa) = 34.46150 49.74656 42.10403
# Shear Modulus (GPa) = 38.57369 27.16244 32.86806
#
# Velocity S-wave (km/s) = 4.16054 3.49131 3.84053
# Velocity P-wave (km/s) = 6.20844 6.21098 6.20971
#
# Compressibility (1/GPa) = 0.02901789
#
# Stress axis : x y z
#
# Youngs Moduli (GPa) = 117.89714 66.69429 94.86523
#
# Poissons Ratio (x) = -0.05042 0.29199
# Poissons Ratio (y) = -0.08913 0.01685
# Poissons Ratio (z) = 0.36289 0.01184
#
# Static dielectric constant tensor:
#      x y z
#    x 1.759900 0.000000 0.011220 
#    y 0.000000 1.934370 0.000000 
#    z 0.011220 0.000000 1.774210 
# 
# From -- ./inp_files/186818.got.cif
#   From: 2010.05.17/outbox.cif.g08.bks.cpg/sg12_94_cif.got.tgz:186818.got - 2010.06.03 13:09:07.
