data_PCOD9184903
_publ_section_title
;
Structure prediction by ZEFSAII (Michael W. Deem and Ramdas Pophale) SiO2 
 PCOD9184903
Probable space group: C 2/M
;
_chemical_formula_sum "Si O2"
_cell_formula_units_Z 56
_cell_length_a 11.251964
_cell_length_b 14.411968
_cell_length_c 15.102994
_cell_angle_alpha 90.000000
_cell_angle_beta 111.693765
_cell_angle_gamma 90.000000
_cell_volume 2275.679840
_symmetry_space_group_name_H-M "C 2/M"
_symmetry_group_IT_number 12
_symmetry_cell_setting 'monoclinic'
loop_
_space_group_symop_operation_xyz
x,y,z
-x,y,-z
-x,-y,-z
x,-y,z
1/2+x,1/2+y,z
1/2-x,1/2+y,-z
1/2-x,1/2-y,-z
1/2+x,1/2-y,z
loop_
_atom_site_type_symbol
_atom_site_label
_atom_site_fract_x
_atom_site_fract_y
_atom_site_fract_z
Si Si1 0.467326 0.113075 0.774733
Si Si2 0.739276 0.607710 0.818727
Si Si3 0.950668 0.886760 0.735352
Si Si4 0.871747 0.113135 0.520191
Si Si5 0.426274 0.886934 0.569703
Si Si6 0.821822 0.653442 0.031589
Si Si7 0.101439 0.104047 0.091776
O O1 0.322896 0.141264 0.760191
O O2 0.496092 0.138437 0.681389
O O3 0.550865 0.155564 0.876563
O O4 0.477473 0.000000 0.785025
O O5 0.716763 0.500000 0.794456
O O6 0.597004 0.646000 0.789025
O O7 0.818836 0.613959 0.931877
O O8 0.897889 0.854931 0.627745
O O9 0.879541 0.857237 0.805526
O O10 0.943159 0.000000 0.727199
O O11 0.723692 0.140973 0.462057
O O12 0.000000 0.140643 0.500000
O O13 0.870452 0.000000 0.514043
O O14 0.500000 0.857081 0.500000
O O15 0.425795 0.000000 0.566726
O O16 0.728309 0.597823 0.070955
O O17 0.750000 0.750000 0.000000
O O18 0.047458 0.000000 0.092791
O O19 0.000000 0.154388 0.000000
#
# Coordination Sequence:
#
# PCOD9184903 Si02
#       7
#     8   8   8   8   8   8   8
#     4  10  21  37  60  84 116 157 193 235 290 348
#     4  10  19  37  59  83 112 148 194 239 289 351
#     4   9  17  29  53  83 112 147 182 227 287 342
#     4   9  16  27  46  79 119 149 180 230 288 340
#     4   9  18  31  50  83 122 153 187 235 289 348
#     4  12  25  37  53  80 115 152 194 241 290 349
#     4  10  19  34  55  78 109 146 188 234 283 344
#
# _framework density 24.608031
#
# number of rings (size 3 to 8) (size 9 to 14) (size 15 to 20)
#    0.000    2.143    1.429    2.571    2.000    5.714 
#    0.000    0.000    0.000    0.000    0.000    5.000 
#    0.000    0.000    0.000    0.000    0.000    0.286 
#
# Total GULP energy -156293.858655 kJ/mol
# GULP energy per Si atom -5581.923523 kJ/mol
# Density = 2.455202 g / cm^3
# Si number density = 24.608031 Si / 1000 Ang^3
#
#
#
# Elastic Constant Matrix: (Units=GPa)
#
#
# Indices 1 2 3 4 5 6 
#
# 1 112.3031 -4.7001 53.5343 0.0000 -17.7908 0.0000
# 2 -4.7001 78.4594 -3.7685 0.0000 4.3409 0.0000
# 3 53.5343 -3.7685 157.5626 0.0000 -19.3476 0.0000
# 4 0.0000 0.0000 0.0000 0.3486 0.0000 21.0735
# 5 -17.7908 4.3409 -19.3476 0.0000 43.1108 0.0000
# 6 0.0000 0.0000 0.0000 21.0735 0.0000 -23.1739
#
#
#
# Elastic Compliance Matrix: (Units=1/GPa)
#
#
# Indices 1 2 3 4 5 6 
#
# 1 0.010995 0.000331 -0.003360 0.000000 0.002996 0.000000
# 2 0.000331 0.012830 0.000055 0.000000 -0.001130 0.000000
# 3 -0.003360 0.000055 0.007745 0.000000 0.002084 0.000000
# 4 0.000000 0.000000 0.000000 0.051250 0.000000 0.046605
# 5 0.002996 -0.001130 0.002084 0.000000 0.025481 0.000000
# 6 0.000000 0.000000 0.000000 0.046605 0.000000 -0.000771
#
#
# Mechanical properties :
#
#
# Convention : Reuss Voigt Hill
#
# Bulk Modulus (GPa) = 39.02457 48.71739 43.87098
# Shear Modulus (GPa) = 40.97741 24.27440 32.62590
#
# Velocity S-wave (km/s) = 4.08512 3.14418 3.64514
# Velocity P-wave (km/s) = 6.17607 5.74643 5.96512
#
# Compressibility (1/GPa) = 0.02562488
#
# Stress axis : x y z
#
# Youngs Moduli (GPa) = 90.95428 77.93929 129.10835
#
# Poissons Ratio (x) = -0.02584 0.43377
# Poissons Ratio (y) = -0.03015 -0.00716
# Poissons Ratio (z) = 0.30558 -0.00432
#
# Static dielectric constant tensor:
#      x y z
#    x 1.999580 0.000000 0.019910 
#    y 0.000000 1.995420 0.000000 
#    z 0.019910 0.000000 1.948370 
# 
# From -- ./inp_files/206747.got.cif
#   From: 2010.05.17/outbox.cif.g08.bks.cpg/sg12_104_cif.got.tgz:206747.got - 2010.06.03 13:09:07.
