data_PCOD9184134
_publ_section_title
;
Structure prediction by ZEFSAII (Michael W. Deem and Ramdas Pophale) SiO2 
 PCOD9184134
Probable space group: C 2/M
;
_chemical_formula_sum "Si O2"
_cell_formula_units_Z 56
_cell_length_a 13.884713
_cell_length_b 19.928452
_cell_length_c 7.891109
_cell_angle_alpha 90.000000
_cell_angle_beta 88.616136
_cell_angle_gamma 90.000000
_cell_volume 2182.839609
_symmetry_space_group_name_H-M "C 2/M"
_symmetry_group_IT_number 12
_symmetry_cell_setting 'monoclinic'
loop_
_space_group_symop_operation_xyz
x,y,z
-x,y,-z
-x,-y,-z
x,-y,z
1/2+x,1/2+y,z
1/2-x,1/2+y,-z
1/2-x,1/2-y,-z
1/2+x,1/2-y,z
loop_
_atom_site_type_symbol
_atom_site_label
_atom_site_fract_x
_atom_site_fract_y
_atom_site_fract_z
Si Si1 0.779284 0.646170 0.494972
Si Si2 0.734230 0.423198 0.016706
Si Si3 0.943037 0.267826 0.322221
Si Si4 0.060950 0.877484 0.823250
Si Si5 0.385354 0.422862 0.627930
Si Si6 0.143345 0.500000 0.572675
Si Si7 0.110013 0.355044 0.155886
Si Si8 0.466012 0.000000 0.778065
O O1 0.842542 0.695593 0.375815
O O2 0.664273 0.638828 0.474142
O O3 0.804720 0.570235 0.440371
O O4 0.822470 0.655622 0.680542
O O5 0.770116 0.500000 0.002806
O O6 0.660254 0.413962 0.863124
O O7 0.812542 0.363210 0.998891
O O8 0.672486 0.418767 0.189871
O O9 0.924143 0.199417 0.225730
O O10 0.000000 0.260893 0.500000
O O11 0.017592 0.308869 0.197317
O O12 0.995247 0.910372 0.680813
O O13 0.000000 0.880585 0.000000
O O14 0.376233 0.500000 0.565386
O O15 0.080911 0.500000 0.405726
O O16 0.078963 0.500000 0.741619
O O17 0.066107 0.429595 0.149871
#
# Coordination Sequence:
#
# PCOD9184134 Si02
#       8
#     8   8   8   8   8   4   8   4
#     4  10  19  33  57  86 114 144 179 223 277 332
#     4  10  21  38  60  84 108 140 187 238 282 324
#     4  10  22  38  57  84 117 151 184 220 267 332
#     4  10  23  42  59  75 107 154 193 228 275 329
#     4  10  21  38  60  84 108 140 187 238 282 324
#     4   9  14  26  51  80 109 142 176 213 267 330
#     4  10  19  33  57  86 114 144 179 223 277 332
#     4   9  14  26  51  80 109 142 176 213 267 330
#
# _framework density 25.654655999999999
#
# number of rings (size 3 to 8) (size 9 to 14) (size 15 to 20)
#    0.000    2.143    2.857    0.429    0.000    5.143 
#    0.000    5.714    0.000    5.143    0.000    0.000 
#    0.000    0.000    0.000    0.000    0.000    0.000 
#
# Total GULP energy -156523.663032 kJ/mol
# GULP energy per Si atom -5590.130823 kJ/mol
# Density = 2.559626 g / cm^3
# Si number density = 25.654656 Si / 1000 Ang^3
#
#
#
# Elastic Constant Matrix: (Units=GPa)
#
#
# Indices 1 2 3 4 5 6 
#
# 1 109.9238 19.6451 31.4804 0.0000 8.0372 0.0000
# 2 19.6451 67.1830 11.2555 0.0000 8.6582 0.0000
# 3 31.4804 11.2555 84.6389 0.0000 19.0969 0.0000
# 4 0.0000 0.0000 0.0000 7.9989 0.0000 12.4692
# 5 8.0372 8.6582 19.0969 0.0000 46.9764 0.0000
# 6 0.0000 0.0000 0.0000 12.4692 0.0000 5.3845
#
#
#
# Elastic Compliance Matrix: (Units=1/GPa)
#
#
# Indices 1 2 3 4 5 6 
#
# 1 0.010574 -0.002500 -0.003629 0.000000 0.000127 0.000000
# 2 -0.002500 0.016021 -0.000695 0.000000 -0.002243 0.000000
# 3 -0.003629 -0.000695 0.014410 0.000000 -0.005109 0.000000
# 4 0.000000 0.000000 0.000000 -0.047900 0.000000 0.110925
# 5 0.000127 -0.002243 -0.005109 0.000000 0.023756 0.000000
# 6 0.000000 0.000000 0.000000 0.110925 0.000000 -0.071157
#
#
# Mechanical properties :
#
#
# Convention : Reuss Voigt Hill
#
# Bulk Modulus (GPa) = 36.55348 42.94531 39.74940
# Shear Modulus (GPa) = -158.58326 25.36295 -66.61016
#
# Velocity S-wave (km/s) = -7.87076 3.14766 -5.10103
# Velocity P-wave (km/s) = 8.26554 5.47599 4.37794
#
# Compressibility (1/GPa) = 0.02735717
#
# Stress axis : x y z
#
# Youngs Moduli (GPa) = 94.57083 62.41710 69.39743
#
# Poissons Ratio (x) = 0.15607 0.25185
# Poissons Ratio (y) = 0.23646 0.04820
# Poissons Ratio (z) = 0.34320 0.04335
#
# Static dielectric constant tensor:
#      x y z
#    x 2.224980 0.000000 0.002990 
#    y 0.000000 1.932330 0.000000 
#    z 0.002990 0.000000 2.071290 
# 
# From -- ./inp_files/64114.got.cif
#   From: 2010.05.17/outbox.cif.g08.bks.cpg/sg12_33_cif.got.tgz:64114.got - 2010.06.03 13:09:07.
