data_PCOD9184438
_publ_section_title
;
Structure prediction by ZEFSAII (Michael W. Deem and Ramdas Pophale) SiO2 
 PCOD9184438
Probable space group: C 2/M
;
_chemical_formula_sum "Si O2"
_cell_formula_units_Z 52
_cell_length_a 28.161653
_cell_length_b 20.617561
_cell_length_c 9.006288
_cell_angle_alpha 90.000000
_cell_angle_beta 30.418155
_cell_angle_gamma 90.000000
_cell_volume 2647.617400
_symmetry_space_group_name_H-M "C 2/M"
_symmetry_group_IT_number 12
_symmetry_cell_setting 'monoclinic'
loop_
_space_group_symop_operation_xyz
x,y,z
-x,y,-z
-x,-y,-z
x,-y,z
1/2+x,1/2+y,z
1/2-x,1/2+y,-z
1/2-x,1/2-y,-z
1/2+x,1/2-y,z
loop_
_atom_site_type_symbol
_atom_site_label
_atom_site_fract_x
_atom_site_fract_y
_atom_site_fract_z
Si Si1 0.596512 0.186027 0.301478
Si Si2 0.574844 0.500000 0.963933
Si Si3 0.719706 0.136854 0.230318
Si Si4 0.644774 0.500000 0.357873
Si Si5 0.117071 0.888715 0.612568
Si Si6 0.930971 0.832295 0.554070
Si Si7 0.738017 0.266311 0.361185
Si Si8 0.227209 0.000000 0.813650
O O1 0.500000 0.156753 0.500000
O O2 0.650410 0.143279 0.277367
O O3 0.566916 0.254498 0.457373
O O4 0.668670 0.208501 0.977094
O O5 0.531398 0.500000 0.686666
O O6 0.587594 0.437053 0.824048
O O7 0.654923 0.500000 0.872191
O O8 0.703674 0.200458 0.374462
O O9 0.716563 0.068105 0.324725
O O10 0.826400 0.147973 0.885398
O O11 0.682854 0.437342 0.340050
O O12 0.667346 0.500000 0.126681
O O13 0.050685 0.861310 0.658141
O O14 0.166035 0.825279 0.540804
O O15 0.000000 0.854220 0.500000
O O16 0.750000 0.250000 0.500000
#
# Coordination Sequence:
#
# PCOD9184438 Si02
#       8
#     8   4   8   4   8   8   8   4
#     4  10  20  40  63  90 119 159 211 266 318 363
#     4  11  27  39  54  94 135 168 199 248 306 401
#     4  11  21  40  61  87 121 159 215 265 293 381
#     4  11  23  39  55  86 131 170 204 250 289 390
#     4  11  20  40  55  84 127 164 201 248 309 358
#     4  10  19  33  64  88 116 164 206 243 306 365
#     4  11  21  39  62  90 126 162 206 266 319 370
#     4  12  23  38  63  84 117 178 214 246 325 365
#
# _framework density 19.640301000000001
#
# number of rings (size 3 to 8) (size 9 to 14) (size 15 to 20)
#    0.000    1.231    4.615    3.000    2.154    0.000 
#   11.077    2.308    0.000    0.000    0.000    2.154 
#    0.000    0.000    0.000    0.000    0.000    0.000 
#
# Total GULP energy -144985.157678 kJ/mol
# GULP energy per Si atom -5576.352218 kJ/mol
# Density = 1.959560 g / cm^3
# Si number density = 19.640301 Si / 1000 Ang^3
#
#
#
# Elastic Constant Matrix: (Units=GPa)
#
#
# Indices 1 2 3 4 5 6 
#
# 1 165.9496 67.5126 31.4889 0.0000 -0.8944 0.0000
# 2 67.5126 148.1525 33.6138 0.0000 -0.6935 0.0000
# 3 31.4889 33.6138 38.0089 0.0000 6.0737 0.0000
# 4 0.0000 0.0000 0.0000 16.8366 0.0000 0.6681
# 5 -0.8944 -0.6935 6.0737 0.0000 35.6058 0.0000
# 6 0.0000 0.0000 0.0000 0.6681 0.0000 28.0998
#
#
#
# Elastic Compliance Matrix: (Units=1/GPa)
#
#
# Indices 1 2 3 4 5 6 
#
# 1 0.007928 -0.002609 -0.004404 0.000000 0.000900 0.000000
# 2 -0.002609 0.009379 -0.006324 0.000000 0.001196 0.000000
# 3 -0.004404 -0.006324 0.036586 0.000000 -0.006475 0.000000
# 4 0.000000 0.000000 0.000000 0.059450 0.000000 -0.001413
# 5 0.000900 0.001196 -0.006475 0.000000 0.029236 0.000000
# 6 0.000000 0.000000 0.000000 -0.001413 0.000000 0.035621
#
#
# Mechanical properties :
#
#
# Convention : Reuss Voigt Hill
#
# Bulk Modulus (GPa) = 36.74062 68.59351 52.66707
# Shear Modulus (GPa) = 23.37011 30.74148 27.05579
#
# Velocity S-wave (km/s) = 3.45324 3.96058 3.71558
# Velocity P-wave (km/s) = 5.88619 7.47768 6.72915
#
# Compressibility (1/GPa) = 0.02721783
#
# Stress axis : x y z
#
# Youngs Moduli (GPa) = 126.13516 106.61762 27.33292
#
# Poissons Ratio (x) = 0.27820 0.12038
# Poissons Ratio (y) = 0.32912 0.17286
# Poissons Ratio (z) = 0.55553 0.67427
#
# Static dielectric constant tensor:
#      x y z
#    x 1.717620 0.000000 0.001960 
#    y 0.000000 1.761170 0.000000 
#    z 0.001960 0.000000 1.728100 
# 
# From -- ./inp_files/99047.got.cif
#   From: 2010.05.17/outbox.cif.g08.bks.cpg/sg12_50_cif.got.tgz:99047.got - 2010.06.03 13:09:07.
