data_PCOD9184389
_publ_section_title
;
Structure prediction by ZEFSAII (Michael W. Deem and Ramdas Pophale) SiO2 
 PCOD9184389
Probable space group: C 2/M
;
_chemical_formula_sum "Si O2"
_cell_formula_units_Z 60
_cell_length_a 23.121103
_cell_length_b 21.915890
_cell_length_c 12.616786
_cell_angle_alpha 90.000000
_cell_angle_beta 29.397774
_cell_angle_gamma 90.000000
_cell_volume 3138.215798
_symmetry_space_group_name_H-M "C 2/M"
_symmetry_group_IT_number 12
_symmetry_cell_setting 'monoclinic'
loop_
_space_group_symop_operation_xyz
x,y,z
-x,y,-z
-x,-y,-z
x,-y,z
1/2+x,1/2+y,z
1/2-x,1/2+y,-z
1/2-x,1/2-y,-z
1/2+x,1/2-y,z
loop_
_atom_site_type_symbol
_atom_site_label
_atom_site_fract_x
_atom_site_fract_y
_atom_site_fract_z
Si Si1 0.090020 0.429479 0.953565
Si Si2 0.800976 0.726270 0.027861
Si Si3 0.029294 0.680000 0.745797
Si Si4 0.216713 0.826810 0.761782
Si Si5 0.651228 0.431424 0.475021
Si Si6 0.108589 0.073432 0.080128
Si Si7 0.000000 0.763975 0.000000
Si Si8 0.631441 0.615683 0.282852
O O1 0.105499 0.500000 0.965247
O O2 0.032704 0.384426 0.129387
O O3 0.219016 0.405169 0.711501
O O4 0.000000 0.430126 0.000000
O O5 0.776191 0.774495 0.159669
O O6 0.729415 0.664180 0.157994
O O7 0.750000 0.750000 0.000000
O O8 0.940637 0.713871 0.806414
O O9 0.159466 0.670680 0.495219
O O10 0.028026 0.720407 0.855039
O O11 0.183806 0.889240 0.875074
O O12 0.111604 0.805485 0.852394
O O13 0.654737 0.500000 0.512271
O O14 0.528364 0.404117 0.712157
O O15 0.635627 0.432363 0.372190
O O16 0.146595 0.090148 0.140139
O O17 0.112958 0.000000 0.061148
O O18 0.500000 0.643504 0.500000
#
# Coordination Sequence:
#
# PCOD9184389 Si02
#       8
#     8   8   8   8   8   8   4   8
#     4  10  20  36  59  88 117 153 201 248 293 351
#     4  11  23  39  57  88 123 161 198 242 292 356
#     4  11  23  41  64  89 121 160 198 247 304 357
#     4  11  25  40  63  91 121 158 199 248 301 362
#     4   9  18  34  58  86 117 156 201 245 289 342
#     4  10  21  39  60  88 122 155 197 247 299 352
#     4  10  24  46  62  88 118 156 204 250 298 354
#     4  10  19  33  60  87 115 158 200 245 286 344
#
# _framework density 19.119143999999999
#
# number of rings (size 3 to 8) (size 9 to 14) (size 15 to 20)
#    0.000    1.733    3.333    0.800    1.867    4.267 
#    0.000    0.333    0.000    0.800    0.000    0.000 
#    0.000    0.000    0.000    0.000    0.000    0.000 
#
# Total GULP energy -167298.837705 kJ/mol
# GULP energy per Si atom -5576.627924 kJ/mol
# Density = 1.907563 g / cm^3
# Si number density = 19.119144 Si / 1000 Ang^3
#
#
#
# Elastic Constant Matrix: (Units=GPa)
#
#
# Indices 1 2 3 4 5 6 
#
# 1 97.5377 22.5110 49.6424 0.0000 -20.1584 0.0000
# 2 22.5110 80.4280 44.9612 0.0000 -3.4352 0.0000
# 3 49.6424 44.9612 150.0950 0.0000 -20.1341 0.0000
# 4 0.0000 0.0000 0.0000 24.0698 0.0000 -6.3719
# 5 -20.1584 -3.4352 -20.1341 0.0000 24.7743 0.0000
# 6 0.0000 0.0000 0.0000 -6.3719 0.0000 15.6163
#
#
#
# Elastic Compliance Matrix: (Units=1/GPa)
#
#
# Indices 1 2 3 4 5 6 
#
# 1 0.013969 -0.001934 -0.002864 0.000000 0.008770 0.000000
# 2 -0.001934 0.015270 -0.004334 0.000000 -0.002979 0.000000
# 3 -0.002864 -0.004334 0.009557 0.000000 0.004835 0.000000
# 4 0.000000 0.000000 0.000000 0.046577 0.000000 0.019005
# 5 0.008770 -0.002979 0.004835 0.000000 0.051017 0.000000
# 6 0.000000 0.000000 0.000000 0.019005 0.000000 0.071790
#
#
# Mechanical properties :
#
#
# Convention : Reuss Voigt Hill
#
# Bulk Modulus (GPa) = 48.70614 62.47666 55.59140
# Shear Modulus (GPa) = 21.43259 26.95516 24.19388
#
# Velocity S-wave (km/s) = 3.35177 3.75887 3.56114
# Velocity P-wave (km/s) = 6.36471 7.18243 6.78590
#
# Compressibility (1/GPa) = 0.02053129
#
# Stress axis : x y z
#
# Youngs Moduli (GPa) = 71.58584 65.48576 104.63841
#
# Poissons Ratio (x) = 0.12665 0.29972
# Poissons Ratio (y) = 0.13845 0.45353
# Poissons Ratio (z) = 0.20505 0.28383
#
# Static dielectric constant tensor:
#      x y z
#    x 1.686150 0.000000 -0.000210 
#    y 0.000000 1.745020 0.000000 
#    z -0.000210 0.000000 1.692550 
# 
# From -- ./inp_files/170384.got.cif
#   From: 2010.05.17/outbox.cif.g08.bks.cpg/sg12_86_cif.got.tgz:170384.got - 2010.06.03 13:09:07.
