data_PCOD9184233
_publ_section_title
;
Structure prediction by ZEFSAII (Michael W. Deem and Ramdas Pophale) SiO2 
 PCOD9184233
Probable space group: C 2/M
;
_chemical_formula_sum "Si O2"
_cell_formula_units_Z 64
_cell_length_a 30.988434
_cell_length_b 17.392015
_cell_length_c 12.608939
_cell_angle_alpha 90.000000
_cell_angle_beta 151.993845
_cell_angle_gamma 90.000000
_cell_volume 3190.987463
_symmetry_space_group_name_H-M "C 2/M"
_symmetry_group_IT_number 12
_symmetry_cell_setting 'monoclinic'
loop_
_space_group_symop_operation_xyz
x,y,z
-x,y,-z
-x,-y,-z
x,-y,z
1/2+x,1/2+y,z
1/2-x,1/2+y,-z
1/2-x,1/2-y,-z
1/2+x,1/2-y,z
loop_
_atom_site_type_symbol
_atom_site_label
_atom_site_fract_x
_atom_site_fract_y
_atom_site_fract_z
Si Si1 0.535557 0.413463 0.188832
Si Si2 0.791348 0.832656 0.332924
Si Si3 0.453284 0.738572 0.294711
Si Si4 0.701907 0.170228 0.931923
Si Si5 0.161504 0.409190 0.431059
Si Si6 0.379441 0.824070 0.457852
Si Si7 0.170076 0.703977 0.264061
Si Si8 0.868763 0.147035 0.933656
O O1 0.568332 0.500000 0.239264
O O2 0.617623 0.367785 0.419821
O O3 0.500000 0.381278 0.000000
O O4 0.447517 0.411805 0.072922
O O5 0.812651 0.742692 0.358646
O O6 0.713249 0.836371 0.253549
O O7 0.765125 0.866675 0.160525
O O8 0.500000 0.702437 0.500000
O O9 0.388618 0.805510 0.199597
O O10 0.532179 0.777387 0.393858
O O11 0.390079 0.677498 0.097263
O O12 0.668691 0.135397 0.748335
O O13 0.750000 0.250000 0.000000
O O14 0.154283 0.500000 0.396841
O O15 0.104894 0.381455 0.411261
O O16 0.133717 0.358115 0.268587
O O17 0.268647 0.387144 0.691024
O O18 0.250000 0.750000 0.500000
O O19 0.111750 0.775094 0.093012
#
# Coordination Sequence:
#
# PCOD9184233 Si02
#       8
#     8   8   8   8   8   8   8   8
#     4  11  24  36  51  84 124 156 188 234 300 363
#     4  11  18  35  59  83 116 158 199 249 282 350
#     4  10  19  33  61  95 117 146 195 259 296 341
#     4   9  18  33  58  90 117 145 199 255 294 340
#     4  11  23  39  59  86 124 161 199 248 304 359
#     4  10  19  35  59  88 114 154 202 246 296 348
#     4  10  19  33  58  84 111 153 210 242 287 349
#     4  11  19  35  59  86 116 155 197 240 293 358
#
# _framework density 20.056488999999999
#
# number of rings (size 3 to 8) (size 9 to 14) (size 15 to 20)
#    0.000    1.625    5.000    2.625    0.000    1.500 
#    0.000    0.625    0.000    6.375    0.000    0.000 
#    0.000    0.000    0.000    0.000    0.000    0.000 
#
# Total GULP energy -178378.678738 kJ/mol
# GULP energy per Si atom -5574.333711 kJ/mol
# Density = 2.001084 g / cm^3
# Si number density = 20.056489 Si / 1000 Ang^3
#
#
#
# Elastic Constant Matrix: (Units=GPa)
#
#
# Indices 1 2 3 4 5 6 
#
# 1 102.8171 19.8728 15.5339 0.0000 -14.5061 0.0000
# 2 19.8728 44.4423 6.2651 0.0000 -12.3294 0.0000
# 3 15.5339 6.2651 73.0554 0.0000 -28.6911 0.0000
# 4 0.0000 0.0000 0.0000 7.6324 0.0000 -0.1424
# 5 -14.5061 -12.3294 -28.6911 0.0000 38.7574 0.0000
# 6 0.0000 0.0000 0.0000 -0.1424 0.0000 12.8579
#
#
#
# Elastic Compliance Matrix: (Units=1/GPa)
#
#
# Indices 1 2 3 4 5 6 
#
# 1 0.010992 -0.004228 -0.001251 0.000000 0.001843 0.000000
# 2 -0.004228 0.026402 0.001850 0.000000 0.008186 0.000000
# 3 -0.001251 0.001850 0.019517 0.000000 0.014568 0.000000
# 4 0.000000 0.000000 0.000000 0.131047 0.000000 0.001451
# 5 0.001843 0.008186 0.014568 0.000000 0.039880 0.000000
# 6 0.000000 0.000000 0.000000 0.001451 0.000000 0.077789
#
#
# Mechanical properties :
#
#
# Convention : Reuss Voigt Hill
#
# Bulk Modulus (GPa) = 20.13970 33.73981 26.93975
# Shear Modulus (GPa) = 15.17746 23.75907 19.46827
#
# Velocity S-wave (km/s) = 2.75387 3.44555 3.11894
# Velocity P-wave (km/s) = 4.49166 5.71734 5.14116
#
# Compressibility (1/GPa) = 0.04965318
#
# Stress axis : x y z
#
# Youngs Moduli (GPa) = 90.97385 37.87641 51.23754
#
# Poissons Ratio (x) = 0.16012 0.06409
# Poissons Ratio (y) = 0.38460 -0.09477
# Poissons Ratio (z) = 0.11379 -0.07005
#
# Static dielectric constant tensor:
#      x y z
#    x 1.780200 0.000000 -0.024170 
#    y 0.000000 1.690120 0.000000 
#    z -0.024170 0.000000 1.771510 
# 
# From -- ./inp_files/190050.got.cif
#   From: 2010.05.17/outbox.cif.g08.bks.cpg/sg12_96_cif.got.tgz:190050.got - 2010.06.03 13:09:07.
