data_PCOD9184923
_publ_section_title
;
Structure prediction by ZEFSAII (Michael W. Deem and Ramdas Pophale) SiO2 
 PCOD9184923
Probable space group: C 2/M
;
_chemical_formula_sum "Si O2"
_cell_formula_units_Z 64
_cell_length_a 20.559151
_cell_length_b 8.360614
_cell_length_c 34.753267
_cell_angle_alpha 90.000000
_cell_angle_beta 35.305451
_cell_angle_gamma 90.000000
_cell_volume 3452.376752
_symmetry_space_group_name_H-M "C 2/M"
_symmetry_group_IT_number 12
_symmetry_cell_setting 'monoclinic'
loop_
_space_group_symop_operation_xyz
x,y,z
-x,y,-z
-x,-y,-z
x,-y,z
1/2+x,1/2+y,z
1/2-x,1/2+y,-z
1/2-x,1/2-y,-z
1/2+x,1/2-y,z
loop_
_atom_site_type_symbol
_atom_site_label
_atom_site_fract_x
_atom_site_fract_y
_atom_site_fract_z
Si Si1 0.123200 0.808314 0.056223
Si Si2 0.270224 0.693476 0.203410
Si Si3 0.611341 0.195517 0.468697
Si Si4 0.017872 0.194963 0.948301
Si Si5 0.644526 0.691615 0.680804
Si Si6 0.588351 0.190052 0.793514
Si Si7 0.873412 0.307096 0.451247
Si Si8 0.517771 0.806168 0.308749
O O1 0.075620 0.755120 0.037540
O O2 0.031810 0.749670 0.131671
O O3 0.121590 0.000000 0.058025
O O4 0.250000 0.750000 0.000000
O O5 0.269401 0.500000 0.205683
O O6 0.362998 0.742898 0.127292
O O7 0.316240 0.752131 0.222346
O O8 0.146953 0.746948 0.250004
O O9 0.500000 0.247843 0.500000
O O10 0.730626 0.247768 0.392909
O O11 0.601440 0.247770 0.517731
O O12 0.612683 0.000000 0.467477
O O13 0.016151 0.000000 0.950171
O O14 0.000000 0.253717 0.000000
O O15 0.646658 0.500000 0.679868
O O16 0.613801 0.749049 0.738377
O O17 0.552570 0.746881 0.693881
O O18 0.586582 0.000000 0.794078
O O19 0.876268 0.500000 0.450201
O O20 0.750000 0.250000 0.500000
O O21 0.956551 0.252768 0.377534
O O22 0.516709 0.000000 0.307960
#
# Coordination Sequence:
#
# PCOD9184923 Si02
#       8
#     8   8   8   8   8   8   8   8
#     4  10  20  36  59  87 117 151 190 231 280 335
#     4   9  19  36  57  82 110 147 189 228 279 339
#     4   9  19  34  55  81 107 141 187 234 283 342
#     4   8  15  30  53  80 109 140 179 222 264 316
#     4  11  22  37  58  81 112 148 189 238 289 346
#     4  11  23  39  58  81 114 152 192 239 287 335
#     4  10  19  34  55  79 107 142 182 230 284 341
#     4  10  21  35  56  82 113 147 187 235 284 346
#
# _framework density 18.537953000000002
#
# number of rings (size 3 to 8) (size 9 to 14) (size 15 to 20)
#    0.000    2.250    1.250    2.625    1.750    1.500 
#    0.000    2.500    0.000   11.250    0.000    0.000 
#    0.000    0.000    0.000    0.000    0.000    0.000 
#
# Total GULP energy -178545.494902 kJ/mol
# GULP energy per Si atom -5579.546716 kJ/mol
# Density = 1.849576 g / cm^3
# Si number density = 18.537953 Si / 1000 Ang^3
#
#
#
# Elastic Constant Matrix: (Units=GPa)
#
#
# Indices 1 2 3 4 5 6 
#
# 1 207.5445 29.0696 145.9324 0.0236 -0.2767 0.0569
# 2 29.0696 31.7606 30.2170 0.1277 -0.8102 -0.0306
# 3 145.9324 30.2170 165.7945 0.0102 4.5043 -0.0013
# 4 0.0236 0.1277 0.0102 18.0483 -0.0044 -2.9707
# 5 -0.2767 -0.8102 4.5043 -0.0044 44.1941 -0.0046
# 6 0.0569 -0.0306 -0.0013 -2.9707 -0.0046 28.7065
#
#
#
# Elastic Compliance Matrix: (Units=1/GPa)
#
#
# Indices 1 2 3 4 5 6 
#
# 1 0.012742 -0.001126 -0.011042 -0.000007 0.001185 -0.000027
# 2 -0.001126 0.038279 -0.006021 -0.000263 0.001308 0.000016
# 3 -0.011042 -0.006021 0.016900 0.000051 -0.001902 0.000021
# 4 -0.000007 -0.000263 0.000051 0.056369 -0.000004 0.005833
# 5 0.001185 0.001308 -0.001902 -0.000004 0.022853 0.000002
# 6 -0.000027 0.000016 0.000021 0.005833 0.000002 0.035439
#
#
# Mechanical properties :
#
#
# Convention : Reuss Voigt Hill
#
# Bulk Modulus (GPa) = 31.70365 90.61529 61.15947
# Shear Modulus (GPa) = 21.78899 31.51516 26.65207
#
# Velocity S-wave (km/s) = 3.43209 4.12762 3.79582
# Velocity P-wave (km/s) = 5.73104 8.46779 7.23008
#
# Compressibility (1/GPa) = 0.03154211
#
# Stress axis : x y z
#
# Youngs Moduli (GPa) = 78.48180 26.12404 59.17200
#
# Poissons Ratio (x) = 0.02943 0.65339
# Poissons Ratio (y) = 0.08840 0.35625
# Poissons Ratio (z) = 0.86661 0.15728
#
# Static dielectric constant tensor:
#      x y z
#    x 1.598600 0.000010 -0.027810 
#    y 0.000010 1.647600 0.000010 
#    z -0.027810 0.000010 1.606210 
# 
# From -- ./inp_files/378242.got.cif
#   From: 2010.05.17/outbox.cif.g08.bks.cpg/sg12_190_cif.got.tgz:378242.got - 2010.06.03 13:09:07.
