data_PCOD9184745
_publ_section_title
;
Structure prediction by ZEFSAII (Michael W. Deem and Ramdas Pophale) SiO2 
 PCOD9184745
Probable space group: C 2/M
;
_chemical_formula_sum "Si O2"
_cell_formula_units_Z 56
_cell_length_a 13.754206
_cell_length_b 14.484898
_cell_length_c 16.914873
_cell_angle_alpha 90.000000
_cell_angle_beta 53.209029
_cell_angle_gamma 90.000000
_cell_volume 2698.719463
_symmetry_space_group_name_H-M "C 2/M"
_symmetry_group_IT_number 12
_symmetry_cell_setting 'monoclinic'
loop_
_space_group_symop_operation_xyz
x,y,z
-x,y,-z
-x,-y,-z
x,-y,z
1/2+x,1/2+y,z
1/2-x,1/2+y,-z
1/2-x,1/2-y,-z
1/2+x,1/2-y,z
loop_
_atom_site_type_symbol
_atom_site_label
_atom_site_fract_x
_atom_site_fract_y
_atom_site_fract_z
Si Si1 0.606336 0.099703 0.347960
Si Si2 0.266794 0.608646 0.121814
Si Si3 0.112459 0.610231 0.041762
Si Si4 0.640137 0.202721 0.862690
Si Si5 0.837409 0.103405 0.665828
Si Si6 0.153325 0.348539 0.489417
Si Si7 0.885963 0.860012 0.457787
O O1 0.654147 0.117405 0.237878
O O2 0.462468 0.095490 0.425300
O O3 0.646727 0.166192 0.398565
O O4 0.657637 0.000000 0.346875
O O5 0.308246 0.500000 0.104569
O O6 0.211769 0.627418 0.061816
O O7 0.354697 0.690099 0.111012
O O8 0.085557 0.500000 0.055837
O O9 0.988299 0.669516 0.111496
O O10 0.158194 0.641919 0.933415
O O11 0.747273 0.175255 0.750693
O O12 0.850727 0.113491 0.564569
O O13 0.976794 0.112487 0.627030
O O14 0.792324 0.000000 0.705211
O O15 0.125696 0.250090 0.541673
O O16 0.279609 0.392296 0.452488
#
# Coordination Sequence:
#
# PCOD9184745 Si02
#       7
#     8   8   8   8   8   8   8
#     4  10  20  34  54  79 110 149 198 246 286 338
#     4  10  22  40  63  91 123 159 201 250 305 363
#     4  10  22  41  67  96 120 155 207 252 299 361
#     4  11  21  40  65  91 123 156 199 254 304 357
#     4  11  22  36  55  84 121 158 194 243 302 359
#     4  10  19  34  54  78 109 156 201 243 287 348
#     4  10  21  34  53  80 118 153 195 240 292 353
#
# _framework density 20.750582999999999
#
# number of rings (size 3 to 8) (size 9 to 14) (size 15 to 20)
#    0.000    1.714    0.000    7.286    2.000    2.286 
#    2.571    1.429    0.000    1.714    0.000    0.000 
#    0.000    0.000    0.000    0.000    0.000    0.000 
#
# Total GULP energy -156129.543344 kJ/mol
# GULP energy per Si atom -5576.055119 kJ/mol
# Density = 2.070335 g / cm^3
# Si number density = 20.750583 Si / 1000 Ang^3
#
#
#
# Elastic Constant Matrix: (Units=GPa)
#
#
# Indices 1 2 3 4 5 6 
#
# 1 51.3501 15.0867 -5.0949 0.0000 -8.4030 0.0000
# 2 15.0867 127.3657 -2.4469 0.0000 -7.8520 0.0000
# 3 -5.0949 -2.4469 65.2865 0.0000 -10.4078 0.0000
# 4 0.0000 0.0000 0.0000 27.1077 0.0000 6.2041
# 5 -8.4030 -7.8520 -10.4078 0.0000 13.1929 0.0000
# 6 0.0000 0.0000 0.0000 6.2041 0.0000 27.4176
#
#
#
# Elastic Compliance Matrix: (Units=1/GPa)
#
#
# Indices 1 2 3 4 5 6 
#
# 1 0.023245 -0.001591 0.004534 0.000000 0.017435 0.000000
# 2 -0.001591 0.008347 0.000937 0.000000 0.004694 0.000000
# 3 0.004534 0.000937 0.018594 0.000000 0.018114 0.000000
# 4 0.000000 0.000000 0.000000 0.038905 0.000000 -0.008803
# 5 0.017435 0.004694 0.018114 0.000000 0.103987 0.000000
# 6 0.000000 0.000000 0.000000 -0.008803 0.000000 0.038465
#
#
# Mechanical properties :
#
#
# Convention : Reuss Voigt Hill
#
# Bulk Modulus (GPa) = 17.25803 28.78799 23.02301
# Shear Modulus (GPa) = 20.56781 29.30748 24.93764
#
# Velocity S-wave (km/s) = 3.15174 3.76223 3.47043
# Velocity P-wave (km/s) = 4.64538 5.72503 5.21323
#
# Compressibility (1/GPa) = 0.05794405
#
# Stress axis : x y z
#
# Youngs Moduli (GPa) = 43.02078 119.79976 53.78161
#
# Poissons Ratio (x) = 0.19065 -0.24383
# Poissons Ratio (y) = 0.06846 -0.05039
# Poissons Ratio (z) = -0.19505 -0.11224
#
# Static dielectric constant tensor:
#      x y z
#    x 1.771620 0.000000 -0.000620 
#    y 0.000000 1.818070 0.000000 
#    z -0.000620 0.000000 1.707550 
# 
# From -- ./inp_files/270168.got.cif
#   From: 2010.05.17/outbox.cif.g08.bks.cpg/sg12_136_cif.got.tgz:270168.got - 2010.06.03 13:09:07.
