data_PCOD9184296
_publ_section_title
;
Structure prediction by ZEFSAII (Michael W. Deem and Ramdas Pophale) SiO2 
 PCOD9184296
Probable space group: C 2/M
;
_chemical_formula_sum "Si O2"
_cell_formula_units_Z 56
_cell_length_a 15.595737
_cell_length_b 8.760687
_cell_length_c 24.156300
_cell_angle_alpha 90.000000
_cell_angle_beta 116.347643
_cell_angle_gamma 90.000000
_cell_volume 2957.600661
_symmetry_space_group_name_H-M "C 2/M"
_symmetry_group_IT_number 12
_symmetry_cell_setting 'monoclinic'
loop_
_space_group_symop_operation_xyz
x,y,z
-x,y,-z
-x,-y,-z
x,-y,z
1/2+x,1/2+y,z
1/2-x,1/2+y,-z
1/2-x,1/2-y,-z
1/2+x,1/2-y,z
loop_
_atom_site_type_symbol
_atom_site_label
_atom_site_fract_x
_atom_site_fract_y
_atom_site_fract_z
Si Si1 0.095053 0.316617 0.493218
Si Si2 0.763874 0.183732 0.379863
Si Si3 0.853025 0.182922 0.289285
Si Si4 0.229610 0.817057 0.155268
Si Si5 0.022853 0.316179 0.070671
Si Si6 0.558974 0.815959 0.355662
Si Si7 0.676793 0.184065 0.934074
O O1 0.103535 0.500000 0.497254
O O2 0.184525 0.246079 0.550752
O O3 0.081756 0.271214 0.425761
O O4 0.000000 0.272280 0.500000
O O5 0.819541 0.235433 0.340927
O O6 0.652391 0.227618 0.347334
O O7 0.767655 0.000000 0.383173
O O8 0.780684 0.246412 0.223043
O O9 0.959939 0.241979 0.309311
O O10 0.851407 0.000000 0.288120
O O11 0.121136 0.760408 0.117303
O O12 0.288111 0.770275 0.116757
O O13 0.231564 0.000000 0.159405
O O14 0.033649 0.500000 0.077245
O O15 0.931049 0.269938 0.080877
O O16 0.000000 0.278535 0.000000
O O17 0.548501 0.000000 0.351015
O O18 0.680438 0.000000 0.938429
O O19 0.750000 0.250000 0.000000
#
# Coordination Sequence:
#
# PCOD9184296 Si02
#       7
#     8   8   8   8   8   8   8
#     4  10  19  33  58  89 117 149 188 239 295 344
#     4  10  22  38  59  85 115 153 195 241 289 342
#     4  11  24  41  59  82 114 155 199 240 285 341
#     4  11  24  40  60  87 119 154 192 237 287 341
#     4  10  20  37  62  89 118 151 185 229 283 338
#     4  10  21  39  60  84 117 153 192 239 293 345
#     4  10  21  37  60  89 118 149 185 229 283 338
#
# _framework density 18.934267999999999
#
# number of rings (size 3 to 8) (size 9 to 14) (size 15 to 20)
#    0.000    1.714    2.857    1.286    0.000    4.571 
#    0.000    5.714    0.000    0.000    0.000    0.000 
#    0.000    0.000    0.000    0.000    0.000    0.000 
#
# Total GULP energy -156439.787334 kJ/mol
# GULP energy per Si atom -5587.135262 kJ/mol
# Density = 1.889117 g / cm^3
# Si number density = 18.934268 Si / 1000 Ang^3
#
#
#
# Elastic Constant Matrix: (Units=GPa)
#
#
# Indices 1 2 3 4 5 6 
#
# 1 118.7721 23.0493 29.2568 0.0000 30.8154 0.0000
# 2 23.0493 15.8146 24.0345 0.0000 10.4252 0.0000
# 3 29.2568 24.0345 98.8922 0.0000 29.2680 0.0000
# 4 0.0000 0.0000 0.0000 34.5707 0.0000 9.1780
# 5 30.8154 10.4252 29.2680 0.0000 30.5932 0.0000
# 6 0.0000 0.0000 0.0000 9.1780 0.0000 27.2813
#
#
#
# Elastic Compliance Matrix: (Units=1/GPa)
#
#
# Indices 1 2 3 4 5 6 
#
# 1 0.014086 -0.018725 0.003758 0.000000 -0.011403 0.000000
# 2 -0.018725 0.130453 -0.025933 0.000000 -0.000783 0.000000
# 3 0.003758 -0.025933 0.019262 0.000000 -0.013376 0.000000
# 4 0.000000 0.000000 0.000000 0.031763 0.000000 -0.010686
# 5 -0.011403 -0.000783 -0.013376 0.000000 0.057236 0.000000
# 6 0.000000 0.000000 0.000000 -0.010686 0.000000 0.040250
#
#
# Mechanical properties :
#
#
# Convention : Reuss Voigt Hill
#
# Bulk Modulus (GPa) = 12.19497 42.90667 27.55082
# Shear Modulus (GPa) = 12.43214 28.96493 20.69853
#
# Velocity S-wave (km/s) = 2.56519 3.91546 3.30991
# Velocity P-wave (km/s) = 3.90234 6.56895 5.40275
#
# Compressibility (1/GPa) = 0.08200099
#
# Stress axis : x y z
#
# Youngs Moduli (GPa) = 70.99228 7.66558 51.91696
#
# Poissons Ratio (x) = 0.14354 -0.19512
# Poissons Ratio (y) = 1.32932 1.34639
# Poissons Ratio (z) = -0.26682 0.19879
#
# Static dielectric constant tensor:
#      x y z
#    x 1.668480 0.000000 -0.018520 
#    y 0.000000 1.637960 0.000000 
#    z -0.018520 0.000000 1.616680 
# 
# From -- ./inp_files/309072.got.cif
#   From: 2010.05.17/outbox.cif.g08.bks.cpg/sg12_155_cif.got.tgz:309072.got - 2010.06.03 13:09:07.
