data_PCOD9184380
_publ_section_title
;
Structure prediction by ZEFSAII (Michael W. Deem and Ramdas Pophale) SiO2 
 PCOD9184380
Probable space group: C 2/M
;
_chemical_formula_sum "Si O2"
_cell_formula_units_Z 48
_cell_length_a 20.307022
_cell_length_b 13.938895
_cell_length_c 11.941785
_cell_angle_alpha 90.000000
_cell_angle_beta 134.147716
_cell_angle_gamma 90.000000
_cell_volume 2425.458673
_symmetry_space_group_name_H-M "C 2/M"
_symmetry_group_IT_number 12
_symmetry_cell_setting 'monoclinic'
loop_
_space_group_symop_operation_xyz
x,y,z
-x,y,-z
-x,-y,-z
x,-y,z
1/2+x,1/2+y,z
1/2-x,1/2+y,-z
1/2-x,1/2-y,-z
1/2+x,1/2-y,z
loop_
_atom_site_type_symbol
_atom_site_label
_atom_site_fract_x
_atom_site_fract_y
_atom_site_fract_z
Si Si1 0.709354 0.217269 0.790762
Si Si2 0.297424 0.718459 0.671816
Si Si3 0.604973 0.106349 0.086252
Si Si4 0.553236 0.390046 0.280060
Si Si5 0.606846 0.232687 0.877561
Si Si6 0.897356 0.891979 0.409293
O O1 0.729026 0.179629 0.688467
O O2 0.627627 0.190458 0.778854
O O3 0.680931 0.327868 0.735621
O O4 0.803014 0.210171 0.971392
O O5 0.250000 0.750000 0.500000
O O6 0.344122 0.812753 0.780968
O O7 0.377587 0.643771 0.734860
O O8 0.646412 0.000000 0.145559
O O9 0.500000 0.102243 0.000000
O O10 0.599611 0.144910 0.953912
O O11 0.519674 0.500000 0.223310
O O12 0.475652 0.308463 0.205456
O O13 0.607476 0.390825 0.462492
O O14 0.000000 0.856507 0.500000
O O15 0.892161 0.000000 0.360190
#
# Coordination Sequence:
#
# PCOD9184380 Si02
#       6
#     8   8   8   8   8   8
#     4  10  21  35  56  86 127 159 196 247 302 366
#     4  11  22  38  60  94 128 159 198 250 314 372
#     4  10  21  39  63  84 109 153 210 253 289 354
#     4  11  22  38  62  92 126 161 202 253 309 373
#     4  10  21  39  58  88 122 162 204 247 307 361
#     4  10  19  33  59  94 122 155 202 252 307 364
#
# _framework density 19.790071999999999
#
# number of rings (size 3 to 8) (size 9 to 14) (size 15 to 20)
#    0.000    1.667    5.000    0.000    0.000    3.333 
#    0.000   11.667    0.000    0.000    0.000    3.500 
#    0.000    0.000    0.000    0.000    0.000    0.000 
#
# Total GULP energy -133712.073028 kJ/mol
# GULP energy per Si atom -5571.336376 kJ/mol
# Density = 1.974503 g / cm^3
# Si number density = 19.790072 Si / 1000 Ang^3
#
#
#
# Elastic Constant Matrix: (Units=GPa)
#
#
# Indices 1 2 3 4 5 6 
#
# 1 151.3072 27.5418 24.6698 0.0000 -31.8752 0.0000
# 2 27.5418 64.2628 21.1456 0.0000 -6.0199 0.0000
# 3 24.6698 21.1456 63.8527 0.0000 -12.0447 0.0000
# 4 0.0000 0.0000 0.0000 23.0207 0.0000 -1.9359
# 5 -31.8752 -6.0199 -12.0447 0.0000 37.8005 0.0000
# 6 0.0000 0.0000 0.0000 -1.9359 0.0000 14.1007
#
#
#
# Elastic Compliance Matrix: (Units=1/GPa)
#
#
# Indices 1 2 3 4 5 6 
#
# 1 0.008668 -0.002702 -0.001230 0.000000 0.006487 0.000000
# 2 -0.002702 0.018342 -0.005223 0.000000 -0.001022 0.000000
# 3 -0.001230 -0.005223 0.018633 0.000000 0.004068 0.000000
# 4 0.000000 0.000000 0.000000 0.043947 0.000000 0.006033
# 5 0.006487 -0.001022 0.004068 0.000000 0.033058 0.000000
# 6 0.000000 0.000000 0.000000 0.006033 0.000000 0.071747
#
#
# Mechanical properties :
#
#
# Convention : Reuss Voigt Hill
#
# Bulk Modulus (GPa) = 36.58680 47.34854 41.96767
# Shear Modulus (GPa) = 22.54100 28.72206 25.63153
#
# Velocity S-wave (km/s) = 3.37858 3.81377 3.60275
# Velocity P-wave (km/s) = 5.80924 6.58563 6.20958
#
# Compressibility (1/GPa) = 0.02733226
#
# Stress axis : x y z
#
# Youngs Moduli (GPa) = 115.36435 54.51909 53.66706
#
# Poissons Ratio (x) = 0.14734 0.06603
# Poissons Ratio (y) = 0.31177 0.28030
# Poissons Ratio (z) = 0.14194 0.28475
#
# Static dielectric constant tensor:
#      x y z
#    x 1.814940 0.000000 -0.000610 
#    y 0.000000 1.678060 0.000000 
#    z -0.000610 0.000000 1.701500 
# 
# From -- ./inp_files/166862.got.cif
#   From: 2010.05.17/outbox.cif.g08.bks.cpg/sg12_84_cif.got.tgz:166862.got - 2010.06.03 13:09:07.
