data_PCOD9184539
_publ_section_title
;
Structure prediction by ZEFSAII (Michael W. Deem and Ramdas Pophale) SiO2 
 PCOD9184539
Probable space group: C 2/M
;
_chemical_formula_sum "Si O2"
_cell_formula_units_Z 64
_cell_length_a 21.175802
_cell_length_b 13.409133
_cell_length_c 12.235100
_cell_angle_alpha 90.000000
_cell_angle_beta 103.922822
_cell_angle_gamma 90.000000
_cell_volume 3372.078265
_symmetry_space_group_name_H-M "C 2/M"
_symmetry_group_IT_number 12
_symmetry_cell_setting 'monoclinic'
loop_
_space_group_symop_operation_xyz
x,y,z
-x,y,-z
-x,-y,-z
x,-y,z
1/2+x,1/2+y,z
1/2-x,1/2+y,-z
1/2-x,1/2-y,-z
1/2+x,1/2-y,z
loop_
_atom_site_type_symbol
_atom_site_label
_atom_site_fract_x
_atom_site_fract_y
_atom_site_fract_z
Si Si1 0.661408 0.386719 0.379735
Si Si2 0.470578 0.257196 0.239698
Si Si3 0.156116 0.883013 0.780297
Si Si4 0.053798 0.889203 0.140806
Si Si5 0.739460 0.207227 0.735785
Si Si6 0.937507 0.221923 0.526024
Si Si7 0.173312 0.884335 0.044106
Si Si8 0.103177 0.613361 0.668084
O O1 0.685136 0.500000 0.406046
O O2 0.605557 0.391622 0.262593
O O3 0.716323 0.315460 0.351410
O O4 0.624784 0.343443 0.470144
O O5 0.417153 0.338960 0.258309
O O6 0.502958 0.302733 0.145885
O O7 0.530995 0.241697 0.347340
O O8 0.429686 0.156096 0.234576
O O9 0.205230 0.814682 0.731287
O O10 0.157909 0.000000 0.755759
O O11 0.175713 0.867949 0.915989
O O12 0.023162 0.000000 0.126057
O O13 0.900727 0.874150 0.944619
O O14 0.782607 0.185145 0.861387
O O15 0.679991 0.129411 0.710050
O O16 0.920051 0.313431 0.439452
O O17 0.000000 0.165798 0.500000
O O18 0.191544 0.000000 0.074263
O O19 0.085708 0.500000 0.640195
#
# Coordination Sequence:
#
# PCOD9184539 Si02
#       8
#     8   8   8   8   8   8   8   8
#     4   9  17  31  52  75 100 130 163 203 249 298
#     4   9  18  31  48  71 101 131 163 205 252 298
#     4  10  20  32  49  76 107 136 168 206 249 296
#     4   8  14  27  48  73 101 130 162 202 249 298
#     4  10  19  34  52  73 103 136 170 205 243 294
#     4   9  19  34  51  75  99 125 162 205 251 299
#     4   9  17  30  52  79 103 133 169 207 252 297
#     4  10  20  34  53  74  97 131 172 209 246 294
#
# _framework density 18.979393000000002
#
# number of rings (size 3 to 8) (size 9 to 14) (size 15 to 20)
#    0.000    2.750    0.000    2.625    0.000    4.000 
#    0.000    9.375    0.000    6.000    0.000    3.500 
#    0.000    0.000    0.000    0.000    0.000    0.000 
#
# Total GULP energy -178247.348922 kJ/mol
# GULP energy per Si atom -5570.229654 kJ/mol
# Density = 1.893620 g / cm^3
# Si number density = 18.979393 Si / 1000 Ang^3
#
#
#
# Elastic Constant Matrix: (Units=GPa)
#
#
# Indices 1 2 3 4 5 6 
#
# 1 104.6546 57.8997 21.1747 0.0000 -21.2560 0.0000
# 2 57.8997 114.1327 25.9642 0.0000 -15.6848 0.0000
# 3 21.1747 25.9642 47.2423 0.0000 10.0832 0.0000
# 4 0.0000 0.0000 0.0000 17.5202 0.0000 -3.5049
# 5 -21.2560 -15.6848 10.0832 0.0000 28.6830 0.0000
# 6 0.0000 0.0000 0.0000 -3.5049 0.0000 17.4034
#
#
#
# Elastic Compliance Matrix: (Units=1/GPa)
#
#
# Indices 1 2 3 4 5 6 
#
# 1 0.016080 -0.004974 -0.006958 0.000000 0.011642 0.000000
# 2 -0.004974 0.013605 -0.006539 0.000000 0.006052 0.000000
# 3 -0.006958 -0.006539 0.032156 0.000000 -0.020036 0.000000
# 4 0.000000 0.000000 0.000000 0.059473 0.000000 0.011977
# 5 0.011642 0.006052 -0.020036 0.000000 0.053844 0.000000
# 6 0.000000 0.000000 0.000000 0.011977 0.000000 0.059872
#
#
# Mechanical properties :
#
#
# Convention : Reuss Voigt Hill
#
# Bulk Modulus (GPa) = 40.16441 52.90076 46.53259
# Shear Modulus (GPa) = 17.83981 23.45406 20.64694
#
# Velocity S-wave (km/s) = 3.06920 3.51916 3.30185
# Velocity P-wave (km/s) = 5.81103 6.66677 6.25356
#
# Compressibility (1/GPa) = 0.02489766
#
# Stress axis : x y z
#
# Youngs Moduli (GPa) = 62.19027 73.50493 31.09801
#
# Poissons Ratio (x) = 0.36565 0.21638
# Poissons Ratio (y) = 0.30936 0.20335
# Poissons Ratio (z) = 0.43272 0.48065
#
# Static dielectric constant tensor:
#      x y z
#    x 1.686320 0.000000 -0.012740 
#    y 0.000000 1.641380 0.000000 
#    z -0.012740 0.000000 1.718750 
# 
# From -- ./inp_files/232530.got.cif
#   From: 2010.05.17/outbox.cif.g08.bks.cpg/sg12_117_cif.got.tgz:232530.got - 2010.06.03 13:09:07.
