data_PCOD9184100
_publ_section_title
;
Structure prediction by ZEFSAII (Michael W. Deem and Ramdas Pophale) SiO2 
 PCOD9184100
Probable space group: C 2/M
;
_chemical_formula_sum "Si O2"
_cell_formula_units_Z 48
_cell_length_a 27.844103
_cell_length_b 7.575443
_cell_length_c 11.816933
_cell_angle_alpha 90.000000
_cell_angle_beta 57.549685
_cell_angle_gamma 90.000000
_cell_volume 2103.366372
_symmetry_space_group_name_H-M "C 2/M"
_symmetry_group_IT_number 12
_symmetry_cell_setting 'monoclinic'
loop_
_space_group_symop_operation_xyz
x,y,z
-x,y,-z
-x,-y,-z
x,-y,z
1/2+x,1/2+y,z
1/2-x,1/2+y,-z
1/2-x,1/2-y,-z
1/2+x,1/2-y,z
loop_
_atom_site_type_symbol
_atom_site_label
_atom_site_fract_x
_atom_site_fract_y
_atom_site_fract_z
Si Si1 0.384857 0.713744 0.822724
Si Si2 0.619000 0.794161 0.422229
Si Si3 0.557403 0.714550 0.860434
Si Si4 0.513675 0.294527 0.679798
Si Si5 0.336427 0.283878 0.123038
Si Si6 0.229361 0.288064 0.399609
O O1 0.385049 0.500000 0.822306
O O2 0.361272 0.771003 0.731533
O O3 0.450471 0.779847 0.746584
O O4 0.351078 0.771800 0.976981
O O5 0.556603 0.714919 0.520882
O O6 0.667036 0.718686 0.445251
O O7 0.611901 0.000000 0.454032
O O8 0.561514 0.500000 0.854447
O O9 0.548059 0.778425 0.744485
O O10 0.612918 0.775488 0.857204
O O11 0.500000 0.760216 0.000000
O O12 0.503862 0.500000 0.718223
O O13 0.336576 0.500000 0.122864
O O14 0.276830 0.224889 0.250770
O O15 0.226455 0.500000 0.392167
O O16 0.250000 0.250000 0.500000
#
# Coordination Sequence:
#
# PCOD9184100 Si02
#       6
#     8   8   8   8   8   8
#     4  10  20  35  57  84 109 138 186 236 273 316
#     4  11  24  38  52  76 114 153 184 216 267 332
#     4   9  14  25  50  84 110 126 160 222 283 317
#     4  10  19  33  57  85 110 140 185 233 272 318
#     4   9  17  32  55  82 111 139 174 228 280 318
#     4  10  22  40  60  82 109 143 182 223 271 327
#
# _framework density 22.82056
#
# number of rings (size 3 to 8) (size 9 to 14) (size 15 to 20)
#    0.000    2.167    1.667    2.000    0.000    6.000 
#    0.000    0.833    0.000    1.500    0.000    0.000 
#    0.000    0.000    0.000    0.000    0.000    0.000 
#
# Total GULP energy -134098.995969 kJ/mol
# GULP energy per Si atom -5587.458165 kJ/mol
# Density = 2.276862 g / cm^3
# Si number density = 22.820560 Si / 1000 Ang^3
#
#
#
# Elastic Constant Matrix: (Units=GPa)
#
#
# Indices 1 2 3 4 5 6 
#
# 1 87.0658 1.1405 36.1863 0.0000 0.0841 0.0000
# 2 1.1405 51.4939 -7.9776 0.0000 -3.6428 0.0000
# 3 36.1863 -7.9776 117.7810 0.0000 0.0963 0.0000
# 4 0.0000 0.0000 0.0000 8.9668 0.0000 6.2367
# 5 0.0841 -3.6428 0.0963 0.0000 41.6222 0.0000
# 6 0.0000 0.0000 0.0000 6.2367 0.0000 4.5496
#
#
#
# Elastic Compliance Matrix: (Units=1/GPa)
#
#
# Indices 1 2 3 4 5 6 
#
# 1 0.013211 -0.000938 -0.004122 0.000000 -0.000099 0.000000
# 2 -0.000938 0.019815 0.001629 0.000000 0.001732 0.000000
# 3 -0.004122 0.001629 0.009867 0.000000 0.000128 0.000000
# 4 0.000000 0.000000 0.000000 2.395000 0.000000 -3.283081
# 5 -0.000099 0.001732 0.000128 0.000000 0.024177 0.000000
# 6 0.000000 0.000000 0.000000 -3.283081 0.000000 4.720265
#
#
# Mechanical properties :
#
#
# Convention : Reuss Voigt Hill
#
# Bulk Modulus (GPa) = 27.75428 35.00435 31.37931
# Shear Modulus (GPa) = 0.69433 26.16050 13.42741
#
# Velocity S-wave (km/s) = 0.55219 3.38946 2.42831
# Velocity P-wave (km/s) = 3.54893 5.53987 4.65216
#
# Compressibility (1/GPa) = 0.03603048
#
# Stress axis : x y z
#
# Youngs Moduli (GPa) = 75.69268 50.46562 101.34669
#
# Poissons Ratio (x) = 0.04735 0.41780
# Poissons Ratio (y) = 0.07102 -0.16509
# Poissons Ratio (z) = 0.31204 -0.08221
#
# Static dielectric constant tensor:
#      x y z
#    x 1.855950 0.000000 0.003690 
#    y 0.000000 1.891950 0.000000 
#    z 0.003690 0.000000 1.833250 
# 
# From -- ./inp_files/172390.got.cif
#   From: 2010.05.17/outbox.cif.g08.bks.cpg/sg12_87_cif.got.tgz:172390.got - 2010.06.03 13:09:07.
