data_PCOD9184777
_publ_section_title
;
Structure prediction by ZEFSAII (Michael W. Deem and Ramdas Pophale) SiO2 
 PCOD9184777
Probable space group: C 2/M
;
_chemical_formula_sum "Si O2"
_cell_formula_units_Z 60
_cell_length_a 9.166467
_cell_length_b 18.941915
_cell_length_c 24.266021
_cell_angle_alpha 90.000000
_cell_angle_beta 53.693888
_cell_angle_gamma 90.000000
_cell_volume 3395.367546
_symmetry_space_group_name_H-M "C 2/M"
_symmetry_group_IT_number 12
_symmetry_cell_setting 'monoclinic'
loop_
_space_group_symop_operation_xyz
x,y,z
-x,y,-z
-x,-y,-z
x,-y,z
1/2+x,1/2+y,z
1/2-x,1/2+y,-z
1/2-x,1/2-y,-z
1/2+x,1/2-y,z
loop_
_atom_site_type_symbol
_atom_site_label
_atom_site_fract_x
_atom_site_fract_y
_atom_site_fract_z
Si Si1 0.500000 0.269009 0.500000
Si Si2 0.401006 0.581930 0.208924
Si Si3 0.383732 0.793110 0.726840
Si Si4 0.957637 0.079633 0.699413
Si Si5 0.618281 0.833515 0.778013
Si Si6 0.216688 0.681135 0.078890
Si Si7 0.572728 0.333122 0.073636
Si Si8 0.393318 0.702755 0.405407
O O1 0.528952 0.310280 0.550793
O O2 0.683756 0.223846 0.454251
O O3 0.351059 0.500000 0.210255
O O4 0.230788 0.635122 0.252044
O O5 0.503397 0.586024 0.244295
O O6 0.526567 0.611526 0.131614
O O7 0.526728 0.802802 0.743608
O O8 0.244118 0.729947 0.772605
O O9 0.489806 0.766037 0.648960
O O10 0.751314 0.102565 0.735507
O O11 0.076843 0.135689 0.639846
O O12 0.994159 0.000000 0.674107
O O13 0.457645 0.854144 0.854848
O O14 0.383814 0.681524 0.083986
O O15 0.153785 0.761327 0.080933
O O16 0.287368 0.646948 0.006344
#
# Coordination Sequence:
#
# PCOD9184777 Si02
#       8
#     4   8   8   8   8   8   8   8
#     4  10  20  36  60  90 112 140 178 220 270 324
#     4  11  22  37  54  78 114 152 192 238 285 333
#     4  11  20  34  59  86 110 145 185 230 281 325
#     4  10  23  39  57  82 116 151 186 231 281 325
#     4  11  19  33  58  83 109 144 191 239 279 331
#     4  10  19  34  54  80 108 142 188 238 286 338
#     4  10  21  34  52  82 108 143 189 237 292 333
#     4  10  20  36  60  86 115 142 179 225 268 328
#
# _framework density 17.671135
#
# number of rings (size 3 to 8) (size 9 to 14) (size 15 to 20)
#    0.000    1.600    2.667    4.000    1.867    0.533 
#    0.000    2.667    0.000    4.800    0.000    0.000 
#    0.000    0.000    0.000    0.000    0.000    0.000 
#
# Total GULP energy -167380.326899 kJ/mol
# GULP energy per Si atom -5579.344230 kJ/mol
# Density = 1.763091 g / cm^3
# Si number density = 17.671135 Si / 1000 Ang^3
#
#
#
# Elastic Constant Matrix: (Units=GPa)
#
#
# Indices 1 2 3 4 5 6 
#
# 1 63.2439 19.1010 24.0996 -0.0003 2.4498 0.0003
# 2 19.1010 89.0148 37.7951 -0.0002 4.2739 0.0002
# 3 24.0996 37.7951 112.4740 -0.0005 -2.1279 0.0006
# 4 -0.0003 -0.0002 -0.0005 13.5187 0.0003 7.5208
# 5 2.4498 4.2739 -2.1279 0.0003 35.1284 -0.0003
# 6 0.0003 0.0002 0.0006 7.5208 -0.0003 12.6444
#
#
#
# Elastic Compliance Matrix: (Units=1/GPa)
#
#
# Indices 1 2 3 4 5 6 
#
# 1 0.017744 -0.002485 -0.002988 0.000001 -0.001116 -0.000001
# 2 -0.002485 0.013575 -0.004062 0.000000 -0.001724 0.000000
# 3 -0.002988 -0.004062 0.010922 0.000001 0.001364 -0.000001
# 4 0.000001 0.000000 0.000001 0.110553 -0.000002 -0.065756
# 5 -0.001116 -0.001724 0.001364 -0.000002 0.028837 0.000002
# 6 -0.000001 0.000000 -0.000001 -0.065756 0.000002 0.118198
#
#
# Mechanical properties :
#
#
# Convention : Reuss Voigt Hill
#
# Bulk Modulus (GPa) = 43.15767 47.41379 45.28573
# Shear Modulus (GPa) = 15.30820 24.50743 19.90782
#
# Velocity S-wave (km/s) = 2.94646 3.72810 3.36009
# Velocity P-wave (km/s) = 6.00427 6.73952 6.38249
#
# Compressibility (1/GPa) = 0.02317085
#
# Stress axis : x y z
#
# Youngs Moduli (GPa) = 56.35628 73.66625 91.55966
#
# Poissons Ratio (x) = 0.18309 0.27358
# Poissons Ratio (y) = 0.14006 0.37188
# Poissons Ratio (z) = 0.16839 0.29921
#
# Static dielectric constant tensor:
#      x y z
#    x 1.603360 0.000000 0.006200 
#    y 0.000000 1.576700 0.000000 
#    z 0.006200 0.000000 1.637470 
# 
# From -- ./inp_files/333349.got.cif
#   From: 2010.05.17/outbox.cif.g08.bks.cpg/sg12_167_cif.got.tgz:333349.got - 2010.06.03 13:09:07.
