data_PCOD9184352
_publ_section_title
;
Structure prediction by ZEFSAII (Michael W. Deem and Ramdas Pophale) SiO2 
 PCOD9184352
Probable space group: C 2/M
;
_chemical_formula_sum "Si O2"
_cell_formula_units_Z 64
_cell_length_a 25.269340
_cell_length_b 23.126226
_cell_length_c 11.250170
_cell_angle_alpha 90.000000
_cell_angle_beta 32.131570
_cell_angle_gamma 90.000000
_cell_volume 3496.708075
_symmetry_space_group_name_H-M "C 2/M"
_symmetry_group_IT_number 12
_symmetry_cell_setting 'monoclinic'
loop_
_space_group_symop_operation_xyz
x,y,z
-x,y,-z
-x,-y,-z
x,-y,z
1/2+x,1/2+y,z
1/2-x,1/2+y,-z
1/2-x,1/2-y,-z
1/2+x,1/2-y,z
loop_
_atom_site_type_symbol
_atom_site_label
_atom_site_fract_x
_atom_site_fract_y
_atom_site_fract_z
Si Si1 0.354582 0.932371 0.178805
Si Si2 0.004462 0.066764 0.347928
Si Si3 0.583527 0.067048 0.668976
Si Si4 0.049928 0.771516 0.778746
Si Si5 0.152312 0.320349 0.427328
Si Si6 0.115916 0.822827 0.075649
Si Si7 0.172942 0.862562 0.422343
Si Si8 0.850061 0.229524 0.745958
O O1 0.363467 0.923054 0.303992
O O2 0.276109 0.890289 0.266115
O O3 0.327130 0.000000 0.212826
O O4 0.465741 0.924660 0.916081
O O5 0.000000 0.072833 0.500000
O O6 0.901695 0.088420 0.484306
O O7 0.023568 0.000000 0.284788
O O8 0.086239 0.109938 0.138144
O O9 0.621742 0.113734 0.502847
O O10 0.599525 0.000000 0.605306
O O11 0.110562 0.715764 0.618773
O O12 0.123361 0.826631 0.625088
O O13 0.000000 0.763235 0.000000
O O14 0.959673 0.787582 0.862276
O O15 0.271263 0.315584 0.183338
O O16 0.106586 0.285854 0.401686
O O17 0.095651 0.800469 0.247989
O O18 0.175733 0.815946 0.309423
O O19 0.750000 0.250000 0.000000
#
# Coordination Sequence:
#
# PCOD9184352 Si02
#       8
#     8   8   8   8   8   8   8   8
#     4   9  19  36  58  82 112 151 194 239 286 341
#     4  10  19  33  59  88 114 151 193 233 283 342
#     4   9  20  38  57  82 114 150 194 238 286 346
#     4  10  24  37  54  90 119 149 189 238 287 340
#     4  10  22  36  60  84 108 154 192 232 290 343
#     4  10  21  40  59  79 126 152 188 242 281 344
#     4  10  19  35  60  82 117 150 188 240 289 341
#     4   9  19  37  54  85 109 147 191 227 287 338
#
# _framework density 18.302928999999999
#
# number of rings (size 3 to 8) (size 9 to 14) (size 15 to 20)
#    0.000    2.375    1.250    1.125    3.500    4.000 
#    0.000    1.250    0.000    1.875    0.000    8.750 
#    0.000    0.000    0.000    0.000    0.000    0.000 
#
# Total GULP energy -178418.712649 kJ/mol
# GULP energy per Si atom -5575.584770 kJ/mol
# Density = 1.826127 g / cm^3
# Si number density = 18.302929 Si / 1000 Ang^3
#
#
#
# Elastic Constant Matrix: (Units=GPa)
#
#
# Indices 1 2 3 4 5 6 
#
# 1 75.8368 62.4283 44.7125 0.0000 0.1763 0.0000
# 2 62.4283 126.1054 60.9031 0.0000 -0.7511 0.0000
# 3 44.7125 60.9031 101.8723 0.0000 10.8531 0.0000
# 4 0.0000 0.0000 0.0000 28.4261 0.0000 0.6113
# 5 0.1763 -0.7511 10.8531 0.0000 24.8660 0.0000
# 6 0.0000 0.0000 0.0000 0.6113 0.0000 15.8065
#
#
#
# Elastic Compliance Matrix: (Units=1/GPa)
#
#
# Indices 1 2 3 4 5 6 
#
# 1 0.023878 -0.009361 -0.005072 0.000000 0.001762 0.000000
# 2 -0.009361 0.015100 -0.005217 0.000000 0.002800 0.000000
# 3 -0.005072 -0.005217 0.015914 0.000000 -0.007068 0.000000
# 4 0.000000 0.000000 0.000000 0.035208 0.000000 -0.001362
# 5 0.001762 0.002800 -0.007068 0.000000 0.043372 0.000000
# 6 0.000000 0.000000 0.000000 -0.001362 0.000000 0.063318
#
#
# Mechanical properties :
#
#
# Convention : Reuss Voigt Hill
#
# Bulk Modulus (GPa) = 64.13106 71.10024 67.61565
# Shear Modulus (GPa) = 20.72208 22.87110 21.79659
#
# Velocity S-wave (km/s) = 3.36843 3.53878 3.45466
# Velocity P-wave (km/s) = 7.08824 7.45842 7.27569
#
# Compressibility (1/GPa) = 0.01559307
#
# Stress axis : x y z
#
# Youngs Moduli (GPa) = 41.87927 66.22346 62.83701
#
# Poissons Ratio (x) = 0.61992 0.31868
# Poissons Ratio (y) = 0.39203 0.32784
# Poissons Ratio (z) = 0.21239 0.34550
#
# Static dielectric constant tensor:
#      x y z
#    x 1.657250 0.000000 -0.004880 
#    y 0.000000 1.636050 0.000000 
#    z -0.004880 0.000000 1.629310 
# 
# From -- ./inp_files/184704.got.cif
#   From: 2010.05.17/outbox.cif.g08.bks.cpg/sg12_93_cif.got.tgz:184704.got - 2010.06.03 13:09:07.
