data_PCOD9184979
_publ_section_title
;
Structure prediction by ZEFSAII (Michael W. Deem and Ramdas Pophale) SiO2 
 PCOD9184979
Probable space group: C 2/M
;
_chemical_formula_sum "Si O2"
_cell_formula_units_Z 56
_cell_length_a 30.815311
_cell_length_b 8.795990
_cell_length_c 12.693013
_cell_angle_alpha 90.000000
_cell_angle_beta 106.008143
_cell_angle_gamma 90.000000
_cell_volume 3307.043751
_symmetry_space_group_name_H-M "C 2/M"
_symmetry_group_IT_number 12
_symmetry_cell_setting 'monoclinic'
loop_
_space_group_symop_operation_xyz
x,y,z
-x,y,-z
-x,-y,-z
x,-y,z
1/2+x,1/2+y,z
1/2-x,1/2+y,-z
1/2-x,1/2-y,-z
1/2+x,1/2-y,z
loop_
_atom_site_type_symbol
_atom_site_label
_atom_site_fract_x
_atom_site_fract_y
_atom_site_fract_z
Si Si1 0.047074 0.681265 0.911690
Si Si2 0.356791 0.682057 0.691419
Si Si3 0.301186 0.317524 0.866660
Si Si4 0.794307 0.181620 0.245216
Si Si5 0.863283 0.817208 0.108264
Si Si6 0.294947 0.819392 0.477443
Si Si7 0.952012 0.182535 0.853594
O O1 0.044305 0.500000 0.915362
O O2 0.088904 0.735360 0.869740
O O3 0.999074 0.750042 0.844219
O O4 0.054969 0.748433 0.034477
O O5 0.353205 0.500000 0.672520
O O6 0.326882 0.718982 0.774860
O O7 0.336354 0.767555 0.578282
O O8 0.408505 0.718405 0.753968
O O9 0.294508 0.500000 0.865089
O O10 0.253032 0.236874 0.835424
O O11 0.332681 0.276101 0.986284
O O12 0.834879 0.220673 0.193189
O O13 0.799345 0.257340 0.362380
O O14 0.793054 0.000000 0.256224
O O15 0.870159 0.000000 0.109023
O O16 0.250000 0.750000 0.500000
O O17 0.290671 0.000000 0.472703
O O18 0.955207 0.000000 0.865731
#
# Coordination Sequence:
#
# PCOD9184979 Si02
#       7
#     8   8   8   8   8   8   8
#     4  11  21  32  52  83 115 143 180 226 269 322
#     4  10  20  35  58  83 109 142 182 226 271 323
#     4  10  19  34  55  80 112 146 182 222 269 323
#     4  11  23  37  56  80 109 146 189 227 268 325
#     4  10  21  38  56  78 111 151 186 219 269 332
#     4  12  24  38  57  78 108 145 185 230 273 318
#     4  10  19  35  57  79 110 147 180 221 275 329
#
# _framework density 16.933553
#
# number of rings (size 3 to 8) (size 9 to 14) (size 15 to 20)
#    0.000    1.429    2.857    4.714    0.000    2.857 
#    0.000    0.000    0.000    0.857    0.000    6.000 
#    0.000    0.000    0.000    0.000    0.000    0.000 
#
# Total GULP energy -156457.373441 kJ/mol
# GULP energy per Si atom -5587.763337 kJ/mol
# Density = 1.689501 g / cm^3
# Si number density = 16.933553 Si / 1000 Ang^3
#
#
#
# Elastic Constant Matrix: (Units=GPa)
#
#
# Indices 1 2 3 4 5 6 
#
# 1 154.8755 69.0740 53.6328 0.0000 8.5372 0.0000
# 2 69.0740 75.0537 36.9614 0.0000 3.3693 0.0000
# 3 53.6328 36.9614 59.3627 0.0000 -0.2687 0.0000
# 4 0.0000 0.0000 0.0000 23.3278 0.0000 3.6337
# 5 8.5372 3.3693 -0.2687 0.0000 26.2550 0.0000
# 6 0.0000 0.0000 0.0000 3.6337 0.0000 28.6101
#
#
#
# Elastic Compliance Matrix: (Units=1/GPa)
#
#
# Indices 1 2 3 4 5 6 
#
# 1 0.012437 -0.008321 -0.006070 0.000000 -0.003038 0.000000
# 2 -0.008321 0.024960 -0.008026 0.000000 -0.000580 0.000000
# 3 -0.006070 -0.008026 0.027342 0.000000 0.003283 0.000000
# 4 0.000000 0.000000 0.000000 0.043733 0.000000 -0.005554
# 5 -0.003038 -0.000580 0.003283 0.000000 0.039184 0.000000
# 6 0.000000 0.000000 0.000000 -0.005554 0.000000 0.035658
#
#
# Mechanical properties :
#
#
# Convention : Reuss Voigt Hill
#
# Bulk Modulus (GPa) = 50.23638 67.62537 58.93087
# Shear Modulus (GPa) = 21.29629 24.28015 22.78822
#
# Velocity S-wave (km/s) = 3.55017 3.79073 3.67242
# Velocity P-wave (km/s) = 6.82174 7.69298 7.27042
#
# Compressibility (1/GPa) = 0.01990589
#
# Stress axis : x y z
#
# Youngs Moduli (GPa) = 80.40362 40.06354 36.57422
#
# Poissons Ratio (x) = 0.33336 0.22199
# Poissons Ratio (y) = 0.66903 0.29355
# Poissons Ratio (z) = 0.48802 0.32156
#
# Static dielectric constant tensor:
#      x y z
#    x 1.568050 0.000000 0.005200 
#    y 0.000000 1.566370 0.000000 
#    z 0.005200 0.000000 1.550840 
# 
# From -- ./inp_files/186821.got.cif
#   From: 2010.05.17/outbox.cif.g08.bks.cpg/sg12_94_cif.got.tgz:186821.got - 2010.06.03 13:09:07.
