data_PCOD9184706
_publ_section_title
;
Structure prediction by ZEFSAII (Michael W. Deem and Ramdas Pophale) SiO2 
 PCOD9184706
Probable space group: C 2/M
;
_chemical_formula_sum "Si O2"
_cell_formula_units_Z 56
_cell_length_a 19.154811
_cell_length_b 24.704804
_cell_length_c 16.097336
_cell_angle_alpha 90.000000
_cell_angle_beta 158.485038
_cell_angle_gamma 90.000000
_cell_volume 2793.679130
_symmetry_space_group_name_H-M "C 2/M"
_symmetry_group_IT_number 12
_symmetry_cell_setting 'monoclinic'
loop_
_space_group_symop_operation_xyz
x,y,z
-x,y,-z
-x,-y,-z
x,-y,z
1/2+x,1/2+y,z
1/2-x,1/2+y,-z
1/2-x,1/2-y,-z
1/2+x,1/2-y,z
loop_
_atom_site_type_symbol
_atom_site_label
_atom_site_fract_x
_atom_site_fract_y
_atom_site_fract_z
Si Si1 0.781800 0.500000 0.371563
Si Si2 0.097318 0.886778 0.930382
Si Si3 0.812575 0.789045 0.252636
Si Si4 0.787563 0.329020 0.292232
Si Si5 0.839098 0.000000 0.947987
Si Si6 0.996634 0.209149 0.709494
Si Si7 0.326131 0.889835 0.500816
Si Si8 0.941965 0.313910 0.764291
O O1 0.776230 0.500000 0.265874
O O2 0.875242 0.445425 0.509808
O O3 0.560232 0.500000 0.158710
O O4 0.118232 0.839337 0.886378
O O5 0.874905 0.899723 0.678182
O O6 0.148745 0.861625 0.077588
O O7 0.194346 0.945242 0.037645
O O8 0.767096 0.734511 0.253222
O O9 0.000000 0.816746 0.500000
O O10 0.894133 0.772789 0.252000
O O11 0.612946 0.818993 0.019028
O O12 0.779332 0.345361 0.378468
O O13 0.000000 0.344212 0.500000
O O14 0.976785 0.257578 0.753460
O O15 0.777973 0.190302 0.448670
O O16 0.456567 0.862278 0.713589
#
# Coordination Sequence:
#
# PCOD9184706 Si02
#       8
#     4   8   8   8   4   8   8   8
#     4   9  16  30  52  78 112 143 179 216 253 313
#     4  10  19  34  54  76 108 149 184 215 259 317
#     4  11  23  37  53  77 106 140 182 233 281 318
#     4  11  21  31  47  76 107 148 175 214 263 313
#     4   9  16  30  52  80 108 143 181 216 253 315
#     4  10  21  36  54  78 107 145 182 225 272 323
#     4  10  20  34  54  78 109 148 184 215 260 321
#     4  10  20  35  55  78 106 143 185 224 267 326
#
# _framework density 20.045249999999999
#
# number of rings (size 3 to 8) (size 9 to 14) (size 15 to 20)
#    0.000    1.857    2.857    2.571    2.000    0.571 
#    5.143    1.429    0.000    0.000    0.000    2.000 
#    0.000    5.714    0.000    0.000    0.000    0.000 
#
# Total GULP energy -156267.776904 kJ/mol
# GULP energy per Si atom -5580.992032 kJ/mol
# Density = 1.999963 g / cm^3
# Si number density = 20.045250 Si / 1000 Ang^3
#
#
#
# Elastic Constant Matrix: (Units=GPa)
#
#
# Indices 1 2 3 4 5 6 
#
# 1 31.7835 24.6168 8.3602 0.0000 -2.0714 0.0000
# 2 24.6168 119.7884 29.3206 0.0000 -21.1309 0.0000
# 3 8.3602 29.3206 125.7355 -0.0001 0.7845 -0.0001
# 4 0.0000 0.0000 -0.0001 21.8144 0.0001 -12.6062
# 5 -2.0714 -21.1309 0.7845 0.0001 27.9011 0.0000
# 6 0.0000 0.0000 -0.0001 -12.6062 0.0000 16.4354
#
#
#
# Elastic Compliance Matrix: (Units=1/GPa)
#
#
# Indices 1 2 3 4 5 6 
#
# 1 0.037758 -0.008220 -0.000572 0.000000 -0.003406 0.000000
# 2 -0.008220 0.012134 -0.002337 0.000000 0.008645 0.000000
# 3 -0.000572 -0.002337 0.008549 0.000000 -0.002053 0.000000
# 4 0.000000 0.000000 0.000000 0.082337 0.000000 0.063154
# 5 -0.003406 0.008645 -0.002053 0.000000 0.042193 0.000000
# 6 0.000000 0.000000 0.000000 0.063154 0.000000 0.109285
#
#
# Mechanical properties :
#
#
# Convention : Reuss Voigt Hill
#
# Bulk Modulus (GPa) = 27.63782 44.65587 36.14685
# Shear Modulus (GPa) = 15.31030 27.56415 21.43722
#
# Velocity S-wave (km/s) = 2.76667 3.71225 3.27378
# Velocity P-wave (km/s) = 4.90139 6.37968 5.68876
#
# Compressibility (1/GPa) = 0.03618230
#
# Stress axis : x y z
#
# Youngs Moduli (GPa) = 26.48443 82.41012 116.97200
#
# Poissons Ratio (x) = 0.67742 0.06696
# Poissons Ratio (y) = 0.21771 0.27337
# Poissons Ratio (z) = 0.01516 0.19260
#
# Static dielectric constant tensor:
#      x y z
#    x 1.719980 0.000000 0.019200 
#    y 0.000000 1.719720 0.000000 
#    z 0.019200 0.000000 1.799620 
# 
# From -- ./inp_files/286377.got.cif
#   From: 2010.05.17/outbox.cif.g08.bks.cpg/sg12_144_cif.got.tgz:286377.got - 2010.06.03 13:09:07.
