data_PCOD9184796
_publ_section_title
;
Structure prediction by ZEFSAII (Michael W. Deem and Ramdas Pophale) SiO2 
 PCOD9184796
Probable space group: C 2/M
;
_chemical_formula_sum "Si O2"
_cell_formula_units_Z 40
_cell_length_a 30.385930
_cell_length_b 8.489862
_cell_length_c 15.291974
_cell_angle_alpha 90.000000
_cell_angle_beta 30.866399
_cell_angle_gamma 90.000000
_cell_volume 2023.886760
_symmetry_space_group_name_H-M "C 2/M"
_symmetry_group_IT_number 12
_symmetry_cell_setting 'monoclinic'
loop_
_space_group_symop_operation_xyz
x,y,z
-x,y,-z
-x,-y,-z
x,-y,z
1/2+x,1/2+y,z
1/2-x,1/2+y,-z
1/2-x,1/2-y,-z
1/2+x,1/2-y,z
loop_
_atom_site_type_symbol
_atom_site_label
_atom_site_fract_x
_atom_site_fract_y
_atom_site_fract_z
Si Si1 0.730513 0.188082 0.436945
Si Si2 0.636891 0.307361 0.937913
Si Si3 0.454836 0.687011 0.301898
Si Si4 0.945265 0.310317 0.507847
Si Si5 0.744991 0.810827 0.106790
O O1 0.750000 0.250000 0.500000
O O2 0.802121 0.245229 0.245247
O O3 0.635294 0.236612 0.569903
O O4 0.734953 0.000000 0.429580
O O5 0.637404 0.500000 0.937010
O O6 0.680803 0.255603 0.954087
O O7 0.537718 0.258131 0.105342
O O8 0.446321 0.500000 0.305692
O O9 0.473903 0.727099 0.370486
O O10 0.951114 0.500000 0.486039
O O11 0.846552 0.268596 0.695159
O O12 0.000000 0.268154 0.500000
O O13 0.748687 0.000000 0.097139
O O14 0.750000 0.750000 0.000000
#
# Coordination Sequence:
#
# PCOD9184796 Si02
#       5
#     8   8   8   8   8
#     4  11  23  44  67  89 121 159 200 250 306 363
#     4   9  20  39  61  83 120 163 196 240 304 364
#     4  11  22  38  62  91 119 156 205 250 298 359
#     4  10  20  35  56  84 122 164 202 247 305 356
#     4  10  19  34  54  81 117 160 200 240 295 352
#
# _framework density 19.763953000000001
#
# number of rings (size 3 to 8) (size 9 to 14) (size 15 to 20)
#    0.000    1.800    2.000    2.400    0.000    2.000 
#    0.000    9.000    0.000    0.000    0.000    0.000 
#    0.000    0.000    0.000    0.000    0.000    0.000 
#
# Total GULP energy -111722.089147 kJ/mol
# GULP energy per Si atom -5586.104457 kJ/mol
# Density = 1.971897 g / cm^3
# Si number density = 19.763953 Si / 1000 Ang^3
#
#
#
# Elastic Constant Matrix: (Units=GPa)
#
#
# Indices 1 2 3 4 5 6 
#
# 1 100.2157 13.7907 62.6353 0.0000 12.3265 0.0000
# 2 13.7907 18.7967 27.0884 0.0001 -0.5391 0.0000
# 3 62.6353 27.0884 170.1441 0.0000 2.4098 0.0000
# 4 0.0000 0.0001 0.0000 21.4446 0.0000 3.6775
# 5 12.3265 -0.5391 2.4098 0.0000 29.4617 0.0000
# 6 0.0000 0.0000 0.0000 3.6775 0.0000 35.0995
#
#
#
# Elastic Compliance Matrix: (Units=1/GPa)
#
#
# Indices 1 2 3 4 5 6 
#
# 1 0.013985 -0.004042 -0.004426 0.000000 -0.005563 0.000000
# 2 -0.004042 0.070348 -0.009766 0.000000 0.003777 0.000000
# 3 -0.004426 -0.009766 0.009048 0.000000 0.000933 0.000000
# 4 0.000000 0.000000 0.000000 0.047485 0.000000 -0.004975
# 5 -0.005563 0.003777 0.000933 0.000000 0.036263 0.000000
# 6 0.000000 0.000000 0.000000 -0.004975 0.000000 0.029012
#
#
# Mechanical properties :
#
#
# Convention : Reuss Voigt Hill
#
# Bulk Modulus (GPa) = 17.57012 55.13169 36.35090
# Shear Modulus (GPa) = 19.11467 29.57732 24.34600
#
# Velocity S-wave (km/s) = 3.11327 3.87270 3.51356
# Velocity P-wave (km/s) = 4.67253 6.92479 5.90700
#
# Compressibility (1/GPa) = 0.05691481
#
# Stress axis : x y z
#
# Youngs Moduli (GPa) = 71.50374 14.21506 110.51752
#
# Poissons Ratio (x) = 0.05745 0.48917
# Poissons Ratio (y) = 0.28899 1.07928
# Poissons Ratio (z) = 0.31649 0.13882
#
# Static dielectric constant tensor:
#      x y z
#    x 1.675470 0.000000 -0.013050 
#    y 0.000000 1.686150 0.000000 
#    z -0.013050 0.000000 1.711750 
# 
# From -- ./inp_files/211179.got.cif
#   From: 2010.05.17/outbox.cif.g08.bks.cpg/sg12_106_cif.got.tgz:211179.got - 2010.06.03 13:09:07.
