data_PCOD9184028
_publ_section_title
;
Structure prediction by ZEFSAII (Michael W. Deem and Ramdas Pophale) SiO2 
 PCOD9184028
Probable space group: C 2/M
;
_chemical_formula_sum "Si O2"
_cell_formula_units_Z 22
_cell_length_a 21.409068
_cell_length_b 5.345694
_cell_length_c 8.945586
_cell_angle_alpha 90.000000
_cell_angle_beta 127.884983
_cell_angle_gamma 90.000000
_cell_volume 808.020769
_symmetry_space_group_name_H-M "C 2/M"
_symmetry_group_IT_number 12
_symmetry_cell_setting 'monoclinic'
loop_
_space_group_symop_operation_xyz
x,y,z
-x,y,-z
-x,-y,-z
x,-y,z
1/2+x,1/2+y,z
1/2-x,1/2+y,-z
1/2-x,1/2-y,-z
1/2+x,1/2-y,z
loop_
_atom_site_type_symbol
_atom_site_label
_atom_site_fract_x
_atom_site_fract_y
_atom_site_fract_z
Si Si1 0.332583 0.500000 0.660532
Si Si2 0.686129 0.000000 0.680634
Si Si3 0.000000 0.000000 0.500000
Si Si4 0.265131 0.500000 0.218669
Si Si5 0.994033 0.500000 0.682406
Si Si6 0.097865 0.500000 0.110408
O O1 0.255238 0.500000 0.655041
O O2 0.303000 0.500000 0.445852
O O3 0.382505 0.744859 0.772654
O O4 0.699080 0.750949 0.793019
O O5 0.599718 0.000000 0.486341
O O6 0.980336 0.768995 0.349805
O O7 0.171968 0.500000 0.098980
O O8 0.021489 0.500000 0.893302
#
# Coordination Sequence:
#
# PCOD9184028 Si02
#       6
#     4   4   2   4   4   4
#     4  10  19  35  54  81 120 158 172 204 259 317
#     4  10  19  33  57  80 109 144 189 215 261 320
#     4  10  24  42  60  74 110 134 176 232 312 338
#     4  10  19  35  54  81 120 158 172 204 259 317
#     4  11  22  40  61  82  98 142 183 236 278 325
#     4  10  19  33  57  80 109 144 189 215 261 320
#
# _framework density 27.227022999999999
#
# number of rings (size 3 to 8) (size 9 to 14) (size 15 to 20)
#    0.000    1.818    0.000    7.636    0.000    0.000 
#    0.000   10.000    0.000   87.273    0.000    0.000 
#    0.000    0.000    0.000    0.000    0.000    0.000 
#
# Total GULP energy -61379.837910 kJ/mol
# GULP energy per Si atom -5579.985265 kJ/mol
# Density = 2.716505 g / cm^3
# Si number density = 27.227023 Si / 1000 Ang^3
#
#
#
# Elastic Constant Matrix: (Units=GPa)
#
#
# Indices 1 2 3 4 5 6 
#
# 1 54.7941 34.2869 28.3248 0.0000 -6.5852 0.0000
# 2 34.2869 338.0222 52.7588 0.0000 -2.2953 0.0000
# 3 28.3248 52.7588 163.4563 0.0000 -19.1595 0.0000
# 4 0.0000 0.0000 0.0000 17.4259 0.0000 20.0314
# 5 -6.5852 -2.2953 -19.1595 0.0000 62.7689 0.0000
# 6 0.0000 0.0000 0.0000 20.0314 0.0000 -18.9833
#
#
#
# Elastic Compliance Matrix: (Units=1/GPa)
#
#
# Indices 1 2 3 4 5 6 
#
# 1 0.020962 -0.001657 -0.002953 0.000000 0.001237 0.000000
# 2 -0.001657 0.003249 -0.000796 0.000000 -0.000298 0.000000
# 3 -0.002953 -0.000796 0.007101 0.000000 0.001829 0.000000
# 4 0.000000 0.000000 0.000000 0.025931 0.000000 0.027363
# 5 0.001237 -0.000298 0.001829 0.000000 0.016609 0.000000
# 6 0.000000 0.000000 0.000000 0.027363 0.000000 -0.023804
#
#
# Mechanical properties :
#
#
# Convention : Reuss Voigt Hill
#
# Bulk Modulus (GPa) = 48.78134 87.44595 68.11364
# Shear Modulus (GPa) = 73.86322 41.63578 57.74950
#
# Velocity S-wave (km/s) = 5.21417 3.91475 4.61047
# Velocity P-wave (km/s) = 7.36244 7.25402 7.30843
#
# Compressibility (1/GPa) = 0.02049964
#
# Stress axis : x y z
#
# Youngs Moduli (GPa) = 47.70542 307.81145 140.82777
#
# Poissons Ratio (x) = 0.51005 0.41580
# Poissons Ratio (y) = 0.07905 0.11216
# Poissons Ratio (z) = 0.14085 0.24514
#
# Static dielectric constant tensor:
#      x y z
#    x 2.439580 0.000000 0.007910 
#    y 0.000000 2.189360 0.000000 
#    z 0.007910 0.000000 2.051910 
# 
# From -- ./inp_files/137780.got.cif
#   From: 2010.05.17/outbox.cif.g08.bks.cpg/sg12_69_cif.got.tgz:137780.got - 2010.06.03 13:09:07.
