data_PCOD9184838
_publ_section_title
;
Structure prediction by ZEFSAII (Michael W. Deem and Ramdas Pophale) SiO2 
 PCOD9184838
Probable space group: C 2/M
;
_chemical_formula_sum "Si O2"
_cell_formula_units_Z 44
_cell_length_a 14.132637
_cell_length_b 10.812222
_cell_length_c 26.141932
_cell_angle_alpha 90.000000
_cell_angle_beta 40.709254
_cell_angle_gamma 90.000000
_cell_volume 2605.376628
_symmetry_space_group_name_H-M "C 2/M"
_symmetry_group_IT_number 12
_symmetry_cell_setting 'monoclinic'
loop_
_space_group_symop_operation_xyz
x,y,z
-x,y,-z
-x,-y,-z
x,-y,z
1/2+x,1/2+y,z
1/2-x,1/2+y,-z
1/2-x,1/2-y,-z
1/2+x,1/2-y,z
loop_
_atom_site_type_symbol
_atom_site_label
_atom_site_fract_x
_atom_site_fract_y
_atom_site_fract_z
Si Si1 0.338009 0.000000 0.903940
Si Si2 0.454385 0.643558 0.284526
Si Si3 0.379319 0.148366 0.590550
Si Si4 0.005198 0.745727 0.840807
Si Si5 0.298652 0.000000 0.801956
Si Si6 0.964655 0.000000 0.918450
Si Si7 0.656355 0.243712 0.282617
O O1 0.411546 0.126299 0.893592
O O2 0.358979 0.000000 0.834201
O O3 0.169986 0.000000 0.988178
O O4 0.462483 0.500000 0.265539
O O5 0.284086 0.671631 0.362634
O O6 0.505614 0.724310 0.215213
O O7 0.552181 0.666070 0.293990
O O8 0.500000 0.185195 0.500000
O O9 0.393749 0.214998 0.639223
O O10 0.391949 0.000000 0.593856
O O11 0.174465 0.718702 0.783484
O O12 0.960520 0.873127 0.887219
O O13 0.343996 0.882085 0.750205
O O14 0.123873 0.000000 0.878091
#
# Coordination Sequence:
#
# PCOD9184838 Si02
#       7
#     4   8   8   8   4   4   8
#     4  12  21  34  55  83 104 137 178 233 266 302
#     4  10  19  34  55  75 105 145 175 213 265 318
#     4   9  18  33  54  80 105 136 178 215 259 319
#     4  10  21  35  55  78 107 141 181 216 263 323
#     4  10  19  34  55  78  98 136 184 216 251 314
#     4  10  21  38  53  73 112 145 172 217 276 318
#     4  10  19  34  55  78 105 138 174 218 259 310
#
# _framework density 16.888154
#
# number of rings (size 3 to 8) (size 9 to 14) (size 15 to 20)
#    0.000    2.000    3.636    0.818    1.273    0.727 
#    0.000    0.000    0.000    1.636    0.000    0.000 
#    0.000    0.000    0.000    0.000    0.000    0.000 
#
# Total GULP energy -122637.937996 kJ/mol
# GULP energy per Si atom -5574.451727 kJ/mol
# Density = 1.684972 g / cm^3
# Si number density = 16.888154 Si / 1000 Ang^3
#
#
#
# Elastic Constant Matrix: (Units=GPa)
#
#
# Indices 1 2 3 4 5 6 
#
# 1 76.4117 17.9784 11.6337 0.0000 8.2438 0.0000
# 2 17.9784 71.9997 22.0959 0.0000 -8.4575 0.0000
# 3 11.6337 22.0959 71.3028 0.0000 6.4588 0.0000
# 4 0.0000 0.0000 0.0000 18.8881 0.0000 -0.3368
# 5 8.2438 -8.4575 6.4588 0.0000 11.3967 0.0000
# 6 0.0000 0.0000 0.0000 -0.3368 0.0000 26.5307
#
#
#
# Elastic Compliance Matrix: (Units=1/GPa)
#
#
# Indices 1 2 3 4 5 6 
#
# 1 0.016269 -0.006305 0.000832 0.000000 -0.016919 0.000000
# 2 -0.006305 0.020614 -0.007545 0.000000 0.024135 0.000000
# 3 0.000832 -0.007545 0.017697 0.000000 -0.016231 0.000000
# 4 0.000000 0.000000 0.000000 0.052955 0.000000 0.000672
# 5 -0.016919 0.024135 -0.016231 0.000000 0.127092 0.000000
# 6 0.000000 0.000000 0.000000 0.000672 0.000000 0.037701
#
#
# Mechanical properties :
#
#
# Convention : Reuss Voigt Hill
#
# Bulk Modulus (GPa) = 35.03447 35.90335 35.46891
# Shear Modulus (GPa) = 16.24009 22.56350 19.40179
#
# Velocity S-wave (km/s) = 3.10437 3.65917 3.39313
# Velocity P-wave (km/s) = 5.79996 6.25767 6.03316
#
# Compressibility (1/GPa) = 0.02854332
#
# Stress axis : x y z
#
# Youngs Moduli (GPa) = 61.46602 48.51080 56.50529
#
# Poissons Ratio (x) = 0.30587 -0.04701
# Poissons Ratio (y) = 0.38755 0.42636
# Poissons Ratio (z) = -0.05114 0.36604
#
# Static dielectric constant tensor:
#      x y z
#    x 1.558970 0.000000 -0.005830 
#    y 0.000000 1.564150 0.000000 
#    z -0.005830 0.000000 1.548410 
# 
# From -- ./inp_files/211968.got.cif
#   From: 2010.05.17/outbox.cif.g08.bks.cpg/sg12_106_cif.got.tgz:211968.got - 2010.06.03 13:09:07.
