data_PCOD9184320
_publ_section_title
;
Structure prediction by ZEFSAII (Michael W. Deem and Ramdas Pophale) SiO2 
 PCOD9184320
Probable space group: C 2/M
;
_chemical_formula_sum "Si O2"
_cell_formula_units_Z 56
_cell_length_a 14.812168
_cell_length_b 19.086751
_cell_length_c 8.978150
_cell_angle_alpha 90.000000
_cell_angle_beta 62.197566
_cell_angle_gamma 90.000000
_cell_volume 2245.253391
_symmetry_space_group_name_H-M "C 2/M"
_symmetry_group_IT_number 12
_symmetry_cell_setting 'monoclinic'
loop_
_space_group_symop_operation_xyz
x,y,z
-x,y,-z
-x,-y,-z
x,-y,z
1/2+x,1/2+y,z
1/2-x,1/2+y,-z
1/2-x,1/2-y,-z
1/2+x,1/2-y,z
loop_
_atom_site_type_symbol
_atom_site_label
_atom_site_fract_x
_atom_site_fract_y
_atom_site_fract_z
Si Si1 0.905805 0.693293 0.770746
Si Si2 0.940783 0.579458 0.386352
Si Si3 0.727746 0.422681 0.412228
Si Si4 0.223774 0.575741 0.965950
Si Si5 0.879644 0.074234 0.076207
Si Si6 0.301705 0.275166 0.610695
Si Si7 0.118593 0.771514 0.933784
O O1 0.828977 0.634830 0.894783
O O2 0.880717 0.721197 0.625211
O O3 0.010253 0.650512 0.718975
O O4 0.881618 0.761502 0.888609
O O5 0.958523 0.500000 0.309586
O O6 0.818405 0.586236 0.464027
O O7 0.000000 0.578077 0.500000
O O8 0.680405 0.500000 0.466629
O O9 0.658544 0.353426 0.455045
O O10 0.780866 0.422716 0.207557
O O11 0.180065 0.500000 0.045464
O O12 0.339946 0.575773 0.936749
O O13 0.838330 0.000000 0.170966
O O14 0.855323 0.151858 0.151367
O O15 0.000000 0.071262 0.000000
O O16 0.250000 0.250000 0.500000
O O17 0.205116 0.276968 0.798105
O O18 0.000000 0.754670 0.000000
#
# Coordination Sequence:
#
# PCOD9184320 Si02
#       7
#     8   8   8   8   8   8   8
#     4  12  22  36  60  88 122 160 206 260 308 373
#     4  10  22  40  60  89 130 172 211 256 317 390
#     4  10  21  39  61  87 127 169 209 257 313 385
#     4  10  19  33  58  90 119 153 203 258 313 364
#     4   9  18  34  55  82 115 152 197 252 311 364
#     4  12  24  40  60  90 128 167 209 262 324 383
#     4  11  22  38  61  88 118 156 206 262 310 371
#
# _framework density 24.941507000000001
#
# number of rings (size 3 to 8) (size 9 to 14) (size 15 to 20)
#    0.000    1.429    2.857    3.429    0.000    0.000 
#    0.000    3.571    0.000    0.000    0.000    0.000 
#    0.000   16.000    0.000    0.000    0.000    0.000 
#
# Total GULP energy -155951.744164 kJ/mol
# GULP energy per Si atom -5569.705149 kJ/mol
# Density = 2.488474 g / cm^3
# Si number density = 24.941507 Si / 1000 Ang^3
#
#
#
# Elastic Constant Matrix: (Units=GPa)
#
#
# Indices 1 2 3 4 5 6 
#
# 1 66.6770 -5.0287 15.1855 0.0000 14.5707 0.0000
# 2 -5.0287 209.3781 13.7298 0.0000 6.4267 0.0000
# 3 15.1855 13.7298 56.6551 0.0000 16.4409 0.0000
# 4 0.0000 0.0000 0.0000 16.9752 0.0000 2.2402
# 5 14.5707 6.4267 16.4409 0.0000 26.5686 0.0000
# 6 0.0000 0.0000 0.0000 2.2402 0.0000 26.4904
#
#
#
# Elastic Compliance Matrix: (Units=1/GPa)
#
#
# Indices 1 2 3 4 5 6 
#
# 1 0.017423 0.000834 -0.002487 0.000000 -0.008217 0.000000
# 2 0.000834 0.004900 -0.001139 0.000000 -0.000938 0.000000
# 3 -0.002487 -0.001139 0.022083 0.000000 -0.012026 0.000000
# 4 0.000000 0.000000 0.000000 0.059574 0.000000 -0.005038
# 5 -0.008217 -0.000938 -0.012026 0.000000 0.049814 0.000000
# 6 0.000000 0.000000 0.000000 -0.005038 0.000000 0.038176
#
#
# Mechanical properties :
#
#
# Convention : Reuss Voigt Hill
#
# Bulk Modulus (GPa) = 25.75932 42.27596 34.01764
# Shear Modulus (GPa) = 23.75368 34.59507 29.17438
#
# Velocity S-wave (km/s) = 3.08941 3.72835 3.42382
# Velocity P-wave (km/s) = 4.80377 5.95995 5.41282
#
# Compressibility (1/GPa) = 0.03882090
#
# Stress axis : x y z
#
# Youngs Moduli (GPa) = 57.39620 204.10138 45.28350
#
# Poissons Ratio (x) = -0.17018 0.11263
# Poissons Ratio (y) = -0.04786 0.05156
# Poissons Ratio (z) = 0.14276 0.23241
#
# Static dielectric constant tensor:
#      x y z
#    x 1.975700 0.000000 0.064710 
#    y 0.000000 2.106480 0.000000 
#    z 0.064710 0.000000 2.049790 
# 
# From -- ./inp_files/75858.got.cif
#   From: 2010.05.17/outbox.cif.g08.bks.cpg/sg12_38_cif.got.tgz:75858.got - 2010.06.03 13:09:07.
