data_PCOD9184428
_publ_section_title
;
Structure prediction by ZEFSAII (Michael W. Deem and Ramdas Pophale) SiO2 
 PCOD9184428
Probable space group: C 2/M
;
_chemical_formula_sum "Si O2"
_cell_formula_units_Z 56
_cell_length_a 14.691818
_cell_length_b 19.747981
_cell_length_c 13.570859
_cell_angle_alpha 90.000000
_cell_angle_beta 139.449478
_cell_angle_gamma 90.000000
_cell_volume 2559.752475
_symmetry_space_group_name_H-M "C 2/M"
_symmetry_group_IT_number 12
_symmetry_cell_setting 'monoclinic'
loop_
_space_group_symop_operation_xyz
x,y,z
-x,y,-z
-x,-y,-z
x,-y,z
1/2+x,1/2+y,z
1/2-x,1/2+y,-z
1/2-x,1/2-y,-z
1/2+x,1/2-y,z
loop_
_atom_site_type_symbol
_atom_site_label
_atom_site_fract_x
_atom_site_fract_y
_atom_site_fract_z
Si Si1 0.758557 0.860508 0.566930
Si Si2 0.995722 0.925055 0.331425
Si Si3 0.667204 0.790396 0.014896
Si Si4 0.749074 0.923228 0.983715
Si Si5 0.127199 0.713444 0.307813
Si Si6 0.637214 0.303171 0.650267
Si Si7 0.161252 0.918139 0.157613
O O1 0.843822 0.789662 0.633389
O O2 0.616828 0.837175 0.393449
O O3 0.768625 0.884942 0.688085
O O4 0.846307 0.912819 0.573130
O O5 0.931035 0.868150 0.350061
O O6 0.976575 0.000000 0.357926
O O7 0.907305 0.922309 0.156884
O O8 0.675609 0.869692 0.993631
O O9 0.503950 0.777868 0.871755
O O10 0.750000 0.750000 0.000000
O O11 0.754883 0.772467 0.183188
O O12 0.754019 0.904112 0.873392
O O13 0.696406 0.000000 0.950446
O O14 0.260287 0.685764 0.356884
O O15 0.500000 0.263391 0.500000
O O16 0.158500 0.000000 0.169368
O O17 0.000000 0.897067 0.000000
#
# Coordination Sequence:
#
# PCOD9184428 Si02
#       7
#     8   8   8   8   8   8   8
#     4  11  22  38  61  90 132 166 214 268 324 378
#     4  10  19  38  65  94 126 166 216 270 320 388
#     4  11  25  42  66  93 124 175 220 263 327 394
#     4   9  19  37  60  89 127 163 209 265 325 389
#     4  11  25  42  60  92 134 170 216 268 321 391
#     4  11  23  42  65  96 127 161 209 270 323 387
#     4  10  19  33  61  98 128 161 212 271 328 388
#
# _framework density 21.877116000000001
#
# number of rings (size 3 to 8) (size 9 to 14) (size 15 to 20)
#    0.000    1.571    2.857    2.571    4.000    0.286 
#    0.000    2.857    0.000    5.143    0.000    0.000 
#    0.000    0.000    0.000    0.000    0.000    0.000 
#
# Total GULP energy -156121.579584 kJ/mol
# GULP energy per Si atom -5575.770699 kJ/mol
# Density = 2.182732 g / cm^3
# Si number density = 21.877116 Si / 1000 Ang^3
#
#
#
# Elastic Constant Matrix: (Units=GPa)
#
#
# Indices 1 2 3 4 5 6 
#
# 1 60.2202 4.1783 32.7142 0.0000 -17.2334 0.0000
# 2 4.1783 43.4570 4.4364 0.0000 -6.7656 0.0000
# 3 32.7142 4.4364 157.0072 0.0000 -20.6874 0.0000
# 4 0.0000 0.0000 0.0000 29.3256 0.0000 -8.2077
# 5 -17.2334 -6.7656 -20.6874 0.0000 40.1040 0.0000
# 6 0.0000 0.0000 0.0000 -8.2077 0.0000 14.6535
#
#
#
# Elastic Compliance Matrix: (Units=1/GPa)
#
#
# Indices 1 2 3 4 5 6 
#
# 1 0.020447 -0.000540 -0.003325 0.000000 0.006980 0.000000
# 2 -0.000540 0.023650 -0.000065 0.000000 0.003724 0.000000
# 3 -0.003325 -0.000065 0.007375 0.000000 0.002365 0.000000
# 4 0.000000 0.000000 0.000000 0.040440 0.000000 0.022651
# 5 0.006980 0.003724 0.002365 0.000000 0.029783 0.000000
# 6 0.000000 0.000000 0.000000 0.022651 0.000000 0.080930
#
#
# Mechanical properties :
#
#
# Convention : Reuss Voigt Hill
#
# Bulk Modulus (GPa) = 22.92970 38.14915 30.53942
# Shear Modulus (GPa) = 22.21998 31.44031 26.83015
#
# Velocity S-wave (km/s) = 3.19042 3.79507 3.50580
# Velocity P-wave (km/s) = 4.90669 6.05633 5.51157
#
# Compressibility (1/GPa) = 0.04361157
#
# Stress axis : x y z
#
# Youngs Moduli (GPa) = 48.90647 42.28400 135.58527
#
# Poissons Ratio (x) = 0.02283 0.45088
# Poissons Ratio (y) = 0.02640 0.00882
# Poissons Ratio (z) = 0.16264 0.00275
#
# Static dielectric constant tensor:
#      x y z
#    x 1.810920 0.000000 -0.022580 
#    y 0.000000 1.835210 0.000000 
#    z -0.022580 0.000000 1.897500 
# 
# From -- ./inp_files/217744.got.cif
#   From: 2010.05.17/outbox.cif.g08.bks.cpg/sg12_109_cif.got.tgz:217744.got - 2010.06.03 13:09:07.
