data_PCOD9184603
_publ_section_title
;
Structure prediction by ZEFSAII (Michael W. Deem and Ramdas Pophale) SiO2 
 PCOD9184603
Probable space group: C 2/M
;
_chemical_formula_sum "Si O2"
_cell_formula_units_Z 64
_cell_length_a 14.847483
_cell_length_b 7.440939
_cell_length_c 26.407020
_cell_angle_alpha 90.000000
_cell_angle_beta 107.878868
_cell_angle_gamma 90.000000
_cell_volume 2776.537594
_symmetry_space_group_name_H-M "C 2/M"
_symmetry_group_IT_number 12
_symmetry_cell_setting 'monoclinic'
loop_
_space_group_symop_operation_xyz
x,y,z
-x,y,-z
-x,-y,-z
x,-y,z
1/2+x,1/2+y,z
1/2-x,1/2+y,-z
1/2-x,1/2-y,-z
1/2+x,1/2-y,z
loop_
_atom_site_type_symbol
_atom_site_label
_atom_site_fract_x
_atom_site_fract_y
_atom_site_fract_z
Si Si1 0.569777 0.213674 0.796109
Si Si2 0.060761 0.705354 0.965463
Si Si3 0.142525 0.214338 0.497173
Si Si4 0.358353 0.789752 0.765310
Si Si5 0.048207 0.780256 0.585234
Si Si6 0.840365 0.783335 0.297471
Si Si7 0.299072 0.219889 0.088264
Si Si8 0.121859 0.215372 0.117642
O O1 0.463088 0.288858 0.776763
O O2 0.616433 0.240822 0.749694
O O3 0.635604 0.280707 0.853259
O O4 0.562872 0.000000 0.803779
O O5 0.081088 0.500000 0.983692
O O6 0.981638 0.704146 0.907521
O O7 0.153448 0.785963 0.955519
O O8 0.000000 0.793853 0.000000
O O9 0.250000 0.250000 0.500000
O O10 0.111849 0.276506 0.548003
O O11 0.059661 0.278149 0.444760
O O12 0.133261 0.000000 0.497020
O O13 0.267917 0.714972 0.720200
O O14 0.336982 0.772707 0.821418
O O15 0.364866 0.000000 0.753128
O O16 0.094396 0.718153 0.645437
O O17 0.048173 0.000000 0.586429
O O18 0.836070 0.000000 0.300314
O O19 0.192688 0.271057 0.084789
O O20 0.300930 0.000000 0.086805
O O21 0.114897 0.000000 0.116234
#
# Coordination Sequence:
#
# PCOD9184603 Si02
#       8
#     8   8   8   8   8   8   8   8
#     4  10  19  34  53  74 106 141 170 210 265 312
#     4  10  21  39  60  79 103 138 176 213 259 317
#     4   9  17  33  57  78 102 141 183 218 265 318
#     4  10  20  34  53  75 102 138 178 212 251 311
#     4   8  17  34  52  74 109 146 172 212 272 321
#     4  10  20  34  53  79 108 137 180 223 254 308
#     4   9  18  34  54  76 105 137 166 206 262 311
#     4  11  21  34  55  78 105 136 169 213 263 309
#
# _framework density 23.050293
#
# number of rings (size 3 to 8) (size 9 to 14) (size 15 to 20)
#    0.000    2.375    2.500    1.125    0.000    2.250 
#    0.000    5.000    0.000    0.000    0.000    0.000 
#    0.000    0.000    0.000    0.000    0.000    0.000 
#
# Total GULP energy -178743.516118 kJ/mol
# GULP energy per Si atom -5585.734879 kJ/mol
# Density = 2.299783 g / cm^3
# Si number density = 23.050293 Si / 1000 Ang^3
#
#
#
# Elastic Constant Matrix: (Units=GPa)
#
#
# Indices 1 2 3 4 5 6 
#
# 1 161.8570 3.7566 32.1754 0.0000 6.7558 0.0000
# 2 3.7566 65.4420 -12.4570 0.0000 2.5384 0.0000
# 3 32.1754 -12.4570 77.2345 0.0000 14.6689 0.0000
# 4 0.0000 0.0000 0.0000 10.8493 0.0000 -5.8450
# 5 6.7558 2.5384 14.6689 0.0000 26.0768 0.0000
# 6 0.0000 0.0000 0.0000 -5.8450 0.0000 12.4956
#
#
#
# Elastic Compliance Matrix: (Units=1/GPa)
#
#
# Indices 1 2 3 4 5 6 
#
# 1 0.006794 -0.000959 -0.002988 0.000000 0.000014 0.000000
# 2 -0.000959 0.016161 0.003647 0.000000 -0.003376 0.000000
# 3 -0.002988 0.003647 0.016459 0.000000 -0.008840 0.000000
# 4 0.000000 0.000000 0.000000 0.123225 0.000000 0.057641
# 5 0.000014 -0.003376 -0.008840 0.000000 0.043646 0.000000
# 6 0.000000 0.000000 0.000000 0.057641 0.000000 0.106991
#
#
# Mechanical properties :
#
#
# Convention : Reuss Voigt Hill
#
# Bulk Modulus (GPa) = 25.76288 39.05374 32.40831
# Shear Modulus (GPa) = 15.29922 28.62156 21.96039
#
# Velocity S-wave (km/s) = 2.57910 3.52760 3.08996
# Velocity P-wave (km/s) = 4.47996 5.79410 5.17888
#
# Compressibility (1/GPa) = 0.03881554
#
# Stress axis : x y z
#
# Youngs Moduli (GPa) = 147.19119 61.87726 60.75534
#
# Poissons Ratio (x) = 0.05935 0.18152
# Poissons Ratio (y) = 0.14119 -0.22160
# Poissons Ratio (z) = 0.43975 -0.22569
#
# Static dielectric constant tensor:
#      x y z
#    x 1.870520 0.000000 0.012220 
#    y 0.000000 1.871800 0.000000 
#    z 0.012220 0.000000 1.858890 
# 
# From -- ./inp_files/359903.got.cif
#   From: 2010.05.17/outbox.cif.g08.bks.cpg/sg12_180_cif.got.tgz:359903.got - 2010.06.03 13:09:07.
