data_PCOD9184307
_publ_section_title
;
Structure prediction by ZEFSAII (Michael W. Deem and Ramdas Pophale) SiO2 
 PCOD9184307
Probable space group: C 2/M
;
_chemical_formula_sum "Si O2"
_cell_formula_units_Z 64
_cell_length_a 14.946515
_cell_length_b 7.628566
_cell_length_c 29.078157
_cell_angle_alpha 90.000000
_cell_angle_beta 50.266387
_cell_angle_gamma 90.000000
_cell_volume 2549.705423
_symmetry_space_group_name_H-M "C 2/M"
_symmetry_group_IT_number 12
_symmetry_cell_setting 'monoclinic'
loop_
_space_group_symop_operation_xyz
x,y,z
-x,y,-z
-x,-y,-z
x,-y,z
1/2+x,1/2+y,z
1/2-x,1/2+y,-z
1/2-x,1/2-y,-z
1/2+x,1/2-y,z
loop_
_atom_site_type_symbol
_atom_site_label
_atom_site_fract_x
_atom_site_fract_y
_atom_site_fract_z
Si Si1 0.372514 0.287130 0.522034
Si Si2 0.452309 0.297047 0.401188
Si Si3 0.162307 0.291810 0.986886
Si Si4 0.293674 0.202530 0.683752
Si Si5 0.633880 0.714980 0.141586
Si Si6 0.206066 0.198268 0.212861
Si Si7 0.351860 0.300375 0.345703
Si Si8 0.039591 0.795567 0.883439
O O1 0.500000 0.247840 0.500000
O O2 0.358862 0.500000 0.527079
O O3 0.378633 0.221424 0.467294
O O4 0.269594 0.206920 0.585752
O O5 0.417399 0.500000 0.408547
O O6 0.587144 0.293242 0.369748
O O7 0.436998 0.216662 0.355468
O O8 0.148093 0.500000 0.986669
O O9 0.039994 0.220011 0.044865
O O10 0.250000 0.250000 0.000000
O O11 0.239329 0.226216 0.919041
O O12 0.286252 0.210727 0.740706
O O13 0.183415 0.276371 0.692042
O O14 0.304188 0.000000 0.666719
O O15 0.633649 0.500000 0.141526
O O16 0.627467 0.769742 0.196907
O O17 0.536713 0.767013 0.135922
O O18 0.339417 0.197518 0.151964
O O19 0.167515 0.000000 0.235202
O O20 0.391807 0.500000 0.323762
O O21 0.064999 0.000000 0.867381
#
# Coordination Sequence:
#
# PCOD9184307 Si02
#       8
#     8   8   8   8   8   8   8   8
#     4  10  19  33  58  89 119 146 179 228 276 320
#     4  10  21  39  60  84 113 149 186 223 274 334
#     4   9  16  31  55  84 115 148 184 225 275 335
#     4  11  24  41  57  80 111 145 187 237 281 324
#     4   8  18  36  58  81 111 149 185 222 275 337
#     4  11  23  40  60  81 106 147 194 234 278 332
#     4  10  22  38  59  84 114 151 187 222 274 339
#     4  10  20  37  58  84 116 148 182 228 280 334
#
# _framework density 25.100939
#
# number of rings (size 3 to 8) (size 9 to 14) (size 15 to 20)
#    0.000    2.125    1.250    2.625    0.000    3.250 
#    0.000   15.000    0.000    0.000    0.000    0.000 
#    0.000    0.000    0.000    0.000    0.000    0.000 
#
# Total GULP energy -178784.509750 kJ/mol
# GULP energy per Si atom -5587.015930 kJ/mol
# Density = 2.504381 g / cm^3
# Si number density = 25.100939 Si / 1000 Ang^3
#
#
#
# Elastic Constant Matrix: (Units=GPa)
#
#
# Indices 1 2 3 4 5 6 
#
# 1 131.2239 8.4422 24.5727 0.0001 24.3463 0.0002
# 2 8.4422 64.9940 -2.8082 -0.0007 1.6472 0.0011
# 3 24.5727 -2.8082 53.2772 0.0000 18.1336 0.0002
# 4 0.0001 -0.0007 0.0000 22.9430 -0.0001 -0.9087
# 5 24.3463 1.6472 18.1336 -0.0001 57.3262 0.0002
# 6 0.0002 0.0011 0.0002 -0.9087 0.0002 11.0646
#
#
#
# Elastic Compliance Matrix: (Units=1/GPa)
#
#
# Indices 1 2 3 4 5 6 
#
# 1 0.008798 -0.001213 -0.003207 0.000000 -0.002687 0.000000
# 2 -0.001213 0.015620 0.001524 0.000000 -0.000416 -0.000002
# 3 -0.003207 0.001524 0.022279 0.000000 -0.005729 0.000000
# 4 0.000000 0.000000 0.000000 0.043728 0.000000 0.003591
# 5 -0.002687 -0.000416 -0.005729 0.000000 0.020409 0.000000
# 6 0.000000 -0.000002 0.000000 0.003591 0.000000 0.090674
#
#
# Mechanical properties :
#
#
# Convention : Reuss Voigt Hill
#
# Bulk Modulus (GPa) = 24.44676 34.43429 29.44052
# Shear Modulus (GPa) = 22.63103 32.88596 27.75850
#
# Velocity S-wave (km/s) = 3.00592 3.62352 3.32908
# Velocity P-wave (km/s) = 4.66990 5.59059 5.15086
#
# Compressibility (1/GPa) = 0.04090521
#
# Stress axis : x y z
#
# Youngs Moduli (GPa) = 113.66607 64.02035 44.88466
#
# Poissons Ratio (x) = 0.07767 0.14395
# Poissons Ratio (y) = 0.13790 -0.06842
# Poissons Ratio (z) = 0.36454 -0.09759
#
# Static dielectric constant tensor:
#      x y z
#    x 2.034500 0.000000 0.051250 
#    y 0.000000 1.965870 0.000000 
#    z 0.051250 0.000000 2.009890 
# 
# From -- ./inp_files/375423.got.cif
#   From: 2010.05.17/outbox.cif.g08.bks.cpg/sg12_188_cif.got.tgz:375423.got - 2010.06.03 13:09:07.
