data_PCOD9184465
_publ_section_title
;
Structure prediction by ZEFSAII (Michael W. Deem and Ramdas Pophale) SiO2 
 PCOD9184465
Probable space group: C 2/M
;
_chemical_formula_sum "Si O2"
_cell_formula_units_Z 64
_cell_length_a 24.260929
_cell_length_b 7.573729
_cell_length_c 24.834518
_cell_angle_alpha 90.000000
_cell_angle_beta 42.574984
_cell_angle_gamma 90.000000
_cell_volume 3087.277881
_symmetry_space_group_name_H-M "C 2/M"
_symmetry_group_IT_number 12
_symmetry_cell_setting 'monoclinic'
loop_
_space_group_symop_operation_xyz
x,y,z
-x,y,-z
-x,-y,-z
x,-y,z
1/2+x,1/2+y,z
1/2-x,1/2+y,-z
1/2-x,1/2-y,-z
1/2+x,1/2-y,z
loop_
_atom_site_type_symbol
_atom_site_label
_atom_site_fract_x
_atom_site_fract_y
_atom_site_fract_z
Si Si1 0.020844 0.286524 0.423285
Si Si2 0.778827 0.202056 0.335455
Si Si3 0.254628 0.712555 0.868098
Si Si4 0.356144 0.296060 0.485198
Si Si5 0.102583 0.217932 0.660028
Si Si6 0.336307 0.790353 0.966681
Si Si7 0.205319 0.711170 0.279253
Si Si8 0.079063 0.204330 0.198485
O O1 0.018272 0.500000 0.421251
O O2 0.950062 0.215275 0.436120
O O3 0.000000 0.239263 0.500000
O O4 0.111845 0.223703 0.343951
O O5 0.699688 0.200881 0.431017
O O6 0.850280 0.279574 0.320800
O O7 0.751825 0.283238 0.298192
O O8 0.803337 0.000000 0.306547
O O9 0.256405 0.500000 0.873001
O O10 0.250064 0.754982 0.808889
O O11 0.341875 0.781936 0.828078
O O12 0.181460 0.773782 0.959838
O O13 0.330763 0.500000 0.504175
O O14 0.352248 0.227210 0.427156
O O15 0.009330 0.280154 0.725853
O O16 0.103059 0.000000 0.659678
O O17 0.402485 0.711486 0.878726
O O18 0.350077 0.000000 0.957251
O O19 0.250000 0.750000 0.000000
O O20 0.198454 0.500000 0.291811
O O21 0.075524 0.000000 0.217584
#
# Coordination Sequence:
#
# PCOD9184465 Si02
#       8
#     8   8   8   8   8   8   8   8
#     4  10  19  34  50  68  98 132 162 198 247 296
#     4  10  20  37  53  67  95 136 171 207 249 291
#     4   9  18  31  49  74 106 131 152 192 248 297
#     4  11  21  33  51  76  98 125 167 211 252 297
#     4   9  19  34  53  73  98 130 167 208 252 293
#     4   9  17  30  49  75 104 133 158 191 242 297
#     4  10  20  32  50  72  95 128 171 205 237 289
#     4   9  17  32  52  76 102 129 160 199 245 295
#
# _framework density 20.730235
#
# number of rings (size 3 to 8) (size 9 to 14) (size 15 to 20)
#    0.000    2.375    1.250    2.625    0.000    4.750 
#    0.000    2.500    0.000    0.750    0.000    5.250 
#    0.000    0.000    0.000    0.000    0.000    0.000 
#
# Total GULP energy -178573.876864 kJ/mol
# GULP energy per Si atom -5580.433652 kJ/mol
# Density = 2.068305 g / cm^3
# Si number density = 20.730235 Si / 1000 Ang^3
#
#
#
# Elastic Constant Matrix: (Units=GPa)
#
#
# Indices 1 2 3 4 5 6 
#
# 1 76.4480 -1.4722 25.8430 -0.0018 13.0444 0.0031
# 2 -1.4722 49.1582 -10.1280 -0.0008 -2.0537 0.0135
# 3 25.8430 -10.1280 93.3711 -0.0016 27.4328 -0.0002
# 4 -0.0018 -0.0008 -0.0016 12.0407 -0.0023 2.7280
# 5 13.0444 -2.0537 27.4328 -0.0023 19.7186 0.0010
# 6 0.0031 0.0135 -0.0002 2.7280 0.0010 2.7912
#
#
#
# Elastic Compliance Matrix: (Units=1/GPa)
#
#
# Indices 1 2 3 4 5 6 
#
# 1 0.014986 -0.000281 -0.002126 0.000005 -0.006985 -0.000018
# 2 -0.000281 0.020844 0.002784 0.000031 -0.001517 -0.000130
# 3 -0.002126 0.002784 0.018777 -0.000003 -0.024426 0.000002
# 4 0.000005 0.000031 -0.000003 0.106674 0.000022 -0.104259
# 5 -0.006985 -0.001517 -0.024426 0.000022 0.089159 -0.000040
# 6 -0.000018 -0.000130 0.000002 -0.104259 -0.000040 0.460167
#
#
# Mechanical properties :
#
#
# Convention : Reuss Voigt Hill
#
# Bulk Modulus (GPa) = 18.06287 27.49587 22.77937
# Shear Modulus (GPa) = 6.86524 20.55906 13.71215
#
# Velocity S-wave (km/s) = 1.82178 3.15261 2.57467
# Velocity P-wave (km/s) = 3.62731 5.15213 4.45543
#
# Compressibility (1/GPa) = 0.05536220
#
# Stress axis : x y z
#
# Youngs Moduli (GPa) = 66.72927 47.97445 53.25675
#
# Poissons Ratio (x) = 0.01348 0.11322
# Poissons Ratio (y) = 0.01875 -0.14829
# Poissons Ratio (z) = 0.14186 -0.13358
#
# Static dielectric constant tensor:
#      x y z
#    x 1.744150 0.000010 0.018210 
#    y 0.000010 1.544660 -0.000020 
#    z 0.018210 -0.000020 1.748770 
# 
# From -- ./inp_files/348556.got.cif
#   From: 2010.05.17/outbox.cif.g08.bks.cpg/sg12_175_cif.got.tgz:348556.got - 2010.06.03 13:09:07.
