data_PCOD9184710
_publ_section_title
;
Structure prediction by ZEFSAII (Michael W. Deem and Ramdas Pophale) SiO2 
 PCOD9184710
Probable space group: C 2/M
;
_chemical_formula_sum "Si O2"
_cell_formula_units_Z 36
_cell_length_a 5.215160
_cell_length_b 30.835495
_cell_length_c 12.978219
_cell_angle_alpha 90.000000
_cell_angle_beta 102.992112
_cell_angle_gamma 90.000000
_cell_volume 2033.627434
_symmetry_space_group_name_H-M "C 2/M"
_symmetry_group_IT_number 12
_symmetry_cell_setting 'monoclinic'
loop_
_space_group_symop_operation_xyz
x,y,z
-x,y,-z
-x,-y,-z
x,-y,z
1/2+x,1/2+y,z
1/2-x,1/2+y,-z
1/2-x,1/2-y,-z
1/2+x,1/2-y,z
loop_
_atom_site_type_symbol
_atom_site_label
_atom_site_fract_x
_atom_site_fract_y
_atom_site_fract_z
Si Si1 0.836188 0.731013 0.619893
Si Si2 0.283119 0.448721 0.069503
Si Si3 0.207393 0.000000 0.426167
Si Si4 0.983125 0.086679 0.701474
Si Si5 0.453391 0.129360 0.615529
O O1 0.750000 0.750000 0.500000
O O2 0.597227 0.743033 0.671719
O O3 0.888022 0.680290 0.615535
O O4 0.264299 0.500000 0.094946
O O5 0.373042 0.423324 0.178560
O O6 0.500000 0.444305 0.000000
O O7 0.000000 0.435238 0.000000
O O8 0.500000 0.000000 0.500000
O O9 0.000000 0.000000 0.500000
O O10 0.147500 0.957483 0.353329
O O11 0.205938 0.104186 0.642654
O O12 0.734626 0.118712 0.692123
O O13 0.500000 0.117641 0.500000
#
# Coordination Sequence:
#
# PCOD9184710 Si02
#       5
#     8   8   4   8   8
#     4  10  19  34  54  76 111 155 190 231 274 324
#     4  10  21  40  64  81 104 146 199 261 303 322
#     4  12  24  40  50  74 120 170 192 218 259 330
#     4  12  24  38  56  85 117 151 209 233 277 352
#     4  12  23  35  56  85 122 162 187 231 278 335
#
# _framework density 17.702359000000001
#
# number of rings (size 3 to 8) (size 9 to 14) (size 15 to 20)
#    0.000    0.889    3.333    6.667    3.111    0.000 
#    0.000    0.000    0.000    0.000    0.000    0.000 
#    0.000   62.222    0.000    0.000    0.000    0.000 
#
# Total GULP energy -100540.698298 kJ/mol
# GULP energy per Si atom -5585.594350 kJ/mol
# Density = 1.766207 g / cm^3
# Si number density = 17.702359 Si / 1000 Ang^3
#
#
#
# Elastic Constant Matrix: (Units=GPa)
#
#
# Indices 1 2 3 4 5 6 
#
# 1 171.3072 59.1642 45.8890 0.0000 27.9076 0.0000
# 2 59.1642 113.4917 53.5904 0.0000 10.7896 0.0000
# 3 45.8890 53.5904 87.0532 0.0000 25.7831 0.0000
# 4 0.0000 0.0000 0.0000 10.9973 0.0000 8.8218
# 5 27.9076 10.7896 25.7831 0.0000 26.4231 0.0000
# 6 0.0000 0.0000 0.0000 8.8218 0.0000 29.1118
#
#
#
# Elastic Compliance Matrix: (Units=1/GPa)
#
#
# Indices 1 2 3 4 5 6 
#
# 1 0.008270 -0.003636 0.000037 0.000000 -0.007286 0.000000
# 2 -0.003636 0.014237 -0.008809 0.000000 0.006622 0.000000
# 3 0.000037 -0.008809 0.022274 0.000000 -0.018176 0.000000
# 4 0.000000 0.000000 0.000000 0.120134 0.000000 -0.036405
# 5 -0.007286 0.006622 -0.018176 0.000000 0.060573 0.000000
# 6 0.000000 0.000000 0.000000 -0.036405 0.000000 0.045382
#
#
# Mechanical properties :
#
#
# Convention : Reuss Voigt Hill
#
# Bulk Modulus (GPa) = 50.08841 76.57104 63.32972
# Shear Modulus (GPa) = 16.53757 27.52033 22.02895
#
# Velocity S-wave (km/s) = 3.05979 3.94714 3.53144
# Velocity P-wave (km/s) = 6.39056 8.00761 7.24434
#
# Compressibility (1/GPa) = 0.01996470
#
# Stress axis : x y z
#
# Youngs Moduli (GPa) = 120.91305 70.24117 44.89525
#
# Poissons Ratio (x) = 0.25540 -0.00165
# Poissons Ratio (y) = 0.43965 0.39548
# Poissons Ratio (z) = -0.00444 0.61875
#
# Static dielectric constant tensor:
#      x y z
#    x 1.665540 0.000000 0.014640 
#    y 0.000000 1.616680 0.000000 
#    z 0.014640 0.000000 1.559040 
# 
# From -- ./inp_files/115374.got.cif
#   From: 2010.05.17/outbox.cif.g08.bks.cpg/sg12_58_cif.got.tgz:115374.got - 2010.06.03 13:09:07.
