data_PCOD9184581
_publ_section_title
;
Structure prediction by ZEFSAII (Michael W. Deem and Ramdas Pophale) SiO2 
 PCOD9184581
Probable space group: C 2/M
;
_chemical_formula_sum "Si O2"
_cell_formula_units_Z 40
_cell_length_a 8.161108
_cell_length_b 20.911856
_cell_length_c 11.875158
_cell_angle_alpha 90.000000
_cell_angle_beta 106.403846
_cell_angle_gamma 90.000000
_cell_volume 1944.165765
_symmetry_space_group_name_H-M "C 2/M"
_symmetry_group_IT_number 12
_symmetry_cell_setting 'monoclinic'
loop_
_space_group_symop_operation_xyz
x,y,z
-x,y,-z
-x,-y,-z
x,-y,z
1/2+x,1/2+y,z
1/2-x,1/2+y,-z
1/2-x,1/2-y,-z
1/2+x,1/2-y,z
loop_
_atom_site_type_symbol
_atom_site_label
_atom_site_fract_x
_atom_site_fract_y
_atom_site_fract_z
Si Si1 0.322840 0.158828 0.122316
Si Si2 0.538804 0.687368 0.379046
Si Si3 0.146371 0.931142 0.932347
Si Si4 0.318025 0.778080 0.779074
Si Si5 0.165513 0.073136 0.287153
O O1 0.518638 0.179467 0.161653
O O2 0.214534 0.221977 0.135512
O O3 0.262810 0.127252 0.993974
O O4 0.280995 0.107324 0.213462
O O5 0.500000 0.702206 0.500000
O O6 0.639474 0.741389 0.329663
O O7 0.357631 0.685682 0.278322
O O8 0.646708 0.622026 0.386677
O O9 0.027213 0.928575 0.800547
O O10 0.238157 0.000000 0.952898
O O11 0.000000 0.932174 0.000000
O O12 0.217844 0.000000 0.319183
#
# Coordination Sequence:
#
# PCOD9184581 Si02
#       5
#     8   8   8   8   8
#     4   9  16  31  50  71  99 127 155 189 236 284
#     4  10  19  34  53  70  94 125 159 199 241 281
#     4   8  14  28  50  70  92 126 160 189 230 282
#     4   9  19  32  49  75  98 123 157 195 236 285
#     4   9  18  33  51  71  95 126 163 196 232 280
#
# _framework density 20.574376999999998
#
# number of rings (size 3 to 8) (size 9 to 14) (size 15 to 20)
#    0.000    3.000    0.000    2.400    0.000    0.400 
#    0.000   30.000    0.000    3.600    0.000    0.000 
#    0.000    0.000    0.000    0.000    0.000    0.000 
#
# Total GULP energy -111513.721085 kJ/mol
# GULP energy per Si atom -5575.686054 kJ/mol
# Density = 2.052755 g / cm^3
# Si number density = 20.574377 Si / 1000 Ang^3
#
#
#
# Elastic Constant Matrix: (Units=GPa)
#
#
# Indices 1 2 3 4 5 6 
#
# 1 71.0180 52.6047 -1.2103 0.0000 0.0435 0.0000
# 2 52.6047 111.3704 9.0191 0.0000 7.2087 0.0000
# 3 -1.2103 9.0191 22.2596 0.0000 -6.3086 0.0000
# 4 0.0000 0.0000 0.0000 -7.8880 0.0000 -13.3830
# 5 0.0435 7.2087 -6.3086 0.0000 28.9014 0.0000
# 6 0.0000 0.0000 0.0000 -13.3830 0.0000 -11.7184
#
#
#
# Elastic Compliance Matrix: (Units=1/GPa)
#
#
# Indices 1 2 3 4 5 6 
#
# 1 0.022839 -0.011662 0.007229 0.000000 0.004452 0.000000
# 2 -0.011662 0.015551 -0.008559 0.000000 -0.005730 0.000000
# 3 0.007229 -0.008559 0.052644 0.000000 0.013615 0.000000
# 4 0.000000 0.000000 0.000000 0.135206 0.000000 -0.154413
# 5 0.004452 -0.005730 0.013615 0.000000 0.038995 0.000000
# 6 0.000000 0.000000 0.000000 -0.154413 0.000000 0.091012
#
#
# Mechanical properties :
#
#
# Convention : Reuss Voigt Hill
#
# Bulk Modulus (GPa) = 15.37258 36.16391 25.76824
# Shear Modulus (GPa) = 12.37886 11.47465 11.92675
#
# Velocity S-wave (km/s) = 2.45555 2.36416 2.41029
# Velocity P-wave (km/s) = 3.94050 5.00676 4.50529
#
# Compressibility (1/GPa) = 0.06505090
#
# Stress axis : x y z
#
# Youngs Moduli (GPa) = 43.78409 64.30361 18.99554
#
# Poissons Ratio (x) = 0.74988 -0.13731
# Poissons Ratio (y) = 0.51059 0.16258
# Poissons Ratio (z) = -0.31650 0.55037
#
# Static dielectric constant tensor:
#      x y z
#    x 1.707280 0.000000 -0.007460 
#    y 0.000000 1.788840 0.000000 
#    z -0.007460 0.000000 1.762340 
# 
# From -- ./inp_files/196247.got.cif
#   From: 2010.05.17/outbox.cif.g08.bks.cpg/sg12_99_cif.got.tgz:196247.got - 2010.06.03 13:09:07.
