data_PCOD9184719
_publ_section_title
;
Structure prediction by ZEFSAII (Michael W. Deem and Ramdas Pophale) SiO2 
 PCOD9184719
Probable space group: C 2/M
;
_chemical_formula_sum "Si O2"
_cell_formula_units_Z 64
_cell_length_a 10.406664
_cell_length_b 17.947444
_cell_length_c 22.360121
_cell_angle_alpha 90.000000
_cell_angle_beta 62.986380
_cell_angle_gamma 90.000000
_cell_volume 3720.630615
_symmetry_space_group_name_H-M "C 2/M"
_symmetry_group_IT_number 12
_symmetry_cell_setting 'monoclinic'
loop_
_space_group_symop_operation_xyz
x,y,z
-x,y,-z
-x,-y,-z
x,-y,z
1/2+x,1/2+y,z
1/2-x,1/2+y,-z
1/2-x,1/2-y,-z
1/2+x,1/2-y,z
loop_
_atom_site_type_symbol
_atom_site_label
_atom_site_fract_x
_atom_site_fract_y
_atom_site_fract_z
Si Si1 0.206627 0.080279 0.307095
Si Si2 0.105921 0.769815 0.645824
Si Si3 0.644188 0.680398 0.009650
Si Si4 0.056677 0.147258 0.842703
Si Si5 0.419145 0.419536 0.290799
Si Si6 0.196672 0.411181 0.122337
Si Si7 0.597196 0.684208 0.421010
Si Si8 0.943492 0.696637 0.220695
O O1 0.069874 0.075975 0.293298
O O2 0.146768 0.104615 0.384188
O O3 0.305143 0.145768 0.261420
O O4 0.281189 0.000000 0.293070
O O5 0.252622 0.726892 0.599296
O O6 0.156055 0.850057 0.661201
O O7 0.997699 0.779665 0.613040
O O8 0.025404 0.730262 0.719369
O O9 0.733373 0.618461 0.954219
O O10 0.500000 0.699769 0.000000
O O11 0.750000 0.750000 0.000000
O O12 0.582280 0.650121 0.085250
O O13 0.183810 0.109925 0.853541
O O14 0.045664 0.101142 0.784449
O O15 0.084475 0.232892 0.816428
O O16 0.345229 0.500000 0.310379
O O17 0.167307 0.500000 0.127727
O O18 0.062799 0.358052 0.167827
O O19 0.500000 0.680370 0.500000
#
# Coordination Sequence:
#
# PCOD9184719 Si02
#       8
#     8   8   8   8   8   8   8   8
#     4   9  19  34  52  79 108 137 173 221 270 319
#     4   9  20  32  53  79 104 136 180 219 264 317
#     4  10  21  38  56  80 110 149 190 231 275 338
#     4  10  21  33  56  79 106 142 188 221 273 330
#     4   9  18  32  52  76 105 136 174 223 272 318
#     4  11  23  36  56  84 112 144 183 235 285 326
#     4  10  19  34  54  77 105 139 175 217 263 321
#     4  10  20  33  57  76 111 141 181 222 275 330
#
# _framework density 17.201387
#
# number of rings (size 3 to 8) (size 9 to 14) (size 15 to 20)
#    0.000    2.250    1.250    1.125    8.750    3.000 
#    0.000    0.000    0.000    0.750    0.000    0.000 
#    0.000    0.000    0.000    0.000    0.000    0.000 
#
# Total GULP energy -178215.455241 kJ/mol
# GULP energy per Si atom -5569.232976 kJ/mol
# Density = 1.716224 g / cm^3
# Si number density = 17.201387 Si / 1000 Ang^3
#
#
#
# Elastic Constant Matrix: (Units=GPa)
#
#
# Indices 1 2 3 4 5 6 
#
# 1 23.0116 12.2608 6.5011 0.0000 -2.4787 0.0000
# 2 12.2608 112.4673 24.4370 0.0000 0.1171 0.0000
# 3 6.5011 24.4370 75.4445 0.0000 -1.5446 0.0000
# 4 0.0000 0.0000 0.0000 9.4032 0.0000 -5.8444
# 5 -2.4787 0.1171 -1.5446 0.0000 21.3886 0.0000
# 6 0.0000 0.0000 0.0000 -5.8444 0.0000 4.9694
#
#
#
# Elastic Compliance Matrix: (Units=1/GPa)
#
#
# Indices 1 2 3 4 5 6 
#
# 1 0.047183 -0.004614 -0.002462 0.000000 0.005316 0.000000
# 2 -0.004614 0.010018 -0.002863 0.000000 -0.000796 0.000000
# 3 -0.002462 -0.002863 0.014410 0.000000 0.000771 0.000000
# 4 0.000000 0.000000 0.000000 0.395306 0.000000 0.464912
# 5 0.005316 -0.000796 0.000771 0.000000 0.047430 0.000000
# 6 0.000000 0.000000 0.000000 0.464912 0.000000 0.748010
#
#
# Mechanical properties :
#
#
# Convention : Reuss Voigt Hill
#
# Bulk Modulus (GPa) = 19.33086 33.03568 26.18327
# Shear Modulus (GPa) = 3.84769 18.33385 11.09077
#
# Velocity S-wave (km/s) = 1.49723 3.26826 2.54197
# Velocity P-wave (km/s) = 3.77509 5.78696 4.88571
#
# Compressibility (1/GPa) = 0.05173075
#
# Stress axis : x y z
#
# Youngs Moduli (GPa) = 21.19399 99.82528 69.39517
#
# Poissons Ratio (x) = 0.46062 0.17088
# Poissons Ratio (y) = 0.09779 0.19871
# Poissons Ratio (z) = 0.05219 0.28584
#
# Static dielectric constant tensor:
#      x y z
#    x 1.574300 0.000000 0.005750 
#    y 0.000000 1.624840 0.000000 
#    z 0.005750 0.000000 1.582050 
# 
# From -- ./inp_files/263891.got.cif
#   From: 2010.05.17/outbox.cif.g08.bks.cpg/sg12_132_cif.got.tgz:263891.got - 2010.06.03 13:09:07.
