data_PCOD9184857
_publ_section_title
;
Structure prediction by ZEFSAII (Michael W. Deem and Ramdas Pophale) SiO2 
 PCOD9184857
Probable space group: C 2/M
;
_chemical_formula_sum "Si O2"
_cell_formula_units_Z 64
_cell_length_a 20.015604
_cell_length_b 7.374915
_cell_length_c 19.178762
_cell_angle_alpha 90.000000
_cell_angle_beta 89.829275
_cell_angle_gamma 90.000000
_cell_volume 2831.029280
_symmetry_space_group_name_H-M "C 2/M"
_symmetry_group_IT_number 12
_symmetry_cell_setting 'monoclinic'
loop_
_space_group_symop_operation_xyz
x,y,z
-x,y,-z
-x,-y,-z
x,-y,z
1/2+x,1/2+y,z
1/2-x,1/2+y,-z
1/2-x,1/2-y,-z
1/2+x,1/2-y,z
loop_
_atom_site_type_symbol
_atom_site_label
_atom_site_fract_x
_atom_site_fract_y
_atom_site_fract_z
Si Si1 0.217401 0.715173 0.925875
Si Si2 0.430501 0.719013 0.414211
Si Si3 0.917784 0.220921 0.572886
Si Si4 0.656828 0.278479 0.156460
Si Si5 0.590799 0.219971 0.850866
Si Si6 0.182917 0.221433 0.308810
Si Si7 0.166152 0.290295 0.712564
Si Si8 0.536075 0.707394 0.067596
O O1 0.213575 0.500000 0.917703
O O2 0.269779 0.780472 0.868001
O O3 0.142949 0.779757 0.910963
O O4 0.250000 0.750000 0.000000
O O5 0.429639 0.500000 0.412952
O O6 0.409954 0.776599 0.492360
O O7 0.507667 0.775571 0.403262
O O8 0.380296 0.782057 0.355077
O O9 0.859739 0.282758 0.624775
O O10 0.917486 0.000000 0.573038
O O11 0.654695 0.500000 0.154623
O O12 0.647077 0.226406 0.236506
O O13 0.602913 0.211917 0.100562
O O14 0.624138 0.282587 0.778413
O O15 0.518480 0.291530 0.870673
O O16 0.584860 0.000000 0.849932
O O17 0.259998 0.283853 0.304002
O O18 0.183789 0.000000 0.311790
O O19 0.178418 0.500000 0.731940
O O20 0.552451 0.500000 0.048106
O O21 0.500000 0.791238 0.000000
#
# Coordination Sequence:
#
# PCOD9184857 Si02
#       8
#     8   8   8   8   8   8   8   8
#     4  10  19  34  55  76  99 132 171 212 253 298
#     4   9  18  33  53  80 108 132 166 214 260 300
#     4   8  16  31  52  78 105 134 171 211 252 303
#     4   9  17  31  51  74 100 131 172 214 248 293
#     4  10  21  36  52  74 106 139 170 207 257 313
#     4   9  16  30  52  74  98 136 179 209 242 301
#     4  10  20  34  52  76 104 137 176 211 247 304
#     4  10  21  35  53  80 106 129 169 222 262 298
#
# _framework density 22.606618000000001
#
# number of rings (size 3 to 8) (size 9 to 14) (size 15 to 20)
#    0.000    2.625    1.250    1.500    1.750    2.750 
#    0.000    1.875    0.000    1.500    0.000    0.000 
#    0.000    0.000    0.000    0.000    0.000    0.000 
#
# Total GULP energy -178710.052673 kJ/mol
# GULP energy per Si atom -5584.689146 kJ/mol
# Density = 2.255516 g / cm^3
# Si number density = 22.606618 Si / 1000 Ang^3
#
#
#
# Elastic Constant Matrix: (Units=GPa)
#
#
# Indices 1 2 3 4 5 6 
#
# 1 76.4260 -1.7360 25.5762 0.0000 0.4149 0.0000
# 2 -1.7360 80.7901 -4.6327 0.0000 -2.9735 0.0000
# 3 25.5762 -4.6327 96.4778 0.0000 -3.6669 0.0000
# 4 0.0000 0.0000 0.0000 11.5980 0.0000 3.4724
# 5 0.4149 -2.9735 -3.6669 0.0000 46.2848 0.0000
# 6 0.0000 0.0000 0.0000 3.4724 0.0000 7.3643
#
#
#
# Elastic Compliance Matrix: (Units=1/GPa)
#
#
# Indices 1 2 3 4 5 6 
#
# 1 0.014367 0.000074 -0.003821 0.000000 -0.000427 0.000000
# 2 0.000074 0.012446 0.000610 0.000000 0.000847 0.000000
# 3 -0.003821 0.000610 0.011445 0.000000 0.000980 0.000000
# 4 0.000000 0.000000 0.000000 0.100395 0.000000 -0.047337
# 5 -0.000427 0.000847 0.000980 0.000000 0.021741 0.000000
# 6 0.000000 0.000000 0.000000 -0.047337 0.000000 0.158110
#
#
# Mechanical properties :
#
#
# Convention : Reuss Voigt Hill
#
# Bulk Modulus (GPa) = 31.26667 32.45653 31.86160
# Shear Modulus (GPa) = 14.90582 28.68183 21.79383
#
# Velocity S-wave (km/s) = 2.57058 3.56580 3.10828
# Velocity P-wave (km/s) = 4.76144 5.59834 5.19677
#
# Compressibility (1/GPa) = 0.03198294
#
# Stress axis : x y z
#
# Youngs Moduli (GPa) = 69.60193 80.35018 87.37667
#
# Poissons Ratio (x) = -0.00594 0.33391
# Poissons Ratio (y) = -0.00514 -0.05332
# Poissons Ratio (z) = 0.26598 -0.04903
#
# Static dielectric constant tensor:
#      x y z
#    x 1.873770 0.000000 0.044240 
#    y 0.000000 1.849070 0.000000 
#    z 0.044240 0.000000 1.855680 
# 
# From -- ./inp_files/276578.got.cif
#   From: 2010.05.17/outbox.cif.g08.bks.cpg/sg12_139_cif.got.tgz:276578.got - 2010.06.03 13:09:07.
