data_PCOD9184512
_publ_section_title
;
Structure prediction by ZEFSAII (Michael W. Deem and Ramdas Pophale) SiO2 
 PCOD9184512
Probable space group: C 2/M
;
_chemical_formula_sum "Si O2"
_cell_formula_units_Z 52
_cell_length_a 22.810587
_cell_length_b 7.342628
_cell_length_c 14.549736
_cell_angle_alpha 90.000000
_cell_angle_beta 54.068461
_cell_angle_gamma 90.000000
_cell_volume 1973.228108
_symmetry_space_group_name_H-M "C 2/M"
_symmetry_group_IT_number 12
_symmetry_cell_setting 'monoclinic'
loop_
_space_group_symop_operation_xyz
x,y,z
-x,y,-z
-x,-y,-z
x,-y,z
1/2+x,1/2+y,z
1/2-x,1/2+y,-z
1/2-x,1/2-y,-z
1/2+x,1/2-y,z
loop_
_atom_site_type_symbol
_atom_site_label
_atom_site_fract_x
_atom_site_fract_y
_atom_site_fract_z
Si Si1 0.561029 0.204548 0.369887
Si Si2 0.715694 0.287399 0.887034
Si Si3 0.863513 0.214755 0.527125
Si Si4 0.946644 0.206780 0.970152
Si Si5 0.156997 0.000000 0.190922
Si Si6 0.437425 0.215727 0.278649
Si Si7 0.710261 0.219896 0.675106
O O1 0.500000 0.271301 0.500000
O O2 0.625003 0.191553 0.386905
O O3 0.593526 0.342022 0.266927
O O4 0.544002 0.000000 0.353093
O O5 0.721802 0.500000 0.911716
O O6 0.717064 0.275142 0.774762
O O7 0.778739 0.160077 0.868417
O O8 0.632804 0.219798 0.980704
O O9 0.926171 0.247973 0.396206
O O10 0.786034 0.276044 0.559166
O O11 0.859659 0.000000 0.550757
O O12 0.994580 0.204338 0.835216
O O13 0.931720 0.000000 0.016049
O O14 0.000000 0.289059 0.000000
O O15 0.363852 0.288818 0.299574
O O16 0.440817 0.000000 0.261538
O O17 0.706446 0.000000 0.675398
#
# Coordination Sequence:
#
# PCOD9184512 Si02
#       7
#     8   8   8   8   4   8   8
#     4  11  23  40  65  93 123 148 184 232 295 361
#     4  11  21  33  56  82 114 157 199 247 286 334
#     4  11  21  37  56  80 121 154 191 236 288 351
#     4  10  21  36  52  75 110 155 210 253 287 333
#     4  12  21  38  59  88 122 148 189 238 294 346
#     4  11  23  33  52  79 116 161 203 241 290 339
#     4  10  19  34  51  78 113 159 197 238 286 337
#
# _framework density 26.352754999999998
#
# number of rings (size 3 to 8) (size 9 to 14) (size 15 to 20)
#    0.000    1.231    4.615    2.077    1.077    1.538 
#    0.000    0.000    0.000    0.000    0.000    1.077 
#    0.000    0.000    0.000    0.000    0.000    0.000 
#
# Total GULP energy -144976.572041 kJ/mol
# GULP energy per Si atom -5576.022002 kJ/mol
# Density = 2.629277 g / cm^3
# Si number density = 26.352755 Si / 1000 Ang^3
#
#
#
# Elastic Constant Matrix: (Units=GPa)
#
#
# Indices 1 2 3 4 5 6 
#
# 1 77.6700 16.2552 33.8780 0.0000 -8.5088 0.0000
# 2 16.2552 167.0392 19.8258 0.0001 -22.8000 -0.0001
# 3 33.8780 19.8258 159.7907 0.0000 -36.8274 0.0000
# 4 0.0000 0.0001 0.0000 8.0124 0.0000 1.5167
# 5 -8.5088 -22.8000 -36.8274 0.0000 46.4432 0.0000
# 6 0.0000 -0.0001 0.0000 1.5167 0.0000 16.0761
#
#
#
# Elastic Compliance Matrix: (Units=1/GPa)
#
#
# Indices 1 2 3 4 5 6 
#
# 1 0.014369 -0.001080 -0.002971 0.000000 -0.000254 0.000000
# 2 -0.001080 0.006499 0.000138 0.000000 0.003102 0.000000
# 3 -0.002971 0.000138 0.008273 0.000000 0.006083 0.000000
# 4 0.000000 0.000000 0.000000 0.127076 0.000000 -0.011989
# 5 -0.000254 0.003102 0.006083 0.000000 0.027832 0.000000
# 6 0.000000 0.000000 0.000000 -0.011989 0.000000 0.063335
#
#
# Mechanical properties :
#
#
# Convention : Reuss Voigt Hill
#
# Bulk Modulus (GPa) = 46.91830 60.49087 53.70458
# Shear Modulus (GPa) = 19.06101 36.40907 27.73504
#
# Velocity S-wave (km/s) = 2.69235 3.72103 3.24767
# Velocity P-wave (km/s) = 5.24477 6.43937 5.87252
#
# Compressibility (1/GPa) = 0.02131365
#
# Stress axis : x y z
#
# Youngs Moduli (GPa) = 69.59361 153.87541 120.87447
#
# Poissons Ratio (x) = 0.16623 0.35910
# Poissons Ratio (y) = 0.07518 -0.01662
# Poissons Ratio (z) = 0.20675 -0.02116
#
# Static dielectric constant tensor:
#      x y z
#    x 2.152820 0.000000 -0.048800 
#    y 0.000000 1.995160 0.000000 
#    z -0.048800 0.000000 2.097830 
# 
# From -- ./inp_files/329242.got.cif
#   From: 2010.05.17/outbox.cif.g08.bks.cpg/sg12_165_cif.got.tgz:329242.got - 2010.06.03 13:09:07.
