data_PCOD9184243
_publ_section_title
;
Structure prediction by ZEFSAII (Michael W. Deem and Ramdas Pophale) SiO2 
 PCOD9184243
Probable space group: C 2/M
;
_chemical_formula_sum "Si O2"
_cell_formula_units_Z 52
_cell_length_a 27.055218
_cell_length_b 12.396069
_cell_length_c 13.524423
_cell_angle_alpha 90.000000
_cell_angle_beta 138.511234
_cell_angle_gamma 90.000000
_cell_volume 3004.844995
_symmetry_space_group_name_H-M "C 2/M"
_symmetry_group_IT_number 12
_symmetry_cell_setting 'monoclinic'
loop_
_space_group_symop_operation_xyz
x,y,z
-x,y,-z
-x,-y,-z
x,-y,z
1/2+x,1/2+y,z
1/2-x,1/2+y,-z
1/2-x,1/2-y,-z
1/2+x,1/2-y,z
loop_
_atom_site_type_symbol
_atom_site_label
_atom_site_fract_x
_atom_site_fract_y
_atom_site_fract_z
Si Si1 0.733216 0.276659 0.589669
Si Si2 0.591269 0.218362 0.864772
Si Si3 0.867126 0.627183 0.284835
Si Si4 0.293548 0.626156 0.852456
Si Si5 0.404500 0.000000 0.656429
Si Si6 0.187786 0.500000 0.296419
Si Si7 0.577530 0.780533 0.434365
Si Si8 0.068229 0.500000 0.954155
O O1 0.750000 0.250000 0.500000
O O2 0.770967 0.186716 0.716995
O O3 0.768968 0.392058 0.664483
O O4 0.646205 0.284727 0.490125
O O5 0.623481 0.182201 0.807067
O O6 0.505518 0.255322 0.718748
O O7 0.588657 0.108220 0.924742
O O8 0.641550 0.307071 0.995149
O O9 0.890537 0.500000 0.316730
O O10 0.781543 0.629687 0.193478
O O11 0.912732 0.695692 0.434798
O O12 0.312188 0.500000 0.864505
O O13 0.333406 0.000000 0.619832
O O14 0.408567 0.897043 0.593752
O O15 0.479622 0.000000 0.832814
O O16 0.112666 0.500000 0.121265
#
# Coordination Sequence:
#
# PCOD9184243 Si02
#       8
#     8   8   8   8   4   4   8   4
#     4  11  23  38  59  85 110 148 192 234 282 332
#     4  11  20  37  58  84 118 149 184 233 285 336
#     4  10  19  33  60  89 114 145 188 236 285 335
#     4  10  23  40  59  81 115 154 191 228 277 347
#     4  10  19  33  58  85 118 143 183 236 293 332
#     4  12  21  38  60  80 114 152 190 236 283 334
#     4  10  21  35  55  88 118 148 187 234 281 336
#     4  10  21  33  54  93 114 137 183 246 291 325
#
# _framework density 17.305385000000001
#
# number of rings (size 3 to 8) (size 9 to 14) (size 15 to 20)
#    0.000    1.538    4.615    1.154    2.154    0.615 
#    1.385    0.769    0.000    1.846    0.000    0.000 
#    0.000    0.000    0.000    0.000    0.000    0.000 
#
# Total GULP energy -145050.687954 kJ/mol
# GULP energy per Si atom -5578.872614 kJ/mol
# Density = 1.726600 g / cm^3
# Si number density = 17.305385 Si / 1000 Ang^3
#
#
#
# Elastic Constant Matrix: (Units=GPa)
#
#
# Indices 1 2 3 4 5 6 
#
# 1 91.3760 44.1499 47.2823 0.0000 -14.6515 0.0000
# 2 44.1499 96.6685 44.6766 0.0000 0.4847 0.0000
# 3 47.2823 44.6766 101.1797 0.0000 -5.8883 0.0000
# 4 0.0000 0.0000 0.0000 19.7490 0.0000 1.0993
# 5 -14.6515 0.4847 -5.8883 0.0000 26.1951 0.0000
# 6 0.0000 0.0000 0.0000 1.0993 0.0000 19.1582
#
#
#
# Elastic Compliance Matrix: (Units=1/GPa)
#
#
# Indices 1 2 3 4 5 6 
#
# 1 0.017908 -0.005775 -0.005299 0.000000 0.008932 0.000000
# 2 -0.005775 0.014922 -0.004148 0.000000 -0.004439 0.000000
# 3 -0.005299 -0.004148 0.014209 0.000000 0.000307 0.000000
# 4 0.000000 0.000000 0.000000 0.050798 0.000000 -0.002915
# 5 0.008932 -0.004439 0.000307 0.000000 0.043322 0.000000
# 6 0.000000 0.000000 0.000000 -0.002915 0.000000 0.052364
#
#
# Mechanical properties :
#
#
# Convention : Reuss Voigt Hill
#
# Bulk Modulus (GPa) = 60.26012 62.38244 61.32128
# Shear Modulus (GPa) = 21.78661 23.22814 22.50737
#
# Velocity S-wave (km/s) = 3.55202 3.66765 3.61029
# Velocity P-wave (km/s) = 7.19164 7.35267 7.27260
#
# Compressibility (1/GPa) = 0.01659472
#
# Stress axis : x y z
#
# Youngs Moduli (GPa) = 55.84080 67.01722 70.37639
#
# Poissons Ratio (x) = 0.38700 0.37292
# Poissons Ratio (y) = 0.32246 0.29195
# Poissons Ratio (z) = 0.29590 0.27802
#
# Static dielectric constant tensor:
#      x y z
#    x 1.583230 0.000000 0.007940 
#    y 0.000000 1.556390 0.000000 
#    z 0.007940 0.000000 1.603430 
# 
# From -- ./inp_files/175367.got.cif
#   From: 2010.05.17/outbox.cif.g08.bks.cpg/sg12_88_cif.got.tgz:175367.got - 2010.06.03 13:09:07.
