data_PCOD9184984
_publ_section_title
;
Structure prediction by ZEFSAII (Michael W. Deem and Ramdas Pophale) SiO2 
 PCOD9184984
Probable space group: C 2/M
;
_chemical_formula_sum "Si O2"
_cell_formula_units_Z 64
_cell_length_a 25.724611
_cell_length_b 8.812335
_cell_length_c 14.557222
_cell_angle_alpha 90.000000
_cell_angle_beta 90.400056
_cell_angle_gamma 90.000000
_cell_volume 3299.952839
_symmetry_space_group_name_H-M "C 2/M"
_symmetry_group_IT_number 12
_symmetry_cell_setting 'monoclinic'
loop_
_space_group_symop_operation_xyz
x,y,z
-x,y,-z
-x,-y,-z
x,-y,z
1/2+x,1/2+y,z
1/2-x,1/2+y,-z
1/2-x,1/2-y,-z
1/2+x,1/2-y,z
loop_
_atom_site_type_symbol
_atom_site_label
_atom_site_fract_x
_atom_site_fract_y
_atom_site_fract_z
Si Si1 0.306380 0.180340 0.027563
Si Si2 0.161673 0.181493 0.776947
Si Si3 0.443256 0.682057 0.711477
Si Si4 0.196750 0.327503 0.474748
Si Si5 0.916280 0.317053 0.512558
Si Si6 0.056915 0.818011 0.673976
Si Si7 0.356745 0.678746 0.857086
Si Si8 0.224418 0.672417 0.267644
O O1 0.325760 0.242198 0.125683
O O2 0.301258 0.000000 0.029685
O O3 0.250000 0.250000 0.000000
O O4 0.347633 0.232151 0.950908
O O5 0.109165 0.234871 0.726414
O O6 0.214571 0.205725 0.719252
O O7 0.156317 0.000000 0.790520
O O8 0.436551 0.500000 0.701865
O O9 0.430593 0.755917 0.612989
O O10 0.504162 0.712744 0.729600
O O11 0.404310 0.730599 0.792278
O O12 0.199367 0.500000 0.507795
O O13 0.250000 0.250000 0.500000
O O14 0.142741 0.260167 0.507791
O O15 0.195553 0.327243 0.364195
O O16 0.917052 0.500000 0.514822
O O17 0.948339 0.257315 0.426338
O O18 0.060695 0.000000 0.661022
O O19 0.362312 0.500000 0.875461
O O20 0.304357 0.711316 0.798462
O O21 0.220676 0.500000 0.228823
#
# Coordination Sequence:
#
# PCOD9184984 Si02
#       8
#     8   8   8   8   8   8   8   8
#     4  12  24  39  62  91 122 154 190 236 291 355
#     4  10  21  38  62  88 117 155 197 243 294 347
#     4  10  22  40  62  87 116 156 206 248 288 343
#     4  10  21  34  50  78 116 156 195 237 290 349
#     4  11  22  36  57  87 120 157 201 247 294 347
#     4  10  22  41  62  85 117 158 201 247 294 343
#     4  11  22  37  60  89 116 149 193 242 290 342
#     4  10  19  34  55  80 114 152 188 235 292 348
#
# _framework density 19.394216
#
# number of rings (size 3 to 8) (size 9 to 14) (size 15 to 20)
#    0.000    1.500    2.500    3.000    0.000    5.500 
#    0.000    0.625    0.000    3.750    0.000    0.000 
#    0.000    0.000    0.000    0.000    0.000    0.000 
#
# Total GULP energy -178667.009349 kJ/mol
# GULP energy per Si atom -5583.344042 kJ/mol
# Density = 1.935007 g / cm^3
# Si number density = 19.394216 Si / 1000 Ang^3
#
#
#
# Elastic Constant Matrix: (Units=GPa)
#
#
# Indices 1 2 3 4 5 6 
#
# 1 119.0459 23.9377 38.8345 0.0000 -17.3608 0.0000
# 2 23.9377 35.3241 21.5937 0.0000 -5.7659 0.0000
# 3 38.8345 21.5937 80.8089 0.0000 -14.5497 0.0000
# 4 0.0000 0.0000 0.0000 29.3446 0.0000 1.2487
# 5 -17.3608 -5.7659 -14.5497 0.0000 29.0947 0.0000
# 6 0.0000 0.0000 0.0000 1.2487 0.0000 22.1460
#
#
#
# Elastic Compliance Matrix: (Units=1/GPa)
#
#
# Indices 1 2 3 4 5 6 
#
# 1 0.011021 -0.004804 -0.003297 0.000000 0.003976 0.000000
# 2 -0.004804 0.036084 -0.007211 0.000000 0.000678 0.000000
# 3 -0.003297 -0.007211 0.016786 0.000000 0.004998 0.000000
# 4 0.000000 0.000000 0.000000 0.034160 0.000000 -0.001926
# 5 0.003976 0.000678 0.004998 0.000000 0.039377 0.000000
# 6 0.000000 0.000000 0.000000 -0.001926 0.000000 0.045264
#
#
# Mechanical properties :
#
#
# Convention : Reuss Voigt Hill
#
# Bulk Modulus (GPa) = 30.06056 44.87895 37.46976
# Shear Modulus (GPa) = 22.28103 26.17126 24.22615
#
# Velocity S-wave (km/s) = 3.39315 3.67745 3.53816
# Velocity P-wave (km/s) = 5.55740 6.42045 6.00445
#
# Compressibility (1/GPa) = 0.03326618
#
# Stress axis : x y z
#
# Youngs Moduli (GPa) = 90.73182 27.71303 59.57263
#
# Poissons Ratio (x) = 0.13315 0.19641
# Poissons Ratio (y) = 0.43592 0.42960
# Poissons Ratio (z) = 0.29914 0.19985
#
# Static dielectric constant tensor:
#      x y z
#    x 1.709800 0.000000 -0.009030 
#    y 0.000000 1.673210 0.000000 
#    z -0.009030 0.000000 1.670740 
# 
# From -- ./inp_files/238760.got.cif
#   From: 2010.05.17/outbox.cif.g08.bks.cpg/sg12_120_cif.got.tgz:238760.got - 2010.06.03 13:09:07.
