data_PCOD9184952
_publ_section_title
;
Structure prediction by ZEFSAII (Michael W. Deem and Ramdas Pophale) SiO2 
 PCOD9184952
Probable space group: C 2/M
;
_chemical_formula_sum "Si O2"
_cell_formula_units_Z 56
_cell_length_a 14.947357
_cell_length_b 7.882094
_cell_length_c 30.815718
_cell_angle_alpha 90.000000
_cell_angle_beta 52.877999
_cell_angle_gamma 90.000000
_cell_volume 2894.866424
_symmetry_space_group_name_H-M "C 2/M"
_symmetry_group_IT_number 12
_symmetry_cell_setting 'monoclinic'
loop_
_space_group_symop_operation_xyz
x,y,z
-x,y,-z
-x,-y,-z
x,-y,z
1/2+x,1/2+y,z
1/2-x,1/2+y,-z
1/2-x,1/2-y,-z
1/2+x,1/2-y,z
loop_
_atom_site_type_symbol
_atom_site_label
_atom_site_fract_x
_atom_site_fract_y
_atom_site_fract_z
Si Si1 0.046433 0.298089 0.266378
Si Si2 0.693904 0.791983 0.143315
Si Si3 0.918193 0.707894 0.646424
Si Si4 0.172580 0.702409 0.562902
Si Si5 0.709302 0.299577 0.649719
Si Si6 0.142470 0.702997 0.060641
Si Si7 0.056453 0.800982 0.940087
O O1 0.063976 0.500000 0.262293
O O2 0.115966 0.229826 0.205223
O O3 0.087674 0.235223 0.301523
O O4 0.913040 0.270049 0.301509
O O5 0.655656 0.741826 0.106416
O O6 0.822658 0.732883 0.108731
O O7 0.691057 0.000000 0.145511
O O8 0.916560 0.500000 0.646244
O O9 0.815065 0.766813 0.646631
O O10 0.043214 0.760768 0.594709
O O11 0.168875 0.500000 0.567842
O O12 0.250000 0.750000 0.500000
O O13 0.219262 0.768485 0.595209
O O14 0.704904 0.500000 0.658276
O O15 0.132294 0.500000 0.062855
O O16 0.033450 0.782426 0.071108
O O17 0.250000 0.750000 0.000000
O O18 0.076113 0.000000 0.944010
O O19 0.000000 0.724896 0.000000
#
# Coordination Sequence:
#
# PCOD9184952 Si02
#       7
#     8   8   8   8   8   8   8
#     4   9  18  36  56  75 101 140 180 217 265 323
#     4   9  19  35  55  75 104 140 174 214 270 329
#     4   8  17  33  54  75 102 140 178 212 259 316
#     4  10  20  36  55  80 112 147 182 218 260 314
#     4  10  19  34  55  80 107 139 177 224 267 307
#     4  11  21  35  53  77 104 137 174 217 267 323
#     4  10  19  35  55  76 102 136 174 213 262 326
#
# _framework density 19.344588000000002
#
# number of rings (size 3 to 8) (size 9 to 14) (size 15 to 20)
#    0.000    2.429    1.429    2.143    0.000    2.000 
#    0.000   13.571    0.000    0.000    0.000    0.000 
#    0.000    0.000    0.000    0.000    0.000    0.000 
#
# Total GULP energy -156177.935916 kJ/mol
# GULP energy per Si atom -5577.783426 kJ/mol
# Density = 1.930056 g / cm^3
# Si number density = 19.344588 Si / 1000 Ang^3
#
#
#
# Elastic Constant Matrix: (Units=GPa)
#
#
# Indices 1 2 3 4 5 6 
#
# 1 171.9108 -17.6933 96.0334 0.0001 -0.9330 0.0000
# 2 -17.6933 10.0909 -8.0698 0.0003 0.8437 0.0000
# 3 96.0334 -8.0698 192.4049 0.0000 2.3266 0.0000
# 4 0.0001 0.0003 0.0000 15.6878 0.0001 0.3522
# 5 -0.9330 0.8437 2.3266 0.0001 13.2394 0.0001
# 6 0.0000 0.0000 0.0000 0.3522 0.0001 24.9465
#
#
#
# Elastic Compliance Matrix: (Units=1/GPa)
#
#
# Indices 1 2 3 4 5 6 
#
# 1 0.009543 0.013318 -0.004212 0.000000 0.000564 0.000000
# 2 0.013318 0.121835 -0.001458 -0.000003 -0.006570 0.000000
# 3 -0.004212 -0.001458 0.007256 0.000000 -0.001479 0.000000
# 4 0.000000 -0.000003 0.000000 0.063764 0.000000 -0.000900
# 5 0.000564 -0.006570 -0.001479 0.000000 0.076250 0.000000
# 6 0.000000 0.000000 0.000000 -0.000900 0.000000 0.040098
#
#
# Mechanical properties :
#
#
# Convention : Reuss Voigt Hill
#
# Bulk Modulus (GPa) = 6.49638 57.21635 31.85636
# Shear Modulus (GPa) = 14.09401 31.05049 22.57225
#
# Velocity S-wave (km/s) = 2.70214 4.01075 3.41963
# Velocity P-wave (km/s) = 3.61953 7.14771 5.66528
#
# Compressibility (1/GPa) = 0.15393195
#
# Stress axis : x y z
#
# Youngs Moduli (GPa) = 104.78396 8.20782 137.81343
#
# Poissons Ratio (x) = -0.10931 0.58041
# Poissons Ratio (y) = -1.39554 0.20094
# Poissons Ratio (z) = 0.44130 0.01197
#
# Static dielectric constant tensor:
#      x y z
#    x 1.655220 0.000000 0.002400 
#    y 0.000000 1.718530 0.000000 
#    z 0.002400 0.000000 1.647740 
# 
# From -- ./inp_files/374940.got.cif
#   From: 2010.05.17/outbox.cif.g08.bks.cpg/sg12_188_cif.got.tgz:374940.got - 2010.06.03 13:09:07.
