data_PCOD9184859
_publ_section_title
;
Structure prediction by ZEFSAII (Michael W. Deem and Ramdas Pophale) SiO2 
 PCOD9184859
Probable space group: C 2/M
;
_chemical_formula_sum "Si O2"
_cell_formula_units_Z 56
_cell_length_a 14.765816
_cell_length_b 7.842341
_cell_length_c 25.546116
_cell_angle_alpha 90.000000
_cell_angle_beta 71.412921
_cell_angle_gamma 90.000000
_cell_volume 2803.904591
_symmetry_space_group_name_H-M "C 2/M"
_symmetry_group_IT_number 12
_symmetry_cell_setting 'monoclinic'
loop_
_space_group_symop_operation_xyz
x,y,z
-x,y,-z
-x,-y,-z
x,-y,z
1/2+x,1/2+y,z
1/2-x,1/2+y,-z
1/2-x,1/2-y,-z
1/2+x,1/2-y,z
loop_
_atom_site_type_symbol
_atom_site_label
_atom_site_fract_x
_atom_site_fract_y
_atom_site_fract_z
Si Si1 0.648267 0.293358 0.946308
Si Si2 0.259951 0.791179 0.650577
Si Si3 0.160100 0.801370 0.146847
Si Si4 0.551658 0.707842 0.069057
Si Si5 0.130535 0.301389 0.268349
Si Si6 0.942035 0.198557 0.355620
Si Si7 0.951291 0.700228 0.560727
O O1 0.656120 0.500000 0.944321
O O2 0.741075 0.217563 0.902600
O O3 0.553666 0.245791 0.930818
O O4 0.625996 0.238441 0.009997
O O5 0.291380 0.739891 0.703554
O O6 0.156790 0.732212 0.649813
O O7 0.347647 0.731996 0.597597
O O8 0.257167 0.000000 0.650694
O O9 0.081501 0.730830 0.120684
O O10 0.162476 0.717284 0.202954
O O11 0.140021 0.000000 0.159786
O O12 0.554933 0.500000 0.069142
O O13 0.114227 0.500000 0.282985
O O14 0.029314 0.213689 0.298658
O O15 0.979393 0.283027 0.402082
O O16 0.927517 0.000000 0.370567
O O17 0.935256 0.500000 0.553453
O O18 0.000000 0.775720 0.500000
#
# Coordination Sequence:
#
# PCOD9184859 Si02
#       7
#     8   8   8   8   8   8   8
#     4   9  17  34  55  73  95 133 174 202 241 308
#     4   8  17  34  54  73  99 136 171 205 252 299
#     4  11  21  33  50  77 105 128 160 211 263 297
#     4   8  17  33  53  73  99 133 168 203 248 307
#     4  10  21  38  54  71  98 135 174 207 247 308
#     4  10  19  34  55  77 101 131 169 215 259 292
#     4   9  18  34  54  78 110 144 174 202 238 296
#
# _framework density 19.972149999999999
#
# number of rings (size 3 to 8) (size 9 to 14) (size 15 to 20)
#    0.000    2.714    0.000    3.429    0.000    2.000 
#    0.000   16.429    0.000    0.000    0.000    0.000 
#    0.000    0.000    0.000    0.000    0.000    0.000 
#
# Total GULP energy -156176.580592 kJ/mol
# GULP energy per Si atom -5577.735021 kJ/mol
# Density = 1.992669 g / cm^3
# Si number density = 19.972150 Si / 1000 Ang^3
#
#
#
# Elastic Constant Matrix: (Units=GPa)
#
#
# Indices 1 2 3 4 5 6 
#
# 1 109.3143 -7.7146 24.9467 0.0000 5.8484 0.0000
# 2 -7.7146 20.9203 -7.0542 0.0000 -0.8548 0.0000
# 3 24.9467 -7.0542 71.8265 0.0000 11.5139 0.0000
# 4 0.0000 0.0000 0.0000 20.3944 0.0000 -5.4727
# 5 5.8484 -0.8548 11.5139 0.0000 9.2107 0.0000
# 6 0.0000 0.0000 0.0000 -5.4727 0.0000 2.0434
#
#
#
# Elastic Compliance Matrix: (Units=1/GPa)
#
#
# Indices 1 2 3 4 5 6 
#
# 1 0.010124 0.002671 -0.002830 0.000000 -0.002642 0.000000
# 2 0.002671 0.050168 0.004408 0.000001 -0.002551 0.000002
# 3 -0.002830 0.004408 0.018740 0.000000 -0.021220 0.000000
# 4 0.000000 0.000001 0.000000 0.174290 0.000000 0.466780
# 5 -0.002642 -0.002551 -0.021220 0.000000 0.136536 0.000000
# 6 0.000000 0.000002 0.000000 0.466780 0.000000 1.739501
#
#
# Mechanical properties :
#
#
# Convention : Reuss Voigt Hill
#
# Bulk Modulus (GPa) = 11.42478 24.71299 18.06888
# Shear Modulus (GPa) = 2.32554 19.12192 10.72373
#
# Velocity S-wave (km/s) = 1.08024 3.09759 2.31970
# Velocity P-wave (km/s) = 2.69975 5.01936 4.03006
#
# Compressibility (1/GPa) = 0.08752907
#
# Stress axis : x y z
#
# Youngs Moduli (GPa) = 98.77823 19.93319 53.36187
#
# Poissons Ratio (x) = -0.05324 0.15103
# Poissons Ratio (y) = -0.26383 -0.23523
# Poissons Ratio (z) = 0.27957 -0.08787
#
# Static dielectric constant tensor:
#      x y z
#    x 1.702640 0.000000 0.011380 
#    y 0.000000 1.754680 0.000000 
#    z 0.011380 0.000000 1.689120 
# 
# From -- ./inp_files/337845.got.cif
#   From: 2010.05.17/outbox.cif.g08.bks.cpg/sg12_169_cif.got.tgz:337845.got - 2010.06.03 13:09:07.
