data_PCOD9184403
_publ_section_title
;
Structure prediction by ZEFSAII (Michael W. Deem and Ramdas Pophale) SiO2 
 PCOD9184403
Probable space group: C 2/M
;
_chemical_formula_sum "Si O2"
_cell_formula_units_Z 48
_cell_length_a 16.290138
_cell_length_b 21.692997
_cell_length_c 7.387977
_cell_angle_alpha 90.000000
_cell_angle_beta 120.367126
_cell_angle_gamma 90.000000
_cell_volume 2252.588892
_symmetry_space_group_name_H-M "C 2/M"
_symmetry_group_IT_number 12
_symmetry_cell_setting 'monoclinic'
loop_
_space_group_symop_operation_xyz
x,y,z
-x,y,-z
-x,-y,-z
x,-y,z
1/2+x,1/2+y,z
1/2-x,1/2+y,-z
1/2-x,1/2-y,-z
1/2+x,1/2-y,z
loop_
_atom_site_type_symbol
_atom_site_label
_atom_site_fract_x
_atom_site_fract_y
_atom_site_fract_z
Si Si1 0.101429 0.868114 0.100634
Si Si2 0.636607 0.262764 0.415642
Si Si3 0.707989 0.932449 0.608100
Si Si4 0.800729 0.187255 0.139686
Si Si5 0.029488 0.361602 0.320400
Si Si6 0.159107 0.426887 0.982088
O O1 0.098937 0.810586 0.229996
O O2 0.186534 0.907996 0.274858
O O3 0.133400 0.842969 0.940977
O O4 0.000000 0.900299 0.000000
O O5 0.750000 0.250000 0.500000
O O6 0.641083 0.289064 0.623416
O O7 0.561554 0.207372 0.315897
O O8 0.630009 0.895293 0.413245
O O9 0.678623 0.931403 0.786959
O O10 0.704917 0.000000 0.531720
O O11 0.750000 0.250000 0.000000
O O12 0.729804 0.130185 0.117146
O O13 0.000000 0.363424 0.500000
O O14 0.946028 0.396839 0.122081
O O15 0.166418 0.500000 0.051858
#
# Coordination Sequence:
#
# PCOD9184403 Si02
#       6
#     8   8   8   8   8   8
#     4  11  25  39  59  91 119 162 211 253 314 362
#     4  12  23  39  61  89 129 164 207 262 315 370
#     4   9  17  35  59  85 120 156 201 255 304 374
#     4  11  22  41  63  92 129 166 210 263 317 382
#     4  10  19  33  60  93 123 160 205 252 322 379
#     4   9  19  36  63  93 127 168 206 256 329 390
#
# _framework density 21.308814999999999
#
# number of rings (size 3 to 8) (size 9 to 14) (size 15 to 20)
#    0.000    1.667    3.333    2.500    4.667    2.333 
#    0.000    0.833    0.000    1.000    0.000    5.833 
#    0.000    0.000    0.000    0.000    0.000    0.000 
#
# Total GULP energy -133860.694604 kJ/mol
# GULP energy per Si atom -5577.528942 kJ/mol
# Density = 2.126032 g / cm^3
# Si number density = 21.308815 Si / 1000 Ang^3
#
#
#
# Elastic Constant Matrix: (Units=GPa)
#
#
# Indices 1 2 3 4 5 6 
#
# 1 106.1540 60.7315 39.6236 0.0000 35.0629 0.0000
# 2 60.7315 183.1417 41.6594 0.0000 29.5439 0.0000
# 3 39.6236 41.6594 64.8363 0.0000 11.9892 0.0000
# 4 0.0000 0.0000 0.0000 11.6372 0.0000 14.4593
# 5 35.0629 29.5439 11.9892 0.0000 45.0505 0.0000
# 6 0.0000 0.0000 0.0000 14.4593 0.0000 47.9778
#
#
#
# Elastic Compliance Matrix: (Units=1/GPa)
#
#
# Indices 1 2 3 4 5 6 
#
# 1 0.016419 -0.002389 -0.006759 0.000000 -0.009414 0.000000
# 2 -0.002389 0.007233 -0.002792 0.000000 -0.002141 0.000000
# 3 -0.006759 -0.002792 0.021073 0.000000 0.001483 0.000000
# 4 0.000000 0.000000 0.000000 0.137372 0.000000 -0.041401
# 5 -0.009414 -0.002141 0.001483 0.000000 0.030534 0.000000
# 6 0.000000 0.000000 0.000000 -0.041401 0.000000 0.033320
#
#
# Mechanical properties :
#
#
# Convention : Reuss Voigt Hill
#
# Bulk Modulus (GPa) = 47.96761 70.90677 59.43719
# Shear Modulus (GPa) = 18.06503 35.07428 26.56966
#
# Velocity S-wave (km/s) = 2.91481 4.06149 3.53496
# Velocity P-wave (km/s) = 5.82132 7.43924 6.67945
#
# Compressibility (1/GPa) = 0.02084740
#
# Stress axis : x y z
#
# Youngs Moduli (GPa) = 60.90491 138.25962 47.45324
#
# Poissons Ratio (x) = 0.33026 0.32072
# Poissons Ratio (y) = 0.14548 0.13247
# Poissons Ratio (z) = 0.41164 0.38596
#
# Static dielectric constant tensor:
#      x y z
#    x 1.282790 0.000000 -0.167270 
#    y 0.000000 1.791180 0.000000 
#    z -0.167270 0.000000 1.685880 
# 
# From -- ./inp_files/77707.got.cif
#   From: 2010.05.17/outbox.cif.g08.bks.cpg/sg12_39_cif.got.tgz:77707.got - 2010.06.03 13:09:07.
