data_PCOD9184747
_publ_section_title
;
Structure prediction by ZEFSAII (Michael W. Deem and Ramdas Pophale) SiO2 
 PCOD9184747
Probable space group: C 2/M
;
_chemical_formula_sum "Si O2"
_cell_formula_units_Z 48
_cell_length_a 19.563752
_cell_length_b 14.079528
_cell_length_c 19.202298
_cell_angle_alpha 90.000000
_cell_angle_beta 25.567326
_cell_angle_gamma 90.000000
_cell_volume 2282.685593
_symmetry_space_group_name_H-M "C 2/M"
_symmetry_group_IT_number 12
_symmetry_cell_setting 'monoclinic'
loop_
_space_group_symop_operation_xyz
x,y,z
-x,y,-z
-x,-y,-z
x,-y,z
1/2+x,1/2+y,z
1/2-x,1/2+y,-z
1/2-x,1/2-y,-z
1/2+x,1/2-y,z
loop_
_atom_site_type_symbol
_atom_site_label
_atom_site_fract_x
_atom_site_fract_y
_atom_site_fract_z
Si Si1 0.761713 0.104926 0.666352
Si Si2 0.587269 0.110494 0.345935
Si Si3 0.369860 0.390517 0.414392
Si Si4 0.319355 0.762226 0.141550
Si Si5 0.021103 0.311340 0.698536
Si Si6 0.105189 0.608181 0.051011
O O1 0.868179 0.114235 0.500101
O O2 0.780786 0.183162 0.707457
O O3 0.579219 0.108967 0.805969
O O4 0.783484 0.000000 0.677213
O O5 0.500000 0.121784 0.500000
O O6 0.760595 0.155388 0.192070
O O7 0.511568 0.167920 0.351783
O O8 0.586373 0.000000 0.328848
O O9 0.404302 0.500000 0.362383
O O10 0.191149 0.361304 0.556608
O O11 0.470790 0.301630 0.294319
O O12 0.500000 0.766831 0.000000
O O13 0.306866 0.819290 0.080758
O O14 0.900916 0.358838 0.863547
O O15 0.162880 0.500000 0.991181
#
# Coordination Sequence:
#
# PCOD9184747 Si02
#       6
#     8   8   8   8   8   8
#     4   8  14  28  52  80 106 134 174 222 272 327
#     4  11  24  40  57  77 107 150 192 228 272 327
#     4   9  17  31  55  83 110 143 183 228 275 325
#     4  10  20  35  56  83 111 142 184 230 272 320
#     4  10  19  34  54  78 111 148 185 224 272 332
#     4   9  17  31  54  80 105 138 177 219 274 336
#
# _framework density 21.027861999999999
#
# number of rings (size 3 to 8) (size 9 to 14) (size 15 to 20)
#    0.000    2.500    0.000    4.000    0.000    4.333 
#    0.000    2.500    0.000    4.500    0.000    0.000 
#    0.000    0.000    0.000    0.000    0.000    0.000 
#
# Total GULP energy -133956.257701 kJ/mol
# GULP energy per Si atom -5581.510738 kJ/mol
# Density = 2.098000 g / cm^3
# Si number density = 21.027862 Si / 1000 Ang^3
#
#
#
# Elastic Constant Matrix: (Units=GPa)
#
#
# Indices 1 2 3 4 5 6 
#
# 1 66.3112 15.7240 9.6553 -0.0018 13.5180 0.0007
# 2 15.7240 137.6089 23.5379 -0.0020 1.4957 0.0018
# 3 9.6553 23.5379 27.1699 -0.0050 6.7602 0.0045
# 4 -0.0018 -0.0020 -0.0050 16.5460 0.0032 1.5106
# 5 13.5180 1.4957 6.7602 0.0032 13.1307 -0.0027
# 6 0.0007 0.0018 0.0045 1.5106 -0.0027 19.1437
#
#
#
# Elastic Compliance Matrix: (Units=1/GPa)
#
#
# Indices 1 2 3 4 5 6 
#
# 1 0.019637 -0.001970 -0.000341 0.000006 -0.019816 -0.000004
# 2 -0.001970 0.008851 -0.008283 -0.000003 0.005284 0.000002
# 3 -0.000341 -0.008283 0.050212 0.000020 -0.024557 -0.000016
# 4 0.000006 -0.000003 0.000020 0.060876 -0.000032 -0.004804
# 5 -0.019816 0.005284 -0.024557 -0.000032 0.108599 0.000024
# 6 -0.000004 0.000002 -0.000016 -0.004804 0.000024 0.052616
#
#
# Mechanical properties :
#
#
# Convention : Reuss Voigt Hill
#
# Bulk Modulus (GPa) = 17.38749 36.54714 26.96732
# Shear Modulus (GPa) = 14.65628 21.90893 18.28261
#
# Velocity S-wave (km/s) = 2.64293 3.23135 2.95184
# Velocity P-wave (km/s) = 4.19525 5.59823 4.94674
#
# Compressibility (1/GPa) = 0.05751262
#
# Stress axis : x y z
#
# Youngs Moduli (GPa) = 50.92458 112.97615 19.91539
#
# Poissons Ratio (x) = 0.22257 0.00679
# Poissons Ratio (y) = 0.10033 0.16496
# Poissons Ratio (z) = 0.01737 0.93577
#
# Static dielectric constant tensor:
#      x y z
#    x 1.762890 0.000000 -0.031860 
#    y 0.000000 1.745990 0.000000 
#    z -0.031860 0.000000 1.765840 
# 
# From -- ./inp_files/321172.got.cif
#   From: 2010.05.17/outbox.cif.g08.bks.cpg/sg12_161_cif.got.tgz:321172.got - 2010.06.03 13:09:07.
