data_PCOD9184958
_publ_section_title
;
Structure prediction by ZEFSAII (Michael W. Deem and Ramdas Pophale) SiO2 
 PCOD9184958
Probable space group: C 2/M
;
_chemical_formula_sum "Si O2"
_cell_formula_units_Z 56
_cell_length_a 20.369532
_cell_length_b 7.403213
_cell_length_c 30.865690
_cell_angle_alpha 90.000000
_cell_angle_beta 148.216635
_cell_angle_gamma 90.000000
_cell_volume 2451.591128
_symmetry_space_group_name_H-M "C 2/M"
_symmetry_group_IT_number 12
_symmetry_cell_setting 'monoclinic'
loop_
_space_group_symop_operation_xyz
x,y,z
-x,y,-z
-x,-y,-z
x,-y,z
1/2+x,1/2+y,z
1/2-x,1/2+y,-z
1/2-x,1/2-y,-z
1/2+x,1/2-y,z
loop_
_atom_site_type_symbol
_atom_site_label
_atom_site_fract_x
_atom_site_fract_y
_atom_site_fract_z
Si Si1 0.494054 0.711412 0.298982
Si Si2 0.449395 0.709674 0.016729
Si Si3 0.032197 0.221355 0.621049
Si Si4 0.484568 0.710802 0.131135
Si Si5 0.337761 0.719828 0.129936
Si Si6 0.273875 0.282193 0.434043
Si Si7 0.249375 0.781565 0.678027
O O1 0.462630 0.500000 0.281278
O O2 0.446220 0.785047 0.317833
O O3 0.433213 0.783667 0.220838
O O4 0.643016 0.728277 0.381459
O O5 0.491028 0.500000 0.039934
O O6 0.491221 0.789948 0.086544
O O7 0.500000 0.789161 0.000000
O O8 0.300089 0.720864 0.934824
O O9 0.139482 0.277930 0.648251
O O10 0.896630 0.279462 0.528013
O O11 0.031574 0.000000 0.621088
O O12 0.452424 0.500000 0.107225
O O13 0.383749 0.785505 0.108661
O O14 0.617257 0.723052 0.229168
O O15 0.339804 0.500000 0.129632
O O16 0.277349 0.500000 0.435612
O O17 0.272807 0.220195 0.383543
O O18 0.248923 0.000000 0.677236
#
# Coordination Sequence:
#
# PCOD9184958 Si02
#       7
#     8   8   8   8   8   8   8
#     4  10  20  35  55  79 111 146 180 221 268 319
#     4  10  23  40  59  84 112 140 172 219 274 322
#     4   9  19  34  53  78 111 146 182 226 269 312
#     4  10  21  39  58  79 111 144 177 220 269 320
#     4  10  21  37  58  82 109 145 182 217 262 318
#     4  10  19  34  55  80 108 142 185 228 268 313
#     4  10  20  34  56  82 107 142 186 226 266 315
#
# _framework density 22.842307000000002
#
# number of rings (size 3 to 8) (size 9 to 14) (size 15 to 20)
#    0.000    2.143    1.429    1.286    2.000    3.714 
#    0.000    1.429    0.000    1.714    0.000    0.000 
#    0.000    0.000    0.000    0.000    0.000    0.000 
#
# Total GULP energy -156507.308722 kJ/mol
# GULP energy per Si atom -5589.546740 kJ/mol
# Density = 2.279032 g / cm^3
# Si number density = 22.842307 Si / 1000 Ang^3
#
#
#
# Elastic Constant Matrix: (Units=GPa)
#
#
# Indices 1 2 3 4 5 6 
#
# 1 -178.3656 28.1023 -57.6164 -0.0004 -232.6381 0.0035
# 2 28.1023 72.5754 1.8044 -0.0006 7.8249 0.0017
# 3 -57.6164 1.8044 51.6275 -0.0002 -75.5657 0.0012
# 4 -0.0004 -0.0006 -0.0002 20.3603 0.0001 15.4469
# 5 -232.6381 7.8249 -75.5657 0.0001 -90.3212 0.0015
# 6 0.0035 0.0017 0.0012 15.4469 0.0015 1.8008
#
#
#
# Elastic Compliance Matrix: (Units=1/GPa)
#
#
# Indices 1 2 3 4 5 6 
#
# 1 0.003924 -0.000731 -0.004712 0.000000 -0.006228 0.000000
# 2 -0.000731 0.013824 0.001443 -0.000002 0.001873 0.000003
# 3 -0.004712 0.001443 0.014388 0.000000 0.000223 0.000001
# 4 0.000000 -0.000002 0.000000 -0.008917 0.000001 0.076492
# 5 -0.006228 0.001873 0.000223 0.000001 0.004946 -0.000001
# 6 0.000000 0.000003 0.000001 0.076492 -0.000001 -0.100822
#
#
# Mechanical properties :
#
#
# Convention : Reuss Voigt Hill
#
# Bulk Modulus (GPa) = 41.43153 -12.17581 14.62786
# Shear Modulus (GPa) = -88.31952 -15.39554 -51.85753
#
# Velocity S-wave (km/s) = -6.22486 -2.59895 -4.76987
# Velocity P-wave (km/s) = 5.78685 3.78788 4.89059
#
# Compressibility (1/GPa) = 0.02413621
#
# Stress axis : x y z
#
# Youngs Moduli (GPa) = 254.83774 72.33831 69.50321
#
# Poissons Ratio (x) = 0.05286 0.32748
# Poissons Ratio (y) = 0.18623 -0.10027
# Poissons Ratio (z) = 1.20071 -0.10436
#
# Static dielectric constant tensor:
#      x y z
#    x 1.831190 0.000000 -0.043670 
#    y 0.000000 1.941420 0.000000 
#    z -0.043670 0.000000 1.801440 
# 
# From -- ./inp_files/275034.got.cif
#   From: 2010.05.17/outbox.cif.g08.bks.cpg/sg12_138_cif.got.tgz:275034.got - 2010.06.03 13:09:07.
