data_PCOD9184926
_publ_section_title
;
Structure prediction by ZEFSAII (Michael W. Deem and Ramdas Pophale) SiO2 
 PCOD9184926
Probable space group: C 2/M
;
_chemical_formula_sum "Si O2"
_cell_formula_units_Z 64
_cell_length_a 16.087671
_cell_length_b 8.452854
_cell_length_c 24.676822
_cell_angle_alpha 90.000000
_cell_angle_beta 99.468136
_cell_angle_gamma 90.000000
_cell_volume 3310.006250
_symmetry_space_group_name_H-M "C 2/M"
_symmetry_group_IT_number 12
_symmetry_cell_setting 'monoclinic'
loop_
_space_group_symop_operation_xyz
x,y,z
-x,y,-z
-x,-y,-z
x,-y,z
1/2+x,1/2+y,z
1/2-x,1/2+y,-z
1/2-x,1/2-y,-z
1/2+x,1/2-y,z
loop_
_atom_site_type_symbol
_atom_site_label
_atom_site_fract_x
_atom_site_fract_y
_atom_site_fract_z
Si Si1 0.263774 0.810826 0.440895
Si Si2 0.670168 0.811309 0.327896
Si Si3 0.544518 0.190883 0.560445
Si Si4 0.314160 0.306545 0.260216
Si Si5 0.714010 0.691131 0.866192
Si Si6 0.993247 0.811489 0.326671
Si Si7 0.611725 0.807370 0.061513
Si Si8 0.575120 0.808871 0.934346
O O1 0.250000 0.750000 0.500000
O O2 0.198359 0.744566 0.390465
O O3 0.357469 0.763108 0.431943
O O4 0.259173 0.000000 0.440605
O O5 0.739874 0.753366 0.292462
O O6 0.576244 0.752754 0.306538
O O7 0.670629 0.000000 0.327111
O O8 0.500000 0.242079 0.500000
O O9 0.504911 0.260013 0.610398
O O10 0.538864 0.000000 0.562470
O O11 0.314221 0.500000 0.261142
O O12 0.298134 0.255911 0.196973
O O13 0.405256 0.253596 0.291710
O O14 0.716327 0.500000 0.866285
O O15 0.803089 0.747811 0.900583
O O16 0.636575 0.743615 0.895326
O O17 0.994025 0.000000 0.324025
O O18 0.523089 0.758651 0.079279
O O19 0.612160 0.000000 0.062388
O O20 0.607418 0.760895 0.997793
O O21 0.576854 0.000000 0.932421
#
# Coordination Sequence:
#
# PCOD9184926 Si02
#       8
#     8   8   8   8   8   8   8   8
#     4  11  22  36  58  88 120 150 184 228 278 336
#     4  11  22  40  61  82 111 150 189 231 282 341
#     4  10  21  37  57  84 115 144 178 224 273 332
#     4   9  21  39  57  78 111 150 188 231 283 341
#     4  10  19  34  55  79 107 147 191 231 280 336
#     4  11  22  39  60  83 109 144 186 233 285 337
#     4   8  16  31  53  77 111 151 186 225 280 342
#     4   9  17  32  52  80 112 146 186 233 280 329
#
# _framework density 19.335311000000001
#
# number of rings (size 3 to 8) (size 9 to 14) (size 15 to 20)
#    0.000    2.125    1.250    3.000    0.000    2.750 
#    0.000    5.625    0.000    0.000    0.000    0.000 
#    0.000    0.000    0.000    0.000    0.000    0.000 
#
# Total GULP energy -178702.509047 kJ/mol
# GULP energy per Si atom -5584.453408 kJ/mol
# Density = 1.929130 g / cm^3
# Si number density = 19.335311 Si / 1000 Ang^3
#
#
#
# Elastic Constant Matrix: (Units=GPa)
#
#
# Indices 1 2 3 4 5 6 
#
# 1 171.7551 23.2418 89.7136 0.0000 -16.4634 0.0000
# 2 23.2418 12.4402 13.3893 0.0000 -1.3240 0.0000
# 3 89.7136 13.3893 133.5396 0.0000 -10.7390 0.0000
# 4 0.0000 0.0000 0.0000 14.3124 0.0000 -11.2440
# 5 -16.4634 -1.3240 -10.7390 0.0000 15.5898 0.0000
# 6 0.0000 0.0000 0.0000 -11.2440 0.0000 25.4351
#
#
#
# Elastic Compliance Matrix: (Units=1/GPa)
#
#
# Indices 1 2 3 4 5 6 
#
# 1 0.011393 -0.014471 -0.005647 0.000000 0.006912 0.000000
# 2 -0.014471 0.108524 -0.001743 0.000000 -0.007267 0.000000
# 3 -0.005647 -0.001743 0.011608 0.000000 0.001885 0.000000
# 4 0.000000 0.000000 0.000000 0.107046 0.000000 0.047321
# 5 0.006912 -0.007267 0.001885 0.000000 0.072126 0.000000
# 6 0.000000 0.000000 0.000000 0.047321 0.000000 0.060235
#
#
# Mechanical properties :
#
#
# Convention : Reuss Voigt Hill
#
# Bulk Modulus (GPa) = 11.38929 63.38047 37.38488
# Shear Modulus (GPa) = 11.26324 23.82680 17.54502
#
# Velocity S-wave (km/s) = 2.41617 3.51421 3.01559
# Velocity P-wave (km/s) = 3.69960 7.02261 5.61267
#
# Compressibility (1/GPa) = 0.08780176
#
# Stress axis : x y z
#
# Youngs Moduli (GPa) = 87.77616 9.21456 86.14404
#
# Poissons Ratio (x) = 0.13335 0.48644
# Poissons Ratio (y) = 1.27024 0.15019
# Poissons Ratio (z) = 0.49566 0.01607
#
# Static dielectric constant tensor:
#      x y z
#    x 1.683020 0.000000 0.009820 
#    y 0.000000 1.665150 0.000000 
#    z 0.009820 0.000000 1.645350 
# 
# From -- ./inp_files/338791.got.cif
#   From: 2010.05.17/outbox.cif.g08.bks.cpg/sg12_170_cif.got.tgz:338791.got - 2010.06.03 13:09:07.
