data_PCOD9184135
_publ_section_title
;
Structure prediction by ZEFSAII (Michael W. Deem and Ramdas Pophale) SiO2 
 PCOD9184135
Probable space group: C 2/M
;
_chemical_formula_sum "Si O2"
_cell_formula_units_Z 40
_cell_length_a 10.905631
_cell_length_b 17.866919
_cell_length_c 10.319228
_cell_angle_alpha 90.000000
_cell_angle_beta 93.085061
_cell_angle_gamma 90.000000
_cell_volume 2007.787805
_symmetry_space_group_name_H-M "C 2/M"
_symmetry_group_IT_number 12
_symmetry_cell_setting 'monoclinic'
loop_
_space_group_symop_operation_xyz
x,y,z
-x,y,-z
-x,-y,-z
x,-y,z
1/2+x,1/2+y,z
1/2-x,1/2+y,-z
1/2-x,1/2-y,-z
1/2+x,1/2-y,z
loop_
_atom_site_type_symbol
_atom_site_label
_atom_site_fract_x
_atom_site_fract_y
_atom_site_fract_z
Si Si1 0.352707 0.579286 0.502077
Si Si2 0.901523 0.222224 0.379510
Si Si3 0.511275 0.916441 0.155259
Si Si4 0.762037 0.644857 0.260676
Si Si5 0.565630 0.749890 0.143192
O O1 0.500000 0.575358 0.500000
O O2 0.298497 0.500000 0.457913
O O3 0.323395 0.649006 0.408964
O O4 0.319101 0.593998 0.649700
O O5 0.818398 0.294316 0.361779
O O6 0.000000 0.232182 0.500000
O O7 0.974850 0.217916 0.248721
O O8 0.375199 0.898798 0.203632
O O9 0.585343 0.838031 0.181280
O O10 0.551879 0.000000 0.203031
O O11 0.500000 0.921008 0.000000
O O12 0.683575 0.695655 0.156692
O O13 0.500000 0.748063 0.000000
#
# Coordination Sequence:
#
# PCOD9184135 Si02
#       5
#     8   8   8   8   8
#     4  10  19  33  57  86 114 149 191 239 295 346
#     4  10  20  36  58  86 113 150 193 244 282 345
#     4   9  20  37  57  82 116 155 192 237 292 345
#     4  11  20  36  64  84 114 156 198 235 295 346
#     4  10  21  36  59  90 116 150 199 243 282 346
#
# _framework density 19.922423999999999
#
# number of rings (size 3 to 8) (size 9 to 14) (size 15 to 20)
#    0.000    2.000    4.000    1.200    0.000    7.200 
#    0.000    1.000    0.000   10.800    0.000    0.000 
#    0.000    0.800    0.000    0.000    0.000    0.000 
#
# Total GULP energy -111391.259975 kJ/mol
# GULP energy per Si atom -5569.562999 kJ/mol
# Density = 1.987708 g / cm^3
# Si number density = 19.922424 Si / 1000 Ang^3
#
#
#
# Elastic Constant Matrix: (Units=GPa)
#
#
# Indices 1 2 3 4 5 6 
#
# 1 24.3065 11.4766 24.3967 0.0000 4.2884 0.0000
# 2 11.4766 123.2091 41.8052 0.0000 0.0812 0.0000
# 3 24.3967 41.8052 101.3716 0.0000 -5.3766 0.0000
# 4 0.0000 0.0000 0.0000 31.0707 0.0000 3.1309
# 5 4.2884 0.0812 -5.3766 0.0000 31.4880 0.0000
# 6 0.0000 0.0000 0.0000 3.1309 0.0000 -1.1061
#
#
#
# Elastic Compliance Matrix: (Units=1/GPa)
#
#
# Indices 1 2 3 4 5 6 
#
# 1 0.057383 -0.000545 -0.014128 0.000000 -0.010226 0.000000
# 2 -0.000545 0.009457 -0.003801 0.000000 -0.000599 0.000000
# 3 -0.014128 -0.003801 0.015071 0.000000 0.004507 0.000000
# 4 0.000000 0.000000 0.000000 0.025042 0.000000 0.070885
# 5 -0.010226 -0.000599 0.004507 0.000000 0.033922 0.000000
# 6 0.000000 0.000000 0.000000 0.070885 0.000000 -0.703451
#
#
# Mechanical properties :
#
#
# Convention : Reuss Voigt Hill
#
# Bulk Modulus (GPa) = 22.23969 44.91602 33.57786
# Shear Modulus (GPa) = -9.79161 23.70443 6.95641
#
# Velocity S-wave (km/s) = -2.21935 3.45314 1.87065
# Velocity P-wave (km/s) = 2.14942 6.20430 4.64292
#
# Compressibility (1/GPa) = 0.04496466
#
# Stress axis : x y z
#
# Youngs Moduli (GPa) = 17.42676 105.74168 66.35148
#
# Poissons Ratio (x) = 0.05760 0.93741
# Poissons Ratio (y) = 0.00949 0.25218
# Poissons Ratio (z) = 0.24620 0.40189
#
# Static dielectric constant tensor:
#      x y z
#    x 1.762060 0.000000 -0.009490 
#    y 0.000000 1.792610 0.000000 
#    z -0.009490 0.000000 1.683180 
# 
# From -- ./inp_files/47083.got.cif
#   From: 2010.05.17/outbox.cif.g08.bks.cpg/sg12_24_cif.got.tgz:47083.got - 2010.06.03 13:09:07.
