data_PCOD9184746
_publ_section_title
;
Structure prediction by ZEFSAII (Michael W. Deem and Ramdas Pophale) SiO2 
 PCOD9184746
Probable space group: C 2/M
;
_chemical_formula_sum "Si O2"
_cell_formula_units_Z 40
_cell_length_a 20.547590
_cell_length_b 8.762096
_cell_length_c 12.871793
_cell_angle_alpha 90.000000
_cell_angle_beta 78.185272
_cell_angle_gamma 90.000000
_cell_volume 2268.341657
_symmetry_space_group_name_H-M "C 2/M"
_symmetry_group_IT_number 12
_symmetry_cell_setting 'monoclinic'
loop_
_space_group_symop_operation_xyz
x,y,z
-x,y,-z
-x,-y,-z
x,-y,z
1/2+x,1/2+y,z
1/2-x,1/2+y,-z
1/2-x,1/2-y,-z
1/2+x,1/2-y,z
loop_
_atom_site_type_symbol
_atom_site_label
_atom_site_fract_x
_atom_site_fract_y
_atom_site_fract_z
Si Si1 0.921874 0.175787 0.493310
Si Si2 0.319906 0.181701 0.941379
Si Si3 0.455255 0.819099 0.273658
Si Si4 0.398488 0.683998 0.728210
Si Si5 0.924839 0.819664 0.065966
O O1 0.916872 0.276398 0.392310
O O2 0.886022 0.224516 0.611367
O O3 0.000000 0.177181 0.500000
O O4 0.904759 0.000000 0.474583
O O5 0.344021 0.253437 0.824734
O O6 0.316293 0.000000 0.934022
O O7 0.250000 0.250000 0.000000
O O8 0.374926 0.230040 0.008074
O O9 0.530054 0.752678 0.261991
O O10 0.423186 0.740967 0.183812
O O11 0.458751 0.000000 0.258877
O O12 0.403238 0.500000 0.732942
O O13 0.909892 0.000000 0.066414
O O14 0.000000 0.798104 0.000000
#
# Coordination Sequence:
#
# PCOD9184746 Si02
#       5
#     8   8   8   8   8
#     4   8  16  30  49  74 108 146 182 224 275 329
#     4  12  25  40  59  83 114 149 189 231 279 337
#     4  11  20  30  51  83 115 144 182 231 281 331
#     4  10  19  34  54  78 110 148 188 229 276 328
#     4  11  22  37  59  82 112 150 188 232 282 332
#
# _framework density 17.634028000000001
#
# number of rings (size 3 to 8) (size 9 to 14) (size 15 to 20)
#    0.000    1.600    2.000    6.000    0.000    5.200 
#    0.000    0.000    0.000    1.200    0.000    0.000 
#    0.000    0.000    0.000    0.000    0.000    0.000 
#
# Total GULP energy -111679.640308 kJ/mol
# GULP energy per Si atom -5583.982015 kJ/mol
# Density = 1.759389 g / cm^3
# Si number density = 17.634028 Si / 1000 Ang^3
#
#
#
# Elastic Constant Matrix: (Units=GPa)
#
#
# Indices 1 2 3 4 5 6 
#
# 1 35.8073 21.6453 30.1755 0.0000 -15.2253 0.0000
# 2 21.6453 85.2084 43.8040 0.0000 -6.7375 0.0000
# 3 30.1755 43.8040 150.1328 0.0000 -16.6689 0.0000
# 4 0.0000 0.0000 0.0000 10.1639 0.0000 1.9362
# 5 -15.2253 -6.7375 -16.6689 0.0000 20.1686 0.0000
# 6 0.0000 0.0000 0.0000 1.9362 0.0000 23.4816
#
#
#
# Elastic Compliance Matrix: (Units=1/GPa)
#
#
# Indices 1 2 3 4 5 6 
#
# 1 0.049571 -0.007978 -0.004158 0.000000 0.031320 0.000000
# 2 -0.007978 0.015128 -0.003213 0.000000 -0.003624 0.000000
# 3 -0.004158 -0.003213 0.008771 0.000000 0.003037 0.000000
# 4 0.000000 0.000000 0.000000 0.099957 0.000000 -0.008242
# 5 0.031320 -0.003624 0.003037 0.000000 0.074524 0.000000
# 6 0.000000 0.000000 0.000000 -0.008242 0.000000 0.043266
#
#
# Mechanical properties :
#
#
# Convention : Reuss Voigt Hill
#
# Bulk Modulus (GPa) = 23.37996 51.37757 37.37877
# Shear Modulus (GPa) = 14.87327 22.46441 18.66884
#
# Velocity S-wave (km/s) = 2.90736 3.57308 3.25727
# Velocity P-wave (km/s) = 4.95555 6.79862 5.94890
#
# Compressibility (1/GPa) = 0.04277167
#
# Stress axis : x y z
#
# Youngs Moduli (GPa) = 20.17290 66.10438 114.01135
#
# Poissons Ratio (x) = 0.52740 0.47409
# Poissons Ratio (y) = 0.16095 0.36627
# Poissons Ratio (z) = 0.08388 0.21237
#
# Static dielectric constant tensor:
#      x y z
#    x 1.571590 0.000000 -0.010560 
#    y 0.000000 1.582610 0.000000 
#    z -0.010560 0.000000 1.630350 
# 
# From -- ./inp_files/151737.got.cif
#   From: 2010.05.17/outbox.cif.g08.bks.cpg/sg12_76_cif.got.tgz:151737.got - 2010.06.03 13:09:07.
