data_PCOD9184999
_publ_section_title
;
Structure prediction by ZEFSAII (Michael W. Deem and Ramdas Pophale) SiO2 
 PCOD9184999
Probable space group: C 2/M
;
_chemical_formula_sum "Si O2"
_cell_formula_units_Z 44
_cell_length_a 17.973872
_cell_length_b 11.053795
_cell_length_c 11.906508
_cell_angle_alpha 90.000000
_cell_angle_beta 109.263318
_cell_angle_gamma 90.000000
_cell_volume 2233.135829
_symmetry_space_group_name_H-M "C 2/M"
_symmetry_group_IT_number 12
_symmetry_cell_setting 'monoclinic'
loop_
_space_group_symop_operation_xyz
x,y,z
-x,y,-z
-x,-y,-z
x,-y,z
1/2+x,1/2+y,z
1/2-x,1/2+y,-z
1/2-x,1/2-y,-z
1/2+x,1/2-y,z
loop_
_atom_site_type_symbol
_atom_site_label
_atom_site_fract_x
_atom_site_fract_y
_atom_site_fract_z
Si Si1 0.644449 0.864587 0.102807
Si Si2 0.216031 0.364478 0.611882
Si Si3 0.866212 0.717080 0.648823
Si Si4 0.990980 0.868345 0.245977
Si Si5 0.815604 0.141759 0.239494
Si Si6 0.500000 0.696978 0.000000
O O1 0.637330 0.853257 0.235035
O O2 0.736517 0.838804 0.126473
O O3 0.578661 0.776415 0.022998
O O4 0.626502 0.000000 0.057119
O O5 0.208193 0.500000 0.656219
O O6 0.169220 0.356871 0.471594
O O7 0.307597 0.332158 0.634670
O O8 0.187018 0.249482 0.670635
O O9 0.953987 0.765758 0.674085
O O10 0.898373 0.848669 0.217786
O O11 0.010149 0.000000 0.304717
O O12 0.010001 0.869694 0.122740
O O13 0.809614 0.000000 0.277923
#
# Coordination Sequence:
#
# PCOD9184999 Si02
#       6
#     8   8   8   8   8   4
#     4   9  17  33  52  74 103 137 171 209 257 313
#     4  10  19  34  55  81 108 139 175 216 258 303
#     4   9  19  32  53  78 105 137 175 213 255 305
#     4  10  20  36  53  74 101 135 175 218 262 312
#     4   9  20  36  54  75 107 142 174 210 259 315
#     4  10  20  32  54  78  98 128 174 224 266 306
#
# _framework density 19.703234999999999
#
# number of rings (size 3 to 8) (size 9 to 14) (size 15 to 20)
#    0.000    2.545    0.000    1.636    0.000    6.545 
#    0.000    9.091    0.000    0.000    0.000    0.000 
#    0.000    0.000    0.000    0.000    0.000    0.000 
#
# Total GULP energy -122548.723696 kJ/mol
# GULP energy per Si atom -5570.396532 kJ/mol
# Density = 1.965839 g / cm^3
# Si number density = 19.703235 Si / 1000 Ang^3
#
#
#
# Elastic Constant Matrix: (Units=GPa)
#
#
# Indices 1 2 3 4 5 6 
#
# 1 111.1307 37.0552 -7.8070 0.0000 17.8245 0.0000
# 2 37.0552 99.3353 18.1120 0.0000 4.1608 0.0000
# 3 -7.8070 18.1120 28.9336 0.0000 9.9609 0.0000
# 4 0.0000 0.0000 0.0000 -4.4263 0.0000 0.6804
# 5 17.8245 4.1608 9.9609 0.0000 21.6060 0.0000
# 6 0.0000 0.0000 0.0000 0.6804 0.0000 18.3279
#
#
#
# Elastic Compliance Matrix: (Units=1/GPa)
#
#
# Indices 1 2 3 4 5 6 
#
# 1 0.015740 -0.007942 0.015646 0.000000 -0.018669 0.000000
# 2 -0.007942 0.015402 -0.015476 0.000000 0.010721 0.000000
# 3 0.015646 -0.015476 0.061678 0.000000 -0.038363 0.000000
# 4 0.000000 0.000000 0.000000 -0.224639 0.000000 0.008340
# 5 -0.018669 0.010721 -0.038363 0.000000 0.077307 0.000000
# 6 0.000000 0.000000 0.000000 0.008340 0.000000 0.054252
#
#
# Mechanical properties :
#
#
# Convention : Reuss Voigt Hill
#
# Bulk Modulus (GPa) = 12.94044 37.12444 25.03244
# Shear Modulus (GPa) = 121.82268 19.90414 70.86341
#
# Velocity S-wave (km/s) = 7.87166 3.18181 6.00362
# Velocity P-wave (km/s) = 9.44454 5.69045 7.79681
#
# Compressibility (1/GPa) = 0.07727714
#
# Stress axis : x y z
#
# Youngs Moduli (GPa) = 63.53134 64.92518 16.21317
#
# Poissons Ratio (x) = 0.51566 -0.25367
# Poissons Ratio (y) = 0.50459 0.25091
# Poissons Ratio (z) = -0.99402 1.00476
#
# Static dielectric constant tensor:
#      x y z
#    x 1.698400 0.000000 -0.000290 
#    y 0.000000 1.692640 0.000000 
#    z -0.000290 0.000000 1.670560 
# 
# From -- ./inp_files/153418.got.cif
#   From: 2010.05.17/outbox.cif.g08.bks.cpg/sg12_77_cif.got.tgz:153418.got - 2010.06.03 13:09:07.
