data_PCOD9184961
_publ_section_title
;
Structure prediction by ZEFSAII (Michael W. Deem and Ramdas Pophale) SiO2 
 PCOD9184961
Probable space group: C 2/M
;
_chemical_formula_sum "Si O2"
_cell_formula_units_Z 56
_cell_length_a 9.838600
_cell_length_b 19.233358
_cell_length_c 30.564552
_cell_angle_alpha 90.000000
_cell_angle_beta 33.198905
_cell_angle_gamma 90.000000
_cell_volume 3166.853999
_symmetry_space_group_name_H-M "C 2/M"
_symmetry_group_IT_number 12
_symmetry_cell_setting 'monoclinic'
loop_
_space_group_symop_operation_xyz
x,y,z
-x,y,-z
-x,-y,-z
x,-y,z
1/2+x,1/2+y,z
1/2-x,1/2+y,-z
1/2-x,1/2-y,-z
1/2+x,1/2-y,z
loop_
_atom_site_type_symbol
_atom_site_label
_atom_site_fract_x
_atom_site_fract_y
_atom_site_fract_z
Si Si1 0.209885 0.581433 0.571712
Si Si2 0.752817 0.818309 0.092166
Si Si3 0.507802 0.291121 0.323861
Si Si4 0.652392 0.919703 0.765056
Si Si5 0.868408 0.787798 0.161884
Si Si6 0.371514 0.078199 0.747916
Si Si7 0.494333 0.788055 0.417465
O O1 0.500000 0.599474 0.500000
O O2 0.197641 0.500000 0.562979
O O3 0.082707 0.633014 0.572056
O O4 0.057749 0.591343 0.657665
O O5 0.554335 0.881087 0.149516
O O6 0.817738 0.795576 0.124176
O O7 0.618680 0.753591 0.104688
O O8 0.000000 0.838634 0.000000
O O9 0.608282 0.369837 0.299546
O O10 0.653662 0.255493 0.244416
O O11 0.569862 0.250184 0.351756
O O12 0.218598 0.285344 0.391067
O O13 0.534331 0.918399 0.748243
O O14 0.697771 0.000000 0.764785
O O15 0.841069 0.864258 0.190369
O O16 0.272317 0.000000 0.770211
O O17 0.250000 0.750000 0.500000
#
# Coordination Sequence:
#
# PCOD9184961 Si02
#       7
#     8   8   8   8   8   8   8
#     4  10  21  35  54  79 110 145 187 232 278 325
#     4  10  20  34  57  84 112 144 176 222 277 329
#     4  11  22  37  57  79 111 147 188 232 275 326
#     4   9  20  36  57  82 110 144 184 226 275 329
#     4  10  19  34  55  80 109 139 183 225 269 329
#     4   9  17  33  56  79 105 145 188 228 267 323
#     4  12  24  37  55  83 113 147 189 235 282 325
#
# _framework density 17.683164000000001
#
# number of rings (size 3 to 8) (size 9 to 14) (size 15 to 20)
#    0.000    1.857    1.429    4.286    2.000    0.857 
#    0.000    0.000    0.000    2.143    0.000    0.000 
#    0.000    0.000    0.000    0.000    0.000    0.000 
#
# Total GULP energy -156252.288561 kJ/mol
# GULP energy per Si atom -5580.438877 kJ/mol
# Density = 1.764292 g / cm^3
# Si number density = 17.683164 Si / 1000 Ang^3
#
#
#
# Elastic Constant Matrix: (Units=GPa)
#
#
# Indices 1 2 3 4 5 6 
#
# 1 38.8292 25.4386 9.0805 0.0021 -6.2405 0.0017
# 2 25.4386 105.3492 16.6292 0.0040 -6.1746 -0.0020
# 3 9.0805 16.6292 49.0627 0.0071 -6.4332 -0.0021
# 4 0.0021 0.0040 0.0071 17.5297 -0.0003 -1.8385
# 5 -6.2405 -6.1746 -6.4332 -0.0003 25.7568 0.0005
# 6 0.0017 -0.0020 -0.0021 -1.8385 0.0005 28.3304
#
#
#
# Elastic Compliance Matrix: (Units=1/GPa)
#
#
# Indices 1 2 3 4 5 6 
#
# 1 0.031810 -0.006920 -0.002842 -0.000001 0.005338 -0.000003
# 2 -0.006920 0.011599 -0.002591 -0.000001 0.000457 0.000001
# 3 -0.002842 -0.002591 0.022346 -0.000008 0.004272 0.000001
# 4 -0.000001 -0.000001 -0.000008 0.057437 -0.000002 0.003727
# 5 0.005338 0.000457 0.004272 -0.000002 0.041295 -0.000001
# 6 -0.000003 0.000001 0.000001 0.003727 -0.000001 0.035540
#
#
# Mechanical properties :
#
#
# Convention : Reuss Voigt Hill
#
# Bulk Modulus (GPa) = 24.36039 32.83750 28.59895
# Shear Modulus (GPa) = 20.97193 23.79624 22.38408
#
# Velocity S-wave (km/s) = 3.44755 3.67236 3.56173
# Velocity P-wave (km/s) = 5.44549 6.04912 5.75523
#
# Compressibility (1/GPa) = 0.04105025
#
# Stress axis : x y z
#
# Youngs Moduli (GPa) = 31.43699 86.21565 44.75018
#
# Poissons Ratio (x) = 0.59657 0.12718
# Poissons Ratio (y) = 0.21753 0.11593
# Poissons Ratio (z) = 0.08934 0.22336
#
# Static dielectric constant tensor:
#      x y z
#    x 1.585030 0.000000 0.003100 
#    y 0.000000 1.623950 0.000000 
#    z 0.003100 0.000000 1.602230 
# 
# From -- ./inp_files/257168.got.cif
#   From: 2010.05.17/outbox.cif.g08.bks.cpg/sg12_129_cif.got.tgz:257168.got - 2010.06.03 13:09:07.
