data_PCOD9184822
_publ_section_title
;
Structure prediction by ZEFSAII (Michael W. Deem and Ramdas Pophale) SiO2 
 PCOD9184822
Probable space group: C 2/M
;
_chemical_formula_sum "Si O2"
_cell_formula_units_Z 56
_cell_length_a 16.229833
_cell_length_b 28.570536
_cell_length_c 9.039515
_cell_angle_alpha 90.000000
_cell_angle_beta 42.139770
_cell_angle_gamma 90.000000
_cell_volume 2812.303637
_symmetry_space_group_name_H-M "C 2/M"
_symmetry_group_IT_number 12
_symmetry_cell_setting 'monoclinic'
loop_
_space_group_symop_operation_xyz
x,y,z
-x,y,-z
-x,-y,-z
x,-y,z
1/2+x,1/2+y,z
1/2-x,1/2+y,-z
1/2-x,1/2-y,-z
1/2+x,1/2-y,z
loop_
_atom_site_type_symbol
_atom_site_label
_atom_site_fract_x
_atom_site_fract_y
_atom_site_fract_z
Si Si1 0.120498 0.228162 0.912358
Si Si2 0.722187 0.399756 0.927947
Si Si3 0.694010 0.171628 0.780768
Si Si4 0.214910 0.653859 0.435837
Si Si5 0.718761 0.000000 0.189151
Si Si6 0.541534 0.105242 0.174793
Si Si7 0.108553 0.815490 0.238358
Si Si8 0.022940 0.500000 0.697074
O O1 0.125457 0.280068 0.839297
O O2 0.244930 0.202055 0.695881
O O3 0.106216 0.221530 0.107644
O O4 0.000000 0.204618 0.000000
O O5 0.728811 0.383827 0.749751
O O6 0.702951 0.454657 0.952707
O O7 0.857322 0.393920 0.826463
O O8 0.626002 0.366406 0.138513
O O9 0.762465 0.156536 0.540492
O O10 0.773258 0.187564 0.815045
O O11 0.612847 0.128327 0.943007
O O12 0.072019 0.639550 0.637163
O O13 0.653383 0.000000 0.437347
O O14 0.595595 0.000000 0.253160
O O15 0.493582 0.052070 0.210148
O O16 0.000000 0.811960 0.500000
#
# Coordination Sequence:
#
# PCOD9184822 Si02
#       8
#     8   8   8   8   4   8   8   4
#     4  11  23  40  59  81 108 150 198 237 282 333
#     4   9  19  33  57  85 114 151 191 237 281 336
#     4  11  23  38  55  82 119 149 186 237 288 339
#     4  11  20  33  54  81 110 149 188 230 281 336
#     4   9  14  30  54  84 115 147 193 231 279 335
#     4  10  19  34  54  86 119 151 190 235 286 340
#     4  10  22  40  59  81 111 149 192 235 286 337
#     4   9  16  28  56  81 118 152 187 228 285 339
#
# _framework density 19.912502
#
# number of rings (size 3 to 8) (size 9 to 14) (size 15 to 20)
#    0.000    1.857    1.429    3.429    0.000    1.143 
#    0.000    3.929    0.000    0.000    0.000   25.500 
#    0.000    0.000    0.000    0.000    0.000    0.000 
#
# Total GULP energy -155948.222841 kJ/mol
# GULP energy per Si atom -5569.579387 kJ/mol
# Density = 1.986718 g / cm^3
# Si number density = 19.912502 Si / 1000 Ang^3
#
#
#
# Elastic Constant Matrix: (Units=GPa)
#
#
# Indices 1 2 3 4 5 6 
#
# 1 53.8107 -1.0076 6.9487 0.0000 17.9166 0.0000
# 2 -1.0076 96.7669 22.8445 0.0000 1.7060 0.0000
# 3 6.9487 22.8445 97.8486 0.0000 22.0257 0.0000
# 4 0.0000 0.0000 0.0000 4.7066 0.0000 2.9869
# 5 17.9166 1.7060 22.0257 0.0000 30.3467 0.0000
# 6 0.0000 0.0000 0.0000 2.9869 0.0000 -5.3140
#
#
#
# Elastic Compliance Matrix: (Units=1/GPa)
#
#
# Indices 1 2 3 4 5 6 
#
# 1 0.023374 0.000107 0.001701 0.000000 -0.015040 0.000000
# 2 0.000107 0.010993 -0.002894 0.000000 0.001419 0.000000
# 3 0.001701 -0.002894 0.013105 0.000000 -0.010353 0.000000
# 4 0.000000 0.000000 0.000000 0.156605 0.000000 0.088025
# 5 -0.015040 0.001419 -0.010353 0.000000 0.049267 0.000000
# 6 0.000000 0.000000 0.000000 0.088025 0.000000 -0.138704
#
#
# Mechanical properties :
#
#
# Convention : Reuss Voigt Hill
#
# Bulk Modulus (GPa) = 22.07487 33.99972 28.03729
# Shear Modulus (GPa) = 37.90430 20.59057 29.24743
#
# Velocity S-wave (km/s) = 4.36769 3.21916 3.83665
# Velocity P-wave (km/s) = 6.04530 5.56138 5.80838
#
# Compressibility (1/GPa) = 0.04530038
#
# Stress axis : x y z
#
# Youngs Moduli (GPa) = 42.78309 90.96424 76.30584
#
# Poissons Ratio (x) = -0.00974 -0.12977
# Poissons Ratio (y) = -0.00458 0.22080
# Poissons Ratio (z) = -0.07276 0.26321
#
# Static dielectric constant tensor:
#      x y z
#    x 1.773270 0.000000 -0.006200 
#    y 0.000000 1.740800 0.000000 
#    z -0.006200 0.000000 1.695970 
# 
# From -- ./inp_files/80454.got.cif
#   From: 2010.05.17/outbox.cif.g08.bks.cpg/sg12_41_cif.got.tgz:80454.got - 2010.06.03 13:09:07.
