data_PCOD9184415
_publ_section_title
;
Structure prediction by ZEFSAII (Michael W. Deem and Ramdas Pophale) SiO2 
 PCOD9184415
Probable space group: C 2/M
;
_chemical_formula_sum "Si O2"
_cell_formula_units_Z 40
_cell_length_a 5.789089
_cell_length_b 22.447928
_cell_length_c 14.004204
_cell_angle_alpha 90.000000
_cell_angle_beta 105.738860
_cell_angle_gamma 90.000000
_cell_volume 1751.657774
_symmetry_space_group_name_H-M "C 2/M"
_symmetry_group_IT_number 12
_symmetry_cell_setting 'monoclinic'
loop_
_space_group_symop_operation_xyz
x,y,z
-x,y,-z
-x,-y,-z
x,-y,z
1/2+x,1/2+y,z
1/2-x,1/2+y,-z
1/2-x,1/2-y,-z
1/2+x,1/2-y,z
loop_
_atom_site_type_symbol
_atom_site_label
_atom_site_fract_x
_atom_site_fract_y
_atom_site_fract_z
Si Si1 0.021525 0.269958 0.873923
Si Si2 0.954369 0.393087 0.207726
Si Si3 0.148274 0.191159 0.313287
Si Si4 0.000000 0.311814 0.500000
Si Si5 0.714160 0.000000 0.941654
Si Si6 0.823608 0.894735 0.403124
O O1 0.309569 0.258522 0.915186
O O2 0.960769 0.339894 0.854178
O O3 0.980879 0.238668 0.766568
O O4 0.776964 0.356190 0.257241
O O5 0.832371 0.442497 0.129527
O O6 0.153710 0.421935 0.301168
O O7 0.329745 0.222256 0.408132
O O8 0.980514 0.150770 0.359249
O O9 0.848080 0.355825 0.549357
O O10 0.500000 0.000000 0.000000
O O11 0.000000 0.000000 0.000000
O O12 0.000000 0.927064 0.500000
#
# Coordination Sequence:
#
# PCOD9184415 Si02
#       6
#     8   8   8   4   4   8
#     4  10  19  33  60  97 132 182 214 260 328 394
#     4  10  22  42  67  97 137 175 227 282 337 397
#     4   9  17  32  59  94 140 185 225 258 328 384
#     4   8  16  28  48  91 148 187 224 262 290 398
#     4  12  32  54  81 103 121 166 233 300 356 411
#     4   9  16  32  59  97 142 185 221 262 320 395
#
# _framework density 22.835512000000001
#
# number of rings (size 3 to 8) (size 9 to 14) (size 15 to 20)
#    0.000    2.400    2.000    0.000    2.800    0.000 
#    1.800    4.500    0.000   34.800    0.000    0.000 
#    0.000    0.000    0.000    0.000    0.000    0.000 
#
# Total GULP energy -111511.057468 kJ/mol
# GULP energy per Si atom -5575.552873 kJ/mol
# Density = 2.278354 g / cm^3
# Si number density = 22.835512 Si / 1000 Ang^3
#
#
#
# Elastic Constant Matrix: (Units=GPa)
#
#
# Indices 1 2 3 4 5 6 
#
# 1 122.3209 21.0605 77.9422 0.0000 9.5717 0.0000
# 2 21.0605 104.4074 57.1541 0.0000 16.9587 0.0000
# 3 77.9422 57.1541 154.4824 0.0000 34.7228 0.0000
# 4 0.0000 0.0000 0.0000 33.4769 0.0000 11.2251
# 5 9.5717 16.9587 34.7228 0.0000 65.4487 0.0000
# 6 0.0000 0.0000 0.0000 11.2251 0.0000 15.7180
#
#
#
# Elastic Compliance Matrix: (Units=1/GPa)
#
#
# Indices 1 2 3 4 5 6 
#
# 1 0.012304 0.001069 -0.006968 0.000000 0.001620 0.000000
# 2 0.001069 0.012146 -0.004871 0.000000 -0.000719 0.000000
# 3 -0.006968 -0.004871 0.012805 0.000000 -0.004512 0.000000
# 4 0.000000 0.000000 0.000000 0.039277 0.000000 -0.028050
# 5 0.001620 -0.000719 -0.004512 0.000000 0.017622 0.000000
# 6 0.000000 0.000000 0.000000 -0.028050 0.000000 0.083653
#
#
# Mechanical properties :
#
#
# Convention : Reuss Voigt Hill
#
# Bulk Modulus (GPa) = 63.63246 77.05828 70.34537
# Shear Modulus (GPa) = 24.43969 37.93231 31.18600
#
# Velocity S-wave (km/s) = 3.27502 4.08009 3.69952
# Velocity P-wave (km/s) = 6.49823 7.48428 7.00862
#
# Compressibility (1/GPa) = 0.01571525
#
# Stress axis : x y z
#
# Youngs Moduli (GPa) = 81.27407 82.33410 78.09396
#
# Poissons Ratio (x) = -0.08802 0.54412
# Poissons Ratio (y) = -0.08689 0.38042
# Poissons Ratio (z) = 0.56628 0.40107
#
# Static dielectric constant tensor:
#      x y z
#    x 1.974530 0.000000 0.069460 
#    y 0.000000 1.781070 0.000000 
#    z 0.069460 0.000000 1.941470 
# 
# From -- ./inp_files/191640.got.cif
#   From: 2010.05.17/outbox.cif.g08.bks.cpg/sg12_96_cif.got.tgz:191640.got - 2010.06.03 13:09:07.
