data_PCOD9184053
_publ_section_title
;
Structure prediction by ZEFSAII (Michael W. Deem and Ramdas Pophale) SiO2 
 PCOD9184053
Probable space group: C 2/M
;
_chemical_formula_sum "Si O2"
_cell_formula_units_Z 48
_cell_length_a 20.869331
_cell_length_b 8.959714
_cell_length_c 15.009325
_cell_angle_alpha 90.000000
_cell_angle_beta 99.850049
_cell_angle_gamma 90.000000
_cell_volume 2765.121229
_symmetry_space_group_name_H-M "C 2/M"
_symmetry_group_IT_number 12
_symmetry_cell_setting 'monoclinic'
loop_
_space_group_symop_operation_xyz
x,y,z
-x,y,-z
-x,-y,-z
x,-y,z
1/2+x,1/2+y,z
1/2-x,1/2+y,-z
1/2-x,1/2-y,-z
1/2+x,1/2-y,z
loop_
_atom_site_type_symbol
_atom_site_label
_atom_site_fract_x
_atom_site_fract_y
_atom_site_fract_z
Si Si1 0.795856 0.821974 0.436847
Si Si2 0.555536 0.678758 0.943433
Si Si3 0.197910 0.178165 0.054666
Si Si4 0.092200 0.677580 0.775013
Si Si5 0.731020 0.322172 0.774051
Si Si6 0.565839 0.178974 0.565288
O O1 0.750000 0.750000 0.500000
O O2 0.767868 0.790285 0.331053
O O3 0.868892 0.756444 0.455188
O O4 0.798298 0.000000 0.448434
O O5 0.551733 0.500000 0.928261
O O6 0.551530 0.760480 0.847915
O O7 0.500000 0.721895 0.000000
O O8 0.625823 0.712282 0.002866
O O9 0.213092 0.244995 0.155207
O O10 0.206236 0.000000 0.057734
O O11 0.250000 0.250000 0.000000
O O12 0.101319 0.500000 0.785180
O O13 0.162326 0.757816 0.792576
O O14 0.062326 0.709125 0.670484
O O15 0.732246 0.500000 0.787731
O O16 0.500000 0.225961 0.500000
O O17 0.573050 0.000000 0.555870
#
# Coordination Sequence:
#
# PCOD9184053 Si02
#       6
#     8   8   8   8   8   8
#     4  10  21  37  58  83 113 147 184 229 280 329
#     4  10  22  39  55  75 110 149 179 220 274 321
#     4  11  21  34  57  83 109 142 183 226 268 323
#     4  10  19  33  57  83 106 142 184 224 271 326
#     4  10  20  35  56  82 110 143 182 227 273 323
#     4   9  19  37  59  82 112 145 181 227 278 332
#
# _framework density 17.359093999999999
#
# number of rings (size 3 to 8) (size 9 to 14) (size 15 to 20)
#    0.000    2.000    1.667    2.000    0.000    4.000 
#    3.000    0.000    0.000    0.000    0.000    0.000 
#    0.000    0.000    0.000    0.000    0.000    0.000 
#
# Total GULP energy -133984.269945 kJ/mol
# GULP energy per Si atom -5582.677914 kJ/mol
# Density = 1.731958 g / cm^3
# Si number density = 17.359094 Si / 1000 Ang^3
#
#
#
# Elastic Constant Matrix: (Units=GPa)
#
#
# Indices 1 2 3 4 5 6 
#
# 1 117.3969 58.3624 88.8037 0.0000 -8.8600 0.0000
# 2 58.3624 54.4323 63.0999 0.0000 -2.8663 0.0000
# 3 88.8037 63.0999 130.9168 0.0000 -9.4654 0.0000
# 4 0.0000 0.0000 0.0000 32.3234 0.0000 -3.2729
# 5 -8.8600 -2.8663 -9.4654 0.0000 35.4788 0.0000
# 6 0.0000 0.0000 0.0000 -3.2729 0.0000 25.6267
#
#
#
# Elastic Compliance Matrix: (Units=1/GPa)
#
#
# Indices 1 2 3 4 5 6 
#
# 1 0.021405 -0.014021 -0.007604 0.000000 0.002184 0.000000
# 2 -0.014021 0.050962 -0.015303 0.000000 -0.003467 0.000000
# 3 -0.007604 -0.015303 0.020337 0.000000 0.002291 0.000000
# 4 0.000000 0.000000 0.000000 0.031343 0.000000 0.004003
# 5 0.002184 -0.003467 0.002291 0.000000 0.029062 0.000000
# 6 0.000000 0.000000 0.000000 0.004003 0.000000 0.039533
#
#
# Mechanical properties :
#
#
# Convention : Reuss Voigt Hill
#
# Bulk Modulus (GPa) = 53.05195 80.36424 66.70809
# Shear Modulus (GPa) = 18.32977 24.85111 21.59044
#
# Velocity S-wave (km/s) = 3.25301 3.78774 3.53052
# Velocity P-wave (km/s) = 6.68859 8.09475 7.42503
#
# Compressibility (1/GPa) = 0.01884945
#
# Stress axis : x y z
#
# Youngs Moduli (GPa) = 46.71791 19.62254 49.17054
#
# Poissons Ratio (x) = 0.27513 0.37387
# Poissons Ratio (y) = 0.65504 0.75244
# Poissons Ratio (z) = 0.35522 0.30028
#
# Static dielectric constant tensor:
#      x y z
#    x 1.558250 0.000000 0.009300 
#    y 0.000000 1.579530 0.000000 
#    z 0.009300 0.000000 1.601960 
# 
# From -- ./inp_files/221642.got.cif
#   From: 2010.05.17/outbox.cif.g08.bks.cpg/sg12_111_cif.got.tgz:221642.got - 2010.06.03 13:09:07.
