data_PCOD9184443
_publ_section_title
;
Structure prediction by ZEFSAII (Michael W. Deem and Ramdas Pophale) SiO2 
 PCOD9184443
Probable space group: C 2/M
;
_chemical_formula_sum "Si O2"
_cell_formula_units_Z 52
_cell_length_a 5.253758
_cell_length_b 30.618565
_cell_length_c 23.574311
_cell_angle_alpha 90.000000
_cell_angle_beta 69.169274
_cell_angle_gamma 90.000000
_cell_volume 3544.345064
_symmetry_space_group_name_H-M "C 2/M"
_symmetry_group_IT_number 12
_symmetry_cell_setting 'monoclinic'
loop_
_space_group_symop_operation_xyz
x,y,z
-x,y,-z
-x,-y,-z
x,-y,z
1/2+x,1/2+y,z
1/2-x,1/2+y,-z
1/2-x,1/2-y,-z
1/2+x,1/2-y,z
loop_
_atom_site_type_symbol
_atom_site_label
_atom_site_fract_x
_atom_site_fract_y
_atom_site_fract_z
Si Si1 0.114170 0.947047 0.749731
Si Si2 0.939444 0.586373 0.616016
Si Si3 0.498892 0.371099 0.566848
Si Si4 0.309143 0.946740 0.963290
Si Si5 0.502152 0.947082 0.175810
Si Si6 0.317806 0.000000 0.458314
Si Si7 0.380334 0.731132 0.431104
O O1 0.259004 0.925186 0.684764
O O2 0.278110 0.935741 0.793862
O O3 0.800188 0.933777 0.781606
O O4 0.124999 0.000000 0.741680
O O5 0.732045 0.603428 0.583624
O O6 0.188665 0.619112 0.610019
O O7 0.095091 0.542696 0.583449
O O8 0.500000 0.382937 0.500000
O O9 0.567958 0.319945 0.566641
O O10 0.415374 0.931861 0.893503
O O11 0.313151 0.000000 0.962027
O O12 0.500000 0.932889 0.000000
O O13 0.000000 0.933486 0.000000
O O14 0.497068 0.000000 0.173606
O O15 0.500000 0.000000 0.500000
O O16 0.000000 0.000000 0.500000
O O17 0.250000 0.750000 0.500000
O O18 0.659916 0.757000 0.401636
#
# Coordination Sequence:
#
# PCOD9184443 Si02
#       7
#     8   8   8   8   8   4   8
#     4  10  19  34  46  57  80 114 160 190 216 258
#     4  12  24  36  50  67  89 118 151 195 229 264
#     4  12  23  35  53  74  91 108 141 181 236 299
#     4   9  15  23  36  59  86 102 126 175 235 278
#     4   9  17  27  45  60  75 111 149 182 223 270
#     4  12  24  40  48  62  86 118 148 186 244 286
#     4  10  19  34  54  73  93 109 127 159 222 299
#
# _framework density 14.671258999999999
#
# number of rings (size 3 to 8) (size 9 to 14) (size 15 to 20)
#    0.000    1.538    2.308    5.538    2.154    3.692 
#    0.000    0.000    0.000    0.000    0.000    0.000 
#    0.000    0.000    0.000    0.000    0.000    0.000 
#
# Total GULP energy -145032.517909 kJ/mol
# GULP energy per Si atom -5578.173766 kJ/mol
# Density = 1.463787 g / cm^3
# Si number density = 14.671259 Si / 1000 Ang^3
#
#
#
# Elastic Constant Matrix: (Units=GPa)
#
#
# Indices 1 2 3 4 5 6 
#
# 1 111.7506 24.5885 16.4952 0.0000 -5.9279 0.0000
# 2 24.5885 52.3717 22.1865 0.0000 0.1919 0.0000
# 3 16.4952 22.1865 63.7060 0.0000 -6.4747 0.0000
# 4 0.0000 0.0000 0.0000 5.9088 0.0000 -4.3123
# 5 -5.9279 0.1919 -6.4747 0.0000 23.3120 0.0000
# 6 0.0000 0.0000 0.0000 -4.3123 0.0000 18.8306
#
#
#
# Elastic Compliance Matrix: (Units=1/GPa)
#
#
# Indices 1 2 3 4 5 6 
#
# 1 0.010174 -0.004425 -0.000851 0.000000 0.002387 0.000000
# 2 -0.004425 0.024457 -0.007725 0.000000 -0.003472 0.000000
# 3 -0.000851 -0.007725 0.019132 0.000000 0.005161 0.000000
# 4 0.000000 0.000000 0.000000 0.203201 0.000000 0.046534
# 5 0.002387 -0.003472 0.005161 0.000000 0.044965 0.000000
# 6 0.000000 0.000000 0.000000 0.046534 0.000000 0.063762
#
#
# Mechanical properties :
#
#
# Convention : Reuss Voigt Hill
#
# Bulk Modulus (GPa) = 36.01964 39.37428 37.69696
# Shear Modulus (GPa) = 12.47047 20.58081 16.52564
#
# Velocity S-wave (km/s) = 2.91863 3.74946 3.35982
# Velocity P-wave (km/s) = 5.99686 6.75578 6.38760
#
# Compressibility (1/GPa) = 0.02776263
#
# Stress axis : x y z
#
# Youngs Moduli (GPa) = 98.28600 40.88797 52.26816
#
# Poissons Ratio (x) = 0.18094 0.04446
# Poissons Ratio (y) = 0.43494 0.40375
# Poissons Ratio (z) = 0.08360 0.31584
#
# Static dielectric constant tensor:
#      x y z
#    x 1.533250 0.000000 -0.005040 
#    y 0.000000 1.476180 0.000000 
#    z -0.005040 0.000000 1.464550 
# 
# From -- ./inp_files/298447.got.cif
#   From: 2010.05.17/outbox.cif.g08.bks.cpg/sg12_150_cif.got.tgz:298447.got - 2010.06.03 13:09:07.
