data_PCOD9184622
_publ_section_title
;
Structure prediction by ZEFSAII (Michael W. Deem and Ramdas Pophale) SiO2 
 PCOD9184622
Probable space group: C 2/M
;
_chemical_formula_sum "Si O2"
_cell_formula_units_Z 56
_cell_length_a 22.860583
_cell_length_b 7.509922
_cell_length_c 15.186667
_cell_angle_alpha 90.000000
_cell_angle_beta 110.442749
_cell_angle_gamma 90.000000
_cell_volume 2443.063899
_symmetry_space_group_name_H-M "C 2/M"
_symmetry_group_IT_number 12
_symmetry_cell_setting 'monoclinic'
loop_
_space_group_symop_operation_xyz
x,y,z
-x,y,-z
-x,-y,-z
x,-y,z
1/2+x,1/2+y,z
1/2-x,1/2+y,-z
1/2-x,1/2-y,-z
1/2+x,1/2-y,z
loop_
_atom_site_type_symbol
_atom_site_label
_atom_site_fract_x
_atom_site_fract_y
_atom_site_fract_z
Si Si1 0.475765 0.202387 0.754014
Si Si2 0.741010 0.782215 0.761009
Si Si3 0.949095 0.718505 0.547732
Si Si4 0.303368 0.786500 0.454231
Si Si5 0.118181 0.208483 0.163231
Si Si6 0.811423 0.712340 0.087724
Si Si7 0.932272 0.715735 0.050069
O O1 0.473498 0.280709 0.656101
O O2 0.407874 0.200769 0.762918
O O3 0.516632 0.284148 0.853844
O O4 0.498778 0.000000 0.754502
O O5 0.721130 0.723072 0.653863
O O6 0.811932 0.727826 0.820202
O O7 0.696973 0.720974 0.817401
O O8 0.739728 0.000000 0.760815
O O9 0.948011 0.500000 0.546715
O O10 0.875879 0.775176 0.502825
O O11 0.000000 0.770624 0.500000
O O12 0.250000 0.750000 0.500000
O O13 0.307453 0.000000 0.452842
O O14 0.121494 0.000000 0.184242
O O15 0.073947 0.234438 0.055191
O O16 0.820059 0.500000 0.097987
O O17 0.868806 0.780077 0.061938
O O18 0.750000 0.750000 0.000000
O O19 0.937451 0.500000 0.050393
#
# Coordination Sequence:
#
# PCOD9184622 Si02
#       7
#     8   8   8   8   8   8   8
#     4  10  21  36  54  79 109 139 175 221 268 315
#     4   9  19  33  53  79 107 138 173 215 267 319
#     4   9  19  35  58  86 111 140 184 234 276 320
#     4  10  20  36  59  84 111 143 182 228 275 327
#     4  11  21  35  54  78 108 143 179 216 259 319
#     4  10  19  34  53  76 105 139 176 217 264 315
#     4  10  21  34  53  78 107 141 176 218 266 315
#
# _framework density 22.922038000000001
#
# number of rings (size 3 to 8) (size 9 to 14) (size 15 to 20)
#    0.000    2.143    1.429    1.714    2.000    2.286 
#    0.000    1.429    0.000    1.714    0.000    0.000 
#    0.000    0.000    0.000    0.000    0.000    0.000 
#
# Total GULP energy -156267.125233 kJ/mol
# GULP energy per Si atom -5580.968758 kJ/mol
# Density = 2.286987 g / cm^3
# Si number density = 22.922038 Si / 1000 Ang^3
#
#
#
# Elastic Constant Matrix: (Units=GPa)
#
#
# Indices 1 2 3 4 5 6 
#
# 1 134.4024 -3.9365 87.2639 0.0000 -20.1073 0.0000
# 2 -3.9365 61.8795 0.2838 0.0000 1.9195 0.0000
# 3 87.2639 0.2838 195.7979 0.0000 -29.8506 0.0000
# 4 0.0000 0.0000 0.0000 -0.4678 0.0000 0.6735
# 5 -20.1073 1.9195 -29.8506 0.0000 46.4833 0.0000
# 6 0.0000 0.0000 0.0000 0.6735 0.0000 13.0163
#
#
#
# Elastic Compliance Matrix: (Units=1/GPa)
#
#
# Indices 1 2 3 4 5 6 
#
# 1 0.010618 0.000643 -0.004475 0.000000 0.001693 0.000000
# 2 0.000643 0.016224 -0.000410 0.000000 -0.000655 0.000000
# 3 -0.004475 -0.000410 0.007549 0.000000 0.002929 0.000000
# 4 0.000000 0.000000 0.000000 -1.989569 0.000000 0.102945
# 5 0.001693 -0.000655 0.002929 0.000000 0.024153 0.000000
# 6 0.000000 0.000000 0.000000 0.102945 0.000000 0.071500
#
#
# Mechanical properties :
#
#
# Convention : Reuss Voigt Hill
#
# Bulk Modulus (GPa) = 38.59981 62.14468 50.37225
# Shear Modulus (GPa) = -2.71384 32.37095 14.82855
#
# Velocity S-wave (km/s) = -1.08927 3.76203 2.54621
# Velocity P-wave (km/s) = 3.91077 6.78533 5.53782
#
# Compressibility (1/GPa) = 0.02590686
#
# Stress axis : x y z
#
# Youngs Moduli (GPa) = 94.17956 61.63867 132.46912
#
# Poissons Ratio (x) = -0.03966 0.59282
# Poissons Ratio (y) = -0.06060 0.05433
# Poissons Ratio (z) = 0.42147 0.02528
#
# Static dielectric constant tensor:
#      x y z
#    x 1.872610 0.000000 0.019240 
#    y 0.000000 1.952200 0.000000 
#    z 0.019240 0.000000 1.819600 
# 
# From -- ./inp_files/237803.got.cif
#   From: 2010.05.17/outbox.cif.g08.bks.cpg/sg12_119_cif.got.tgz:237803.got - 2010.06.03 13:09:07.
