data_PCOD9184895
_publ_section_title
;
Structure prediction by ZEFSAII (Michael W. Deem and Ramdas Pophale) SiO2 
 PCOD9184895
Probable space group: C 2/M
;
_chemical_formula_sum "Si O2"
_cell_formula_units_Z 64
_cell_length_a 22.324336
_cell_length_b 8.540327
_cell_length_c 17.379938
_cell_angle_alpha 90.000000
_cell_angle_beta 86.151400
_cell_angle_gamma 90.000000
_cell_volume 3306.136550
_symmetry_space_group_name_H-M "C 2/M"
_symmetry_group_IT_number 12
_symmetry_cell_setting 'monoclinic'
loop_
_space_group_symop_operation_xyz
x,y,z
-x,y,-z
-x,-y,-z
x,-y,z
1/2+x,1/2+y,z
1/2-x,1/2+y,-z
1/2-x,1/2-y,-z
1/2+x,1/2-y,z
loop_
_atom_site_type_symbol
_atom_site_label
_atom_site_fract_x
_atom_site_fract_y
_atom_site_fract_z
Si Si1 0.637725 0.316093 0.261777
Si Si2 0.017913 0.181922 0.167374
Si Si3 0.063117 0.189326 0.591124
Si Si4 0.576077 0.690550 0.417523
Si Si5 0.595106 0.812961 0.030231
Si Si6 0.290730 0.812991 0.879730
Si Si7 0.099970 0.317627 0.748251
Si Si8 0.657802 0.314777 0.885538
O O1 0.653345 0.500000 0.264426
O O2 0.575744 0.304806 0.218406
O O3 0.621964 0.255288 0.348167
O O4 0.687683 0.229338 0.207834
O O5 0.040789 0.236794 0.081961
O O6 0.965048 0.282382 0.208500
O O7 0.999139 0.000000 0.167137
O O8 0.087254 0.236295 0.504795
O O9 0.096233 0.261912 0.660797
O O10 0.992416 0.234795 0.597932
O O11 0.065206 0.000000 0.596662
O O12 0.576723 0.500000 0.415347
O O13 0.656322 0.757096 0.068494
O O14 0.589850 0.000000 0.037032
O O15 0.606669 0.764153 0.941980
O O16 0.224036 0.751952 0.901397
O O17 0.288521 0.000000 0.887494
O O18 0.113837 0.500000 0.751802
O O19 0.145612 0.222488 0.797804
O O20 0.655510 0.500000 0.899050
#
# Coordination Sequence:
#
# PCOD9184895 Si02
#       8
#     8   8   8   8   8   8   8   8
#     4   9  16  29  53  82 108 135 171 212 256 306
#     4  10  19  34  55  78 106 142 178 207 252 316
#     4   9  16  31  53  76 107 142 175 209 250 310
#     4   8  14  27  52  82 107 136 174 211 249 304
#     4  10  20  36  57  83 110 130 162 219 275 309
#     4   9  20  36  55  79 106 135 170 217 266 308
#     4  12  24  36  51  75 109 142 175 219 266 307
#     4  11  23  39  56  74  99 140 186 215 252 315
#
# _framework density 19.357942999999999
#
# number of rings (size 3 to 8) (size 9 to 14) (size 15 to 20)
#    0.000    2.250    1.250    3.375    0.000    2.500 
#    0.000    4.375    0.000    0.750    0.000    0.000 
#    0.000    0.000    0.000    0.000    0.000    0.000 
#
# Total GULP energy -178627.932194 kJ/mol
# GULP energy per Si atom -5582.122881 kJ/mol
# Density = 1.931388 g / cm^3
# Si number density = 19.357943 Si / 1000 Ang^3
#
#
#
# Elastic Constant Matrix: (Units=GPa)
#
#
# Indices 1 2 3 4 5 6 
#
# 1 28.8467 -3.1111 4.0830 0.0000 -3.2269 0.0000
# 2 -3.1111 17.4541 -1.6484 0.0000 -0.4243 0.0000
# 3 4.0830 -1.6484 111.9649 0.0000 -8.3568 0.0000
# 4 0.0000 0.0000 0.0000 27.0015 0.0000 -5.3677
# 5 -3.2269 -0.4243 -8.3568 0.0000 22.4141 0.0000
# 6 0.0000 0.0000 0.0000 -5.3677 0.0000 16.4826
#
#
#
# Elastic Compliance Matrix: (Units=1/GPa)
#
#
# Indices 1 2 3 4 5 6 
#
# 1 0.036042 0.006466 -0.000846 0.000000 0.004996 0.000000
# 2 0.006466 0.058578 0.000801 0.000000 0.002339 0.000000
# 3 -0.000846 0.000801 0.009223 0.000000 0.003332 0.000000
# 4 0.000000 0.000000 0.000000 0.039598 0.000000 0.012896
# 5 0.004996 0.002339 0.003332 0.000000 0.046620 0.000000
# 6 0.000000 0.000000 0.000000 0.012896 0.000000 0.064870
#
#
# Mechanical properties :
#
#
# Convention : Reuss Voigt Hill
#
# Bulk Modulus (GPa) = 8.57011 17.43473 13.00242
# Shear Modulus (GPa) = 17.79455 23.77580 20.78517
#
# Velocity S-wave (km/s) = 3.03518 3.50840 3.28033
# Velocity P-wave (km/s) = 4.08900 5.04360 4.59117
#
# Compressibility (1/GPa) = 0.11668467
#
# Stress axis : x y z
#
# Youngs Moduli (GPa) = 27.74541 17.07118 108.42799
#
# Poissons Ratio (x) = -0.11038 0.09176
# Poissons Ratio (y) = -0.17940 -0.08687
# Poissons Ratio (z) = 0.02348 -0.01368
#
# Static dielectric constant tensor:
#      x y z
#    x 1.687730 0.000000 0.017800 
#    y 0.000000 1.655330 0.000000 
#    z 0.017800 0.000000 1.701070 
# 
# From -- ./inp_files/281406.got.cif
#   From: 2010.05.17/outbox.cif.g08.bks.cpg/sg12_141_cif.got.tgz:281406.got - 2010.06.03 13:09:07.
