data_PCOD9184325
_publ_section_title
;
Structure prediction by ZEFSAII (Michael W. Deem and Ramdas Pophale) SiO2 
 PCOD9184325
Probable space group: C 2/M
;
_chemical_formula_sum "Si O2"
_cell_formula_units_Z 64
_cell_length_a 21.928310
_cell_length_b 8.150178
_cell_length_c 25.211384
_cell_angle_alpha 90.000000
_cell_angle_beta 135.252477
_cell_angle_gamma 90.000000
_cell_volume 3171.989530
_symmetry_space_group_name_H-M "C 2/M"
_symmetry_group_IT_number 12
_symmetry_cell_setting 'monoclinic'
loop_
_space_group_symop_operation_xyz
x,y,z
-x,y,-z
-x,-y,-z
x,-y,z
1/2+x,1/2+y,z
1/2-x,1/2+y,-z
1/2-x,1/2-y,-z
1/2+x,1/2-y,z
loop_
_atom_site_type_symbol
_atom_site_label
_atom_site_fract_x
_atom_site_fract_y
_atom_site_fract_z
Si Si1 0.700103 0.698133 0.810125
Si Si2 0.833724 0.696955 0.520873
Si Si3 0.197515 0.698161 0.020534
Si Si4 0.270241 0.817936 0.369411
Si Si5 0.177201 0.695840 0.212208
Si Si6 0.479481 0.196400 0.335373
Si Si7 0.491476 0.200514 0.056915
Si Si8 0.578934 0.319324 0.588977
O O1 0.699041 0.500000 0.807649
O O2 0.751223 0.749576 0.894471
O O3 0.752441 0.754024 0.789037
O O4 0.600490 0.756648 0.751435
O O5 0.840576 0.500000 0.519753
O O6 0.750000 0.750000 0.500000
O O7 0.812453 0.761570 0.448286
O O8 0.919545 0.746581 0.606722
O O9 0.195552 0.500000 0.018639
O O10 0.250000 0.750000 0.000000
O O11 0.097449 0.753791 0.968700
O O12 0.201815 0.734298 0.288199
O O13 0.354058 0.819664 0.383859
O O14 0.238826 0.000000 0.363218
O O15 0.175755 0.500000 0.205216
O O16 0.080741 0.756715 0.139272
O O17 0.455246 0.287722 0.374345
O O18 0.477346 0.000000 0.339897
O O19 0.489729 0.000000 0.056484
O O20 0.500000 0.247408 0.000000
O O21 0.500000 0.315560 0.500000
O O22 0.621290 0.500000 0.612457
#
# Coordination Sequence:
#
# PCOD9184325 Si02
#       8
#     8   8   8   8   8   8   8   8
#     4  10  20  35  58  89 119 150 193 240 291 351
#     4  10  24  43  60  78 107 153 202 243 288 348
#     4  10  21  39  62  87 120 160 201 246 298 361
#     4  11  22  37  56  82 117 150 184 235 295 342
#     4  10  19  33  58  91 117 143 193 245 292 349
#     4  11  22  37  58  85 115 147 187 238 294 346
#     4   9  16  33  62  88 112 151 199 249 297 346
#     4  11  21  32  53  84 112 144 184 226 279 341
#
# _framework density 20.176611999999999
#
# number of rings (size 3 to 8) (size 9 to 14) (size 15 to 20)
#    0.000    1.750    3.750    1.125    0.000    3.000 
#    2.250    0.625    0.000    0.750    0.000    0.000 
#    0.000    0.000    0.000    0.000    0.000    0.000 
#
# Total GULP energy -178194.469063 kJ/mol
# GULP energy per Si atom -5568.577158 kJ/mol
# Density = 2.013069 g / cm^3
# Si number density = 20.176612 Si / 1000 Ang^3
#
#
#
# Elastic Constant Matrix: (Units=GPa)
#
#
# Indices 1 2 3 4 5 6 
#
# 1 104.3995 5.8885 50.8835 0.0000 29.0064 0.0000
# 2 5.8885 20.0802 15.8797 0.0000 4.7310 0.0001
# 3 50.8835 15.8797 135.3936 0.0000 43.4337 0.0000
# 4 0.0000 0.0000 0.0000 18.7840 0.0000 -1.3146
# 5 29.0064 4.7310 43.4337 0.0000 29.3164 0.0000
# 6 0.0000 0.0001 0.0000 -1.3146 0.0000 22.8637
#
#
#
# Elastic Compliance Matrix: (Units=1/GPa)
#
#
# Indices 1 2 3 4 5 6 
#
# 1 0.013366 -0.000161 -0.001468 0.000000 -0.011024 0.000000
# 2 -0.000161 0.054919 -0.006839 0.000000 0.001429 0.000000
# 3 -0.001468 -0.006839 0.015093 0.000000 -0.019805 0.000000
# 4 0.000000 0.000000 0.000000 0.053452 0.000000 0.003073
# 5 -0.011024 0.001429 -0.019805 0.000000 0.074130 0.000000
# 6 0.000000 0.000000 0.000000 0.003073 0.000000 0.043914
#
#
# Mechanical properties :
#
#
# Convention : Reuss Voigt Hill
#
# Bulk Modulus (GPa) = 15.05079 45.01960 30.03520
# Shear Modulus (GPa) = 17.00924 26.67427 21.84175
#
# Velocity S-wave (km/s) = 2.90663 3.63993 3.29375
# Velocity P-wave (km/s) = 4.32901 6.32666 5.42066
#
# Compressibility (1/GPa) = 0.06644168
#
# Stress axis : x y z
#
# Youngs Moduli (GPa) = 74.81673 18.20849 66.25582
#
# Poissons Ratio (x) = 0.00294 0.09725
# Poissons Ratio (y) = 0.01208 0.45313
# Poissons Ratio (z) = 0.10982 0.12453
#
# Static dielectric constant tensor:
#      x y z
#    x 1.628560 0.000000 -0.268440 
#    y 0.000000 1.741920 0.000000 
#    z -0.268440 0.000000 1.047410 
# 
# From -- ./inp_files/346139.got.cif
#   From: 2010.05.17/outbox.cif.g08.bks.cpg/sg12_174_cif.got.tgz:346139.got - 2010.06.03 13:09:07.
