data_PCOD9184955
_publ_section_title
;
Structure prediction by ZEFSAII (Michael W. Deem and Ramdas Pophale) SiO2 
 PCOD9184955
Probable space group: C 2/M
;
_chemical_formula_sum "Si O2"
_cell_formula_units_Z 48
_cell_length_a 9.524178
_cell_length_b 16.066787
_cell_length_c 29.734099
_cell_angle_alpha 90.000000
_cell_angle_beta 32.404356
_cell_angle_gamma 90.000000
_cell_volume 2438.303566
_symmetry_space_group_name_H-M "C 2/M"
_symmetry_group_IT_number 12
_symmetry_cell_setting 'monoclinic'
loop_
_space_group_symop_operation_xyz
x,y,z
-x,y,-z
-x,-y,-z
x,-y,z
1/2+x,1/2+y,z
1/2-x,1/2+y,-z
1/2-x,1/2-y,-z
1/2+x,1/2-y,z
loop_
_atom_site_type_symbol
_atom_site_label
_atom_site_fract_x
_atom_site_fract_y
_atom_site_fract_z
Si Si1 0.311789 0.906002 0.267859
Si Si2 0.138451 0.623952 0.844606
Si Si3 0.780477 0.601387 0.594346
Si Si4 0.229999 0.094770 0.708141
Si Si5 0.755356 0.819161 0.202180
Si Si6 0.792657 0.336473 0.015369
O O1 0.429869 0.909827 0.185732
O O2 0.495244 0.847237 0.247115
O O3 0.012802 0.875548 0.341936
O O4 0.306193 0.000000 0.288205
O O5 0.417551 0.590543 0.785127
O O6 0.187180 0.722387 0.822094
O O7 0.927652 0.608515 0.940367
O O8 0.779726 0.500000 0.595529
O O9 0.832604 0.626195 0.631924
O O10 0.000000 0.629369 0.500000
O O11 0.274937 0.154903 0.737884
O O12 0.325225 0.000000 0.691192
O O13 0.015164 0.863476 0.111176
O O14 0.750000 0.250000 0.000000
O O15 0.000000 0.325022 0.000000
#
# Coordination Sequence:
#
# PCOD9184955 Si02
#       6
#     8   8   8   8   8   8
#     4  10  21  36  55  81 111 138 176 227 276 320
#     4  10  20  36  56  75 104 149 191 214 255 323
#     4   8  16  34  59  80 103 142 183 214 260 336
#     4  10  19  34  55  80 108 137 175 224 272 317
#     4  11  21  34  55  80 110 140 180 227 270 311
#     4  10  21  34  53  78 108 145 191 229 254 308
#
# _framework density 19.685818999999999
#
# number of rings (size 3 to 8) (size 9 to 14) (size 15 to 20)
#    0.000    2.167    1.667    3.000    7.000    0.000 
#    0.000    5.833    0.000   20.000    0.000    0.000 
#    0.000    0.000    0.000    0.000    0.000    0.000 
#
# Total GULP energy -133853.057164 kJ/mol
# GULP energy per Si atom -5577.210715 kJ/mol
# Density = 1.964101 g / cm^3
# Si number density = 19.685819 Si / 1000 Ang^3
#
#
#
# Elastic Constant Matrix: (Units=GPa)
#
#
# Indices 1 2 3 4 5 6 
#
# 1 129.0792 27.9699 60.4006 -0.1325 13.8365 0.6743
# 2 27.9699 60.9486 17.7982 -0.0370 4.5345 0.1637
# 3 60.4006 17.7982 133.8226 -1.9152 29.6033 12.3476
# 4 -0.1325 -0.0370 -1.9152 188.5470 -0.7682-1025.0752
# 5 13.8365 4.5345 29.6033 -0.7682 25.7552 4.6882
# 6 0.6743 0.1637 12.3476-1025.0752 4.6882 6306.3081
#
#
#
# Elastic Compliance Matrix: (Units=1/GPa)
#
#
# Indices 1 2 3 4 5 6 
#
# 1 0.010524 -0.003580 -0.004241 0.000027 -0.000150 0.000012
# 2 -0.003580 0.018293 -0.000711 0.000008 -0.000481 0.000003
# 3 -0.004241 -0.000711 0.012002 -0.000058 -0.011389 -0.000024
# 4 0.000027 0.000008 -0.000058 0.045614 0.000062 0.007414
# 5 -0.000150 -0.000481 -0.011389 0.000062 0.052086 -0.000006
# 6 0.000012 0.000003 -0.000024 0.007414 -0.000006 0.001364
#
#
# Mechanical properties :
#
#
# Convention : Reuss Voigt Hill
#
# Bulk Modulus (GPa) = 42.09643 59.57641 50.83642
# Shear Modulus (GPa) = 30.32785 1318.63416 674.48100
#
# Velocity S-wave (km/s) = 3.92930 25.90934 18.53015
# Velocity P-wave (km/s) = 6.48201 30.42019 21.99323
#
# Compressibility (1/GPa) = 0.02375498
#
# Stress axis : x y z
#
# Youngs Moduli (GPa) = 95.02541 54.66442 83.31776
#
# Poissons Ratio (x) = 0.19568 0.35337
# Poissons Ratio (y) = 0.34016 0.05925
# Poissons Ratio (z) = 0.40303 0.03887
#
# Static dielectric constant tensor:
#      x y z
#    x 1.669850 0.000060 0.026720 
#    y 0.000060 1.631170 0.000000 
#    z 0.026720 0.000000 1.709590 
# 
# From -- ./inp_files/196503.got.cif
#   From: 2010.05.17/outbox.cif.g08.bks.cpg/sg12_99_cif.got.tgz:196503.got - 2010.06.03 13:09:07.
