data_PCOD9184283
_publ_section_title
;
Structure prediction by ZEFSAII (Michael W. Deem and Ramdas Pophale) SiO2 
 PCOD9184283
Probable space group: C 2/M
;
_chemical_formula_sum "Si O2"
_cell_formula_units_Z 64
_cell_length_a 9.098885
_cell_length_b 18.900819
_cell_length_c 22.744236
_cell_angle_alpha 90.000000
_cell_angle_beta 59.864354
_cell_angle_gamma 90.000000
_cell_volume 3382.793913
_symmetry_space_group_name_H-M "C 2/M"
_symmetry_group_IT_number 12
_symmetry_cell_setting 'monoclinic'
loop_
_space_group_symop_operation_xyz
x,y,z
-x,y,-z
-x,-y,-z
x,-y,z
1/2+x,1/2+y,z
1/2-x,1/2+y,-z
1/2-x,1/2-y,-z
1/2+x,1/2-y,z
loop_
_atom_site_type_symbol
_atom_site_label
_atom_site_fract_x
_atom_site_fract_y
_atom_site_fract_z
Si Si1 0.021291 0.160031 0.842606
Si Si2 0.968182 0.652746 0.567704
Si Si3 0.096979 0.177626 0.316782
Si Si4 0.337733 0.415902 0.299663
Si Si5 0.488782 0.919630 0.073120
Si Si6 0.132216 0.916438 0.018974
Si Si7 0.218920 0.288319 0.833849
Si Si8 0.782146 0.716548 0.394499
O O1 0.122332 0.114644 0.773640
O O2 0.135402 0.212429 0.857591
O O3 0.902439 0.115782 0.910319
O O4 0.898563 0.210142 0.829880
O O5 0.839163 0.614175 0.638535
O O6 0.859328 0.722158 0.568743
O O7 0.000000 0.612504 0.500000
O O8 0.145366 0.672260 0.564834
O O9 0.243146 0.198594 0.241997
O O10 0.191492 0.171965 0.360623
O O11 0.989971 0.112098 0.311850
O O12 0.955499 0.240423 0.343898
O O13 0.334944 0.500000 0.298477
O O14 0.384075 0.855423 0.120773
O O15 0.432215 0.000000 0.100721
O O16 0.500000 0.917339 0.000000
O O17 0.685868 0.908865 0.047826
O O18 0.103698 0.000000 0.031880
O O19 0.000000 0.885162 0.000000
#
# Coordination Sequence:
#
# PCOD9184283 Si02
#       8
#     8   8   8   8   8   8   8   8
#     4  11  23  38  59  82 111 144 185 237 284 341
#     4  10  19  33  58  88 119 153 189 233 280 339
#     4   9  18  34  56  81 111 146 183 236 279 341
#     4  10  22  39  58  80 110 155 195 231 287 347
#     4  10  21  39  57  78 110 147 189 228 274 341
#     4  10  22  40  58  78 108 149 189 230 278 333
#     4  11  22  34  57  84 108 143 183 234 291 328
#     4   9  17  34  57  85 120 147 184 231 290 335
#
# _framework density 18.919271999999999
#
# number of rings (size 3 to 8) (size 9 to 14) (size 15 to 20)
#    0.000    2.000    1.250    3.750    1.750    3.250 
#    0.000    0.625    0.000    0.750    0.000    0.000 
#    0.000    0.000    0.000    0.000    0.000    0.000 
#
# Total GULP energy -178238.968851 kJ/mol
# GULP energy per Si atom -5569.967777 kJ/mol
# Density = 1.887621 g / cm^3
# Si number density = 18.919272 Si / 1000 Ang^3
#
#
#
# Elastic Constant Matrix: (Units=GPa)
#
#
# Indices 1 2 3 4 5 6 
#
# 1 80.6929 19.7536 7.8703 0.0000 12.3031 0.0000
# 2 19.7536 63.4699 16.2494 0.0000 -11.1557 0.0000
# 3 7.8703 16.2494 66.1292 0.0000 -2.5863 0.0000
# 4 0.0000 0.0000 0.0000 1.1809 0.0000 -0.8264
# 5 12.3031 -11.1557 -2.5863 0.0000 17.4875 0.0000
# 6 0.0000 0.0000 0.0000 -0.8264 0.0000 13.2663
#
#
#
# Elastic Compliance Matrix: (Units=1/GPa)
#
#
# Indices 1 2 3 4 5 6 
#
# 1 0.017119 -0.008203 -0.000701 0.000000 -0.017381 0.000000
# 2 -0.008203 0.022759 -0.003845 0.000000 0.019721 0.000000
# 3 -0.000701 -0.003845 0.016167 0.000000 0.000432 0.000000
# 4 0.000000 0.000000 0.000000 0.885424 0.000000 0.055153
# 5 -0.017381 0.019721 0.000432 0.000000 0.082056 0.000000
# 6 0.000000 0.000000 0.000000 0.055153 0.000000 0.078814
#
#
# Mechanical properties :
#
#
# Convention : Reuss Voigt Hill
#
# Bulk Modulus (GPa) = 32.73718 33.11541 32.92629
# Shear Modulus (GPa) = 4.39359 17.48153 10.93756
#
# Velocity S-wave (km/s) = 1.52556 3.04304 2.40702
# Velocity P-wave (km/s) = 4.52154 5.46702 5.01660
#
# Compressibility (1/GPa) = 0.03054631
#
# Stress axis : x y z
#
# Youngs Moduli (GPa) = 58.41361 43.93813 61.85422
#
# Poissons Ratio (x) = 0.36044 0.04339
# Poissons Ratio (y) = 0.47919 0.23782
# Poissons Ratio (z) = 0.04097 0.16894
#
# Static dielectric constant tensor:
#      x y z
#    x 1.737480 0.000000 0.002430 
#    y 0.000000 1.652360 0.000000 
#    z 0.002430 0.000000 1.712890 
# 
# From -- ./inp_files/301684.got.cif
#   From: 2010.05.17/outbox.cif.g08.bks.cpg/sg12_151_cif.got.tgz:301684.got - 2010.06.03 13:09:07.
