data_PCOD9184649
_publ_section_title
;
Structure prediction by ZEFSAII (Michael W. Deem and Ramdas Pophale) SiO2 
 PCOD9184649
Probable space group: C 2/M
;
_chemical_formula_sum "Si O2"
_cell_formula_units_Z 48
_cell_length_a 20.120908
_cell_length_b 15.837563
_cell_length_c 11.302123
_cell_angle_alpha 90.000000
_cell_angle_beta 135.688851
_cell_angle_gamma 90.000000
_cell_volume 2515.916814
_symmetry_space_group_name_H-M "C 2/M"
_symmetry_group_IT_number 12
_symmetry_cell_setting 'monoclinic'
loop_
_space_group_symop_operation_xyz
x,y,z
-x,y,-z
-x,-y,-z
x,-y,z
1/2+x,1/2+y,z
1/2-x,1/2+y,-z
1/2-x,1/2-y,-z
1/2+x,1/2-y,z
loop_
_atom_site_type_symbol
_atom_site_label
_atom_site_fract_x
_atom_site_fract_y
_atom_site_fract_z
Si Si1 0.361628 0.655676 0.570769
Si Si2 0.177300 0.349641 0.474311
Si Si3 0.894935 0.183560 0.344094
Si Si4 0.553190 0.000000 0.381279
Si Si5 0.069810 0.097152 0.853561
Si Si6 0.855403 0.500000 0.237223
Si Si7 0.254958 0.832746 0.168836
O O1 0.263812 0.622506 0.500805
O O2 0.359555 0.755601 0.599841
O O3 0.363633 0.647635 0.430966
O O4 0.459522 0.615463 0.739992
O O5 0.093613 0.417121 0.370327
O O6 0.219788 0.343275 0.660929
O O7 0.912957 0.116224 0.264059
O O8 0.815139 0.251324 0.205724
O O9 0.000000 0.225500 0.500000
O O10 0.441091 0.000000 0.254512
O O11 0.598180 0.000000 0.571617
O O12 0.091204 0.000000 0.910140
O O13 0.142066 0.161606 0.008976
O O14 0.794814 0.414983 0.152071
#
# Coordination Sequence:
#
# PCOD9184649 Si02
#       7
#     8   8   8   4   8   4   8
#     4   9  20  36  54  73 108 140 176 214 254 311
#     4   9  19  36  54  80 104 134 177 218 260 312
#     4   9  20  35  56  75 101 143 182 215 251 305
#     4   9  18  28  53  78  99 134 171 216 260 299
#     4  11  22  35  51  81 110 140 173 214 264 315
#     4   9  18  28  49  78 109 128 161 220 263 303
#     4  10  19  34  53  80 109 133 169 216 269 315
#
# _framework density 19.078533
#
# number of rings (size 3 to 8) (size 9 to 14) (size 15 to 20)
#    0.000    2.500    0.833    0.500   10.500    3.667 
#    0.000    0.833    0.000    0.000    0.000    1.167 
#    0.000    0.000    0.000    0.000    0.000    0.000 
#
# Total GULP energy -133815.065451 kJ/mol
# GULP energy per Si atom -5575.627727 kJ/mol
# Density = 1.903511 g / cm^3
# Si number density = 19.078533 Si / 1000 Ang^3
#
#
#
# Elastic Constant Matrix: (Units=GPa)
#
#
# Indices 1 2 3 4 5 6 
#
# 1 91.9264 8.8189 0.4921 0.0000 26.9625 0.0000
# 2 8.8189 38.6970 8.4745 0.0000 11.3251 0.0000
# 3 0.4921 8.4745 50.7483 0.0000 18.3712 0.0000
# 4 0.0000 0.0000 0.0000 23.0374 0.0000 7.2835
# 5 26.9625 11.3251 18.3712 0.0000 21.0665 0.0000
# 6 0.0000 0.0000 0.0000 7.2835 0.0000 19.5523
#
#
#
# Elastic Compliance Matrix: (Units=1/GPa)
#
#
# Indices 1 2 3 4 5 6 
#
# 1 0.024499 0.004971 0.016441 0.000000 -0.048366 0.000000
# 2 0.004971 0.031729 0.004576 0.000000 -0.027410 0.000000
# 3 0.016441 0.004576 0.039879 0.000000 -0.058279 0.000000
# 4 0.000000 0.000000 0.000000 0.049202 0.000000 -0.018329
# 5 -0.048366 -0.027410 -0.058279 0.000000 0.174929 0.000000
# 6 0.000000 0.000000 0.000000 -0.018329 0.000000 0.057973
#
#
# Mechanical properties :
#
#
# Convention : Reuss Voigt Hill
#
# Bulk Modulus (GPa) = 6.75297 24.10475 15.42886
# Shear Modulus (GPa) = 13.31218 23.63697 18.47458
#
# Velocity S-wave (km/s) = 2.64437 3.52366 3.11520
# Velocity P-wave (km/s) = 3.58760 5.40526 4.58736
#
# Compressibility (1/GPa) = 0.14808296
#
# Stress axis : x y z
#
# Youngs Moduli (GPa) = 40.81742 31.51731 25.07588
#
# Poissons Ratio (x) = -0.15667 -0.41228
# Poissons Ratio (y) = -0.20290 -0.11475
# Poissons Ratio (z) = -0.67108 -0.14422
#
# Static dielectric constant tensor:
#      x y z
#    x 1.666110 0.000000 -0.001610 
#    y 0.000000 1.669810 0.000000 
#    z -0.001610 0.000000 1.670720 
# 
# From -- ./inp_files/233501.got.cif
#   From: 2010.05.17/outbox.cif.g08.bks.cpg/sg12_117_cif.got.tgz:233501.got - 2010.06.03 13:09:07.
