data_PCOD9184150
_publ_section_title
;
Structure prediction by ZEFSAII (Michael W. Deem and Ramdas Pophale) SiO2 
 PCOD9184150
Probable space group: C 2/M
;
_chemical_formula_sum "Si O2"
_cell_formula_units_Z 64
_cell_length_a 29.790595
_cell_length_b 13.147464
_cell_length_c 12.409263
_cell_angle_alpha 90.000000
_cell_angle_beta 39.288464
_cell_angle_gamma 90.000000
_cell_volume 3077.692643
_symmetry_space_group_name_H-M "C 2/M"
_symmetry_group_IT_number 12
_symmetry_cell_setting 'monoclinic'
loop_
_space_group_symop_operation_xyz
x,y,z
-x,y,-z
-x,-y,-z
x,-y,z
1/2+x,1/2+y,z
1/2-x,1/2+y,-z
1/2-x,1/2-y,-z
1/2+x,1/2-y,z
loop_
_atom_site_type_symbol
_atom_site_label
_atom_site_fract_x
_atom_site_fract_y
_atom_site_fract_z
Si Si1 0.221301 0.691335 0.878413
Si Si2 0.801060 0.889626 0.357177
Si Si3 0.132553 0.384612 0.661097
Si Si4 0.223182 0.118237 0.011782
Si Si5 0.141717 0.820493 0.522178
Si Si6 0.570063 0.616434 0.323804
Si Si7 0.891102 0.722421 0.079945
Si Si8 0.012578 0.887039 0.195100
O O1 0.223181 0.633529 0.989402
O O2 0.289703 0.663575 0.679378
O O3 0.147742 0.673315 0.951245
O O4 0.233580 0.809057 0.890882
O O5 0.717070 0.883551 0.528181
O O6 0.839097 0.873419 0.400201
O O7 0.829537 0.800884 0.230295
O O8 0.818637 0.000000 0.278707
O O9 0.112545 0.500000 0.668191
O O10 0.125407 0.297450 0.583770
O O11 0.096895 0.350091 0.840025
O O12 0.147744 0.156706 0.201036
O O13 0.217615 0.000000 0.992900
O O14 0.068339 0.868252 0.618795
O O15 0.500000 0.668669 0.500000
O O16 0.570657 0.500000 0.364611
O O17 0.560269 0.613465 0.213602
O O18 0.958308 0.793849 0.929810
O O19 0.017309 0.000000 0.136071
#
# Coordination Sequence:
#
# PCOD9184150 Si02
#       8
#     8   8   8   8   8   8   8   8
#     4  11  21  36  59  84 116 153 195 240 286 336
#     4  10  19  33  57  86 119 151 188 237 290 345
#     4  10  21  37  58  83 111 156 202 241 284 331
#     4  10  22  36  55  85 116 148 194 243 287 342
#     4  11  21  38  56  88 119 152 195 240 287 345
#     4   9  17  32  52  79 114 148 180 222 284 349
#     4  11  20  38  57  86 119 153 194 239 287 343
#     4  11  23  36  58  88 119 153 184 232 304 359
#
# _framework density 20.794799000000001
#
# number of rings (size 3 to 8) (size 9 to 14) (size 15 to 20)
#    0.000    1.625    3.750    2.250    0.000    5.500 
#    0.000    4.375    0.000    0.000    0.000    0.875 
#    0.000    0.000    0.000    0.000    0.000    0.000 
#
# Total GULP energy -178547.713274 kJ/mol
# GULP energy per Si atom -5579.616040 kJ/mol
# Density = 2.074747 g / cm^3
# Si number density = 20.794799 Si / 1000 Ang^3
#
#
#
# Elastic Constant Matrix: (Units=GPa)
#
#
# Indices 1 2 3 4 5 6 
#
# 1 43.3962 -10.3190 -13.5693 0.0000 -3.2501 0.0000
# 2 -10.3190 57.4484 -4.5348 0.0000 -8.5571 0.0000
# 3 -13.5693 -4.5348 46.1944 0.0000 -13.0486 0.0000
# 4 0.0000 0.0000 0.0000 19.8930 0.0000 -5.7653
# 5 -3.2501 -8.5571 -13.0486 0.0000 23.9669 0.0000
# 6 0.0000 0.0000 0.0000 -5.7653 0.0000 2.8402
#
#
#
# Elastic Compliance Matrix: (Units=1/GPa)
#
#
# Indices 1 2 3 4 5 6 
#
# 1 0.030695 0.008866 0.014130 0.000000 0.015021 0.000000
# 2 0.008866 0.021707 0.008584 0.000000 0.013626 0.000000
# 3 0.014130 0.008584 0.033145 0.000000 0.023027 0.000000
# 4 0.000000 0.000000 0.000000 0.122101 0.000000 0.247853
# 5 0.015021 0.013626 0.023027 0.000000 0.061163 0.000000
# 6 0.000000 0.000000 0.000000 0.247853 0.000000 0.855201
#
#
# Mechanical properties :
#
#
# Convention : Reuss Voigt Hill
#
# Bulk Modulus (GPa) = 6.72460 10.02141 8.37300
# Shear Modulus (GPa) = 4.50280 21.03748 12.77014
#
# Velocity S-wave (km/s) = 1.47311 3.18413 2.48080
# Velocity P-wave (km/s) = 2.47673 4.28344 3.49872
#
# Compressibility (1/GPa) = 0.14870784
#
# Stress axis : x y z
#
# Youngs Moduli (GPa) = 32.57863 46.06858 30.17022
#
# Poissons Ratio (x) = -0.40846 -0.42630
# Poissons Ratio (y) = -0.28885 -0.25899
# Poissons Ratio (z) = -0.46033 -0.39547
#
# Static dielectric constant tensor:
#      x y z
#    x 1.756380 0.000000 0.011260 
#    y 0.000000 1.784010 0.000000 
#    z 0.011260 0.000000 1.783570 
# 
# From -- ./inp_files/189416.got.cif
#   From: 2010.05.17/outbox.cif.g08.bks.cpg/sg12_95_cif.got.tgz:189416.got - 2010.06.03 13:09:07.
