data_PCOD9184823
_publ_section_title
;
Structure prediction by ZEFSAII (Michael W. Deem and Ramdas Pophale) SiO2 
 PCOD9184823
Probable space group: C 2/M
;
_chemical_formula_sum "Si O2"
_cell_formula_units_Z 64
_cell_length_a 16.771332
_cell_length_b 21.721970
_cell_length_c 11.288497
_cell_angle_alpha 90.000000
_cell_angle_beta 124.796132
_cell_angle_gamma 90.000000
_cell_volume 3377.111054
_symmetry_space_group_name_H-M "C 2/M"
_symmetry_group_IT_number 12
_symmetry_cell_setting 'monoclinic'
loop_
_space_group_symop_operation_xyz
x,y,z
-x,y,-z
-x,-y,-z
x,-y,z
1/2+x,1/2+y,z
1/2-x,1/2+y,-z
1/2-x,1/2-y,-z
1/2+x,1/2-y,z
loop_
_atom_site_type_symbol
_atom_site_label
_atom_site_fract_x
_atom_site_fract_y
_atom_site_fract_z
Si Si1 0.321038 0.071841 0.275509
Si Si2 0.299097 0.364777 0.632959
Si Si3 0.835582 0.636515 0.911525
Si Si4 0.527397 0.928119 0.787411
Si Si5 0.697615 0.929093 0.350394
Si Si6 0.182356 0.861036 0.982763
Si Si7 0.004967 0.930321 0.146807
Si Si8 0.114532 0.230296 0.122013
O O1 0.289668 0.113930 0.358064
O O2 0.422248 0.086469 0.295836
O O3 0.319632 0.000000 0.307898
O O4 0.239375 0.086439 0.106372
O O5 0.262749 0.377593 0.470187
O O6 0.386817 0.412362 0.727873
O O7 0.344320 0.301690 0.723536
O O8 0.807614 0.584680 0.793306
O O9 0.745991 0.651572 0.922053
O O10 0.866524 0.697552 0.868180
O O11 0.922195 0.612847 0.069232
O O12 0.412334 0.922564 0.694614
O O13 0.551689 0.000000 0.831652
O O14 0.728710 0.000000 0.399844
O O15 0.075206 0.885824 0.865967
O O16 0.170331 0.803725 0.061402
O O17 0.982767 0.000000 0.160724
O O18 0.000000 0.924663 0.000000
O O19 0.000000 0.219049 0.000000
#
# Coordination Sequence:
#
# PCOD9184823 Si02
#       8
#     8   8   8   8   8   8   8   8
#     4   9  16  29  53  83 110 140 180 237 293 332
#     4  11  21  35  54  83 120 147 188 235 280 341
#     4  11  23  37  59  82 112 151 193 229 280 341
#     4   9  19  36  57  82 110 141 187 240 285 333
#     4  11  23  38  55  81 116 155 188 226 283 347
#     4  10  19  34  54  87 112 141 185 243 283 330
#     4  11  18  31  58  87 114 147 188 241 294 332
#     4  11  20  38  62  85 109 144 192 241 286 328
#
# _framework density 18.95111
#
# number of rings (size 3 to 8) (size 9 to 14) (size 15 to 20)
#    0.000    1.625    3.750    3.375    0.000    3.500 
#    0.000    2.500    0.000    1.500    6.500    0.000 
#    0.000    0.000    0.000    0.000    0.000    0.000 
#
# Total GULP energy -178570.220449 kJ/mol
# GULP energy per Si atom -5580.319389 kJ/mol
# Density = 1.890798 g / cm^3
# Si number density = 18.951110 Si / 1000 Ang^3
#
#
#
# Elastic Constant Matrix: (Units=GPa)
#
#
# Indices 1 2 3 4 5 6 
#
# 1 49.3179 -0.1215 6.4208 0.0000 7.3468 0.0000
# 2 -0.1215 70.0064 14.3326 0.0000 4.8939 0.0000
# 3 6.4208 14.3326 52.8008 0.0000 3.4248 0.0000
# 4 0.0000 0.0000 0.0000 12.4939 0.0000 -1.3552
# 5 7.3468 4.8939 3.4248 0.0000 11.4602 0.0000
# 6 0.0000 0.0000 0.0000 -1.3552 0.0000 17.5351
#
#
#
# Elastic Compliance Matrix: (Units=1/GPa)
#
#
# Indices 1 2 3 4 5 6 
#
# 1 0.022739 0.001514 -0.002232 0.000000 -0.014557 0.000000
# 2 0.001514 0.015553 -0.003989 0.000000 -0.006420 0.000000
# 3 -0.002232 -0.003989 0.020487 0.000000 -0.002988 0.000000
# 4 0.000000 0.000000 0.000000 0.080716 0.000000 0.006238
# 5 -0.014557 -0.006420 -0.002988 0.000000 0.100225 0.000000
# 6 0.000000 0.000000 0.000000 0.006238 0.000000 0.057510
#
#
# Mechanical properties :
#
#
# Convention : Reuss Voigt Hill
#
# Bulk Modulus (GPa) = 20.25739 23.70989 21.98364
# Shear Modulus (GPa) = 15.47507 18.39740 16.93624
#
# Velocity S-wave (km/s) = 2.86068 3.11912 2.99269
# Velocity P-wave (km/s) = 4.65014 5.05075 4.85458
#
# Compressibility (1/GPa) = 0.04936469
#
# Stress axis : x y z
#
# Youngs Moduli (GPa) = 43.97636 64.29802 48.81089
#
# Poissons Ratio (x) = -0.09735 0.10894
# Poissons Ratio (y) = -0.06658 0.19473
# Poissons Ratio (z) = 0.09815 0.25651
#
# Static dielectric constant tensor:
#      x y z
#    x 1.673170 0.000000 -0.007650 
#    y 0.000000 1.655860 0.000000 
#    z -0.007650 0.000000 1.655410 
# 
# From -- ./inp_files/159583.got.cif
#   From: 2010.05.17/outbox.cif.g08.bks.cpg/sg12_80_cif.got.tgz:159583.got - 2010.06.03 13:09:07.
