data_PCOD9184676
_publ_section_title
;
Structure prediction by ZEFSAII (Michael W. Deem and Ramdas Pophale) SiO2 
 PCOD9184676
Probable space group: C 2/M
;
_chemical_formula_sum "Si O2"
_cell_formula_units_Z 48
_cell_length_a 27.782451
_cell_length_b 13.211245
_cell_length_c 19.224788
_cell_angle_alpha 90.000000
_cell_angle_beta 16.724353
_cell_angle_gamma 90.000000
_cell_volume 2030.569076
_symmetry_space_group_name_H-M "C 2/M"
_symmetry_group_IT_number 12
_symmetry_cell_setting 'monoclinic'
loop_
_space_group_symop_operation_xyz
x,y,z
-x,y,-z
-x,-y,-z
x,-y,z
1/2+x,1/2+y,z
1/2-x,1/2+y,-z
1/2-x,1/2-y,-z
1/2+x,1/2-y,z
loop_
_atom_site_type_symbol
_atom_site_label
_atom_site_fract_x
_atom_site_fract_y
_atom_site_fract_z
Si Si1 0.939731 0.614362 0.430802
Si Si2 0.404921 0.679268 0.019649
Si Si3 0.735849 0.117760 0.834916
Si Si4 0.585002 0.678074 0.279214
Si Si5 0.756384 0.290541 0.570405
Si Si6 0.465770 0.389289 0.307583
O O1 0.997568 0.500000 0.361767
O O2 0.054760 0.703680 0.303216
O O3 0.891706 0.632631 0.415583
O O4 0.760984 0.632948 0.717187
O O5 0.572739 0.664827 0.831662
O O6 0.441887 0.633865 0.892351
O O7 0.381193 0.799794 0.039804
O O8 0.915861 0.134431 0.548614
O O9 0.769838 0.153500 0.867390
O O10 0.689283 0.000000 0.895705
O O11 0.593130 0.622743 0.194507
O O12 0.750000 0.250000 0.500000
O O13 0.815814 0.189877 0.528143
O O14 0.392872 0.500000 0.405728
#
# Coordination Sequence:
#
# PCOD9184676 Si02
#       6
#     8   8   8   8   8   8
#     4  10  20  36  58  80 108 144 176 218 274 321
#     4  10  21  34  51  83 112 137 180 223 262 325
#     4  10  19  35  58  78 106 146 182 223 272 315
#     4   9  19  36  55  79 104 136 188 225 257 321
#     4   9  20  35  51  76 106 135 177 217 252 316
#     4  10  19  34  54  74 105 142 176 223 274 314
#
# _framework density 23.638693
#
# number of rings (size 3 to 8) (size 9 to 14) (size 15 to 20)
#    0.000    2.333    0.000    3.000    0.000    5.333 
#    0.000   14.167    0.000    6.000    0.000    0.000 
#    0.000    0.000    0.000    0.000    0.000    0.000 
#
# Total GULP energy -134058.930873 kJ/mol
# GULP energy per Si atom -5585.788786 kJ/mol
# Density = 2.358489 g / cm^3
# Si number density = 23.638693 Si / 1000 Ang^3
#
#
#
# Elastic Constant Matrix: (Units=GPa)
#
#
# Indices 1 2 3 4 5 6 
#
# 1 105.0640 11.1244 24.3890 0.0000 15.0056 0.0000
# 2 11.1244 164.6352 -13.3838 -0.0006 -8.2088 0.0003
# 3 24.3890 -13.3838 52.7068 -0.0007 -5.3173 0.0004
# 4 0.0000 -0.0006 -0.0007 14.6770 0.0004 1.8178
# 5 15.0056 -8.2088 -5.3173 0.0004 33.0816 -0.0004
# 6 0.0000 0.0003 0.0004 1.8178 -0.0004 11.4747
#
#
#
# Elastic Compliance Matrix: (Units=1/GPa)
#
#
# Indices 1 2 3 4 5 6 
#
# 1 0.012312 -0.001744 -0.006858 0.000000 -0.007120 0.000000
# 2 -0.001744 0.006559 0.002762 0.000000 0.002863 0.000000
# 3 -0.006858 0.002762 0.023613 0.000001 0.007591 -0.000001
# 4 0.000000 0.000000 0.000001 0.069497 -0.000001 -0.011009
# 5 -0.007120 0.002863 0.007591 -0.000001 0.035388 0.000001
# 6 0.000000 0.000000 -0.000001 -0.011009 0.000001 0.088892
#
#
# Mechanical properties :
#
#
# Convention : Reuss Voigt Hill
#
# Bulk Modulus (GPa) = 32.46527 40.74057 36.60292
# Shear Modulus (GPa) = 19.36401 31.86510 25.61455
#
# Velocity S-wave (km/s) = 2.86521 3.67550 3.29536
# Velocity P-wave (km/s) = 4.97088 5.94008 5.47696
#
# Compressibility (1/GPa) = 0.03080215
#
# Stress axis : x y z
#
# Youngs Moduli (GPa) = 81.22438 152.45903 42.34880
#
# Poissons Ratio (x) = 0.26595 0.29043
# Poissons Ratio (y) = 0.14169 -0.11695
# Poissons Ratio (z) = 0.55705 -0.42102
#
# Static dielectric constant tensor:
#      x y z
#    x 1.985730 0.000000 0.013820 
#    y 0.000000 1.850610 0.000000 
#    z 0.013820 0.000000 1.981200 
# 
# From -- ./inp_files/329997.got.cif
#   From: 2010.05.17/outbox.cif.g08.bks.cpg/sg12_165_cif.got.tgz:329997.got - 2010.06.03 13:09:07.
