data_PCOD9184659
_publ_section_title
;
Structure prediction by ZEFSAII (Michael W. Deem and Ramdas Pophale) SiO2 
 PCOD9184659
Probable space group: C 2/M
;
_chemical_formula_sum "Si O2"
_cell_formula_units_Z 48
_cell_length_a 8.992557
_cell_length_b 18.865693
_cell_length_c 19.055675
_cell_angle_alpha 90.000000
_cell_angle_beta 127.580557
_cell_angle_gamma 90.000000
_cell_volume 2561.991785
_symmetry_space_group_name_H-M "C 2/M"
_symmetry_group_IT_number 12
_symmetry_cell_setting 'monoclinic'
loop_
_space_group_symop_operation_xyz
x,y,z
-x,y,-z
-x,-y,-z
x,-y,z
1/2+x,1/2+y,z
1/2-x,1/2+y,-z
1/2-x,1/2-y,-z
1/2+x,1/2-y,z
loop_
_atom_site_type_symbol
_atom_site_label
_atom_site_fract_x
_atom_site_fract_y
_atom_site_fract_z
Si Si1 0.055522 0.839260 0.731872
Si Si2 0.574791 0.336251 0.455462
Si Si3 0.295478 0.419810 0.746284
Si Si4 0.504269 0.177110 0.579590
Si Si5 0.845786 0.156482 0.897867
Si Si6 0.955150 0.275840 0.815802
O O1 0.977071 0.767523 0.747945
O O2 0.270717 0.824890 0.772048
O O3 0.945142 0.861225 0.629623
O O4 0.997608 0.898570 0.771587
O O5 0.500000 0.379924 0.500000
O O6 0.460035 0.261402 0.417069
O O7 0.788458 0.324291 0.538882
O O8 0.245944 0.500000 0.714827
O O9 0.301532 0.406072 0.830787
O O10 0.144597 0.364948 0.669536
O O11 0.500000 0.146276 0.500000
O O12 0.651735 0.183069 0.876631
O O13 0.927782 0.218582 0.870288
O O14 0.000000 0.139264 0.000000
#
# Coordination Sequence:
#
# PCOD9184659 Si02
#       6
#     8   8   8   8   8   8
#     4  10  19  35  53  84 113 148 182 228 286 340
#     4  10  20  29  55  85 116 135 178 235 289 337
#     4  11  24  40  55  75 113 161 200 229 266 330
#     4  10  19  34  53  82 109 144 185 225 284 332
#     4  10  20  36  61  91 116 143 181 234 293 344
#     4   9  19  33  62  87 118 138 175 234 303 344
#
# _framework density 18.735423999999998
#
# number of rings (size 3 to 8) (size 9 to 14) (size 15 to 20)
#    0.000    2.000    1.667    3.500    7.000    0.667 
#    0.000    0.833    0.000    2.000    0.000    0.000 
#    0.000    0.000    0.000    0.000    0.000    0.000 
#
# Total GULP energy -133602.511096 kJ/mol
# GULP energy per Si atom -5566.771296 kJ/mol
# Density = 1.869278 g / cm^3
# Si number density = 18.735424 Si / 1000 Ang^3
#
#
#
# Elastic Constant Matrix: (Units=GPa)
#
#
# Indices 1 2 3 4 5 6 
#
# 1 121.6566 16.3278 34.9295 0.0000 15.6085 0.0000
# 2 16.3278 44.0856 7.7982 0.0000 8.0862 0.0000
# 3 34.9295 7.7982 95.3704 0.0000 5.2487 0.0000
# 4 0.0000 0.0000 0.0000 8.0539 0.0000 0.8159
# 5 15.6085 8.0862 5.2487 0.0000 28.1232 0.0000
# 6 0.0000 0.0000 0.0000 0.8159 0.0000 5.7512
#
#
#
# Elastic Compliance Matrix: (Units=1/GPa)
#
#
# Indices 1 2 3 4 5 6 
#
# 1 0.010015 -0.002351 -0.003240 0.000000 -0.004277 0.000000
# 2 -0.002351 0.024741 -0.000851 0.000000 -0.005650 0.000000
# 3 -0.003240 -0.000851 0.011750 0.000000 -0.000150 0.000000
# 4 0.000000 0.000000 0.000000 0.125975 0.000000 -0.017872
# 5 -0.004277 -0.005650 -0.000150 0.000000 0.039584 0.000000
# 6 0.000000 0.000000 0.000000 -0.017872 0.000000 0.176413
#
#
# Mechanical properties :
#
#
# Convention : Reuss Voigt Hill
#
# Bulk Modulus (GPa) = 29.74369 42.13593 35.93981
# Shear Modulus (GPa) = 12.11921 21.85612 16.98766
#
# Velocity S-wave (km/s) = 2.54610 3.41921 3.01444
# Velocity P-wave (km/s) = 4.95516 6.17469 5.59823
#
# Compressibility (1/GPa) = 0.03362058
#
# Stress axis : x y z
#
# Youngs Moduli (GPa) = 99.85509 40.41903 85.10655
#
# Poissons Ratio (x) = 0.09504 0.27576
# Poissons Ratio (y) = 0.23479 0.07241
# Poissons Ratio (z) = 0.32355 0.03439
#
# Static dielectric constant tensor:
#      x y z
#    x 1.723030 0.000000 -0.035020 
#    y 0.000000 1.652790 0.000000 
#    z -0.035020 0.000000 1.683830 
# 
# From -- ./inp_files/256713.got.cif
#   From: 2010.05.17/outbox.cif.g08.bks.cpg/sg12_129_cif.got.tgz:256713.got - 2010.06.03 13:09:07.
