data_PCOD9184239
_publ_section_title
;
Structure prediction by ZEFSAII (Michael W. Deem and Ramdas Pophale) SiO2 
 PCOD9184239
Probable space group: C 2/M
;
_chemical_formula_sum "Si O2"
_cell_formula_units_Z 64
_cell_length_a 20.120448
_cell_length_b 7.690144
_cell_length_c 30.613331
_cell_angle_alpha 90.000000
_cell_angle_beta 37.978979
_cell_angle_gamma 90.000000
_cell_volume 2914.879904
_symmetry_space_group_name_H-M "C 2/M"
_symmetry_group_IT_number 12
_symmetry_cell_setting 'monoclinic'
loop_
_space_group_symop_operation_xyz
x,y,z
-x,y,-z
-x,-y,-z
x,-y,z
1/2+x,1/2+y,z
1/2-x,1/2+y,-z
1/2-x,1/2-y,-z
1/2+x,1/2-y,z
loop_
_atom_site_type_symbol
_atom_site_label
_atom_site_fract_x
_atom_site_fract_y
_atom_site_fract_z
Si Si1 0.381698 0.712615 0.683012
Si Si2 0.547386 0.288757 0.522916
Si Si3 0.591035 0.713114 0.987230
Si Si4 0.331530 0.798386 0.865391
Si Si5 0.996620 0.799871 0.709552
Si Si6 0.275628 0.201569 0.378931
Si Si7 0.570474 0.297568 0.097345
Si Si8 0.167210 0.711946 0.747217
O O1 0.379559 0.500000 0.683692
O O2 0.468691 0.772608 0.601932
O O3 0.421728 0.769956 0.709605
O O4 0.261850 0.765751 0.731202
O O5 0.500000 0.244505 0.500000
O O6 0.545240 0.500000 0.527809
O O7 0.671528 0.226827 0.458102
O O8 0.589501 0.500000 0.987868
O O9 0.571614 0.770928 0.047242
O O10 0.500000 0.770477 0.000000
O O11 0.713530 0.767938 0.912982
O O12 0.428873 0.709537 0.789230
O O13 0.350724 0.784321 0.907369
O O14 0.338309 0.000000 0.849920
O O15 0.111894 0.710521 0.654210
O O16 0.021081 0.000000 0.687010
O O17 0.298199 0.275379 0.318960
O O18 0.248169 0.000000 0.385005
O O19 0.599539 0.500000 0.080324
O O20 0.449295 0.277374 0.178269
O O21 0.160355 0.500000 0.749628
#
# Coordination Sequence:
#
# PCOD9184239 Si02
#       8
#     8   8   8   8   8   8   8   8
#     4   9  19  34  53  81 115 150 189 237 285 328
#     4   9  15  29  55  83 107 141 191 238 279 330
#     4   9  21  40  60  86 117 148 184 227 278 332
#     4  11  22  39  63  83 110 151 192 233 273 331
#     4  11  23  37  54  81 120 153 183 231 288 337
#     4  10  19  33  58  85 109 143 192 237 275 333
#     4  11  22  37  61  88 115 149 187 229 279 333
#     4  10  19  34  57  84 113 147 191 236 275 326
#
# _framework density 21.956306999999999
#
# number of rings (size 3 to 8) (size 9 to 14) (size 15 to 20)
#    0.000    2.000    2.500    1.500    1.750    0.500 
#    0.000    2.500    0.000    4.875    0.000    0.000 
#    0.000    0.000    0.000    0.000    0.000    0.000 
#
# Total GULP energy -178747.394652 kJ/mol
# GULP energy per Si atom -5585.856083 kJ/mol
# Density = 2.190633 g / cm^3
# Si number density = 21.956307 Si / 1000 Ang^3
#
#
#
# Elastic Constant Matrix: (Units=GPa)
#
#
# Indices 1 2 3 4 5 6 
#
# 1 124.8441 -6.5912 24.6652 0.0149 -18.1418 0.0089
# 2 -6.5912 34.7088 -3.3718 -0.0022 0.9540 0.0094
# 3 24.6652 -3.3718 72.2776 -0.0021 -21.4266 0.0035
# 4 0.0149 -0.0022 -0.0021 -19.5183 -0.0007 16.5575
# 5 -18.1418 0.9540 -21.4266 -0.0007 40.7267 0.0027
# 6 0.0089 0.0094 0.0035 16.5575 0.0027 -6.9126
#
#
#
# Elastic Compliance Matrix: (Units=1/GPa)
#
#
# Indices 1 2 3 4 5 6 
#
# 1 0.008916 0.001408 -0.002144 -0.000018 0.002811 -0.000029
# 2 0.001408 0.029165 0.001023 -0.000032 0.000482 -0.000035
# 3 -0.002144 0.001023 0.016972 -0.000005 0.007950 -0.000001
# 4 -0.000018 -0.000032 -0.000005 0.049650 -0.000016 0.118923
# 5 0.002811 0.000482 0.007950 -0.000016 0.029977 -0.000019
# 6 -0.000029 -0.000035 -0.000001 0.118923 -0.000019 0.140189
#
#
# Mechanical properties :
#
#
# Convention : Reuss Voigt Hill
#
# Bulk Modulus (GPa) = 17.97702 29.02610 23.50156
# Shear Modulus (GPa) = 17.07436 17.33438 17.20437
#
# Velocity S-wave (km/s) = 2.79167 2.81284 2.80227
# Velocity P-wave (km/s) = 4.31238 4.87833 4.60406
#
# Compressibility (1/GPa) = 0.05562657
#
# Stress axis : x y z
#
# Youngs Moduli (GPa) = 112.15370 34.28814 58.92194
#
# Poissons Ratio (x) = -0.04827 0.12632
# Poissons Ratio (y) = -0.15788 -0.06028
# Poissons Ratio (z) = 0.24043 -0.03508
#
# Static dielectric constant tensor:
#      x y z
#    x 1.792040 -0.000010 0.004990 
#    y -0.000010 1.812690 0.000000 
#    z 0.004990 0.000000 1.779390 
# 
# From -- ./inp_files/378096.got.cif
#   From: 2010.05.17/outbox.cif.g08.bks.cpg/sg12_190_cif.got.tgz:378096.got - 2010.06.03 13:09:07.
