data_PCOD9184612
_publ_section_title
;
Structure prediction by ZEFSAII (Michael W. Deem and Ramdas Pophale) SiO2 
 PCOD9184612
Probable space group: C 2/M
;
_chemical_formula_sum "Si O2"
_cell_formula_units_Z 56
_cell_length_a 29.195556
_cell_length_b 9.322286
_cell_length_c 22.046648
_cell_angle_alpha 90.000000
_cell_angle_beta 31.049011
_cell_angle_gamma 90.000000
_cell_volume 3094.843934
_symmetry_space_group_name_H-M "C 2/M"
_symmetry_group_IT_number 12
_symmetry_cell_setting 'monoclinic'
loop_
_space_group_symop_operation_xyz
x,y,z
-x,y,-z
-x,-y,-z
x,-y,z
1/2+x,1/2+y,z
1/2-x,1/2+y,-z
1/2-x,1/2-y,-z
1/2+x,1/2-y,z
loop_
_atom_site_type_symbol
_atom_site_label
_atom_site_fract_x
_atom_site_fract_y
_atom_site_fract_z
Si Si1 0.725626 0.328037 0.379013
Si Si2 0.747795 0.169758 0.788539
Si Si3 0.386203 0.669662 0.263391
Si Si4 0.387522 0.831968 0.863069
Si Si5 0.536262 0.833169 0.027131
Si Si6 0.242501 0.667759 0.103674
Si Si7 0.072843 0.170088 0.646806
O O1 0.741315 0.500000 0.364210
O O2 0.716864 0.290804 0.318130
O O3 0.809608 0.249478 0.313191
O O4 0.638905 0.294714 0.516976
O O5 0.641242 0.192662 0.908310
O O6 0.784782 0.260940 0.802147
O O7 0.763328 0.000000 0.780834
O O8 0.382107 0.500000 0.256938
O O9 0.378627 0.695182 0.343933
O O10 0.480372 0.732075 0.134436
O O11 0.333283 0.818510 0.861570
O O12 0.483100 0.760526 0.748138
O O13 0.394275 0.000000 0.870930
O O14 0.328168 0.751095 0.980426
O O15 0.520652 0.000000 0.061433
O O16 0.500000 0.813064 0.000000
O O17 0.262919 0.500000 0.088097
O O18 0.051502 0.000000 0.668083
#
# Coordination Sequence:
#
# PCOD9184612 Si02
#       7
#     8   8   8   8   8   8   8
#     4  10  21  39  57  76 109 151 191 226 265 324
#     4  10  20  35  57  82 108 146 189 224 270 326
#     4  11  22  34  52  82 112 143 184 230 280 323
#     4  10  21  38  60  85 111 142 180 222 273 332
#     4  10  19  34  53  75 106 144 182 222 267 321
#     4  10  21  37  59  86 114 141 174 224 280 328
#     4  10  22  38  57  81 110 145 186 232 275 318
#
# _framework density 18.094612000000001
#
# number of rings (size 3 to 8) (size 9 to 14) (size 15 to 20)
#    0.000    1.857    1.429    2.571    0.000    7.143 
#    0.000    0.714    0.000    4.286    0.000    0.000 
#    0.000    0.000    0.000    0.000    0.000    0.000 
#
# Total GULP energy -156439.937467 kJ/mol
# GULP energy per Si atom -5587.140624 kJ/mol
# Density = 1.805343 g / cm^3
# Si number density = 18.094612 Si / 1000 Ang^3
#
#
#
# Elastic Constant Matrix: (Units=GPa)
#
#
# Indices 1 2 3 4 5 6 
#
# 1 66.1362 47.9603 40.0931 0.0001 27.5336 -0.0002
# 2 47.9603 63.1944 49.8849 -0.0020 17.8544 0.0003
# 3 40.0931 49.8849 93.7071 -0.0010 30.0723 0.0003
# 4 0.0001 -0.0020 -0.0010 21.0249 0.0002 0.6030
# 5 27.5336 17.8544 30.0723 0.0002 29.2709 0.0001
# 6 -0.0002 0.0003 0.0003 0.6030 0.0001 31.8992
#
#
#
# Elastic Compliance Matrix: (Units=1/GPa)
#
#
# Indices 1 2 3 4 5 6 
#
# 1 0.048659 -0.033677 0.007766 -0.000003 -0.033208 0.000001
# 2 -0.033677 0.050732 -0.019146 0.000004 0.020404 -0.000001
# 3 0.007766 -0.019146 0.024076 0.000000 -0.020361 0.000000
# 4 -0.000003 0.000004 0.000000 0.047588 0.000000 -0.000900
# 5 -0.033208 0.020404 -0.020361 0.000000 0.073873 0.000000
# 6 0.000001 -0.000001 0.000000 -0.000900 0.000000 0.031366
#
#
# Mechanical properties :
#
#
# Convention : Reuss Voigt Hill
#
# Bulk Modulus (GPa) = 29.98328 55.43493 42.70910
# Shear Modulus (GPa) = 13.24412 22.11228 17.67820
#
# Velocity S-wave (km/s) = 2.70837 3.49956 3.12907
# Velocity P-wave (km/s) = 5.13679 6.85798 6.05881
#
# Compressibility (1/GPa) = 0.03335193
#
# Stress axis : x y z
#
# Youngs Moduli (GPa) = 20.55111 19.71148 41.53598
#
# Poissons Ratio (x) = 0.66383 -0.32256
# Poissons Ratio (y) = 0.69210 0.79525
# Poissons Ratio (z) = -0.15960 0.37740
#
# Static dielectric constant tensor:
#      x y z
#    x 1.621890 0.000000 0.018110 
#    y 0.000000 1.603620 0.000000 
#    z 0.018110 0.000000 1.598790 
# 
# From -- ./inp_files/238322.got.cif
#   From: 2010.05.17/outbox.cif.g08.bks.cpg/sg12_120_cif.got.tgz:238322.got - 2010.06.03 13:09:07.
