data_PCOD9184372
_publ_section_title
;
Structure prediction by ZEFSAII (Michael W. Deem and Ramdas Pophale) SiO2 
 PCOD9184372
Probable space group: C 2/M
;
_chemical_formula_sum "Si O2"
_cell_formula_units_Z 56
_cell_length_a 20.804310
_cell_length_b 8.741292
_cell_length_c 31.541575
_cell_angle_alpha 90.000000
_cell_angle_beta 32.562453
_cell_angle_gamma 90.000000
_cell_volume 3087.244445
_symmetry_space_group_name_H-M "C 2/M"
_symmetry_group_IT_number 12
_symmetry_cell_setting 'monoclinic'
loop_
_space_group_symop_operation_xyz
x,y,z
-x,y,-z
-x,-y,-z
x,-y,z
1/2+x,1/2+y,z
1/2-x,1/2+y,-z
1/2-x,1/2-y,-z
1/2+x,1/2-y,z
loop_
_atom_site_type_symbol
_atom_site_label
_atom_site_fract_x
_atom_site_fract_y
_atom_site_fract_z
Si Si1 0.328943 0.816575 0.738877
Si Si2 0.074431 0.816477 0.001051
Si Si3 0.930871 0.818615 0.247034
Si Si4 0.084993 0.681253 0.837811
Si Si5 0.816793 0.182371 0.591735
Si Si6 0.017555 0.682859 0.426335
Si Si7 0.347708 0.183572 0.826610
O O1 0.210170 0.733516 0.788773
O O2 0.435189 0.783220 0.646922
O O3 0.356685 0.776596 0.771868
O O4 0.305963 0.000000 0.750135
O O5 0.017641 0.732196 0.072563
O O6 0.062092 0.000000 0.013891
O O7 0.213253 0.781294 0.916477
O O8 0.000000 0.776959 0.000000
O O9 0.929822 0.762762 0.199063
O O10 0.818372 0.739374 0.332516
O O11 0.052812 0.768168 0.201568
O O12 0.915486 0.000000 0.256968
O O13 0.084388 0.500000 0.831826
O O14 0.893936 0.240230 0.508955
O O15 0.883642 0.254735 0.595470
O O16 0.822533 0.000000 0.591537
O O17 0.008539 0.500000 0.436464
O O18 0.364550 0.000000 0.821235
#
# Coordination Sequence:
#
# PCOD9184372 Si02
#       7
#     8   8   8   8   8   8   8
#     4  10  20  38  63  90 121 158 199 243 296 358
#     4  10  20  39  65  90 120 159 199 243 299 357
#     4  12  25  42  61  85 121 161 203 248 304 363
#     4  12  24  37  61  91 122 156 201 251 296 352
#     4  11  21  35  57  87 122 157 197 250 300 349
#     4  10  19  33  59  91 121 157 198 242 294 357
#     4  10  22  41  64  89 120 158 199 244 301 361
#
# _framework density 18.139154000000001
#
# number of rings (size 3 to 8) (size 9 to 14) (size 15 to 20)
#    0.000    1.286    2.857    5.143    0.000    2.571 
#    0.000    0.714    0.000    0.000    0.000    0.000 
#    0.000    0.000    0.000    0.000    0.000    0.000 
#
# Total GULP energy -156520.385598 kJ/mol
# GULP energy per Si atom -5590.013771 kJ/mol
# Density = 1.809787 g / cm^3
# Si number density = 18.139154 Si / 1000 Ang^3
#
#
#
# Elastic Constant Matrix: (Units=GPa)
#
#
# Indices 1 2 3 4 5 6 
#
# 1 76.4978 36.7629 35.3498 -0.0007 -5.5113 -0.0001
# 2 36.7629 77.2332 46.5990 -0.0035 -0.8847 0.0019
# 3 35.3498 46.5990 114.8846 -0.0002 0.6578 -0.0002
# 4 -0.0007 -0.0035 -0.0002 3.1302 0.0002 -24.0593
# 5 -5.5113 -0.8847 0.6578 0.0002 27.4942 0.0000
# 6 -0.0001 0.0019 -0.0002 -24.0593 0.0000 13.7629
#
#
#
# Elastic Compliance Matrix: (Units=1/GPa)
#
#
# Indices 1 2 3 4 5 6 
#
# 1 0.017861 -0.006799 -0.002758 0.000000 0.003427 0.000000
# 2 -0.006799 0.019745 -0.005914 0.000000 -0.000586 -0.000003
# 3 -0.002758 -0.005914 0.011958 0.000000 -0.001029 0.000001
# 4 0.000000 0.000000 0.000000 -0.025688 0.000000 -0.044906
# 5 0.003427 -0.000586 -0.001029 0.000000 0.037064 0.000000
# 6 0.000000 -0.000003 0.000001 -0.044906 0.000000 -0.005842
#
#
# Mechanical properties :
#
#
# Convention : Reuss Voigt Hill
#
# Bulk Modulus (GPa) = 53.69555 56.22656 54.96106
# Shear Modulus (GPa) = 54.20337 18.87104 36.53721
#
# Velocity S-wave (km/s) = 5.47237 3.22894 4.49293
# Velocity P-wave (km/s) = 8.34239 6.70567 7.56840
#
# Compressibility (1/GPa) = 0.01862352
#
# Stress axis : x y z
#
# Youngs Moduli (GPa) = 55.98858 50.64505 83.62917
#
# Poissons Ratio (x) = 0.34431 0.23063
# Poissons Ratio (y) = 0.38064 0.49456
# Poissons Ratio (z) = 0.15440 0.29950
#
# Static dielectric constant tensor:
#      x y z
#    x 1.585420 0.000000 0.005710 
#    y 0.000000 1.607550 0.000000 
#    z 0.005710 0.000000 1.625070 
# 
# From -- ./inp_files/362963.got.cif
#   From: 2010.05.17/outbox.cif.g08.bks.cpg/sg12_182_cif.got.tgz:362963.got - 2010.06.03 13:09:07.
