data_PCOD9184654
_publ_section_title
;
Structure prediction by ZEFSAII (Michael W. Deem and Ramdas Pophale) SiO2 
 PCOD9184654
Probable space group: C 2/M
;
_chemical_formula_sum "Si O2"
_cell_formula_units_Z 44
_cell_length_a 11.251868
_cell_length_b 13.057103
_cell_length_c 21.364497
_cell_angle_alpha 90.000000
_cell_angle_beta 139.572743
_cell_angle_gamma 90.000000
_cell_volume 2035.457930
_symmetry_space_group_name_H-M "C 2/M"
_symmetry_group_IT_number 12
_symmetry_cell_setting 'monoclinic'
loop_
_space_group_symop_operation_xyz
x,y,z
-x,y,-z
-x,-y,-z
x,-y,z
1/2+x,1/2+y,z
1/2-x,1/2+y,-z
1/2-x,1/2-y,-z
1/2+x,1/2-y,z
loop_
_atom_site_type_symbol
_atom_site_label
_atom_site_fract_x
_atom_site_fract_y
_atom_site_fract_z
Si Si1 0.057635 0.675929 0.722031
Si Si2 0.000000 0.682758 0.000000
Si Si3 0.221629 0.385071 0.289690
Si Si4 0.447326 0.295486 0.864303
Si Si5 0.391217 0.388074 0.191696
Si Si6 0.457055 0.239794 0.555181
O O1 0.267261 0.652842 0.822739
O O2 0.037511 0.795845 0.735739
O O3 0.903072 0.618422 0.698129
O O4 0.042856 0.664217 0.641627
O O5 0.066261 0.753815 0.969142
O O6 0.828063 0.621374 0.904449
O O7 0.224242 0.500000 0.265887
O O8 0.126776 0.303208 0.205108
O O9 0.422897 0.343245 0.387540
O O10 0.535208 0.367489 0.848416
O O11 0.447007 0.500000 0.235853
O O12 0.500000 0.210277 0.500000
O O13 0.250000 0.250000 0.500000
#
# Coordination Sequence:
#
# PCOD9184654 Si02
#       6
#     8   4   8   8   8   8
#     4   9  20  38  58  82 115 153 191 242 300 346
#     4  10  19  34  53  80 118 154 199 238 293 348
#     4  10  21  38  61  87 115 156 204 242 291 357
#     4   9  20  36  57  82 117 158 192 246 297 349
#     4  10  20  35  57  84 114 152 197 244 293 348
#     4  11  21  38  63  86 117 156 194 242 299 348
#
# _framework density 21.616757
#
# number of rings (size 3 to 8) (size 9 to 14) (size 15 to 20)
#    0.000    2.182    1.818    0.818    0.000    8.364 
#    0.000    0.455    0.000    2.182    0.000    0.000 
#    0.000    0.000    0.000    0.000    0.000    0.000 
#
# Total GULP energy -122584.891961 kJ/mol
# GULP energy per Si atom -5572.040544 kJ/mol
# Density = 2.156756 g / cm^3
# Si number density = 21.616757 Si / 1000 Ang^3
#
#
#
# Elastic Constant Matrix: (Units=GPa)
#
#
# Indices 1 2 3 4 5 6 
#
# 1 155.8410 31.4770 21.3918 0.0000 -16.0708 0.0000
# 2 31.4770 69.8604 10.3099 0.0000 1.2337 0.0000
# 3 21.3918 10.3099 61.5489 0.0000 -16.7544 0.0000
# 4 0.0000 0.0000 0.0000 11.0734 0.0000 3.0846
# 5 -16.0708 1.2337 -16.7544 0.0000 44.8601 0.0000
# 6 0.0000 0.0000 0.0000 3.0846 0.0000 -6.5972
#
#
#
# Elastic Compliance Matrix: (Units=1/GPa)
#
#
# Indices 1 2 3 4 5 6 
#
# 1 0.007493 -0.003200 -0.001462 0.000000 0.002226 0.000000
# 2 -0.003200 0.016131 -0.002252 0.000000 -0.002431 0.000000
# 3 -0.001462 -0.002252 0.018932 0.000000 0.006609 0.000000
# 4 0.000000 0.000000 0.000000 0.079900 0.000000 0.037358
# 5 0.002226 -0.002431 0.006609 0.000000 0.025624 0.000000
# 6 0.000000 0.000000 0.000000 0.037358 0.000000 -0.134111
#
#
# Mechanical properties :
#
#
# Convention : Reuss Voigt Hill
#
# Bulk Modulus (GPa) = 34.80862 45.95638 40.38250
# Shear Modulus (GPa) = 133.78620 24.80536 79.29578
#
# Velocity S-wave (km/s) = 7.87556 3.39116 6.06318
# Velocity P-wave (km/s) = 9.94167 6.05302 8.23030
#
# Compressibility (1/GPa) = 0.02872852
#
# Stress axis : x y z
#
# Youngs Moduli (GPa) = 133.45047 61.99156 52.82161
#
# Poissons Ratio (x) = 0.19836 0.07724
# Poissons Ratio (y) = 0.42702 0.11894
# Poissons Ratio (z) = 0.19515 0.13959
#
# Static dielectric constant tensor:
#      x y z
#    x 1.879000 0.000000 0.003870 
#    y 0.000000 1.795780 0.000000 
#    z 0.003870 0.000000 1.823150 
# 
# From -- ./inp_files/305561.got.cif
#   From: 2010.05.17/outbox.cif.g08.bks.cpg/sg12_153_cif.got.tgz:305561.got - 2010.06.03 13:09:07.
