data_PCOD9184473
_publ_section_title
;
Structure prediction by ZEFSAII (Michael W. Deem and Ramdas Pophale) SiO2 
 PCOD9184473
Probable space group: C 2/M
;
_chemical_formula_sum "Si O2"
_cell_formula_units_Z 64
_cell_length_a 19.257462
_cell_length_b 21.982695
_cell_length_c 9.053667
_cell_angle_alpha 90.000000
_cell_angle_beta 83.802421
_cell_angle_gamma 90.000000
_cell_volume 3810.297026
_symmetry_space_group_name_H-M "C 2/M"
_symmetry_group_IT_number 12
_symmetry_cell_setting 'monoclinic'
loop_
_space_group_symop_operation_xyz
x,y,z
-x,y,-z
-x,-y,-z
x,-y,z
1/2+x,1/2+y,z
1/2-x,1/2+y,-z
1/2-x,1/2-y,-z
1/2+x,1/2-y,z
loop_
_atom_site_type_symbol
_atom_site_label
_atom_site_fract_x
_atom_site_fract_y
_atom_site_fract_z
Si Si1 0.594157 0.272856 0.324963
Si Si2 0.436798 0.743107 0.323448
Si Si3 0.174089 0.572799 0.946056
Si Si4 0.331860 0.149989 0.749145
Si Si5 0.037171 0.631696 0.843522
Si Si6 0.059051 0.568868 0.363487
Si Si7 0.305611 0.289414 0.174054
Si Si8 0.281838 0.667856 0.847191
O O1 0.588389 0.259799 0.501098
O O2 0.514803 0.284207 0.293881
O O3 0.624151 0.212029 0.238120
O O4 0.651492 0.323508 0.273140
O O5 0.443635 0.812542 0.266829
O O6 0.379609 0.710891 0.235091
O O7 0.177755 0.500000 0.959529
O O8 0.105007 0.593100 0.872840
O O9 0.242003 0.603842 0.855476
O O10 0.170431 0.607801 0.104902
O O11 0.375616 0.112066 0.621124
O O12 0.254115 0.171414 0.729816
O O13 0.980047 0.590221 0.775337
O O14 0.000000 0.656113 0.000000
O O15 0.082870 0.500000 0.345101
O O16 0.000000 0.573623 0.500000
O O17 0.275391 0.220492 0.175727
O O18 0.306864 0.315145 0.007479
#
# Coordination Sequence:
#
# PCOD9184473 Si02
#       8
#     8   8   8   8   8   8   8   8
#     4  10  21  35  54  77 113 136 176 211 275 319
#     4  11  21  34  53  83 105 145 167 216 266 326
#     4  11  21  35  54  77 104 141 186 221 253 302
#     4  10  19  34  50  74 104 142 170 218 257 306
#     4  12  22  32  52  77 106 142 185 212 248 304
#     4  11  22  35  49  70 106 149 184 215 252 299
#     4   9  19  32  53  75 107 133 177 212 269 309
#     4   9  19  35  51  78 105 139 173 222 261 316
#
# _framework density 16.796589999999998
#
# number of rings (size 3 to 8) (size 9 to 14) (size 15 to 20)
#    0.000    1.625    3.750    2.250    1.750    2.500 
#    2.250    0.000    0.000    0.000    0.000    9.625 
#    0.000    0.000    0.000    0.000    0.000    0.000 
#
# Total GULP energy -178512.664835 kJ/mol
# GULP energy per Si atom -5578.520776 kJ/mol
# Density = 1.675836 g / cm^3
# Si number density = 16.796590 Si / 1000 Ang^3
#
#
#
# Elastic Constant Matrix: (Units=GPa)
#
#
# Indices 1 2 3 4 5 6 
#
# 1 118.9936 44.5250 41.2827 0.0000 -6.3960 0.0000
# 2 44.5250 64.0239 14.9810 0.0000 -9.5376 0.0000
# 3 41.2827 14.9810 43.5401 0.0000 -3.7872 0.0000
# 4 0.0000 0.0000 0.0000 14.7282 0.0000 -5.2269
# 5 -6.3960 -9.5376 -3.7872 0.0000 25.3764 0.0000
# 6 0.0000 0.0000 0.0000 -5.2269 0.0000 21.9027
#
#
#
# Elastic Compliance Matrix: (Units=1/GPa)
#
#
# Indices 1 2 3 4 5 6 
#
# 1 0.015589 -0.008160 -0.012054 0.000000 -0.000937 0.000000
# 2 -0.008160 0.022077 0.000693 0.000000 0.006344 0.000000
# 3 -0.012054 0.000693 0.034363 0.000000 0.002351 0.000000
# 4 0.000000 0.000000 0.000000 0.074179 0.000000 0.017702
# 5 -0.000937 0.006344 0.002351 0.000000 0.041906 0.000000
# 6 0.000000 0.000000 0.000000 0.017702 0.000000 0.049881
#
#
# Mechanical properties :
#
#
# Convention : Reuss Voigt Hill
#
# Bulk Modulus (GPa) = 30.31665 47.57055 38.94360
# Shear Modulus (GPa) = 17.35908 20.78606 19.07257
#
# Velocity S-wave (km/s) = 3.21828 3.52165 3.37338
# Velocity P-wave (km/s) = 5.64785 6.70217 6.19747
#
# Compressibility (1/GPa) = 0.03298517
#
# Stress axis : x y z
#
# Youngs Moduli (GPa) = 64.14833 45.29587 29.10117
#
# Poissons Ratio (x) = 0.36962 0.35080
# Poissons Ratio (y) = 0.52346 -0.02016
# Poissons Ratio (z) = 0.77327 -0.03138
#
# Static dielectric constant tensor:
#      x y z
#    x 1.584350 0.000000 -0.029960 
#    y 0.000000 1.559660 0.000000 
#    z -0.029960 0.000000 1.613620 
# 
# From -- ./inp_files/77525.got.cif
#   From: 2010.05.17/outbox.cif.g08.bks.cpg/sg12_39_cif.got.tgz:77525.got - 2010.06.03 13:09:07.
