data_PCOD9184832
_publ_section_title
;
Structure prediction by ZEFSAII (Michael W. Deem and Ramdas Pophale) SiO2 
 PCOD9184832
Probable space group: C 2/M
;
_chemical_formula_sum "Si O2"
_cell_formula_units_Z 64
_cell_length_a 23.811826
_cell_length_b 21.641623
_cell_length_c 5.276452
_cell_angle_alpha 90.000000
_cell_angle_beta 72.876746
_cell_angle_gamma 90.000000
_cell_volume 2598.568126
_symmetry_space_group_name_H-M "C 2/M"
_symmetry_group_IT_number 12
_symmetry_cell_setting 'monoclinic'
loop_
_space_group_symop_operation_xyz
x,y,z
-x,y,-z
-x,-y,-z
x,-y,z
1/2+x,1/2+y,z
1/2-x,1/2+y,-z
1/2-x,1/2-y,-z
1/2+x,1/2-y,z
loop_
_atom_site_type_symbol
_atom_site_label
_atom_site_fract_x
_atom_site_fract_y
_atom_site_fract_z
Si Si1 0.478084 0.753477 0.777243
Si Si2 0.849199 0.246997 0.769265
Si Si3 0.240103 0.693884 0.705991
Si Si4 0.362952 0.073877 0.886279
Si Si5 0.864606 0.358989 0.386034
Si Si6 0.343679 0.429018 0.396352
Si Si7 0.273326 0.429912 0.014675
Si Si8 0.470952 0.383999 0.289006
O O1 0.500000 0.788695 0.500000
O O2 0.409611 0.735913 0.840347
O O3 0.513920 0.688844 0.730434
O O4 0.500000 0.786526 0.000000
O O5 0.805681 0.191598 0.740246
O O6 0.869469 0.290265 0.503908
O O7 0.805938 0.283978 0.017361
O O8 0.250000 0.750000 0.500000
O O9 0.205828 0.642796 0.585491
O O10 0.388034 0.114752 0.086121
O O11 0.293231 0.089886 0.947148
O O12 0.368644 0.000000 0.922671
O O13 0.385126 0.095787 0.582368
O O14 0.362116 0.500000 0.313942
O O15 0.304713 0.432613 0.701069
O O16 0.402198 0.391977 0.376318
O O17 0.312014 0.401342 0.188966
O O18 0.265433 0.500000 0.121653
O O19 0.500000 0.411576 0.500000
O O20 0.500000 0.411153 0.000000
#
# Coordination Sequence:
#
# PCOD9184832 Si02
#       8
#     8   8   8   8   8   8   8   8
#     4  10  24  42  60  86 121 165 203 258 323 376
#     4  10  21  42  65  89 133 161 216 275 313 391
#     4   9  20  38  64  93 122 164 213 263 330 367
#     4  11  22  38  57  89 134 165 199 253 311 386
#     4  11  21  38  59  93 120 166 212 248 313 381
#     4  10  19  34  55  74 102 148 205 262 301 350
#     4   9  19  35  53  77 109 153 196 244 306 354
#     4  10  21  39  50  73 106 137 197 250 308 365
#
# _framework density 24.628945999999999
#
# number of rings (size 3 to 8) (size 9 to 14) (size 15 to 20)
#    0.000    2.000    1.250    1.875    3.500    2.500 
#   13.500    1.250    0.000    0.000    0.000    0.000 
#    0.000   10.000    0.000    0.000    0.000    0.000 
#
# Total GULP energy -178604.639398 kJ/mol
# GULP energy per Si atom -5581.394981 kJ/mol
# Density = 2.457289 g / cm^3
# Si number density = 24.628946 Si / 1000 Ang^3
#
#
#
# Elastic Constant Matrix: (Units=GPa)
#
#
# Indices 1 2 3 4 5 6 
#
# 1 108.2482 20.8245 23.1038 0.0000 18.2519 0.0000
# 2 20.8245 79.9678 -0.7709 0.0000 9.5906 0.0000
# 3 23.1038 -0.7709 130.2212 0.0000 43.9626 0.0000
# 4 0.0000 0.0000 0.0000 24.4824 0.0000 13.1208
# 5 18.2519 9.5906 43.9626 0.0000 47.1403 0.0000
# 6 0.0000 0.0000 0.0000 13.1208 0.0000 29.4620
#
#
#
# Elastic Compliance Matrix: (Units=1/GPa)
#
#
# Indices 1 2 3 4 5 6 
#
# 1 0.010345 -0.002389 -0.000965 0.000000 -0.002619 0.000000
# 2 -0.002389 0.013546 0.001638 0.000000 -0.003358 0.000000
# 3 -0.000965 0.001638 0.011452 0.000000 -0.010640 0.000000
# 4 0.000000 0.000000 0.000000 0.053650 0.000000 -0.023893
# 5 -0.002619 -0.003358 -0.010640 0.000000 0.032833 0.000000
# 6 0.000000 0.000000 0.000000 -0.023893 0.000000 0.044583
#
#
# Mechanical properties :
#
#
# Convention : Reuss Voigt Hill
#
# Bulk Modulus (GPa) = 31.33857 44.97245 38.15551
# Shear Modulus (GPa) = 27.70402 38.56895 33.13648
#
# Velocity S-wave (km/s) = 3.35753 3.96157 3.67199
# Velocity P-wave (km/s) = 5.27092 6.26298 5.78824
#
# Compressibility (1/GPa) = 0.03190956
#
# Stress axis : x y z
#
# Youngs Moduli (GPa) = 96.66198 73.82391 87.32005
#
# Poissons Ratio (x) = 0.17638 0.08430
# Poissons Ratio (y) = 0.23095 -0.14301
# Poissons Ratio (z) = 0.09332 -0.12091
#
# Static dielectric constant tensor:
#      x y z
#    x 1.970450 0.000000 0.053360 
#    y 0.000000 2.074360 0.000000 
#    z 0.053360 0.000000 2.056070 
# 
# From -- ./inp_files/26207.got.cif
#   From: 2010.05.17/outbox.cif.g08.bks.cpg/sg12_14_cif.got.tgz:26207.got - 2010.06.03 13:09:07.
