data_PCOD9184703
_publ_section_title
;
Structure prediction by ZEFSAII (Michael W. Deem and Ramdas Pophale) SiO2 
 PCOD9184703
Probable space group: C 2/M
;
_chemical_formula_sum "Si O2"
_cell_formula_units_Z 64
_cell_length_a 29.163834
_cell_length_b 14.451852
_cell_length_c 16.974093
_cell_angle_alpha 90.000000
_cell_angle_beta 152.722367
_cell_angle_gamma 90.000000
_cell_volume 3278.740484
_symmetry_space_group_name_H-M "C 2/M"
_symmetry_group_IT_number 12
_symmetry_cell_setting 'monoclinic'
loop_
_space_group_symop_operation_xyz
x,y,z
-x,y,-z
-x,-y,-z
x,-y,z
1/2+x,1/2+y,z
1/2-x,1/2+y,-z
1/2-x,1/2-y,-z
1/2+x,1/2-y,z
loop_
_atom_site_type_symbol
_atom_site_label
_atom_site_fract_x
_atom_site_fract_y
_atom_site_fract_z
Si Si1 0.635580 0.281348 0.822185
Si Si2 0.019927 0.807766 0.122123
Si Si3 0.672846 0.610226 0.564607
Si Si4 0.047712 0.889110 0.829774
Si Si5 0.055369 0.601913 0.240296
Si Si6 0.264547 0.356751 0.506891
Si Si7 0.570933 0.104600 0.796249
Si Si8 0.794732 0.891385 0.210837
O O1 0.618407 0.347592 0.870909
O O2 0.568750 0.189679 0.732261
O O3 0.630858 0.337258 0.733623
O O4 0.750000 0.250000 0.000000
O O5 0.030107 0.697158 0.155657
O O6 0.120161 0.869410 0.292914
O O7 0.941365 0.846031 0.066598
O O8 0.000000 0.818861 0.000000
O O9 0.668005 0.500000 0.564403
O O10 0.562837 0.641303 0.369674
O O11 0.745332 0.628079 0.601787
O O12 0.701312 0.645952 0.693916
O O13 0.053158 0.000000 0.841031
O O14 0.016478 0.500000 0.152760
O O15 0.175602 0.596618 0.418537
O O16 0.011387 0.614097 0.260735
O O17 0.250000 0.250000 0.500000
O O18 0.564308 0.000000 0.753317
O O19 0.680002 0.112871 0.005172
O O20 0.822342 0.000000 0.251885
#
# Coordination Sequence:
#
# PCOD9184703 Si02
#       8
#     8   8   8   8   8   8   8   8
#     4  10  19  34  54  76 106 142 181 226 280 332
#     4  10  21  37  57  86 118 147 190 237 279 335
#     4   9  18  33  53  79 112 139 171 225 281 330
#     4  10  20  36  58  80 109 146 183 225 280 339
#     4  10  19  34  57  83 115 152 187 228 280 339
#     4   9  19  34  52  80 112 152 187 218 272 336
#     4   9  18  32  53  80 111 145 182 223 271 328
#     4   9  18  32  53  85 112 136 175 227 281 333
#
# _framework density 19.519690000000001
#
# number of rings (size 3 to 8) (size 9 to 14) (size 15 to 20)
#    0.000    2.500    1.250    0.750    0.000    4.000 
#    0.000    3.125    0.000    0.000    0.000    5.250 
#    0.000    0.000    0.000    0.000    0.000    0.000 
#
# Total GULP energy -178159.830008 kJ/mol
# GULP energy per Si atom -5567.494688 kJ/mol
# Density = 1.947526 g / cm^3
# Si number density = 19.519690 Si / 1000 Ang^3
#
#
#
# Elastic Constant Matrix: (Units=GPa)
#
#
# Indices 1 2 3 4 5 6 
#
# 1 148.8648 47.8857 34.1916 0.0000 9.3647 0.0000
# 2 47.8857 91.7468 16.3988 0.0000 2.9119 0.0000
# 3 34.1916 16.3988 13.1491 0.0000 -4.3675 0.0000
# 4 0.0000 0.0000 0.0000 -5.5073 0.0000 -37.8465
# 5 9.3647 2.9119 -4.3675 0.0000 19.7985 0.0000
# 6 0.0000 0.0000 0.0000 -37.8465 0.0000 -38.4978
#
#
#
# Elastic Compliance Matrix: (Units=1/GPa)
#
#
# Indices 1 2 3 4 5 6 
#
# 1 0.027553 0.001713 -0.084378 0.000000 -0.031898 0.000000
# 2 0.001713 0.014924 -0.025968 0.000000 -0.008734 0.000000
# 3 -0.084378 -0.025968 0.369438 0.000000 0.125226 0.000000
# 4 0.000000 0.000000 0.000000 0.031547 0.000000 -0.031013
# 5 -0.031898 -0.008734 0.125226 0.000000 0.094506 0.000000
# 6 0.000000 0.000000 0.000000 -0.031013 0.000000 0.004513
#
#
# Mechanical properties :
#
#
# Convention : Reuss Voigt Hill
#
# Bulk Modulus (GPa) = 5.13744 50.07924 27.60834
# Shear Modulus (GPa) = 6.06333 5.51099 5.78716
#
# Velocity S-wave (km/s) = 1.76437 1.68209 1.72372
# Velocity P-wave (km/s) = 2.60544 5.42992 4.25866
#
# Compressibility (1/GPa) = 0.19464936
#
# Stress axis : x y z
#
# Youngs Moduli (GPa) = 36.29351 67.00551 2.70682
#
# Poissons Ratio (x) = -0.11479 0.22840
# Poissons Ratio (y) = -0.06218 0.07029
# Poissons Ratio (z) = 3.06236 1.74001
#
# Static dielectric constant tensor:
#      x y z
#    x 1.718140 0.000000 0.015800 
#    y 0.000000 1.719870 0.000000 
#    z 0.015800 0.000000 1.731330 
# 
# From -- ./inp_files/240727.got.cif
#   From: 2010.05.17/outbox.cif.g08.bks.cpg/sg12_121_cif.got.tgz:240727.got - 2010.06.03 13:09:07.
