data_PCOD9184962
_publ_section_title
;
Structure prediction by ZEFSAII (Michael W. Deem and Ramdas Pophale) SiO2 
 PCOD9184962
Probable space group: C 2/M
;
_chemical_formula_sum "Si O2"
_cell_formula_units_Z 44
_cell_length_a 24.069540
_cell_length_b 8.213417
_cell_length_c 29.328088
_cell_angle_alpha 90.000000
_cell_angle_beta 158.636833
_cell_angle_gamma 90.000000
_cell_volume 2112.071245
_symmetry_space_group_name_H-M "C 2/M"
_symmetry_group_IT_number 12
_symmetry_cell_setting 'monoclinic'
loop_
_space_group_symop_operation_xyz
x,y,z
-x,y,-z
-x,-y,-z
x,-y,z
1/2+x,1/2+y,z
1/2-x,1/2+y,-z
1/2-x,1/2-y,-z
1/2+x,1/2-y,z
loop_
_atom_site_type_symbol
_atom_site_label
_atom_site_fract_x
_atom_site_fract_y
_atom_site_fract_z
Si Si1 0.007925 0.190150 0.600491
Si Si2 0.000000 0.755584 0.000000
Si Si3 0.127483 0.303915 0.869225
Si Si4 0.722539 0.805925 0.840782
Si Si5 0.770444 0.818944 0.743283
Si Si6 0.824125 0.303237 0.686159
O O1 0.841925 0.249171 0.458463
O O2 0.080385 0.286359 0.698116
O O3 0.130034 0.209933 0.652960
O O4 0.997219 0.000000 0.604476
O O5 0.859363 0.697014 0.924308
O O6 0.893725 0.826268 0.878267
O O7 0.122797 0.500000 0.864642
O O8 0.177385 0.253655 0.856819
O O9 0.961562 0.246069 0.759048
O O10 0.250000 0.250000 0.000000
O O11 0.768788 0.000000 0.875957
O O12 0.843927 0.756576 0.752971
O O13 0.710022 0.000000 0.689788
O O14 0.824622 0.500000 0.687265
#
# Coordination Sequence:
#
# PCOD9184962 Si02
#       6
#     8   4   8   8   8   8
#     4  10  21  37  56  80 112 148 184 228 281 331
#     4  10  19  34  55  80 109 140 175 224 281 324
#     4  10  22  39  58  82 113 149 187 229 277 330
#     4  10  20  36  57  81 111 145 185 231 276 328
#     4  11  21  35  58  85 112 144 186 231 275 329
#     4  10  22  39  56  78 113 151 184 225 280 334
#
# _framework density 20.832630000000002
#
# number of rings (size 3 to 8) (size 9 to 14) (size 15 to 20)
#    0.000    1.818    0.000    5.455    0.000    7.273 
#    0.000   13.182    0.000    0.000    0.000    0.000 
#    0.000    0.000    0.000    0.000    0.000    0.000 
#
# Total GULP energy -122650.129303 kJ/mol
# GULP energy per Si atom -5575.005877 kJ/mol
# Density = 2.078521 g / cm^3
# Si number density = 20.832630 Si / 1000 Ang^3
#
#
#
# Elastic Constant Matrix: (Units=GPa)
#
#
# Indices 1 2 3 4 5 6 
#
# 1 203.8445 15.5123 71.5091 0.0015 10.3023 -0.0005
# 2 15.5123 29.2128 15.1687 -0.0005 2.2603 -0.0011
# 3 71.5091 15.1687 124.5250 -0.0092 17.5889 0.0022
# 4 0.0015 -0.0005 -0.0092 14.7757 0.0000 -4.3974
# 5 10.3023 2.2603 17.5889 0.0000 24.3467 0.0000
# 6 -0.0005 -0.0011 0.0022 -4.3974 0.0000 6.9277
#
#
#
# Elastic Compliance Matrix: (Units=1/GPa)
#
#
# Indices 1 2 3 4 5 6 
#
# 1 0.006208 -0.001543 -0.003370 -0.000003 -0.000049 -0.000001
# 2 -0.001543 0.036927 -0.003586 0.000002 -0.000185 0.000008
# 3 -0.003370 -0.003586 0.011308 0.000007 -0.006410 0.000000
# 4 -0.000003 0.000002 0.000007 0.083441 -0.000004 0.052965
# 5 -0.000049 -0.000185 -0.006410 -0.000004 0.045742 0.000000
# 6 -0.000001 0.000008 0.000000 0.052965 0.000000 0.177969
#
#
# Mechanical properties :
#
#
# Convention : Reuss Voigt Hill
#
# Bulk Modulus (GPa) = 26.70568 62.44026 44.57297
# Shear Modulus (GPa) = 12.78528 26.23617 19.51072
#
# Velocity S-wave (km/s) = 2.48001 3.55262 3.06362
# Velocity P-wave (km/s) = 4.58777 6.84584 5.82723
#
# Compressibility (1/GPa) = 0.03744521
#
# Stress axis : x y z
#
# Youngs Moduli (GPa) = 161.08823 27.08029 88.43253
#
# Poissons Ratio (x) = 0.04178 0.29802
# Poissons Ratio (y) = 0.24852 0.31714
# Poissons Ratio (z) = 0.54287 0.09712
#
# Static dielectric constant tensor:
#      x y z
#    x 1.735590 0.000000 0.019050 
#    y 0.000000 1.743900 0.000000 
#    z 0.019050 0.000000 1.726400 
# 
# From -- ./inp_files/382578.got.cif
#   From: 2010.05.17/outbox.cif.g08.bks.cpg/sg12_192_cif.got.tgz:382578.got - 2010.06.03 13:09:07.
