data_PCOD9184522
_publ_section_title
;
Structure prediction by ZEFSAII (Michael W. Deem and Ramdas Pophale) SiO2 
 PCOD9184522
Probable space group: C 2/M
;
_chemical_formula_sum "Si O2"
_cell_formula_units_Z 58
_cell_length_a 12.217901
_cell_length_b 17.215606
_cell_length_c 19.804128
_cell_angle_alpha 90.000000
_cell_angle_beta 136.675831
_cell_angle_gamma 90.000000
_cell_volume 2858.104257
_symmetry_space_group_name_H-M "C 2/M"
_symmetry_group_IT_number 12
_symmetry_cell_setting 'monoclinic'
loop_
_space_group_symop_operation_xyz
x,y,z
-x,y,-z
-x,-y,-z
x,-y,z
1/2+x,1/2+y,z
1/2-x,1/2+y,-z
1/2-x,1/2-y,-z
1/2+x,1/2-y,z
loop_
_atom_site_type_symbol
_atom_site_label
_atom_site_fract_x
_atom_site_fract_y
_atom_site_fract_z
Si Si1 0.500000 0.500000 0.000000
Si Si2 0.679605 0.183474 0.063630
Si Si3 0.580706 0.693845 0.710023
Si Si4 0.771428 0.667846 0.426562
Si Si5 0.516712 0.131940 0.736231
Si Si6 0.276771 0.363128 0.959928
Si Si7 0.419613 0.087112 0.375011
Si Si8 0.167036 0.163184 0.596116
O O1 0.397513 0.430672 0.993547
O O2 0.794217 0.165100 0.178222
O O3 0.675819 0.276892 0.046575
O O4 0.500000 0.159210 0.000000
O O5 0.749108 0.145217 0.027167
O O6 0.407527 0.653404 0.630363
O O7 0.537854 0.779900 0.718295
O O8 0.653942 0.689823 0.668271
O O9 0.908133 0.625083 0.530833
O O10 0.815486 0.758929 0.442170
O O11 0.793000 0.636600 0.360015
O O12 0.609064 0.120955 0.846882
O O13 0.601210 0.086065 0.714070
O O14 0.329244 0.116044 0.658742
O O15 0.412719 0.000000 0.397303
O O16 0.000000 0.125236 0.500000
#
# Coordination Sequence:
#
# PCOD9184522 Si02
#       8
#     2   8   8   8   8   8   8   8
#     4  12  24  44  66 100 130 168 206 262 332 390
#     4  10  20  41  64  92 127 165 215 268 325 375
#     4  10  20  33  60  86 117 153 197 260 300 361
#     4  10  19  34  51  84 120 150 202 238 301 350
#     4  10  21  35  54  90 117 156 203 242 310 363
#     4  10  23  39  63  95 129 167 210 269 323 385
#     4  11  21  36  55  80 122 164 194 238 296 366
#     4  11  18  32  58  87 119 150 194 259 298 352
#
# _framework density 20.293171000000001
#
# number of rings (size 3 to 8) (size 9 to 14) (size 15 to 20)
#    0.000    1.655    3.448    2.483    0.966    4.414 
#    0.000    0.345    1.517    4.552    0.000    0.000 
#    0.000    0.000    0.000    0.000    0.000    0.000 
#
# Total GULP energy -161605.444667 kJ/mol
# GULP energy per Si atom -5572.601540 kJ/mol
# Density = 2.024698 g / cm^3
# Si number density = 20.293171 Si / 1000 Ang^3
#
#
#
# Elastic Constant Matrix: (Units=GPa)
#
#
# Indices 1 2 3 4 5 6 
#
# 1 87.6771 11.7181 34.1639 0.0000 6.0407 0.0000
# 2 11.7181 51.7359 -3.2219 0.0000 5.3630 0.0000
# 3 34.1639 -3.2219 55.5329 0.0000 -15.0918 0.0000
# 4 0.0000 0.0000 0.0000 -0.0590 0.0000 2.5989
# 5 6.0407 5.3630 -15.0918 0.0000 35.7168 0.0000
# 6 0.0000 0.0000 0.0000 2.5989 0.0000 5.7920
#
#
#
# Elastic Compliance Matrix: (Units=1/GPa)
#
#
# Indices 1 2 3 4 5 6 
#
# 1 0.017661 -0.003998 -0.013269 0.000000 -0.007993 0.000000
# 2 -0.003998 0.020547 0.003386 0.000000 -0.000978 0.000000
# 3 -0.013269 0.003386 0.030321 0.000000 0.014547 0.000000
# 4 0.000000 0.000000 0.000000 -0.816231 0.000000 0.366251
# 5 -0.007993 -0.000978 0.014547 0.000000 0.035644 0.000000
# 6 0.000000 0.000000 0.000000 0.366251 0.000000 0.008310
#
#
# Mechanical properties :
#
#
# Convention : Reuss Voigt Hill
#
# Bulk Modulus (GPa) = 24.53076 31.14069 27.83572
# Shear Modulus (GPa) = -7.54833 18.44237 5.44702
#
# Velocity S-wave (km/s) = -1.93073 3.01790 1.64012
# Velocity P-wave (km/s) = 2.67285 5.24617 4.16332
#
# Compressibility (1/GPa) = 0.04076514
#
# Stress axis : x y z
#
# Youngs Moduli (GPa) = 56.62189 48.66954 32.98097
#
# Poissons Ratio (x) = 0.19458 0.43764
# Poissons Ratio (y) = 0.22637 -0.11166
# Poissons Ratio (z) = 0.75134 -0.16478
#
# Static dielectric constant tensor:
#      x y z
#    x 1.714330 0.000000 -0.011510 
#    y 0.000000 1.769510 0.000000 
#    z -0.011510 0.000000 1.746870 
# 
# From -- ./inp_files/306403.got.cif
#   From: 2010.05.17/outbox.cif.g08.bks.cpg/sg12_154_cif.got.tgz:306403.got - 2010.06.03 13:09:07.
