data_PCOD9184805
_publ_section_title
;
Structure prediction by ZEFSAII (Michael W. Deem and Ramdas Pophale) SiO2 
 PCOD9184805
Probable space group: C 2/M
;
_chemical_formula_sum "Si O2"
_cell_formula_units_Z 64
_cell_length_a 24.016135
_cell_length_b 22.425785
_cell_length_c 6.801244
_cell_angle_alpha 90.000000
_cell_angle_beta 66.564568
_cell_angle_gamma 90.000000
_cell_volume 3360.852007
_symmetry_space_group_name_H-M "C 2/M"
_symmetry_group_IT_number 12
_symmetry_cell_setting 'monoclinic'
loop_
_space_group_symop_operation_xyz
x,y,z
-x,y,-z
-x,-y,-z
x,-y,z
1/2+x,1/2+y,z
1/2-x,1/2+y,-z
1/2-x,1/2-y,-z
1/2+x,1/2-y,z
loop_
_atom_site_type_symbol
_atom_site_label
_atom_site_fract_x
_atom_site_fract_y
_atom_site_fract_z
Si Si1 0.566097 0.663035 0.809945
Si Si2 0.153072 0.271316 0.105506
Si Si3 0.222344 0.431346 0.105492
Si Si4 0.071315 0.301189 0.890402
Si Si5 0.119163 0.150917 0.336343
Si Si6 0.756300 0.663082 0.262201
Si Si7 0.835896 0.348613 0.528681
Si Si8 0.638726 0.430448 0.965360
O O1 0.585080 0.731857 0.817621
O O2 0.567889 0.655226 0.572290
O O3 0.609833 0.613684 0.845904
O O4 0.500000 0.655847 0.000000
O O5 0.124941 0.206134 0.177269
O O6 0.165034 0.297925 0.303180
O O7 0.103372 0.309502 0.055519
O O8 0.213291 0.279065 0.886520
O O9 0.214989 0.500000 0.064749
O O10 0.174617 0.408219 0.332492
O O11 0.288665 0.423105 0.112697
O O12 0.221273 0.390283 0.913162
O O13 0.103272 0.341685 0.682743
O O14 0.000000 0.309132 0.000000
O O15 0.184078 0.157201 0.356122
O O16 0.114767 0.091993 0.211326
O O17 0.783045 0.659358 0.441668
O O18 0.625629 0.500000 0.945691
#
# Coordination Sequence:
#
# PCOD9184805 Si02
#       8
#     8   8   8   8   8   8   8   8
#     4  11  23  38  55  79 110 152 198 243 284 328
#     4  10  19  34  54  83 112 142 182 227 284 340
#     4   9  19  36  58  84 115 150 185 227 280 342
#     4  10  21  37  54  81 117 152 191 232 279 332
#     4  11  20  36  56  78 108 151 182 231 289 339
#     4   9  20  32  53  83 116 140 182 228 283 340
#     4  10  19  35  55  88 114 147 185 226 282 338
#     4  10  22  40  58  80 111 147 194 241 284 336
#
# _framework density 19.04279
#
# number of rings (size 3 to 8) (size 9 to 14) (size 15 to 20)
#    0.000    2.000    2.500    1.125    0.000    2.750 
#    0.000    3.125    0.000    0.375    0.000    7.875 
#    0.000    0.000    0.000    0.000    0.000    0.000 
#
# Total GULP energy -178528.791957 kJ/mol
# GULP energy per Si atom -5579.024749 kJ/mol
# Density = 1.899945 g / cm^3
# Si number density = 19.042790 Si / 1000 Ang^3
#
#
#
# Elastic Constant Matrix: (Units=GPa)
#
#
# Indices 1 2 3 4 5 6 
#
# 1 43.9233 15.5225 24.7196 0.0000 3.1273 0.0000
# 2 15.5225 67.4424 35.1239 0.0000 -9.9433 0.0000
# 3 24.7196 35.1239 110.3096 0.0000 -4.7363 0.0000
# 4 0.0000 0.0000 0.0000 15.0473 0.0000 -0.4126
# 5 3.1273 -9.9433 -4.7363 0.0000 26.5847 0.0000
# 6 0.0000 0.0000 0.0000 -0.4126 0.0000 17.3372
#
#
#
# Elastic Compliance Matrix: (Units=1/GPa)
#
#
# Indices 1 2 3 4 5 6 
#
# 1 0.027617 -0.004636 -0.004965 0.000000 -0.005867 0.000000
# 2 -0.004636 0.019448 -0.004855 0.000000 0.006954 0.000000
# 3 -0.004965 -0.004855 0.011761 0.000000 0.000863 0.000000
# 4 0.000000 0.000000 0.000000 0.066501 0.000000 0.001583
# 5 -0.005867 0.006954 0.000863 0.000000 0.041061 0.000000
# 6 0.000000 0.000000 0.000000 0.001583 0.000000 0.057717
#
#
# Mechanical properties :
#
#
# Convention : Reuss Voigt Hill
#
# Bulk Modulus (GPa) = 33.42776 41.37858 37.40317
# Shear Modulus (GPa) = 19.01231 21.54778 20.28005
#
# Velocity S-wave (km/s) = 3.16317 3.36749 3.26693
# Velocity P-wave (km/s) = 5.56175 6.07425 5.82364
#
# Compressibility (1/GPa) = 0.02991525
#
# Stress axis : x y z
#
# Youngs Moduli (GPa) = 36.20954 51.41836 85.02730
#
# Poissons Ratio (x) = 0.23836 0.42213
# Poissons Ratio (y) = 0.16786 0.41282
# Poissons Ratio (z) = 0.17977 0.24964
#
# Static dielectric constant tensor:
#      x y z
#    x 1.689140 0.000000 0.000360 
#    y 0.000000 1.671220 0.000000 
#    z 0.000360 0.000000 1.661990 
# 
# From -- ./inp_files/26084.got.cif
#   From: 2010.05.17/outbox.cif.g08.bks.cpg/sg12_14_cif.got.tgz:26084.got - 2010.06.03 13:09:07.
