data_PCOD9184646
_publ_section_title
;
Structure prediction by ZEFSAII (Michael W. Deem and Ramdas Pophale) SiO2 
 PCOD9184646
Probable space group: C 2/M
;
_chemical_formula_sum "Si O2"
_cell_formula_units_Z 44
_cell_length_a 9.749263
_cell_length_b 28.447912
_cell_length_c 8.456993
_cell_angle_alpha 90.000000
_cell_angle_beta 67.966233
_cell_angle_gamma 90.000000
_cell_volume 2174.205128
_symmetry_space_group_name_H-M "C 2/M"
_symmetry_group_IT_number 12
_symmetry_cell_setting 'monoclinic'
loop_
_space_group_symop_operation_xyz
x,y,z
-x,y,-z
-x,-y,-z
x,-y,z
1/2+x,1/2+y,z
1/2-x,1/2+y,-z
1/2-x,1/2-y,-z
1/2+x,1/2-y,z
loop_
_atom_site_type_symbol
_atom_site_label
_atom_site_fract_x
_atom_site_fract_y
_atom_site_fract_z
Si Si1 0.027416 0.446827 0.668887
Si Si2 0.425365 0.356807 0.194021
Si Si3 0.500000 0.887120 0.000000
Si Si4 0.330788 0.261630 0.128013
Si Si5 0.842818 0.916056 0.495737
Si Si6 0.721650 0.332098 0.253049
O O1 0.966952 0.500000 0.702611
O O2 0.206166 0.448048 0.598486
O O3 0.000000 0.428169 0.500000
O O4 0.980356 0.417301 0.845408
O O5 0.314497 0.313907 0.204026
O O6 0.361426 0.402557 0.305870
O O7 0.562617 0.335260 0.235911
O O8 0.500000 0.371776 0.000000
O O9 0.353315 0.855643 0.092409
O O10 0.274120 0.220482 0.266420
O O11 0.500000 0.257598 0.000000
O O12 0.250000 0.250000 0.000000
O O13 0.800196 0.865276 0.587843
O O14 0.000000 0.931020 0.500000
#
# Coordination Sequence:
#
# PCOD9184646 Si02
#       6
#     8   8   4   8   8   8
#     4  10  22  39  61  89 116 142 178 231 287 342
#     4  10  20  33  54  74 106 146 186 228 265 314
#     4  10  21  36  62  84 116 148 184 226 283 344
#     4  11  19  31  50  76 106 145 185 227 271 318
#     4   9  21  39  56  80 108 143 187 227 276 332
#     4  10  19  34  53  80 105 145 185 227 272 324
#
# _framework density 20.237280999999999
#
# number of rings (size 3 to 8) (size 9 to 14) (size 15 to 20)
#    0.000    2.000    4.545    0.273    2.545    1.091 
#    0.000    0.000    0.000    0.545    0.000    0.000 
#    0.000    0.000    0.000    0.000    0.000    0.000 
#
# Total GULP energy -122552.072517 kJ/mol
# GULP energy per Si atom -5570.548751 kJ/mol
# Density = 2.019122 g / cm^3
# Si number density = 20.237281 Si / 1000 Ang^3
#
#
#
# Elastic Constant Matrix: (Units=GPa)
#
#
# Indices 1 2 3 4 5 6 
#
# 1 54.7747 -4.6586 -0.4678 0.0000 -1.6153 0.0000
# 2 -4.6586 42.1702 22.3318 0.0000 9.6354 0.0000
# 3 -0.4678 22.3318 82.7252 0.0000 9.1233 0.0000
# 4 0.0000 0.0000 0.0000 10.3467 0.0000 -0.9221
# 5 -1.6153 9.6354 9.1233 0.0000 32.3166 0.0000
# 6 0.0000 0.0000 0.0000 -0.9221 0.0000 15.3481
#
#
#
# Elastic Compliance Matrix: (Units=1/GPa)
#
#
# Indices 1 2 3 4 5 6 
#
# 1 0.018454 0.002233 -0.000544 0.000000 0.000410 0.000000
# 2 0.002233 0.029257 -0.007158 0.000000 -0.006591 0.000000
# 3 -0.000544 -0.007158 0.014228 0.000000 -0.001910 0.000000
# 4 0.000000 0.000000 0.000000 0.097169 0.000000 0.005838
# 5 0.000410 -0.006591 -0.001910 0.000000 0.033468 0.000000
# 6 0.000000 0.000000 0.000000 0.005838 0.000000 0.065506
#
#
# Mechanical properties :
#
#
# Convention : Reuss Voigt Hill
#
# Bulk Modulus (GPa) = 19.60767 23.78675 21.69721
# Shear Modulus (GPa) = 17.48125 22.43327 19.95726
#
# Velocity S-wave (km/s) = 2.94226 3.33304 3.14373
# Velocity P-wave (km/s) = 4.61004 5.15671 4.89102
#
# Compressibility (1/GPa) = 0.05100045
#
# Stress axis : x y z
#
# Youngs Moduli (GPa) = 54.18896 34.18005 70.28313
#
# Poissons Ratio (x) = -0.07632 0.03821
# Poissons Ratio (y) = -0.12099 0.50312
# Poissons Ratio (z) = 0.02946 0.24468
#
# Static dielectric constant tensor:
#      x y z
#    x 1.654750 0.000000 -0.059370 
#    y 0.000000 1.755900 0.000000 
#    z -0.059370 0.000000 1.685800 
# 
# From -- ./inp_files/41559.got.cif
#   From: 2010.05.17/outbox.cif.g08.bks.cpg/sg12_21_cif.got.tgz:41559.got - 2010.06.03 13:09:07.
