data_PCOD9184216
_publ_section_title
;
Structure prediction by ZEFSAII (Michael W. Deem and Ramdas Pophale) SiO2 
 PCOD9184216
Probable space group: C 2/M
;
_chemical_formula_sum "Si O2"
_cell_formula_units_Z 40
_cell_length_a 11.657388
_cell_length_b 22.875632
_cell_length_c 10.095202
_cell_angle_alpha 90.000000
_cell_angle_beta 142.765188
_cell_angle_gamma 90.000000
_cell_volume 1628.937010
_symmetry_space_group_name_H-M "C 2/M"
_symmetry_group_IT_number 12
_symmetry_cell_setting 'monoclinic'
loop_
_space_group_symop_operation_xyz
x,y,z
-x,y,-z
-x,-y,-z
x,-y,z
1/2+x,1/2+y,z
1/2-x,1/2+y,-z
1/2-x,1/2-y,-z
1/2+x,1/2-y,z
loop_
_atom_site_type_symbol
_atom_site_label
_atom_site_fract_x
_atom_site_fract_y
_atom_site_fract_z
Si Si1 0.879831 0.742215 0.258476
Si Si2 0.307877 0.933670 0.101173
Si Si3 0.862167 0.647051 0.606723
Si Si4 0.228201 0.065871 0.714955
Si Si5 0.546487 0.331329 0.872245
O O1 0.882056 0.807581 0.205802
O O2 0.000000 0.738521 0.500000
O O3 0.006448 0.704478 0.270042
O O4 0.673422 0.713050 0.077583
O O5 0.497737 0.901707 0.324367
O O6 0.295473 0.000000 0.131822
O O7 0.300066 0.931418 0.932256
O O8 0.131204 0.894363 0.981648
O O9 0.799734 0.618367 0.688047
O O10 0.676772 0.662658 0.351973
O O11 0.000000 0.067536 0.500000
O O12 0.282560 0.000000 0.713812
#
# Coordination Sequence:
#
# PCOD9184216 Si02
#       5
#     8   8   8   8   8
#     4  10  24  43  62  86 125 168 213 263 304 361
#     4  10  21  36  59  94 132 162 195 251 322 382
#     4  11  21  36  59  89 121 162 211 249 304 368
#     4  10  19  33  57  92 132 168 199 248 319 380
#     4  10  22  41  62  93 122 162 216 253 311 375
#
# _framework density 24.555892
#
# number of rings (size 3 to 8) (size 9 to 14) (size 15 to 20)
#    0.000    1.800    2.000    1.800    2.800    3.200 
#    3.600    0.000    0.000   15.000    0.000   18.200 
#    0.000    0.000    0.000    0.000    0.000    0.000 
#
# Total GULP energy -111773.863362 kJ/mol
# GULP energy per Si atom -5588.693168 kJ/mol
# Density = 2.450000 g / cm^3
# Si number density = 24.555892 Si / 1000 Ang^3
#
#
#
# Elastic Constant Matrix: (Units=GPa)
#
#
# Indices 1 2 3 4 5 6 
#
# 1 52.2046 12.3158 32.6675 0.0000 6.7869 0.0000
# 2 12.3158 123.3309 38.9814 0.0000 13.5067 0.0000
# 3 32.6675 38.9814 202.3053 0.0000 36.3729 0.0000
# 4 0.0000 0.0000 0.0000 17.9963 0.0000 1.8027
# 5 6.7869 13.5067 36.3729 0.0000 51.6732 0.0000
# 6 0.0000 0.0000 0.0000 1.8027 0.0000 18.6838
#
#
#
# Elastic Compliance Matrix: (Units=1/GPa)
#
#
# Indices 1 2 3 4 5 6 
#
# 1 0.021455 -0.001100 -0.003203 0.000000 -0.000276 0.000000
# 2 -0.001100 0.008761 -0.001288 0.000000 -0.001239 0.000000
# 3 -0.003203 -0.001288 0.006380 0.000000 -0.003733 0.000000
# 4 0.000000 0.000000 0.000000 0.056109 0.000000 -0.005414
# 5 -0.000276 -0.001239 -0.003733 0.000000 0.022340 0.000000
# 6 0.000000 0.000000 0.000000 -0.005414 0.000000 0.054045
#
#
# Mechanical properties :
#
#
# Convention : Reuss Voigt Hill
#
# Bulk Modulus (GPa) = 39.34794 60.64115 49.99454
# Shear Modulus (GPa) = 26.49114 37.26239 31.87677
#
# Velocity S-wave (km/s) = 3.28809 3.89968 3.60687
# Velocity P-wave (km/s) = 5.52032 6.71010 6.14408
#
# Compressibility (1/GPa) = 0.02541429
#
# Stress axis : x y z
#
# Youngs Moduli (GPa) = 46.60913 114.14474 156.75055
#
# Poissons Ratio (x) = 0.12555 0.50206
# Poissons Ratio (y) = 0.05127 0.20185
# Poissons Ratio (z) = 0.14929 0.14698
#
# Static dielectric constant tensor:
#      x y z
#    x 2.029200 0.000000 -0.034000 
#    y 0.000000 1.933740 0.000000 
#    z -0.034000 0.000000 1.923650 
# 
# From -- ./inp_files/148798.got.cif
#   From: 2010.05.17/outbox.cif.g08.bks.cpg/sg12_75_cif.got.tgz:148798.got - 2010.06.03 13:09:07.
