data_PCOD9184648
_publ_section_title
;
Structure prediction by ZEFSAII (Michael W. Deem and Ramdas Pophale) SiO2 
 PCOD9184648
Probable space group: C 2/M
;
_chemical_formula_sum "Si O2"
_cell_formula_units_Z 64
_cell_length_a 18.856769
_cell_length_b 30.472642
_cell_length_c 12.301554
_cell_angle_alpha 90.000000
_cell_angle_beta 30.801208
_cell_angle_gamma 90.000000
_cell_volume 3619.587221
_symmetry_space_group_name_H-M "C 2/M"
_symmetry_group_IT_number 12
_symmetry_cell_setting 'monoclinic'
loop_
_space_group_symop_operation_xyz
x,y,z
-x,y,-z
-x,-y,-z
x,-y,z
1/2+x,1/2+y,z
1/2-x,1/2+y,-z
1/2-x,1/2-y,-z
1/2+x,1/2-y,z
loop_
_atom_site_type_symbol
_atom_site_label
_atom_site_fract_x
_atom_site_fract_y
_atom_site_fract_z
Si Si1 0.415092 0.593246 0.290787
Si Si2 0.663156 0.947137 0.488033
Si Si3 0.364413 0.222086 0.221942
Si Si4 0.388955 0.692042 0.323382
Si Si5 0.282025 0.552770 0.104147
Si Si6 0.391651 0.704538 0.557628
Si Si7 0.351483 0.053174 0.952206
Si Si8 0.639161 0.398098 0.380998
O O1 0.291727 0.570478 0.387926
O O2 0.425500 0.643762 0.238626
O O3 0.378327 0.593307 0.467798
O O4 0.563497 0.570632 0.082032
O O5 0.686569 0.933617 0.331576
O O6 0.512898 0.934082 0.731282
O O7 0.666267 0.000000 0.486508
O O8 0.410372 0.267484 0.216006
O O9 0.274562 0.194758 0.427440
O O10 0.251257 0.229867 0.276349
O O11 0.500000 0.198588 0.000000
O O12 0.458866 0.700877 0.348815
O O13 0.287760 0.500000 0.097042
O O14 0.220735 0.565483 0.067670
O O15 0.500000 0.722912 0.500000
O O16 0.351731 0.654768 0.643811
O O17 0.342566 0.000000 0.976033
O O18 0.267900 0.077096 0.157776
O O19 0.500000 0.412212 0.500000
#
# Coordination Sequence:
#
# PCOD9184648 Si02
#       8
#     8   8   8   8   8   8   8   8
#     4  11  20  34  57  81 106 138 176 227 270 307
#     4  10  22  37  51  76 108 142 184 224 266 314
#     4   9  17  33  55  76 102 137 169 204 255 322
#     4   8  19  34  52  77 108 131 171 210 261 316
#     4  10  20  36  57  76 101 145 190 220 259 318
#     4   8  16  32  55  74 100 133 167 213 250 303
#     4  10  21  35  53  75 109 147 176 222 274 313
#     4  10  19  34  53  80 107 136 181 220 265 323
#
# _framework density 17.681574999999999
#
# number of rings (size 3 to 8) (size 9 to 14) (size 15 to 20)
#    0.750    1.750    1.250    1.125    0.000    6.250 
#    0.000    1.875    0.000    1.500    0.000    0.000 
#    0.000    0.000    0.000    0.000    0.000    0.000 
#
# Total GULP energy -178153.341791 kJ/mol
# GULP energy per Si atom -5567.291931 kJ/mol
# Density = 1.764133 g / cm^3
# Si number density = 17.681575 Si / 1000 Ang^3
#
#
#
# Elastic Constant Matrix: (Units=GPa)
#
#
# Indices 1 2 3 4 5 6 
#
# 1 62.0874 15.2795 12.0584 0.0003 -8.7637 -0.0001
# 2 15.2795 18.7927 6.7087 0.0002 2.4810 0.0001
# 3 12.0584 6.7087 59.0006 0.0012 -1.2169 -0.0003
# 4 0.0003 0.0002 0.0012 -3.7358 -0.0002 7.8736
# 5 -8.7637 2.4810 -1.2169 -0.0002 25.7744 0.0000
# 6 -0.0001 0.0001 -0.0003 7.8736 0.0000 28.1833
#
#
#
# Elastic Compliance Matrix: (Units=1/GPa)
#
#
# Indices 1 2 3 4 5 6 
#
# 1 0.022463 -0.018683 -0.002274 0.000000 0.009329 0.000000
# 2 -0.018683 0.071835 -0.004628 0.000001 -0.013486 -0.000001
# 3 -0.002274 -0.004628 0.017951 0.000004 0.000520 -0.000001
# 4 0.000000 0.000001 0.000004 -0.168480 -0.000002 0.047068
# 5 0.009329 -0.013486 0.000520 -0.000002 0.043293 0.000001
# 6 0.000000 -0.000001 -0.000001 0.047068 0.000001 0.022332
#
#
# Mechanical properties :
#
#
# Convention : Reuss Voigt Hill
#
# Bulk Modulus (GPa) = 16.37238 23.10819 19.74029
# Shear Modulus (GPa) = 61.78690 17.10000 39.44345
#
# Velocity S-wave (km/s) = 5.91778 3.11321 4.72822
# Velocity P-wave (km/s) = 7.48152 5.10100 6.40286
#
# Compressibility (1/GPa) = 0.06107848
#
# Stress axis : x y z
#
# Youngs Moduli (GPa) = 44.51843 13.92076 55.70825
#
# Poissons Ratio (x) = 0.26008 0.12668
# Poissons Ratio (y) = 0.83174 0.25780
# Poissons Ratio (z) = 0.10124 0.06442
#
# Static dielectric constant tensor:
#      x y z
#    x 1.619550 0.000000 0.013340 
#    y 0.000000 1.589820 0.000000 
#    z 0.013340 0.000000 1.615880 
# 
# From -- ./inp_files/161170.got.cif
#   From: 2010.05.17/outbox.cif.g08.bks.cpg/sg12_81_cif.got.tgz:161170.got - 2010.06.03 13:09:07.
