data_PCOD9184262
_publ_section_title
;
Structure prediction by ZEFSAII (Michael W. Deem and Ramdas Pophale) SiO2 
 PCOD9184262
Probable space group: C 2/M
;
_chemical_formula_sum "Si O2"
_cell_formula_units_Z 40
_cell_length_a 22.888962
_cell_length_b 11.590009
_cell_length_c 22.538525
_cell_angle_alpha 90.000000
_cell_angle_beta 161.243374
_cell_angle_gamma 90.000000
_cell_volume 1922.571441
_symmetry_space_group_name_H-M "C 2/M"
_symmetry_group_IT_number 12
_symmetry_cell_setting 'monoclinic'
loop_
_space_group_symop_operation_xyz
x,y,z
-x,y,-z
-x,-y,-z
x,-y,z
1/2+x,1/2+y,z
1/2-x,1/2+y,-z
1/2-x,1/2-y,-z
1/2+x,1/2-y,z
loop_
_atom_site_type_symbol
_atom_site_label
_atom_site_fract_x
_atom_site_fract_y
_atom_site_fract_z
Si Si1 0.281092 0.867926 0.404070
Si Si2 0.954785 0.703447 0.126508
Si Si3 0.722019 0.628933 0.209688
Si Si4 0.168113 0.375517 0.115531
Si Si5 0.888122 0.630062 0.191169
O O1 0.299136 0.861288 0.350403
O O2 0.461894 0.845241 0.615002
O O3 0.128171 0.779983 0.277672
O O4 0.224391 0.000000 0.362627
O O5 0.974657 0.641999 0.208822
O O6 0.910821 0.627686 0.026777
O O7 0.780861 0.785952 0.966115
O O8 0.775574 0.500000 0.237493
O O9 0.763994 0.750868 0.218119
O O10 0.500000 0.625283 0.000000
O O11 0.265825 0.500000 0.217828
O O12 0.000000 0.375196 0.000000
O O13 0.822362 0.500000 0.135641
#
# Coordination Sequence:
#
# PCOD9184262 Si02
#       5
#     8   8   8   8   8
#     4  10  19  35  58  84 114 148 193 245 291 342
#     4  11  20  37  60  80 114 156 189 234 296 348
#     4   9  16  30  55  83 110 148 193 234 284 340
#     4  10  19  33  58  87 114 153 195 234 290 350
#     4  10  23  37  55  87 116 147 197 244 289 347
#
# _framework density 20.805468999999999
#
# number of rings (size 3 to 8) (size 9 to 14) (size 15 to 20)
#    0.000    2.000    4.000    1.800    0.000    0.800 
#    0.000    1.000    0.000   14.400    0.000    0.000 
#    0.000    0.000    0.000    0.000    0.000    0.000 
#
# Total GULP energy -111629.256818 kJ/mol
# GULP energy per Si atom -5581.462841 kJ/mol
# Density = 2.075811 g / cm^3
# Si number density = 20.805469 Si / 1000 Ang^3
#
#
#
# Elastic Constant Matrix: (Units=GPa)
#
#
# Indices 1 2 3 4 5 6 
#
# 1 91.2253 37.4897 22.1232 -0.0019 -26.8358 -0.0011
# 2 37.4897 165.8999 48.4437 -0.0013 -7.0806 -0.0004
# 3 22.1232 48.4437 72.8184 -0.0034 -38.6458 -0.0021
# 4 -0.0019 -0.0013 -0.0034 21.5332 -0.0026 -8.0836
# 5 -26.8358 -7.0806 -38.6458 -0.0026 30.8578 -0.0016
# 6 -0.0011 -0.0004 -0.0021 -8.0836 -0.0016 10.1430
#
#
#
# Elastic Compliance Matrix: (Units=1/GPa)
#
#
# Indices 1 2 3 4 5 6 
#
# 1 0.026615 -0.013276 0.034034 0.000031 0.062724 0.000044
# 2 -0.013276 0.016608 -0.033161 -0.000024 -0.049265 -0.000035
# 3 0.034034 -0.033161 0.110704 0.000081 0.160633 0.000115
# 4 0.000031 -0.000024 0.000081 0.066265 0.000131 0.052812
# 5 0.062724 -0.049265 0.160633 0.000131 0.276825 0.000186
# 6 0.000044 -0.000035 0.000115 0.052812 0.000186 0.140680
#
#
# Mechanical properties :
#
#
# Convention : Reuss Voigt Hill
#
# Bulk Modulus (GPa) = 7.74457 60.67298 34.20878
# Shear Modulus (GPa) = 7.08672 27.29928 17.19300
#
# Velocity S-wave (km/s) = 1.84759 3.62625 2.87778
# Velocity P-wave (km/s) = 2.87783 6.83800 5.24596
#
# Compressibility (1/GPa) = 0.12912264
#
# Stress axis : x y z
#
# Youngs Moduli (GPa) = 37.57218 60.21059 9.03309
#
# Poissons Ratio (x) = 0.79933 -0.30743
# Poissons Ratio (y) = 0.49879 0.29955
# Poissons Ratio (z) = -1.27874 1.99666
#
# Static dielectric constant tensor:
#      x y z
#    x 1.764470 0.000000 -0.017830 
#    y 0.000000 1.770180 0.000000 
#    z -0.017830 0.000000 1.708180 
# 
# From -- ./inp_files/94645.got.cif
#   From: 2010.05.17/outbox.cif.g08.bks.cpg/sg12_48_cif.got.tgz:94645.got - 2010.06.03 13:09:07.
