data_PCOD9184466
_publ_section_title
;
Structure prediction by ZEFSAII (Michael W. Deem and Ramdas Pophale) SiO2 
 PCOD9184466
Probable space group: C 2/M
;
_chemical_formula_sum "Si O2"
_cell_formula_units_Z 56
_cell_length_a 17.922131
_cell_length_b 12.152202
_cell_length_c 18.397476
_cell_angle_alpha 90.000000
_cell_angle_beta 55.199631
_cell_angle_gamma 90.000000
_cell_volume 3290.205374
_symmetry_space_group_name_H-M "C 2/M"
_symmetry_group_IT_number 12
_symmetry_cell_setting 'monoclinic'
loop_
_space_group_symop_operation_xyz
x,y,z
-x,y,-z
-x,-y,-z
x,-y,z
1/2+x,1/2+y,z
1/2-x,1/2+y,-z
1/2-x,1/2-y,-z
1/2+x,1/2-y,z
loop_
_atom_site_type_symbol
_atom_site_label
_atom_site_fract_x
_atom_site_fract_y
_atom_site_fract_z
Si Si1 0.519756 0.127688 0.909710
Si Si2 0.565533 0.632533 0.568103
Si Si3 0.929462 0.129829 0.273627
Si Si4 0.268869 0.369111 0.087033
Si Si5 0.189678 0.245303 0.784525
Si Si6 0.609440 0.721739 0.111027
Si Si7 0.137691 0.866866 0.373904
O O1 0.624461 0.151381 0.836998
O O2 0.454504 0.187645 0.890524
O O3 0.498958 0.000000 0.920771
O O4 0.500000 0.175169 0.000000
O O5 0.571031 0.500000 0.567836
O O6 0.589260 0.675097 0.634850
O O7 0.460583 0.656343 0.607103
O O8 0.626824 0.664292 0.465168
O O9 0.863995 0.182417 0.249711
O O10 0.036238 0.150463 0.196253
O O11 0.913774 0.000000 0.281729
O O12 0.247720 0.500000 0.099363
O O13 0.303696 0.329653 0.146833
O O14 0.184396 0.288075 0.115393
O O15 0.340180 0.344968 0.981670
O O16 0.285423 0.294043 0.706127
O O17 0.153721 0.000000 0.359538
#
# Coordination Sequence:
#
# PCOD9184466 Si02
#       7
#     8   8   8   8   8   8   8
#     4  10  19  34  50  70 101 133 170 215 249 286
#     4   8  16  32  53  76 102 131 167 214 262 296
#     4  10  20  34  52  75 104 137 170 209 252 306
#     4  11  22  36  51  74 104 133 169 215 253 300
#     4  11  21  32  50  78 104 139 173 201 255 313
#     4  10  21  36  53  73  96 136 178 205 254 305
#     4   9  17  32  54  79 104 130 169 219 256 294
#
# _framework density 17.020213999999999
#
# number of rings (size 3 to 8) (size 9 to 14) (size 15 to 20)
#    0.000    2.143    1.429    3.429    0.000    0.571 
#    0.000    3.571    0.000    0.000    0.000   20.000 
#    0.000    0.000    0.000    0.000    0.000    0.000 
#
# Total GULP energy -155981.162477 kJ/mol
# GULP energy per Si atom -5570.755803 kJ/mol
# Density = 1.698148 g / cm^3
# Si number density = 17.020214 Si / 1000 Ang^3
#
#
#
# Elastic Constant Matrix: (Units=GPa)
#
#
# Indices 1 2 3 4 5 6 
#
# 1 59.5921 12.9895 25.1863 0.0000 19.6074 0.0000
# 2 12.9895 42.7497 11.8653 0.0000 4.7038 0.0000
# 3 25.1863 11.8653 71.5286 0.0000 12.4492 0.0000
# 4 0.0000 0.0000 0.0000 19.5523 0.0000 -2.5940
# 5 19.6074 4.7038 12.4492 0.0000 33.9361 0.0000
# 6 0.0000 0.0000 0.0000 -2.5940 0.0000 -4.8064
#
#
#
# Elastic Compliance Matrix: (Units=1/GPa)
#
#
# Indices 1 2 3 4 5 6 
#
# 1 0.023796 -0.004427 -0.005724 0.000000 -0.011035 0.000000
# 2 -0.004427 0.025477 -0.002668 0.000000 0.000006 0.000000
# 3 -0.005724 -0.002668 0.016876 0.000000 -0.002514 0.000000
# 4 0.000000 0.000000 0.000000 0.047728 0.000000 -0.025759
# 5 -0.011035 0.000006 -0.002514 0.000000 0.036765 0.000000
# 6 0.000000 0.000000 0.000000 -0.025759 0.000000 -0.194155
#
#
# Mechanical properties :
#
#
# Convention : Reuss Voigt Hill
#
# Bulk Modulus (GPa) = 24.68519 30.43917 27.56218
# Shear Modulus (GPa) = -1143.75124 17.99168 -562.87978
#
# Velocity S-wave (km/s) = -25.95100 3.25480 -18.20523
# Velocity P-wave (km/s) = 29.72212 5.66109 20.63197
#
# Compressibility (1/GPa) = 0.04051012
#
# Stress axis : x y z
#
# Youngs Moduli (GPa) = 42.02407 39.25075 59.25577
#
# Poissons Ratio (x) = 0.17378 0.33917
# Poissons Ratio (y) = 0.18606 0.15810
# Poissons Ratio (z) = 0.24054 0.10473
#
# Static dielectric constant tensor:
#      x y z
#    x 1.586920 0.000000 0.020520 
#    y 0.000000 1.541480 0.000000 
#    z 0.020520 0.000000 1.615580 
# 
# From -- ./inp_files/223136.got.cif
#   From: 2010.05.17/outbox.cif.g08.bks.cpg/sg12_112_cif.got.tgz:223136.got - 2010.06.03 13:09:07.
