data_PCOD9184034
_publ_section_title
;
Structure prediction by ZEFSAII (Michael W. Deem and Ramdas Pophale) SiO2 
 PCOD9184034
Probable space group: C 2/M
;
_chemical_formula_sum "Si O2"
_cell_formula_units_Z 64
_cell_length_a 30.174155
_cell_length_b 11.871021
_cell_length_c 18.441829
_cell_angle_alpha 90.000000
_cell_angle_beta 151.563594
_cell_angle_gamma 90.000000
_cell_volume 3145.582713
_symmetry_space_group_name_H-M "C 2/M"
_symmetry_group_IT_number 12
_symmetry_cell_setting 'monoclinic'
loop_
_space_group_symop_operation_xyz
x,y,z
-x,y,-z
-x,-y,-z
x,-y,z
1/2+x,1/2+y,z
1/2-x,1/2+y,-z
1/2-x,1/2-y,-z
1/2+x,1/2-y,z
loop_
_atom_site_type_symbol
_atom_site_label
_atom_site_fract_x
_atom_site_fract_y
_atom_site_fract_z
Si Si1 0.024369 0.865963 0.810407
Si Si2 0.544132 0.129678 0.488876
Si Si3 0.645865 0.762407 0.507765
Si Si4 0.715110 0.772954 0.065273
Si Si5 0.505724 0.230580 0.088844
Si Si6 0.695817 0.129548 0.195075
Si Si7 0.657645 0.123200 0.837518
Si Si8 0.812814 0.632978 0.580991
O O1 0.938447 0.819179 0.638705
O O2 0.001929 0.824797 0.859895
O O3 0.031512 0.000000 0.814954
O O4 0.122881 0.806471 0.932855
O O5 0.500000 0.176326 0.500000
O O6 0.620407 0.188365 0.549854
O O7 0.451756 0.130480 0.306367
O O8 0.570855 0.000000 0.541738
O O9 0.743395 0.699160 0.660021
O O10 0.656147 0.854377 0.458818
O O11 0.723190 0.834015 0.153006
O O12 0.805169 0.702844 0.171970
O O13 0.704482 0.854587 0.981551
O O14 0.597213 0.157710 0.239247
O O15 0.500000 0.280274 0.000000
O O16 0.413756 0.153843 0.959685
O O17 0.715761 0.000000 0.235767
O O18 0.681178 0.000000 0.845583
O O19 0.780510 0.500000 0.546052
O O20 0.750000 0.750000 0.500000
#
# Coordination Sequence:
#
# PCOD9184034 Si02
#       8
#     8   8   8   8   8   8   8   8
#     4  10  21  38  60  87 123 168 205 251 319 381
#     4  10  20  35  58  86 117 159 207 257 311 366
#     4  11  22  40  61  90 127 164 208 259 313 377
#     4  10  20  36  55  85 117 153 204 260 307 371
#     4  10  23  42  64  94 123 158 205 261 306 368
#     4  11  23  39  62  88 120 160 205 255 311 371
#     4  10  19  33  57  81 112 156 202 254 309 368
#     4  11  25  44  70 100 131 168 213 260 318 383
#
# _framework density 20.345991000000001
#
# number of rings (size 3 to 8) (size 9 to 14) (size 15 to 20)
#    0.000    1.625    1.250    3.375    0.000    4.750 
#    0.000    8.125    0.000    1.500    0.000    0.000 
#    0.000    0.000    0.000    0.000    0.000    0.000 
#
# Total GULP energy -178410.559688 kJ/mol
# GULP energy per Si atom -5575.329990 kJ/mol
# Density = 2.029968 g / cm^3
# Si number density = 20.345991 Si / 1000 Ang^3
#
#
#
# Elastic Constant Matrix: (Units=GPa)
#
#
# Indices 1 2 3 4 5 6 
#
# 1 79.8851 15.0090 32.4001 0.0000 -7.5777 0.0000
# 2 15.0090 88.6551 38.7971 0.0000 7.2573 0.0000
# 3 32.4001 38.7971 94.7658 0.0000 -1.8169 0.0000
# 4 0.0000 0.0000 0.0000 6.2484 0.0000 10.6455
# 5 -7.5777 7.2573 -1.8169 0.0000 31.5775 0.0000
# 6 0.0000 0.0000 0.0000 10.6455 0.0000 -0.7901
#
#
#
# Elastic Compliance Matrix: (Units=1/GPa)
#
#
# Indices 1 2 3 4 5 6 
#
# 1 0.014903 -0.000739 -0.004726 0.000000 0.003474 0.000000
# 2 -0.000739 0.014173 -0.005622 0.000000 -0.003758 0.000000
# 3 -0.004726 -0.005622 0.014489 0.000000 0.000991 0.000000
# 4 0.000000 0.000000 0.000000 0.006680 0.000000 0.090015
# 5 0.003474 -0.003758 0.000991 0.000000 0.033423 0.000000
# 6 0.000000 0.000000 0.000000 0.090015 0.000000 -0.052835
#
#
# Mechanical properties :
#
#
# Convention : Reuss Voigt Hill
#
# Bulk Modulus (GPa) = 46.74943 48.41317 47.58130
# Shear Modulus (GPa) = 83.14401 19.21384 51.17893
#
# Velocity S-wave (km/s) = 6.39951 3.07637 5.02085
# Velocity P-wave (km/s) = 8.81091 6.03865 7.55306
#
# Compressibility (1/GPa) = 0.02139064
#
# Stress axis : x y z
#
# Youngs Moduli (GPa) = 67.09939 70.55906 69.01964
#
# Poissons Ratio (x) = 0.05216 0.32619
# Poissons Ratio (y) = 0.04960 0.38800
# Poissons Ratio (z) = 0.31712 0.39665
#
# Static dielectric constant tensor:
#      x y z
#    x 1.754500 0.000000 0.014400 
#    y 0.000000 1.712380 0.000000 
#    z 0.014400 0.000000 1.734190 
# 
# From -- ./inp_files/296503.got.cif
#   From: 2010.05.17/outbox.cif.g08.bks.cpg/sg12_149_cif.got.tgz:296503.got - 2010.06.03 13:09:07.
