data_PCOD9184733
_publ_section_title
;
Structure prediction by ZEFSAII (Michael W. Deem and Ramdas Pophale) SiO2 
 PCOD9184733
Probable space group: C 2/M
;
_chemical_formula_sum "Si O2"
_cell_formula_units_Z 56
_cell_length_a 21.216623
_cell_length_b 7.763927
_cell_length_c 17.889586
_cell_angle_alpha 90.000000
_cell_angle_beta 73.637968
_cell_angle_gamma 90.000000
_cell_volume 2827.504874
_symmetry_space_group_name_H-M "C 2/M"
_symmetry_group_IT_number 12
_symmetry_cell_setting 'monoclinic'
loop_
_space_group_symop_operation_xyz
x,y,z
-x,y,-z
-x,-y,-z
x,-y,z
1/2+x,1/2+y,z
1/2-x,1/2+y,-z
1/2-x,1/2-y,-z
1/2+x,1/2-y,z
loop_
_atom_site_type_symbol
_atom_site_label
_atom_site_fract_x
_atom_site_fract_y
_atom_site_fract_z
Si Si1 0.595330 0.211063 0.164547
Si Si2 0.661751 0.797325 0.833201
Si Si3 0.304899 0.202291 0.739874
Si Si4 0.177155 0.707444 0.995733
Si Si5 0.045843 0.792839 0.591559
Si Si6 0.903413 0.791688 0.583019
Si Si7 0.447514 0.206362 0.243186
O O1 0.644807 0.269123 0.213422
O O2 0.521307 0.271632 0.203346
O O3 0.594751 0.000000 0.166559
O O4 0.625034 0.266128 0.075222
O O5 0.733482 0.782409 0.772626
O O6 0.665225 0.724228 0.916135
O O7 0.605961 0.724177 0.797276
O O8 0.647198 0.000000 0.846524
O O9 0.340577 0.229073 0.649043
O O10 0.296328 0.000000 0.756095
O O11 0.173081 0.500000 0.994522
O O12 0.250000 0.750000 0.000000
O O13 0.088195 0.735291 0.505799
O O14 0.069748 0.740662 0.664874
O O15 0.970515 0.733852 0.602541
O O16 0.044277 0.000000 0.589315
O O17 0.902581 0.000000 0.584552
O O18 0.449890 0.000000 0.233882
#
# Coordination Sequence:
#
# PCOD9184733 Si02
#       7
#     8   8   8   8   8   8   8
#     4   9  18  32  53  79 105 135 174 221 263 305
#     4  10  22  36  54  78 108 146 179 216 268 321
#     4  11  20  33  55  82 108 138 179 224 265 311
#     4  10  19  34  54  78 106 138 178 221 265 310
#     4   9  18  33  54  80 109 141 173 216 268 316
#     4   9  18  33  54  81 110 137 175 220 264 317
#     4  10  20  36  54  78 111 142 177 219 266 320
#
# _framework density 19.805446
#
# number of rings (size 3 to 8) (size 9 to 14) (size 15 to 20)
#    0.000    2.286    2.857    1.286    0.000    1.714 
#    0.000    5.714    0.000    0.000    0.000    3.000 
#    0.000    0.000    0.000    0.000    0.000    0.000 
#
# Total GULP energy -156278.237420 kJ/mol
# GULP energy per Si atom -5581.365622 kJ/mol
# Density = 1.976037 g / cm^3
# Si number density = 19.805446 Si / 1000 Ang^3
#
#
#
# Elastic Constant Matrix: (Units=GPa)
#
#
# Indices 1 2 3 4 5 6 
#
# 1 127.4953 1.1205 67.7656 0.0000 18.4195 0.0000
# 2 1.1205 26.7798 -5.3486 0.0000 4.4518 0.0000
# 3 67.7656 -5.3486 145.4737 0.0000 11.0578 0.0000
# 4 0.0000 0.0000 0.0000 3.5900 0.0000 3.7731
# 5 18.4195 4.4518 11.0578 0.0000 27.5472 0.0000
# 6 0.0000 0.0000 0.0000 3.7731 0.0000 15.0108
#
#
#
# Elastic Compliance Matrix: (Units=1/GPa)
#
#
# Indices 1 2 3 4 5 6 
#
# 1 0.011201 -0.000522 -0.004821 0.000000 -0.005470 0.000000
# 2 -0.000522 0.038936 0.002194 0.000000 -0.006824 0.000000
# 3 -0.004821 0.002194 0.009265 0.000000 -0.000850 0.000000
# 4 0.000000 0.000000 0.000000 0.378552 0.000000 -0.095152
# 5 -0.005470 -0.006824 -0.000850 0.000000 0.041403 0.000000
# 6 0.000000 0.000000 0.000000 -0.095152 0.000000 0.090536
#
#
# Mechanical properties :
#
#
# Convention : Reuss Voigt Hill
#
# Bulk Modulus (GPa) = 18.83165 47.42485 33.12825
# Shear Modulus (GPa) = 8.41903 24.97702 16.69803
#
# Velocity S-wave (km/s) = 2.06400 3.55508 2.90677
# Velocity P-wave (km/s) = 3.89988 6.39130 5.29424
#
# Compressibility (1/GPa) = 0.05310209
#
# Stress axis : x y z
#
# Youngs Moduli (GPa) = 89.28033 25.68328 107.93171
#
# Poissons Ratio (x) = 0.01341 0.52034
# Poissons Ratio (y) = 0.04663 -0.23675
# Poissons Ratio (z) = 0.43042 -0.05634
#
# Static dielectric constant tensor:
#      x y z
#    x 1.673790 0.000000 0.014810 
#    y 0.000000 1.737860 0.000000 
#    z 0.014810 0.000000 1.700610 
# 
# From -- ./inp_files/280912.got.cif
#   From: 2010.05.17/outbox.cif.g08.bks.cpg/sg12_141_cif.got.tgz:280912.got - 2010.06.03 13:09:07.
