data_PCOD9184072
_publ_section_title
;
Structure prediction by ZEFSAII (Michael W. Deem and Ramdas Pophale) SiO2 
 PCOD9184072
Probable space group: C 2/M
;
_chemical_formula_sum "Si O2"
_cell_formula_units_Z 40
_cell_length_a 9.776875
_cell_length_b 15.751421
_cell_length_c 9.545278
_cell_angle_alpha 90.000000
_cell_angle_beta 74.292387
_cell_angle_gamma 90.000000
_cell_volume 1415.074834
_symmetry_space_group_name_H-M "C 2/M"
_symmetry_group_IT_number 12
_symmetry_cell_setting 'monoclinic'
loop_
_space_group_symop_operation_xyz
x,y,z
-x,y,-z
-x,-y,-z
x,-y,z
1/2+x,1/2+y,z
1/2-x,1/2+y,-z
1/2-x,1/2-y,-z
1/2+x,1/2-y,z
loop_
_atom_site_type_symbol
_atom_site_label
_atom_site_fract_x
_atom_site_fract_y
_atom_site_fract_z
Si Si1 0.017013 0.904580 0.193080
Si Si2 0.303417 0.908432 0.937362
Si Si3 0.263876 0.599518 0.628061
Si Si4 0.986040 0.719085 0.201525
Si Si5 0.639004 0.135056 0.385188
O O1 0.091756 0.900995 0.324728
O O2 0.941201 0.814731 0.186643
O O3 0.957123 0.000000 0.195599
O O4 0.150242 0.900998 0.048398
O O5 0.396964 0.823794 0.932675
O O6 0.311253 0.912692 0.766648
O O7 0.358706 0.000000 0.974348
O O8 0.222276 0.500000 0.630246
O O9 0.144181 0.654184 0.742900
O O10 0.256542 0.637221 0.473082
O O11 0.071316 0.717668 0.328361
O O12 0.500000 0.096939 0.500000
#
# Coordination Sequence:
#
# PCOD9184072 Si02
#       5
#     8   8   8   8   8
#     4  10  21  35  52  79 109 139 175 215 258 310
#     4   9  17  30  52  77 105 137 170 214 267 311
#     4  10  19  33  57  84 105 130 175 225 265 306
#     4   9  19  32  53  75 110 138 171 210 270 308
#     4   8  17  29  52  75 108 130 170 209 272 303
#
# _framework density 28.267057000000001
#
# number of rings (size 3 to 8) (size 9 to 14) (size 15 to 20)
#    1.200    1.600    0.000    1.800    0.000    3.200 
#    0.000    3.000    0.000    7.800    0.000    4.200 
#    0.000    0.000    0.000    0.000    0.000    0.000 
#
# Total GULP energy -111815.379681 kJ/mol
# GULP energy per Si atom -5590.768984 kJ/mol
# Density = 2.820272 g / cm^3
# Si number density = 28.267057 Si / 1000 Ang^3
#
#
#
# Elastic Constant Matrix: (Units=GPa)
#
#
# Indices 1 2 3 4 5 6 
#
# 1 99.0348 42.4560 22.7043 0.0000 2.3667 0.0000
# 2 42.4560 245.9304 -5.0637 0.0000 -15.7486 0.0000
# 3 22.7043 -5.0637 124.7146 0.0000 11.6654 0.0000
# 4 0.0000 0.0000 0.0000 24.3922 0.0000 3.3049
# 5 2.3667 -15.7486 11.6654 0.0000 47.0946 0.0000
# 6 0.0000 0.0000 0.0000 3.3049 0.0000 190.7409
#
#
#
# Elastic Compliance Matrix: (Units=1/GPa)
#
#
# Indices 1 2 3 4 5 6 
#
# 1 0.011487 -0.002074 -0.002105 0.000000 -0.000749 0.000000
# 2 -0.002074 0.004530 0.000420 0.000000 0.001515 0.000000
# 3 -0.002105 0.000420 0.008595 0.000000 -0.001883 0.000000
# 4 0.000000 0.000000 0.000000 0.041093 0.000000 -0.000712
# 5 -0.000749 0.001515 -0.001883 0.000000 0.022245 0.000000
# 6 0.000000 0.000000 0.000000 -0.000712 0.000000 0.005255
#
#
# Mechanical properties :
#
#
# Convention : Reuss Voigt Hill
#
# Bulk Modulus (GPa) = 58.50653 65.54144 62.02399
# Shear Modulus (GPa) = 46.98266 79.75108 63.36687
#
# Velocity S-wave (km/s) = 4.08131 5.31739 4.73982
# Velocity P-wave (km/s) = 6.55379 7.80618 7.20724
#
# Compressibility (1/GPa) = 0.01709211
#
# Stress axis : x y z
#
# Youngs Moduli (GPa) = 87.05220 220.75151 116.35011
#
# Poissons Ratio (x) = 0.45794 0.24496
# Poissons Ratio (y) = 0.18059 -0.04885
# Poissons Ratio (z) = 0.18328 -0.09269
#
# Static dielectric constant tensor:
#      x y z
#    x 2.222150 0.000000 0.048100 
#    y 0.000000 2.092260 0.000000 
#    z 0.048100 0.000000 2.260030 
# 
# From -- ./inp_files/129113.got.cif
#   From: 2010.05.17/outbox.cif.g08.bks.cpg/sg12_65_cif.got.tgz:129113.got - 2010.06.03 13:09:07.
