data_PCOD9184192
_publ_section_title
;
Structure prediction by ZEFSAII (Michael W. Deem and Ramdas Pophale) SiO2 
 PCOD9184192
Probable space group: C 2/M
;
_chemical_formula_sum "Si O2"
_cell_formula_units_Z 56
_cell_length_a 23.969339
_cell_length_b 7.767512
_cell_length_c 16.962363
_cell_angle_alpha 90.000000
_cell_angle_beta 131.390157
_cell_angle_gamma 90.000000
_cell_volume 2369.276152
_symmetry_space_group_name_H-M "C 2/M"
_symmetry_group_IT_number 12
_symmetry_cell_setting 'monoclinic'
loop_
_space_group_symop_operation_xyz
x,y,z
-x,y,-z
-x,-y,-z
x,-y,z
1/2+x,1/2+y,z
1/2-x,1/2+y,-z
1/2-x,1/2-y,-z
1/2+x,1/2-y,z
loop_
_atom_site_type_symbol
_atom_site_label
_atom_site_fract_x
_atom_site_fract_y
_atom_site_fract_z
Si Si1 0.187967 0.698863 0.143448
Si Si2 0.324920 0.288754 0.163461
Si Si3 0.650923 0.209302 0.526764
Si Si4 0.548455 0.802850 0.292522
Si Si5 0.184427 0.198974 0.318440
Si Si6 0.072643 0.202344 0.607406
Si Si7 0.604444 0.300053 0.925641
O O1 0.204257 0.500000 0.176532
O O2 0.253693 0.766204 0.147455
O O3 0.181288 0.790936 0.220557
O O4 0.115859 0.710688 0.020045
O O5 0.324151 0.500000 0.160628
O O6 0.396073 0.230373 0.281510
O O7 0.338461 0.228425 0.087286
O O8 0.585565 0.269619 0.407290
O O9 0.733779 0.263707 0.580095
O O10 0.635325 0.276015 0.599584
O O11 0.650374 0.000000 0.526928
O O12 0.616702 0.797069 0.294812
O O13 0.477098 0.713456 0.188451
O O14 0.527242 0.000000 0.287482
O O15 0.177444 0.000000 0.335943
O O16 0.000000 0.283517 0.500000
O O17 0.058285 0.000000 0.606737
O O18 0.620840 0.500000 0.953862
#
# Coordination Sequence:
#
# PCOD9184192 Si02
#       7
#     8   8   8   8   8   8   8
#     4  11  22  40  64  91 123 161 203 250 303 361
#     4   9  19  36  59  89 123 159 201 245 296 357
#     4  10  22  39  60  89 124 157 199 249 301 359
#     4  11  24  42  62  89 123 161 202 250 307 363
#     4  11  23  41  64  92 121 158 205 252 302 359
#     4  10  19  33  57  88 123 163 202 241 292 356
#     4  11  23  41  63  90 123 160 204 254 302 357
#
# _framework density 23.635911
#
# number of rings (size 3 to 8) (size 9 to 14) (size 15 to 20)
#    0.000    1.571    1.429    3.429    0.000    3.714 
#    0.000    6.429    0.000    0.000    0.000    0.000 
#    0.000    0.000    0.000    0.000    0.000    0.000 
#
# Total GULP energy -156603.246248 kJ/mol
# GULP energy per Si atom -5592.973080 kJ/mol
# Density = 2.358211 g / cm^3
# Si number density = 23.635911 Si / 1000 Ang^3
#
#
#
# Elastic Constant Matrix: (Units=GPa)
#
#
# Indices 1 2 3 4 5 6 
#
# 1 37.6756 -8.0330 -4.0210 0.0000 2.6524 0.0000
# 2 -8.0330 54.4574 -0.8332 0.0000 2.9543 0.0000
# 3 -4.0210 -0.8332 112.0556 0.0000 -5.5338 0.0000
# 4 0.0000 0.0000 0.0000 6.7791 0.0000 -2.0131
# 5 2.6524 2.9543 -5.5338 0.0000 34.3810 0.0000
# 6 0.0000 0.0000 0.0000 -2.0131 0.0000 19.8279
#
#
#
# Elastic Compliance Matrix: (Units=1/GPa)
#
#
# Indices 1 2 3 4 5 6 
#
# 1 0.027707 0.004229 0.000909 0.000000 -0.002355 0.000000
# 2 0.004229 0.019095 0.000198 0.000000 -0.001935 0.000000
# 3 0.000909 0.000198 0.009026 0.000000 0.001366 0.000000
# 4 0.000000 0.000000 0.000000 0.152097 0.000000 0.015442
# 5 -0.002355 -0.001935 0.001366 0.000000 0.029654 0.000000
# 6 0.000000 0.000000 0.000000 0.015442 0.000000 0.052002
#
#
# Mechanical properties :
#
#
# Convention : Reuss Voigt Hill
#
# Bulk Modulus (GPa) = 15.03766 19.82379 17.43072
# Shear Modulus (GPa) = 16.60721 26.66933 21.63827
#
# Velocity S-wave (km/s) = 2.65359 3.36272 3.02898
# Velocity P-wave (km/s) = 3.97048 4.84588 4.42986
#
# Compressibility (1/GPa) = 0.06649973
#
# Stress axis : x y z
#
# Youngs Moduli (GPa) = 36.09219 52.37039 110.79496
#
# Poissons Ratio (x) = -0.22146 -0.10076
# Poissons Ratio (y) = -0.15262 -0.02196
# Poissons Ratio (z) = -0.03282 -0.01038
#
# Static dielectric constant tensor:
#      x y z
#    x 1.894980 0.000000 0.037270 
#    y 0.000000 1.839870 0.000000 
#    z 0.037270 0.000000 1.924430 
# 
# From -- ./inp_files/288226.got.cif
#   From: 2010.05.17/outbox.cif.g08.bks.cpg/sg12_145_cif.got.tgz:288226.got - 2010.06.03 13:09:07.
