data_PCOD9184677
_publ_section_title
;
Structure prediction by ZEFSAII (Michael W. Deem and Ramdas Pophale) SiO2 
 PCOD9184677
Probable space group: C 2/M
;
_chemical_formula_sum "Si O2"
_cell_formula_units_Z 56
_cell_length_a 11.999348
_cell_length_b 14.038274
_cell_length_c 16.514954
_cell_angle_alpha 90.000000
_cell_angle_beta 111.997332
_cell_angle_gamma 90.000000
_cell_volume 2579.424155
_symmetry_space_group_name_H-M "C 2/M"
_symmetry_group_IT_number 12
_symmetry_cell_setting 'monoclinic'
loop_
_space_group_symop_operation_xyz
x,y,z
-x,y,-z
-x,-y,-z
x,-y,z
1/2+x,1/2+y,z
1/2-x,1/2+y,-z
1/2-x,1/2-y,-z
1/2+x,1/2-y,z
loop_
_atom_site_type_symbol
_atom_site_label
_atom_site_fract_x
_atom_site_fract_y
_atom_site_fract_z
Si Si1 0.328095 0.609606 0.986548
Si Si2 0.491654 0.107148 0.633563
Si Si3 0.137597 0.683147 0.061138
Si Si4 0.653781 0.752025 0.314060
Si Si5 0.797921 0.392564 0.437231
Si Si6 0.782908 0.109764 0.245365
Si Si7 0.506036 0.391537 0.183290
O O1 0.327154 0.500000 0.954528
O O2 0.214967 0.627237 0.014701
O O3 0.442160 0.618592 0.078833
O O4 0.327590 0.704195 0.931450
O O5 0.458969 0.183265 0.691736
O O6 0.613481 0.119458 0.616044
O O7 0.383552 0.114439 0.538377
O O8 0.491372 0.000000 0.666763
O O9 0.173528 0.634976 0.155088
O O10 0.000000 0.675245 0.000000
O O11 0.696674 0.686100 0.399722
O O12 0.761437 0.820100 0.314164
O O13 0.610526 0.680948 0.232410
O O14 0.748458 0.500000 0.422140
O O15 0.901853 0.123203 0.222999
O O16 0.779133 0.000000 0.269694
O O17 0.548278 0.500000 0.201629
#
# Coordination Sequence:
#
# PCOD9184677 Si02
#       7
#     8   8   8   8   8   8   8
#     4   9  19  35  53  73  99 131 168 209 252 295
#     4   9  19  35  52  73 104 134 161 202 251 290
#     4  10  19  34  54  74  97 131 170 207 249 298
#     4  12  19  31  55  79  97 129 175 204 233 294
#     4   9  19  35  53  75 102 131 164 204 248 290
#     4  10  22  36  49  72 106 135 160 201 257 302
#     4   9  19  35  51  71 103 135 161 201 255 298
#
# _framework density 21.710272
#
# number of rings (size 3 to 8) (size 9 to 14) (size 15 to 20)
#    0.000    2.286    0.000    5.143    0.000    1.429 
#    0.000    1.429    0.000    5.143    0.000   12.000 
#    0.000    0.000    0.000    0.000    0.000    0.000 
#
# Total GULP energy -156430.539926 kJ/mol
# GULP energy per Si atom -5586.804997 kJ/mol
# Density = 2.166086 g / cm^3
# Si number density = 21.710272 Si / 1000 Ang^3
#
#
#
# Elastic Constant Matrix: (Units=GPa)
#
#
# Indices 1 2 3 4 5 6 
#
# 1 26.5820 21.2874 -6.6483 0.0000 0.0304 0.0000
# 2 21.2874 142.9522 19.1812 0.0000 1.1822 0.0000
# 3 -6.6483 19.1812 20.6166 0.0000 -0.3305 0.0000
# 4 0.0000 0.0000 0.0000 24.0784 0.0000 3.8186
# 5 0.0304 1.1822 -0.3305 0.0000 24.6669 0.0000
# 6 0.0000 0.0000 0.0000 3.8186 0.0000 25.5044
#
#
#
# Elastic Compliance Matrix: (Units=1/GPa)
#
#
# Indices 1 2 3 4 5 6 
#
# 1 0.054352 -0.011946 0.028656 0.000000 0.000890 0.000000
# 2 -0.011946 0.010625 -0.013748 0.000000 -0.000679 0.000000
# 3 0.028656 -0.013748 0.070561 0.000000 0.001569 0.000000
# 4 0.000000 0.000000 0.000000 0.042541 0.000000 -0.006369
# 5 0.000890 -0.000679 0.001569 0.000000 0.040593 0.000000
# 6 0.000000 0.000000 0.000000 -0.006369 0.000000 0.040163
#
#
# Mechanical properties :
#
#
# Convention : Reuss Voigt Hill
#
# Bulk Modulus (GPa) = 7.06907 28.64348 17.85628
# Shear Modulus (GPa) = 16.66306 25.27197 20.96752
#
# Velocity S-wave (km/s) = 2.77342 3.41553 3.11108
# Velocity P-wave (km/s) = 3.67682 5.36438 4.59867
#
# Compressibility (1/GPa) = 0.14146128
#
# Stress axis : x y z
#
# Youngs Moduli (GPa) = 18.39857 94.12135 14.17207
#
# Poissons Ratio (x) = 1.12438 -0.40611
# Poissons Ratio (y) = 0.21979 0.19484
# Poissons Ratio (z) = -0.52722 1.29399
#
# Static dielectric constant tensor:
#      x y z
#    x 1.793920 0.000000 -0.032070 
#    y 0.000000 1.780670 0.000000 
#    z -0.032070 0.000000 1.777680 
# 
# From -- ./inp_files/304786.got.cif
#   From: 2010.05.17/outbox.cif.g08.bks.cpg/sg12_153_cif.got.tgz:304786.got - 2010.06.03 13:09:07.
