data_PCOD9184610
_publ_section_title
;
Structure prediction by ZEFSAII (Michael W. Deem and Ramdas Pophale) SiO2 
 PCOD9184610
Probable space group: C 2/M
;
_chemical_formula_sum "Si O2"
_cell_formula_units_Z 56
_cell_length_a 19.457895
_cell_length_b 9.462426
_cell_length_c 25.625246
_cell_angle_alpha 90.000000
_cell_angle_beta 135.638001
_cell_angle_gamma 90.000000
_cell_volume 3298.839450
_symmetry_space_group_name_H-M "C 2/M"
_symmetry_group_IT_number 12
_symmetry_cell_setting 'monoclinic'
loop_
_space_group_symop_operation_xyz
x,y,z
-x,y,-z
-x,-y,-z
x,-y,z
1/2+x,1/2+y,z
1/2-x,1/2+y,-z
1/2-x,1/2-y,-z
1/2+x,1/2-y,z
loop_
_atom_site_type_symbol
_atom_site_label
_atom_site_fract_x
_atom_site_fract_y
_atom_site_fract_z
Si Si1 0.131874 0.834137 0.284393
Si Si2 0.044208 0.659115 0.786733
Si Si3 0.752950 0.331955 0.245767
Si Si4 0.058080 0.169313 0.688644
Si Si5 0.611887 0.671979 0.072495
Si Si6 0.243982 0.841822 0.047699
Si Si7 0.334815 0.667448 0.575478
O O1 0.209630 0.815605 0.280341
O O2 0.165581 0.802410 0.362201
O O3 0.040432 0.731111 0.225224
O O4 0.101839 0.000000 0.267682
O O5 0.015793 0.500000 0.754133
O O6 0.062468 0.763267 0.748470
O O7 0.146075 0.648699 0.871444
O O8 0.772454 0.500000 0.247402
O O9 0.853476 0.244739 0.293811
O O10 0.670723 0.287753 0.157541
O O11 0.943989 0.199398 0.611963
O O12 0.070456 0.000000 0.695963
O O13 0.609889 0.500000 0.072927
O O14 0.677035 0.715638 0.058186
O O15 0.500000 0.718985 0.000000
O O16 0.207348 0.000000 0.015494
O O17 0.250000 0.750000 0.000000
O O18 0.319549 0.500000 0.561702
O O19 0.250000 0.750000 0.500000
#
# Coordination Sequence:
#
# PCOD9184610 Si02
#       7
#     8   8   8   8   8   8   8
#     4   9  20  35  55  83 110 139 180 222 265 322
#     4  10  19  34  53  75 104 139 183 227 266 320
#     4  10  19  35  57  79 108 144 182 224 270 321
#     4  10  20  35  56  81 109 139 177 221 266 321
#     4   9  18  33  52  75 103 138 181 224 267 318
#     4  10  21  34  50  74 103 134 179 226 269 325
#     4   9  19  36  56  82 110 139 177 217 263 320
#
# _framework density 16.975667000000001
#
# number of rings (size 3 to 8) (size 9 to 14) (size 15 to 20)
#    0.000    2.429    1.429    1.714    2.000    4.571 
#    0.000    0.714    0.000    5.143    0.000    0.000 
#    0.000    0.000    0.000    0.000    0.000    0.000 
#
# Total GULP energy -155916.582090 kJ/mol
# GULP energy per Si atom -5568.449360 kJ/mol
# Density = 1.693703 g / cm^3
# Si number density = 16.975667 Si / 1000 Ang^3
#
#
#
# Elastic Constant Matrix: (Units=GPa)
#
#
# Indices 1 2 3 4 5 6 
#
# 1 132.1935 61.7136 64.0817 0.0000 12.2861 0.0000
# 2 61.7136 54.8681 40.2986 0.0000 14.1543 0.0000
# 3 64.0817 40.2986 92.8614 0.0000 19.1132 0.0000
# 4 0.0000 0.0000 0.0000 21.4046 0.0000 5.6586
# 5 12.2861 14.1543 19.1132 0.0000 22.6096 0.0000
# 6 0.0000 0.0000 0.0000 5.6586 0.0000 30.3479
#
#
#
# Elastic Compliance Matrix: (Units=1/GPa)
#
#
# Indices 1 2 3 4 5 6 
#
# 1 0.018168 -0.017476 -0.006263 0.000000 0.006362 0.000000
# 2 -0.017476 0.044947 -0.004369 0.000000 -0.014948 0.000000
# 3 -0.006263 -0.004369 0.019035 0.000000 -0.009953 0.000000
# 4 0.000000 0.000000 0.000000 0.049141 0.000000 -0.009163
# 5 0.006362 -0.014948 -0.009953 0.000000 0.058544 0.000000
# 6 0.000000 0.000000 0.000000 -0.009163 0.000000 0.034660
#
#
# Mechanical properties :
#
#
# Convention : Reuss Voigt Hill
#
# Bulk Modulus (GPa) = 38.55855 68.01232 53.28544
# Shear Modulus (GPa) = 17.27985 22.46104 19.87045
#
# Velocity S-wave (km/s) = 3.19394 3.64143 3.42501
# Velocity P-wave (km/s) = 6.03034 7.60471 6.86282
#
# Compressibility (1/GPa) = 0.02593459
#
# Stress axis : x y z
#
# Youngs Moduli (GPa) = 55.04233 22.24851 52.53453
#
# Poissons Ratio (x) = 0.38882 0.32901
# Poissons Ratio (y) = 0.96192 0.22951
# Poissons Ratio (z) = 0.34472 0.09720
#
# Static dielectric constant tensor:
#      x y z
#    x 1.587890 0.000000 0.013460 
#    y 0.000000 1.544680 0.000000 
#    z 0.013460 0.000000 1.569470 
# 
# From -- ./inp_files/280453.got.cif
#   From: 2010.05.17/outbox.cif.g08.bks.cpg/sg12_141_cif.got.tgz:280453.got - 2010.06.03 13:09:07.
