data_PCOD9184863
_publ_section_title
;
Structure prediction by ZEFSAII (Michael W. Deem and Ramdas Pophale) SiO2 
 PCOD9184863
Probable space group: C 2/M
;
_chemical_formula_sum "Si O2"
_cell_formula_units_Z 64
_cell_length_a 20.520174
_cell_length_b 9.309040
_cell_length_c 16.583940
_cell_angle_alpha 90.000000
_cell_angle_beta 100.987848
_cell_angle_gamma 90.000000
_cell_volume 3109.840564
_symmetry_space_group_name_H-M "C 2/M"
_symmetry_group_IT_number 12
_symmetry_cell_setting 'monoclinic'
loop_
_space_group_symop_operation_xyz
x,y,z
-x,y,-z
-x,-y,-z
x,-y,z
1/2+x,1/2+y,z
1/2-x,1/2+y,-z
1/2-x,1/2-y,-z
1/2+x,1/2-y,z
loop_
_atom_site_type_symbol
_atom_site_label
_atom_site_fract_x
_atom_site_fract_y
_atom_site_fract_z
Si Si1 0.933425 0.171535 0.443965
Si Si2 0.177987 0.833727 0.166941
Si Si3 0.712814 0.666545 0.594445
Si Si4 0.844455 0.832149 0.646578
Si Si5 0.491241 0.669354 0.700456
Si Si6 0.695190 0.335935 0.784280
Si Si7 0.577663 0.662700 0.999948
Si Si8 0.421862 0.169778 0.160975
O O1 0.951700 0.183032 0.353801
O O2 0.000000 0.232729 0.500000
O O3 0.859879 0.225067 0.449320
O O4 0.931172 0.000000 0.462085
O O5 0.159081 0.818625 0.256584
O O6 0.236102 0.721655 0.163248
O O7 0.200786 0.000000 0.162659
O O8 0.118290 0.810249 0.091084
O O9 0.719855 0.500000 0.571377
O O10 0.781006 0.751132 0.594618
O O11 0.704621 0.667636 0.690026
O O12 0.920087 0.786028 0.646369
O O13 0.838442 0.000000 0.624575
O O14 0.485350 0.500000 0.719432
O O15 0.513230 0.757349 0.783569
O O16 0.679436 0.500000 0.803292
O O17 0.638963 0.228939 0.800756
O O18 0.594499 0.500000 0.976377
O O19 0.590506 0.773361 0.931722
O O20 0.500000 0.666699 0.000000
O O21 0.427237 0.000000 0.165426
#
# Coordination Sequence:
#
# PCOD9184863 Si02
#       8
#     8   8   8   8   8   8   8   8
#     4   9  17  32  57  85 110 141 183 227 269 321
#     4   9  18  33  52  77 105 136 179 225 272 319
#     4   9  17  32  54  80 109 142 181 224 268 319
#     4   9  18  32  55  81 107 143 181 223 268 320
#     4  10  19  36  58  81 109 142 188 228 267 329
#     4  10  19  34  55  77 102 140 183 223 270 323
#     4  10  21  38  57  75 103 144 184 223 272 328
#     4  12  24  35  53  80 109 140 178 228 280 322
#
# _framework density 20.579833000000001
#
# number of rings (size 3 to 8) (size 9 to 14) (size 15 to 20)
#    0.000    2.250    1.250    2.250    0.000    4.250 
#    0.000    3.125    0.000    1.500    0.000    0.000 
#    0.000    0.000    0.000    0.000    0.000    0.000 
#
# Total GULP energy -178619.176529 kJ/mol
# GULP energy per Si atom -5581.849267 kJ/mol
# Density = 2.053299 g / cm^3
# Si number density = 20.579833 Si / 1000 Ang^3
#
#
#
# Elastic Constant Matrix: (Units=GPa)
#
#
# Indices 1 2 3 4 5 6 
#
# 1 113.3306 34.3587 32.6294 0.0000 28.3844 0.0000
# 2 34.3587 64.6079 38.3967 0.0000 7.4409 0.0000
# 3 32.6294 38.3967 100.8289 0.0000 26.6604 0.0000
# 4 0.0000 0.0000 0.0000 10.6371 0.0000 12.0408
# 5 28.3844 7.4409 26.6604 0.0000 38.7759 0.0000
# 6 0.0000 0.0000 0.0000 12.0408 0.0000 21.7433
#
#
#
# Elastic Compliance Matrix: (Units=1/GPa)
#
#
# Indices 1 2 3 4 5 6 
#
# 1 0.012618 -0.005990 0.000411 0.000000 -0.008369 0.000000
# 2 -0.005990 0.022943 -0.008303 0.000000 0.005691 0.000000
# 3 0.000411 -0.008303 0.015406 0.000000 -0.009300 0.000000
# 4 0.000000 0.000000 0.000000 0.251939 0.000000 -0.139517
# 5 -0.008369 0.005691 -0.009300 0.000000 0.037217 0.000000
# 6 0.000000 0.000000 0.000000 -0.139517 0.000000 0.123252
#
#
# Mechanical properties :
#
#
# Convention : Reuss Voigt Hill
#
# Bulk Modulus (GPa) = 43.10182 54.39302 48.74742
# Shear Modulus (GPa) = 10.02258 25.79009 17.90633
#
# Velocity S-wave (km/s) = 2.20922 3.54386 2.95293
# Velocity P-wave (km/s) = 5.24373 6.57517 5.94683
#
# Compressibility (1/GPa) = 0.02320088
#
# Stress axis : x y z
#
# Youngs Moduli (GPa) = 79.25358 43.58647 64.91107
#
# Poissons Ratio (x) = 0.26110 -0.02668
# Poissons Ratio (y) = 0.47477 0.53897
# Poissons Ratio (z) = -0.03257 0.36191
#
# Static dielectric constant tensor:
#      x y z
#    x 1.754530 0.000000 0.005230 
#    y 0.000000 1.692440 0.000000 
#    z 0.005230 0.000000 1.780070 
# 
# From -- ./inp_files/320084.got.cif
#   From: 2010.05.17/outbox.cif.g08.bks.cpg/sg12_161_cif.got.tgz:320084.got - 2010.06.03 13:09:07.
