data_PCOD9184672
_publ_section_title
;
Structure prediction by ZEFSAII (Michael W. Deem and Ramdas Pophale) SiO2 
 PCOD9184672
Probable space group: C 2/M
;
_chemical_formula_sum "Si O2"
_cell_formula_units_Z 64
_cell_length_a 23.921412
_cell_length_b 7.583439
_cell_length_c 24.733550
_cell_angle_alpha 90.000000
_cell_angle_beta 135.166151
_cell_angle_gamma 90.000000
_cell_volume 3163.453127
_symmetry_space_group_name_H-M "C 2/M"
_symmetry_group_IT_number 12
_symmetry_cell_setting 'monoclinic'
loop_
_space_group_symop_operation_xyz
x,y,z
-x,y,-z
-x,-y,-z
x,-y,z
1/2+x,1/2+y,z
1/2-x,1/2+y,-z
1/2-x,1/2-y,-z
1/2+x,1/2-y,z
loop_
_atom_site_type_symbol
_atom_site_label
_atom_site_fract_x
_atom_site_fract_y
_atom_site_fract_z
Si Si1 0.901893 0.213604 0.674896
Si Si2 0.169040 0.290722 0.977053
Si Si3 0.244059 0.290003 0.357993
Si Si4 0.988888 0.290328 0.430424
Si Si5 0.764601 0.783326 0.140568
Si Si6 0.806351 0.211946 0.286407
Si Si7 0.642694 0.703638 0.471326
Si Si8 0.578093 0.705219 0.813388
O O1 0.846030 0.261266 0.686474
O O2 0.862536 0.281251 0.592204
O O3 0.991760 0.280651 0.741936
O O4 0.904815 0.000000 0.674021
O O5 0.157307 0.500000 0.970600
O O6 0.190871 0.227625 0.052299
O O7 0.250000 0.250000 0.000000
O O8 0.100218 0.215941 0.892012
O O9 0.259523 0.500000 0.366573
O O10 0.269187 0.219271 0.316775
O O11 0.298789 0.215487 0.443971
O O12 0.001951 0.500000 0.439119
O O13 0.899861 0.252351 0.350675
O O14 0.000000 0.227023 0.500000
O O15 0.055051 0.209090 0.437094
O O16 0.766221 0.724948 0.203543
O O17 0.846960 0.722127 0.168777
O O18 0.764836 0.000000 0.139164
O O19 0.798438 0.000000 0.280800
O O20 0.666938 0.500000 0.481112
O O21 0.574596 0.500000 0.795768
#
# Coordination Sequence:
#
# PCOD9184672 Si02
#       8
#     8   8   8   8   8   8   8   8
#     4  10  21  35  53  72  98 133 168 208 253 295
#     4   9  16  28  48  74 102 130 155 192 243 295
#     4  10  21  34  51  73  96 127 172 213 246 288
#     4  11  22  33  48  74 104 131 160 202 251 293
#     4   8  15  29  51  76 100 124 157 196 240 292
#     4  10  19  34  54  73  98 134 169 204 243 296
#     4  10  20  36  54  73  95 129 172 208 248 297
#     4   9  17  31  49  73 100 129 162 197 241 296
#
# _framework density 20.231055000000001
#
# number of rings (size 3 to 8) (size 9 to 14) (size 15 to 20)
#    0.000    2.375    1.250    2.625    0.000    4.500 
#    0.000    5.625    0.000    0.750    0.000    5.250 
#    0.000    0.000    0.000    0.000    0.000    0.000 
#
# Total GULP energy -178558.429682 kJ/mol
# GULP energy per Si atom -5579.950928 kJ/mol
# Density = 2.018501 g / cm^3
# Si number density = 20.231055 Si / 1000 Ang^3
#
#
#
# Elastic Constant Matrix: (Units=GPa)
#
#
# Indices 1 2 3 4 5 6 
#
# 1 71.2455 -2.3684 30.0875 0.0000 -2.4778 0.0000
# 2 -2.3684 43.9207 3.1507 -0.0002 -1.2556 -0.0003
# 3 30.0875 3.1507 113.9843 0.0000 -20.6565 0.0000
# 4 0.0000 -0.0002 0.0000 24.9426 0.0000 16.3728
# 5 -2.4778 -1.2556 -20.6565 0.0000 14.2018 0.0000
# 6 0.0000 -0.0003 0.0000 16.3728 0.0000 27.5029
#
#
#
# Elastic Compliance Matrix: (Units=1/GPa)
#
#
# Indices 1 2 3 4 5 6 
#
# 1 0.016064 0.001103 -0.005086 0.000000 -0.004497 0.000000
# 2 0.001103 0.022913 -0.000709 0.000000 0.001186 0.000000
# 3 -0.005086 -0.000709 0.013529 0.000000 0.018728 0.000000
# 4 0.000000 0.000000 0.000000 0.065808 0.000000 -0.039176
# 5 -0.004497 0.001186 0.018728 0.000000 0.096974 0.000000
# 6 0.000000 0.000000 0.000000 -0.039176 0.000000 0.059682
#
#
# Mechanical properties :
#
#
# Convention : Reuss Voigt Hill
#
# Bulk Modulus (GPa) = 23.19085 32.32113 27.75599
# Shear Modulus (GPa) = 16.73764 26.54819 21.64291
#
# Velocity S-wave (km/s) = 2.87944 3.62643 3.27431
# Velocity P-wave (km/s) = 4.74793 5.79183 5.29567
#
# Compressibility (1/GPa) = 0.04312046
#
# Stress axis : x y z
#
# Youngs Moduli (GPa) = 62.25107 43.64422 73.91451
#
# Poissons Ratio (x) = -0.04812 0.37591
# Poissons Ratio (y) = -0.06863 0.05243
# Poissons Ratio (z) = 0.31659 0.03096
#
# Static dielectric constant tensor:
#      x y z
#    x 1.688160 0.000000 -0.027670 
#    y 0.000000 1.787750 0.000000 
#    z -0.027670 0.000000 1.750670 
# 
# From -- ./inp_files/348582.got.cif
#   From: 2010.05.17/outbox.cif.g08.bks.cpg/sg12_175_cif.got.tgz:348582.got - 2010.06.03 13:09:07.
