data_PCOD9184007
_publ_section_title
;
Structure prediction by ZEFSAII (Michael W. Deem and Ramdas Pophale) SiO2 
 PCOD9184007
Probable space group: C 2/M
;
_chemical_formula_sum "Si O2"
_cell_formula_units_Z 64
_cell_length_a 21.470882
_cell_length_b 8.539858
_cell_length_c 20.230619
_cell_angle_alpha 90.000000
_cell_angle_beta 66.211140
_cell_angle_gamma 90.000000
_cell_volume 3394.289562
_symmetry_space_group_name_H-M "C 2/M"
_symmetry_group_IT_number 12
_symmetry_cell_setting 'monoclinic'
loop_
_space_group_symop_operation_xyz
x,y,z
-x,y,-z
-x,-y,-z
x,-y,z
1/2+x,1/2+y,z
1/2-x,1/2+y,-z
1/2-x,1/2-y,-z
1/2+x,1/2-y,z
loop_
_atom_site_type_symbol
_atom_site_label
_atom_site_fract_x
_atom_site_fract_y
_atom_site_fract_z
Si Si1 0.454221 0.312016 0.956731
Si Si2 0.958710 0.314949 0.811327
Si Si3 0.277832 0.188490 0.418935
Si Si4 0.166664 0.687477 0.920358
Si Si5 0.419925 0.323681 0.310508
Si Si6 0.214146 0.821273 0.312786
Si Si7 0.156938 0.825496 0.791960
Si Si8 0.179686 0.189678 0.186339
O O1 0.453809 0.500000 0.957266
O O2 0.477915 0.254610 0.874807
O O3 0.500000 0.257722 0.000000
O O4 0.377226 0.247150 0.999569
O O5 0.961586 0.500000 0.815363
O O6 0.883279 0.256660 0.826289
O O7 0.008786 0.262402 0.730116
O O8 0.250000 0.250000 0.500000
O O9 0.355668 0.244400 0.374300
O O10 0.228805 0.248048 0.379367
O O11 0.276717 0.000000 0.417081
O O12 0.161189 0.500000 0.917611
O O13 0.131412 0.777364 0.874047
O O14 0.246783 0.729867 0.877743
O O15 0.429262 0.500000 0.332242
O O16 0.394526 0.332962 0.245665
O O17 0.290206 0.809889 0.250256
O O18 0.174852 0.754511 0.265721
O O19 0.191578 0.000000 0.331609
O O20 0.189158 0.000000 0.781835
O O21 0.176581 0.000000 0.189110
#
# Coordination Sequence:
#
# PCOD9184007 Si02
#       8
#     8   8   8   8   8   8   8   8
#     4  11  24  40  57  78 106 141 180 225 279 333
#     4  12  25  38  55  79 106 141 183 227 275 326
#     4  10  19  33  56  89 122 148 177 215 264 320
#     4  10  20  34  54  78 105 139 179 226 277 324
#     4  10  20  35  54  77 108 145 181 220 267 318
#     4   8  16  31  52  77 107 142 178 216 257 307
#     4   9  16  27  48  76 103 134 173 216 265 317
#     4   9  19  37  57  77 104 142 187 229 268 315
#
# _framework density 18.855198000000001
#
# number of rings (size 3 to 8) (size 9 to 14) (size 15 to 20)
#    0.000    2.125    0.000    4.500    0.000    9.000 
#    0.000    0.000    0.000    0.750    0.000    5.250 
#    0.000    0.000    0.000    0.000    0.000    0.000 
#
# Total GULP energy -178141.359214 kJ/mol
# GULP energy per Si atom -5566.917475 kJ/mol
# Density = 1.881228 g / cm^3
# Si number density = 18.855198 Si / 1000 Ang^3
#
#
#
# Elastic Constant Matrix: (Units=GPa)
#
#
# Indices 1 2 3 4 5 6 
#
# 1 78.8511 26.4212 40.9211 0.0001 -5.4862 0.0000
# 2 26.4212 70.3358 29.7806 0.0002 -8.4941 0.0002
# 3 40.9211 29.7806 126.6503 0.0000 -9.9075 0.0000
# 4 0.0001 0.0002 0.0000 27.4934 0.0000 -1.0569
# 5 -5.4862 -8.4941 -9.9075 0.0000 24.2180 0.0000
# 6 0.0000 0.0002 0.0000 -1.0569 0.0000 15.5351
#
#
#
# Elastic Compliance Matrix: (Units=1/GPa)
#
#
# Indices 1 2 3 4 5 6 
#
# 1 0.016352 -0.004292 -0.004238 0.000000 0.000465 0.000000
# 2 -0.004292 0.017331 -0.002365 0.000000 0.004139 0.000000
# 3 -0.004238 -0.002365 0.010001 0.000000 0.002302 0.000000
# 4 0.000000 0.000000 0.000000 0.036468 0.000000 0.002481
# 5 0.000465 0.004139 0.002302 0.000000 0.043790 0.000000
# 6 0.000000 0.000000 0.000000 0.002481 0.000000 0.064539
#
#
# Mechanical properties :
#
#
# Convention : Reuss Voigt Hill
#
# Bulk Modulus (GPa) = 45.67246 52.23145 48.95195
# Shear Modulus (GPa) = 22.98130 25.36359 24.17245
#
# Velocity S-wave (km/s) = 3.49496 3.67165 3.58439
# Velocity P-wave (km/s) = 6.36881 6.76285 6.56878
#
# Compressibility (1/GPa) = 0.02189503
#
# Stress axis : x y z
#
# Youngs Moduli (GPa) = 61.15498 57.70064 99.98923
#
# Poissons Ratio (x) = 0.24765 0.42373
# Poissons Ratio (y) = 0.26248 0.23644
# Poissons Ratio (z) = 0.25916 0.13644
#
# Static dielectric constant tensor:
#      x y z
#    x 1.698510 0.000000 0.029390 
#    y 0.000000 1.673590 0.000000 
#    z 0.029390 0.000000 1.659140 
# 
# From -- ./inp_files/319903.got.cif
#   From: 2010.05.17/outbox.cif.g08.bks.cpg/sg12_160_cif.got.tgz:319903.got - 2010.06.03 13:09:07.
