data_PCOD9184405
_publ_section_title
;
Structure prediction by ZEFSAII (Michael W. Deem and Ramdas Pophale) SiO2 
 PCOD9184405
Probable space group: C 2/M
;
_chemical_formula_sum "Si O2"
_cell_formula_units_Z 48
_cell_length_a 18.962185
_cell_length_b 14.336182
_cell_length_c 21.053781
_cell_angle_alpha 90.000000
_cell_angle_beta 157.512940
_cell_angle_gamma 90.000000
_cell_volume 2189.045440
_symmetry_space_group_name_H-M "C 2/M"
_symmetry_group_IT_number 12
_symmetry_cell_setting 'monoclinic'
loop_
_space_group_symop_operation_xyz
x,y,z
-x,y,-z
-x,-y,-z
x,-y,z
1/2+x,1/2+y,z
1/2-x,1/2+y,-z
1/2-x,1/2-y,-z
1/2+x,1/2-y,z
loop_
_atom_site_type_symbol
_atom_site_label
_atom_site_fract_x
_atom_site_fract_y
_atom_site_fract_z
Si Si1 0.921590 0.221436 0.330874
Si Si2 0.295875 0.393972 0.805368
Si Si3 0.150411 0.299816 0.319954
Si Si4 0.319810 0.806271 0.118920
Si Si5 0.949620 0.100959 0.796005
Si Si6 0.140451 0.389962 0.175668
O O1 0.867787 0.323832 0.313555
O O2 0.833987 0.234248 0.188421
O O3 0.827203 0.150332 0.300851
O O4 0.131268 0.192019 0.495498
O O5 0.266777 0.500000 0.804016
O O6 0.320700 0.396863 0.750506
O O7 0.500000 0.361805 0.000000
O O8 0.111344 0.189369 0.295003
O O9 0.095380 0.334770 0.203174
O O10 0.019470 0.345549 0.264252
O O11 0.250000 0.750000 0.000000
O O12 0.158923 0.881451 0.994899
O O13 0.938988 0.000000 0.755904
O O14 0.149217 0.500000 0.197002
O O15 0.000000 0.375647 0.000000
#
# Coordination Sequence:
#
# PCOD9184405 Si02
#       6
#     8   8   8   8   8   8
#     4  12  22  39  64  91 129 162 203 263 322 372
#     4  10  19  33  60  94 123 158 203 245 297 367
#     4  11  24  40  61  95 129 164 201 260 325 376
#     4  10  22  40  61  85 120 169 214 251 302 371
#     4  10  20  37  61  90 124 162 202 245 297 368
#     4  11  24  43  67  91 119 165 221 267 311 374
#
# _framework density 21.927365000000002
#
# number of rings (size 3 to 8) (size 9 to 14) (size 15 to 20)
#    0.000    1.333    3.333    3.500    0.000    2.667 
#    0.000    6.667    0.000    6.000    0.000    0.000 
#    0.000    0.000    0.000    0.000    0.000    0.000 
#
# Total GULP energy -133929.312047 kJ/mol
# GULP energy per Si atom -5580.388002 kJ/mol
# Density = 2.187746 g / cm^3
# Si number density = 21.927365 Si / 1000 Ang^3
#
#
#
# Elastic Constant Matrix: (Units=GPa)
#
#
# Indices 1 2 3 4 5 6 
#
# 1 83.4422 10.3353 4.5201 0.0002 8.7928 0.0008
# 2 10.3353 82.1375 5.9299 0.0084 -3.7692 0.0019
# 3 4.5201 5.9299 53.5577 0.0112 17.8211 0.0038
# 4 0.0002 0.0084 0.0112 -1.2599 0.0018 -9.8793
# 5 8.7928 -3.7692 17.8211 0.0018 33.3571 0.0007
# 6 0.0008 0.0019 0.0038 -9.8793 0.0007 8.4780
#
#
#
# Elastic Compliance Matrix: (Units=1/GPa)
#
#
# Indices 1 2 3 4 5 6 
#
# 1 0.012576 -0.001780 0.000372 -0.000001 -0.003715 -0.000001
# 2 -0.001780 0.012708 -0.002300 0.000008 0.003134 0.000008
# 3 0.000372 -0.002300 0.023125 0.000024 -0.012712 0.000019
# 4 -0.000001 0.000008 0.000024 -0.078295 -0.000006 -0.091236
# 5 -0.003715 0.003134 -0.012712 -0.000006 0.038103 -0.000004
# 6 -0.000001 0.000008 0.000019 -0.091236 -0.000004 0.011636
#
#
# Mechanical properties :
#
#
# Convention : Reuss Voigt Hill
#
# Bulk Modulus (GPa) = 24.39387 28.96757 26.68072
# Shear Modulus (GPa) = 122.15030 21.33851 71.74441
#
# Velocity S-wave (km/s) = 7.47180 3.12291 5.72627
# Velocity P-wave (km/s) = 9.25127 5.12277 7.47759
#
# Compressibility (1/GPa) = 0.04099391
#
# Stress axis : x y z
#
# Youngs Moduli (GPa) = 79.51602 78.68761 43.24394
#
# Poissons Ratio (x) = 0.14004 -0.01607
# Poissons Ratio (y) = 0.14152 0.09944
# Poissons Ratio (z) = -0.02956 0.18095
#
# Static dielectric constant tensor:
#      x y z
#    x 1.867700 0.000000 0.036550 
#    y 0.000000 1.808690 0.000000 
#    z 0.036550 0.000000 1.902260 
# 
# From -- ./inp_files/85183.got.cif
#   From: 2010.05.17/outbox.cif.g08.bks.cpg/sg12_43_cif.got.tgz:85183.got - 2010.06.03 13:09:07.
