data_PCOD9184347
_publ_section_title
;
Structure prediction by ZEFSAII (Michael W. Deem and Ramdas Pophale) SiO2 
 PCOD9184347
Probable space group: C 2/M
;
_chemical_formula_sum "Si O2"
_cell_formula_units_Z 56
_cell_length_a 23.326952
_cell_length_b 13.376284
_cell_length_c 15.432405
_cell_angle_alpha 90.000000
_cell_angle_beta 143.478331
_cell_angle_gamma 90.000000
_cell_volume 2865.738558
_symmetry_space_group_name_H-M "C 2/M"
_symmetry_group_IT_number 12
_symmetry_cell_setting 'monoclinic'
loop_
_space_group_symop_operation_xyz
x,y,z
-x,y,-z
-x,-y,-z
x,-y,z
1/2+x,1/2+y,z
1/2-x,1/2+y,-z
1/2-x,1/2-y,-z
1/2+x,1/2-y,z
loop_
_atom_site_type_symbol
_atom_site_label
_atom_site_fract_x
_atom_site_fract_y
_atom_site_fract_z
Si Si1 0.677492 0.882170 0.920332
Si Si2 0.219398 0.114001 0.669484
Si Si3 0.335860 0.718491 0.225302
Si Si4 0.612884 0.386700 0.110681
Si Si5 0.498844 0.612622 0.650567
Si Si6 0.044623 0.763735 0.869965
Si Si7 0.328846 0.242778 0.672730
O O1 0.674502 0.830660 0.822191
O O2 0.598992 0.824590 0.884847
O O3 0.664675 0.000000 0.903518
O O4 0.778309 0.849810 0.085742
O O5 0.206151 0.187817 0.734071
O O6 0.298382 0.152113 0.698329
O O7 0.115684 0.117022 0.496991
O O8 0.237289 0.000000 0.720718
O O9 0.446005 0.685263 0.347880
O O10 0.644660 0.500000 0.128370
O O11 0.668844 0.339477 0.260563
O O12 0.500000 0.392469 0.000000
O O13 0.608182 0.309867 0.024591
O O14 0.529378 0.500000 0.668002
O O15 0.527116 0.647235 0.780523
O O16 0.938270 0.731506 0.772144
O O17 0.250000 0.250000 0.500000
#
# Coordination Sequence:
#
# PCOD9184347 Si02
#       7
#     8   8   8   8   8   8   8
#     4  10  21  38  61  86 116 154 193 241 297 361
#     4  11  22  36  57  84 116 154 196 246 299 354
#     4  10  21  37  58  85 114 146 193 249 295 351
#     4   9  19  35  58  84 116 156 200 248 296 343
#     4  10  19  33  59  87 113 147 191 249 305 349
#     4  10  20  37  60  88 122 159 197 245 295 358
#     4  11  22  38  56  85 125 163 198 244 293 359
#
# _framework density 19.541211000000001
#
# number of rings (size 3 to 8) (size 9 to 14) (size 15 to 20)
#    0.000    1.857    1.429    3.000    0.000    2.857 
#    0.000    5.714    0.000   11.143    0.000    0.000 
#    0.000    0.000    0.000    0.000    0.000    0.000 
#
# Total GULP energy -156268.159274 kJ/mol
# GULP energy per Si atom -5581.005688 kJ/mol
# Density = 1.949673 g / cm^3
# Si number density = 19.541211 Si / 1000 Ang^3
#
#
#
# Elastic Constant Matrix: (Units=GPa)
#
#
# Indices 1 2 3 4 5 6 
#
# 1 94.4773 28.9767 28.7179 0.0000 -2.5275 0.0000
# 2 28.9767 124.2268 38.6306 0.0000 -9.8881 0.0000
# 3 28.7179 38.6306 87.5288 0.0000 -10.6103 0.0000
# 4 0.0000 0.0000 0.0000 21.6984 0.0000 5.7555
# 5 -2.5275 -9.8881 -10.6103 0.0000 35.7155 0.0000
# 6 0.0000 0.0000 0.0000 5.7555 0.0000 20.3287
#
#
#
# Elastic Compliance Matrix: (Units=1/GPa)
#
#
# Indices 1 2 3 4 5 6 
#
# 1 0.012123 -0.001874 -0.003226 0.000000 -0.000619 0.000000
# 2 -0.001874 0.009689 -0.003477 0.000000 0.001517 0.000000
# 3 -0.003226 -0.003477 0.014392 0.000000 0.003084 0.000000
# 4 0.000000 0.000000 0.000000 0.049828 0.000000 -0.014108
# 5 -0.000619 0.001517 0.003084 0.000000 0.029292 0.000000
# 6 0.000000 0.000000 0.000000 -0.014108 0.000000 0.053186
#
#
# Mechanical properties :
#
#
# Convention : Reuss Voigt Hill
#
# Bulk Modulus (GPa) = 52.49377 55.43146 53.96262
# Shear Modulus (GPa) = 26.03981 29.54238 27.79109
#
# Velocity S-wave (km/s) = 3.65438 3.89240 3.77527
# Velocity P-wave (km/s) = 6.68786 6.97346 6.83215
#
# Compressibility (1/GPa) = 0.01904988
#
# Stress axis : x y z
#
# Youngs Moduli (GPa) = 82.48632 103.20925 69.48407
#
# Poissons Ratio (x) = 0.19342 0.22412
# Poissons Ratio (y) = 0.15458 0.24163
# Poissons Ratio (z) = 0.26606 0.35891
#
# Static dielectric constant tensor:
#      x y z
#    x 1.718810 0.000000 -0.007450 
#    y 0.000000 1.668790 0.000000 
#    z -0.007450 0.000000 1.703410 
# 
# From -- ./inp_files/233718.got.cif
#   From: 2010.05.17/outbox.cif.g08.bks.cpg/sg12_117_cif.got.tgz:233718.got - 2010.06.03 13:09:07.
