data_PCOD9184842
_publ_section_title
;
Structure prediction by ZEFSAII (Michael W. Deem and Ramdas Pophale) SiO2 
 PCOD9184842
Probable space group: C 2/M
;
_chemical_formula_sum "Si O2"
_cell_formula_units_Z 56
_cell_length_a 19.846977
_cell_length_b 7.681968
_cell_length_c 20.324429
_cell_angle_alpha 90.000000
_cell_angle_beta 64.017350
_cell_angle_gamma 90.000000
_cell_volume 2785.540760
_symmetry_space_group_name_H-M "C 2/M"
_symmetry_group_IT_number 12
_symmetry_cell_setting 'monoclinic'
loop_
_space_group_symop_operation_xyz
x,y,z
-x,y,-z
-x,-y,-z
x,-y,z
1/2+x,1/2+y,z
1/2-x,1/2+y,-z
1/2-x,1/2-y,-z
1/2+x,1/2-y,z
loop_
_atom_site_type_symbol
_atom_site_label
_atom_site_fract_x
_atom_site_fract_y
_atom_site_fract_z
Si Si1 0.366241 0.205124 0.763751
Si Si2 0.199301 0.209797 0.584094
Si Si3 0.037043 0.696177 0.047031
Si Si4 0.173959 0.289614 0.071886
Si Si5 0.589415 0.699510 0.809242
Si Si6 0.538454 0.698991 0.679453
Si Si7 0.751664 0.712538 0.705081
O O1 0.338888 0.274584 0.847221
O O2 0.455421 0.222751 0.714589
O O3 0.320502 0.275177 0.720215
O O4 0.349205 0.000000 0.773195
O O5 0.250000 0.250000 0.500000
O O6 0.113262 0.276488 0.613352
O O7 0.238733 0.272074 0.635213
O O8 0.192278 0.000000 0.593240
O O9 0.060690 0.500000 0.016669
O O10 0.106559 0.778833 0.054857
O O11 0.969828 0.688308 0.127182
O O12 0.000000 0.784776 0.000000
O O13 0.166634 0.500000 0.078566
O O14 0.250000 0.250000 0.000000
O O15 0.585180 0.500000 0.835009
O O16 0.565113 0.697869 0.743761
O O17 0.674938 0.758273 0.775762
O O18 0.529125 0.500000 0.660470
O O19 0.754602 0.500000 0.700216
#
# Coordination Sequence:
#
# PCOD9184842 Si02
#       7
#     8   8   8   8   8   8   8
#     4  10  19  34  55  76 101 135 175 215 253 303
#     4   9  18  35  57  80 107 135 166 206 250 300
#     4  10  21  35  48  68 101 132 164 212 264 304
#     4  10  22  36  50  72 102 137 174 215 262 306
#     4   9  17  32  53  72  92 127 172 211 248 296
#     4   9  18  33  53  77 103 132 165 207 255 299
#     4   8  17  33  53  77 103 130 167 212 252 292
#
# _framework density 20.103818
#
# number of rings (size 3 to 8) (size 9 to 14) (size 15 to 20)
#    0.000    2.714    1.429    1.714    2.000    2.000 
#    0.000    4.286    0.000    4.286    0.000    0.000 
#    0.000    0.000    0.000    0.000    0.000    0.000 
#
# Total GULP energy -155926.503401 kJ/mol
# GULP energy per Si atom -5568.803693 kJ/mol
# Density = 2.005806 g / cm^3
# Si number density = 20.103818 Si / 1000 Ang^3
#
#
#
# Elastic Constant Matrix: (Units=GPa)
#
#
# Indices 1 2 3 4 5 6 
#
# 1 165.5421 5.8510 77.8746 0.0000 -5.9850 -0.0003
# 2 5.8510 32.8789 2.8142 0.0000 3.4417 0.0003
# 3 77.8746 2.8142 128.4527 0.0000 -16.4728 0.0002
# 4 0.0000 0.0000 0.0000 25.7177 0.0000 -33.2594
# 5 -5.9850 3.4417 -16.4728 0.0000 21.8519 0.0003
# 6 -0.0003 0.0003 0.0002 -33.2594 0.0003 191.8850
#
#
#
# Elastic Compliance Matrix: (Units=1/GPa)
#
#
# Indices 1 2 3 4 5 6 
#
# 1 0.008535 -0.000898 -0.005354 0.000000 -0.001557 0.000000
# 2 -0.000898 0.031262 -0.000890 0.000000 -0.005840 0.000000
# 3 -0.005354 -0.000890 0.012045 0.000000 0.007754 0.000000
# 4 0.000000 0.000000 0.000000 0.050118 0.000000 0.008687
# 5 -0.001557 -0.005840 0.007754 0.000000 0.052101 0.000000
# 6 0.000000 0.000000 0.000000 0.008687 0.000000 0.006717
#
#
# Mechanical properties :
#
#
# Convention : Reuss Voigt Hill
#
# Bulk Modulus (GPa) = 26.62522 55.55038 41.08780
# Shear Modulus (GPa) = 26.65521 63.91319 45.28420
#
# Velocity S-wave (km/s) = 3.64521 5.64452 4.75122
# Velocity P-wave (km/s) = 5.56681 8.37690 7.11203
#
# Compressibility (1/GPa) = 0.03755838
#
# Stress axis : x y z
#
# Youngs Moduli (GPa) = 117.16448 31.98785 83.02280
#
# Poissons Ratio (x) = 0.02871 0.44454
# Poissons Ratio (y) = 0.10516 0.07387
# Poissons Ratio (z) = 0.62735 0.02846
#
# Static dielectric constant tensor:
#      x y z
#    x 1.729780 0.000000 0.011270 
#    y 0.000000 1.787200 0.000000 
#    z 0.011270 0.000000 1.728350 
# 
# From -- ./inp_files/223916.got.cif
#   From: 2010.05.17/outbox.cif.g08.bks.cpg/sg12_112_cif.got.tgz:223916.got - 2010.06.03 13:09:07.
