data_PCOD9184145
_publ_section_title
;
Structure prediction by ZEFSAII (Michael W. Deem and Ramdas Pophale) SiO2 
 PCOD9184145
Probable space group: C 2/M
;
_chemical_formula_sum "Si O2"
_cell_formula_units_Z 64
_cell_length_a 18.089216
_cell_length_b 14.885555
_cell_length_c 24.648077
_cell_angle_alpha 90.000000
_cell_angle_beta 29.956933
_cell_angle_gamma 90.000000
_cell_volume 3314.148139
_symmetry_space_group_name_H-M "C 2/M"
_symmetry_group_IT_number 12
_symmetry_cell_setting 'monoclinic'
loop_
_space_group_symop_operation_xyz
x,y,z
-x,y,-z
-x,-y,-z
x,-y,z
1/2+x,1/2+y,z
1/2-x,1/2+y,-z
1/2-x,1/2-y,-z
1/2+x,1/2-y,z
loop_
_atom_site_type_symbol
_atom_site_label
_atom_site_fract_x
_atom_site_fract_y
_atom_site_fract_z
Si Si1 0.240313 0.602115 0.016998
Si Si2 0.039839 0.106781 0.034036
Si Si3 0.360263 0.715267 0.626250
Si Si4 0.038576 0.831066 0.206532
Si Si5 0.197434 0.900156 0.718841
Si Si6 0.019500 0.785713 0.636926
Si Si7 0.322916 0.103182 0.430124
Si Si8 0.416073 0.861635 0.250488
O O1 0.295998 0.500000 0.976748
O O2 0.064704 0.598995 0.130970
O O3 0.314118 0.638997 0.026082
O O4 0.310329 0.653045 0.921805
O O5 0.906207 0.116821 0.162108
O O6 0.063769 0.000000 0.010210
O O7 0.000000 0.145231 0.000000
O O8 0.500000 0.692318 0.500000
O O9 0.309782 0.817398 0.644401
O O10 0.409856 0.709876 0.656494
O O11 0.224418 0.649676 0.698693
O O12 0.914172 0.898137 0.261654
O O13 0.049771 0.823065 0.263492
O O14 0.968837 0.738070 0.231526
O O15 0.263090 0.000000 0.681851
O O16 0.162359 0.849190 0.535449
O O17 0.072465 0.681163 0.610201
O O18 0.369173 0.097359 0.337651
O O19 0.327287 0.000000 0.449234
#
# Coordination Sequence:
#
# PCOD9184145 Si02
#       8
#     8   8   8   8   8   8   8   8
#     4  10  19  33  57  86 116 151 197 245 291 352
#     4   8  15  29  50  80 119 151 179 232 297 353
#     4  11  22  40  58  77 117 161 195 252 310 347
#     4   9  19  36  58  81 117 157 189 233 302 367
#     4   9  19  34  56  87 116 150 194 238 301 374
#     4  10  22  40  59  87 119 154 199 250 302 361
#     4  10  21  38  62  87 114 154 203 253 300 351
#     4  10  20  37  58  83 116 158 204 242 286 354
#
# _framework density 19.311146000000001
#
# number of rings (size 3 to 8) (size 9 to 14) (size 15 to 20)
#    0.000    2.375    1.250    1.875    1.750    3.750 
#    0.000    3.750    0.000    0.750    0.000    0.000 
#    0.000    0.000    0.000    0.000    0.000    0.000 
#
# Total GULP energy -178325.290296 kJ/mol
# GULP energy per Si atom -5572.665322 kJ/mol
# Density = 1.926719 g / cm^3
# Si number density = 19.311146 Si / 1000 Ang^3
#
#
#
# Elastic Constant Matrix: (Units=GPa)
#
#
# Indices 1 2 3 4 5 6 
#
# 1 132.9137 24.5497 70.1633 0.0006 1.4166 -0.0005
# 2 24.5497 70.4488 28.1420 -0.0026 8.8855 0.0009
# 3 70.1633 28.1420 100.0415 0.0002 -5.1710 0.0016
# 4 0.0006 -0.0026 0.0002 23.8488 0.0012 11.0668
# 5 1.4166 8.8855 -5.1710 0.0012 19.1436 -0.0003
# 6 -0.0005 0.0009 0.0016 11.0668 -0.0003 13.4812
#
#
#
# Elastic Compliance Matrix: (Units=1/GPa)
#
#
# Indices 1 2 3 4 5 6 
#
# 1 0.012153 -0.000438 -0.008556 -0.000001 -0.003007 0.000003
# 2 -0.000438 0.017600 -0.005136 0.000004 -0.009524 -0.000004
# 3 -0.008556 -0.005136 0.017846 0.000000 0.007838 -0.000002
# 4 -0.000001 0.000004 0.000000 0.067732 -0.000007 -0.055602
# 5 -0.003007 -0.009524 0.007838 -0.000007 0.058997 0.000006
# 6 0.000003 -0.000004 -0.000002 -0.055602 0.000006 0.119821
#
#
# Mechanical properties :
#
#
# Convention : Reuss Voigt Hill
#
# Bulk Modulus (GPa) = 51.70636 61.01265 56.35951
# Shear Modulus (GPa) = 15.20423 23.33131 19.26777
#
# Velocity S-wave (km/s) = 2.80898 3.47966 3.16215
# Velocity P-wave (km/s) = 6.11179 6.91427 6.52538
#
# Compressibility (1/GPa) = 0.01933998
#
# Stress axis : x y z
#
# Youngs Moduli (GPa) = 82.28396 56.81720 56.03445
#
# Poissons Ratio (x) = 0.02489 0.47941
# Poissons Ratio (y) = 0.03605 0.28780
# Poissons Ratio (z) = 0.70399 0.29182
#
# Static dielectric constant tensor:
#      x y z
#    x 1.687480 0.000000 0.001150 
#    y 0.000000 1.751460 0.000000 
#    z 0.001150 0.000000 1.684800 
# 
# From -- ./inp_files/344005.got.cif
#   From: 2010.05.17/outbox.cif.g08.bks.cpg/sg12_173_cif.got.tgz:344005.got - 2010.06.03 13:09:07.
