data_PCOD9184880
_publ_section_title
;
Structure prediction by ZEFSAII (Michael W. Deem and Ramdas Pophale) SiO2 
 PCOD9184880
Probable space group: C 2/M
;
_chemical_formula_sum "Si O2"
_cell_formula_units_Z 48
_cell_length_a 17.891852
_cell_length_b 19.813086
_cell_length_c 13.370848
_cell_angle_alpha 90.000000
_cell_angle_beta 24.680214
_cell_angle_gamma 90.000000
_cell_volume 1979.148162
_symmetry_space_group_name_H-M "C 2/M"
_symmetry_group_IT_number 12
_symmetry_cell_setting 'monoclinic'
loop_
_space_group_symop_operation_xyz
x,y,z
-x,y,-z
-x,-y,-z
x,-y,z
1/2+x,1/2+y,z
1/2-x,1/2+y,-z
1/2-x,1/2-y,-z
1/2+x,1/2-y,z
loop_
_atom_site_type_symbol
_atom_site_label
_atom_site_fract_x
_atom_site_fract_y
_atom_site_fract_z
Si Si1 0.815253 0.152515 0.630535
Si Si2 0.657858 0.426768 0.892980
Si Si3 0.449307 0.926487 0.379744
Si Si4 0.675468 0.420712 0.173276
Si Si5 0.121576 0.687921 0.674794
Si Si6 0.851959 0.224922 0.089926
O O1 0.771665 0.105685 0.779430
O O2 0.670660 0.151188 0.718430
O O3 0.814545 0.231927 0.664322
O O4 0.002476 0.124807 0.361020
O O5 0.636134 0.500000 0.973427
O O6 0.852088 0.428794 0.603709
O O7 0.656429 0.351226 0.938288
O O8 0.500000 0.427428 0.000000
O O9 0.354019 0.865939 0.440090
O O10 0.412105 0.000000 0.378068
O O11 0.659301 0.915034 0.104689
O O12 0.627970 0.500000 0.236739
O O13 0.250000 0.750000 0.500000
O O14 0.930231 0.723678 0.913103
O O15 0.000000 0.223684 0.000000
#
# Coordination Sequence:
#
# PCOD9184880 Si02
#       6
#     8   8   8   8   8   8
#     4  10  19  34  55  77 113 154 188 233 289 346
#     4   9  17  32  54  80 107 144 185 232 291 343
#     4  10  20  34  55  84 115 144 189 244 293 346
#     4  10  21  37  57  82 116 158 199 236 285 356
#     4  11  21  35  55  84 118 148 190 247 295 346
#     4   9  17  31  51  77 108 143 185 234 286 341
#
# _framework density 24.252856999999999
#
# number of rings (size 3 to 8) (size 9 to 14) (size 15 to 20)
#    0.000    2.167    1.667    4.000    0.000    1.333 
#    0.000    5.000    0.000    0.000    0.000    2.333 
#    0.000    0.667    0.000    0.000    0.000    0.000 
#
# Total GULP energy -133896.446301 kJ/mol
# GULP energy per Si atom -5579.018596 kJ/mol
# Density = 2.419766 g / cm^3
# Si number density = 24.252857 Si / 1000 Ang^3
#
#
#
# Elastic Constant Matrix: (Units=GPa)
#
#
# Indices 1 2 3 4 5 6 
#
# 1 53.0201 35.8605 3.2196 -0.0105 -6.7127 0.0060
# 2 35.8605 195.2245 34.4308 -0.0489 -24.6354 0.0220
# 3 3.2196 34.4308 121.8617 0.0048 -8.3945 0.0109
# 4 -0.0105 -0.0489 0.0048 59.1566 -0.0081 -0.4601
# 5 -6.7127 -24.6354 -8.3945 -0.0081 9.1405 0.0015
# 6 0.0060 0.0220 0.0109 -0.4601 0.0015 19.1258
#
#
#
# Elastic Compliance Matrix: (Units=1/GPa)
#
#
# Indices 1 2 3 4 5 6 
#
# 1 0.022000 -0.003116 0.000890 0.000002 0.008576 -0.000004
# 2 -0.003116 0.008278 -0.000937 0.000009 0.019162 -0.000009
# 3 0.000890 -0.000937 0.008880 -0.000001 0.006285 -0.000005
# 4 0.000002 0.000009 -0.000001 0.016907 0.000040 0.000407
# 5 0.008576 0.019162 0.006285 0.000040 0.173120 -0.000041
# 6 -0.000004 -0.000009 -0.000005 0.000407 -0.000041 0.052295
#
#
# Mechanical properties :
#
#
# Convention : Reuss Voigt Hill
#
# Bulk Modulus (GPa) = 30.45717 57.45865 43.95791
# Shear Modulus (GPa) = 16.73639 37.25759 26.99699
#
# Velocity S-wave (km/s) = 2.62979 3.92371 3.34000
# Velocity P-wave (km/s) = 4.66974 6.65359 5.74790
#
# Compressibility (1/GPa) = 0.03283299
#
# Stress axis : x y z
#
# Youngs Moduli (GPa) = 45.45458 120.80315 112.61201
#
# Poissons Ratio (x) = 0.37641 -0.10021
# Poissons Ratio (y) = 0.14163 0.10546
# Poissons Ratio (z) = -0.04045 0.11313
#
# Static dielectric constant tensor:
#      x y z
#    x 2.037280 -0.000020 0.038230 
#    y -0.000020 1.901980 0.000010 
#    z 0.038230 0.000010 2.027580 
# 
# From -- ./inp_files/290526.got.cif
#   From: 2010.05.17/outbox.cif.g08.bks.cpg/sg12_146_cif.got.tgz:290526.got - 2010.06.03 13:09:07.
