data_PCOD9184974
_publ_section_title
;
Structure prediction by ZEFSAII (Michael W. Deem and Ramdas Pophale) SiO2 
 PCOD9184974
Probable space group: C 2/M
;
_chemical_formula_sum "Si O2"
_cell_formula_units_Z 58
_cell_length_a 24.085898
_cell_length_b 7.550296
_cell_length_c 17.043880
_cell_angle_alpha 90.000000
_cell_angle_beta 104.730710
_cell_angle_gamma 90.000000
_cell_volume 2997.649579
_symmetry_space_group_name_H-M "C 2/M"
_symmetry_group_IT_number 12
_symmetry_cell_setting 'monoclinic'
loop_
_space_group_symop_operation_xyz
x,y,z
-x,y,-z
-x,-y,-z
x,-y,z
1/2+x,1/2+y,z
1/2-x,1/2+y,-z
1/2-x,1/2-y,-z
1/2+x,1/2-y,z
loop_
_atom_site_type_symbol
_atom_site_label
_atom_site_fract_x
_atom_site_fract_y
_atom_site_fract_z
Si Si1 0.432991 0.794798 0.080357
Si Si2 0.556325 0.289867 0.738360
Si Si3 0.030514 0.286602 0.431492
Si Si4 0.818939 0.795451 0.254372
Si Si5 0.838442 0.283697 0.536214
Si Si6 0.696022 0.209584 0.926343
Si Si7 0.247999 0.705239 0.368995
Si Si8 0.000000 0.000000 0.000000
O O1 0.452872 0.789185 0.178781
O O2 0.365528 0.738598 0.059385
O O3 0.468326 0.656396 0.042045
O O4 0.436617 0.000000 0.054458
O O5 0.563613 0.500000 0.753346
O O6 0.506433 0.260360 0.658042
O O7 0.616705 0.218425 0.724897
O O8 0.032286 0.500000 0.436659
O O9 0.096127 0.225665 0.448221
O O10 0.000000 0.221224 0.500000
O O11 0.797742 0.791452 0.157552
O O12 0.773594 0.714317 0.298663
O O13 0.825751 0.000000 0.282203
O O14 0.836324 0.500000 0.533540
O O15 0.807158 0.221295 0.604825
O O16 0.799545 0.217647 0.450527
O O17 0.692425 0.000000 0.912741
O O18 0.750000 0.250000 0.000000
O O19 0.233428 0.500000 0.347937
#
# Coordination Sequence:
#
# PCOD9184974 Si02
#       8
#     8   8   8   8   8   8   8   2
#     4  10  22  40  63  93 121 159 201 246 304 362
#     4  10  19  34  55  80 110 146 189 242 294 339
#     4  10  20  32  48  73 107 148 191 237 287 341
#     4   9  18  32  53  77 104 137 179 230 282 341
#     4   9  18  31  47  69 101 140 178 224 279 329
#     4  10  21  36  60  87 117 151 187 240 300 354
#     4   9  17  31  50  72  98 134 177 223 275 332
#     4  12  22  40  68  90 122 156 202 250 284 382
#
# _framework density 19.348493000000001
#
# number of rings (size 3 to 8) (size 9 to 14) (size 15 to 20)
#    0.000    2.345    0.690    1.862    1.931    1.931 
#    0.000    1.379    0.000    4.966    0.000    0.000 
#    0.000    0.000    0.000    0.000    0.000    0.000 
#
# Total GULP energy -161505.438874 kJ/mol
# GULP energy per Si atom -5569.153065 kJ/mol
# Density = 1.930445 g / cm^3
# Si number density = 19.348493 Si / 1000 Ang^3
#
#
#
# Elastic Constant Matrix: (Units=GPa)
#
#
# Indices 1 2 3 4 5 6 
#
# 1 146.4635 23.9692 83.4984 0.0000 -24.5740 0.0000
# 2 23.9692 78.3468 12.6036 0.0000 -19.4678 0.0000
# 3 83.4984 12.6036 78.5751 0.0000 -20.2753 0.0000
# 4 0.0000 0.0000 0.0000 22.9659 0.0000 5.8060
# 5 -24.5740 -19.4678 -20.2753 0.0000 42.2805 0.0000
# 6 0.0000 0.0000 0.0000 5.8060 0.0000 2.6856
#
#
#
# Elastic Compliance Matrix: (Units=1/GPa)
#
#
# Indices 1 2 3 4 5 6 
#
# 1 0.017778 -0.002376 -0.018404 0.000000 0.000413 0.000000
# 2 -0.002376 0.014762 0.001774 0.000000 0.006267 0.000000
# 3 -0.018404 0.001774 0.033609 0.000000 0.006237 0.000000
# 4 0.000000 0.000000 0.000000 0.096026 0.000000 -0.207600
# 5 0.000413 0.006267 0.006237 0.000000 0.029768 0.000000
# 6 0.000000 0.000000 0.000000 -0.207600 0.000000 0.821168
#
#
# Mechanical properties :
#
#
# Convention : Reuss Voigt Hill
#
# Bulk Modulus (GPa) = 35.54035 60.39197 47.96616
# Shear Modulus (GPa) = 4.71475 25.80737 15.26106
#
# Velocity S-wave (km/s) = 1.56270 3.65611 2.81151
# Velocity P-wave (km/s) = 4.65451 7.00738 5.94844
#
# Compressibility (1/GPa) = 0.02813703
#
# Stress axis : x y z
#
# Youngs Moduli (GPa) = 56.24977 67.73936 29.75421
#
# Poissons Ratio (x) = 0.16092 0.54760
# Poissons Ratio (y) = 0.13362 -0.05277
# Poissons Ratio (z) = 1.03522 -0.12014
#
# Static dielectric constant tensor:
#      x y z
#    x 1.688890 0.000000 -0.025180 
#    y 0.000000 1.733220 0.000000 
#    z -0.025180 0.000000 1.653970 
# 
# From -- ./inp_files/237770.got.cif
#   From: 2010.05.17/outbox.cif.g08.bks.cpg/sg12_119_cif.got.tgz:237770.got - 2010.06.03 13:09:07.
