data_PCOD9184151
_publ_section_title
;
Structure prediction by ZEFSAII (Michael W. Deem and Ramdas Pophale) SiO2 
 PCOD9184151
Probable space group: C 2/M
;
_chemical_formula_sum "Si O2"
_cell_formula_units_Z 56
_cell_length_a 9.476773
_cell_length_b 17.427354
_cell_length_c 32.161508
_cell_angle_alpha 90.000000
_cell_angle_beta 31.081152
_cell_angle_gamma 90.000000
_cell_volume 2742.140893
_symmetry_space_group_name_H-M "C 2/M"
_symmetry_group_IT_number 12
_symmetry_cell_setting 'monoclinic'
loop_
_space_group_symop_operation_xyz
x,y,z
-x,y,-z
-x,-y,-z
x,-y,z
1/2+x,1/2+y,z
1/2-x,1/2+y,-z
1/2-x,1/2-y,-z
1/2+x,1/2-y,z
loop_
_atom_site_type_symbol
_atom_site_label
_atom_site_fract_x
_atom_site_fract_y
_atom_site_fract_z
Si Si1 0.633056 0.161467 0.187319
Si Si2 0.692462 0.651552 0.079019
Si Si3 0.422558 0.408392 0.642369
Si Si4 0.199108 0.668289 0.075619
Si Si5 0.320003 0.668591 0.503134
Si Si6 0.735287 0.591465 0.647727
Si Si7 0.850508 0.842196 0.815287
O O1 0.385401 0.119926 0.272198
O O2 0.579629 0.162569 0.151819
O O3 0.639923 0.251417 0.198394
O O4 0.933553 0.124768 0.117645
O O5 0.728607 0.741446 0.056991
O O6 0.574415 0.649256 0.155642
O O7 0.000000 0.618210 0.000000
O O8 0.431044 0.500000 0.640257
O O9 0.526849 0.377679 0.572037
O O10 0.610286 0.382077 0.634510
O O11 0.967647 0.633412 0.105461
O O12 0.500000 0.634319 0.000000
O O13 0.500000 0.673881 0.500000
O O14 0.250000 0.750000 0.500000
O O15 0.027510 0.628387 0.584016
O O16 0.764431 0.500000 0.638039
O O17 0.529701 0.613455 0.736756
#
# Coordination Sequence:
#
# PCOD9184151 Si02
#       7
#     8   8   8   8   8   8   8
#     4  10  19  33  57  86 121 161 207 262 315 370
#     4   9  18  30  51  86 119 156 207 267 326 369
#     4  11  24  43  65  91 129 170 209 254 309 370
#     4   9  16  30  53  82 117 156 205 261 314 369
#     4  12  27  46  73 101 127 157 199 252 305 370
#     4  11  24  43  65  91 129 170 209 254 309 370
#     4  10  19  33  57  86 121 161 207 262 315 370
#
# _framework density 20.421999
#
# number of rings (size 3 to 8) (size 9 to 14) (size 15 to 20)
#    0.000    1.714    1.429    3.429    2.000    5.714 
#    0.000    0.000    0.000    5.143    0.000    0.000 
#    0.000    0.000    0.000    0.000    0.000    0.000 
#
# Total GULP energy -156225.034232 kJ/mol
# GULP energy per Si atom -5579.465508 kJ/mol
# Density = 2.037552 g / cm^3
# Si number density = 20.421999 Si / 1000 Ang^3
#
#
#
# Elastic Constant Matrix: (Units=GPa)
#
#
# Indices 1 2 3 4 5 6 
#
# 1 135.0096 23.5244 36.6315 -0.1746 -3.9831 -0.0041
# 2 23.5244 42.1084 20.6688 0.0103 -4.8028 0.0023
# 3 36.6315 20.6688 95.6748 -0.5654 -10.4840 -0.0241
# 4 -0.1746 0.0103 -0.5654 -320.0920 0.5074 2.3385
# 5 -3.9831 -4.8028 -10.4840 0.5074 31.5091 0.0149
# 6 -0.0041 0.0023 -0.0241 2.3385 0.0149 17.3884
#
#
#
# Elastic Compliance Matrix: (Units=1/GPa)
#
#
# Indices 1 2 3 4 5 6 
#
# 1 0.008736 -0.003644 -0.002592 -0.000001 -0.000313 -0.000001
# 2 -0.003644 0.028236 -0.004446 0.000014 0.002364 -0.000015
# 3 -0.002592 -0.004446 0.012760 -0.000016 0.003241 0.000017
# 4 -0.000001 0.000014 -0.000016 -0.003121 0.000047 0.000420
# 5 -0.000313 0.002364 0.003241 0.000047 0.033135 -0.000031
# 6 -0.000001 -0.000015 0.000017 0.000420 -0.000031 0.057453
#
#
# Mechanical properties :
#
#
# Convention : Reuss Voigt Hill
#
# Bulk Modulus (GPa) = 35.25018 48.27134 41.76076
# Shear Modulus (GPa) = 29.75885 -41.44102 -5.84108
#
# Velocity S-wave (km/s) = 3.82146 -4.50959 -1.69304
# Velocity P-wave (km/s) = 6.06381 1.85120 4.08307
#
# Compressibility (1/GPa) = 0.02836865
#
# Stress axis : x y z
#
# Youngs Moduli (GPa) = 114.47153 35.41622 78.37102
#
# Poissons Ratio (x) = 0.12905 0.20313
# Poissons Ratio (y) = 0.41712 0.34840
# Poissons Ratio (z) = 0.29670 0.15744
#
# Static dielectric constant tensor:
#      x y z
#    x 1.762480 0.000000 -0.014160 
#    y 0.000000 1.711570 0.000010 
#    z -0.014160 0.000010 1.725570 
# 
# From -- ./inp_files/373148.got.cif
#   From: 2010.05.17/outbox.cif.g08.bks.cpg/sg12_187_cif.got.tgz:373148.got - 2010.06.03 13:09:07.
