data_PCOD9184470
_publ_section_title
;
Structure prediction by ZEFSAII (Michael W. Deem and Ramdas Pophale) SiO2 
 PCOD9184470
Probable space group: C 2/M
;
_chemical_formula_sum "Si O2"
_cell_formula_units_Z 52
_cell_length_a 10.098889
_cell_length_b 23.863529
_cell_length_c 12.116037
_cell_angle_alpha 90.000000
_cell_angle_beta 109.694272
_cell_angle_gamma 90.000000
_cell_volume 2749.103803
_symmetry_space_group_name_H-M "C 2/M"
_symmetry_group_IT_number 12
_symmetry_cell_setting 'monoclinic'
loop_
_space_group_symop_operation_xyz
x,y,z
-x,y,-z
-x,-y,-z
x,-y,z
1/2+x,1/2+y,z
1/2-x,1/2+y,-z
1/2-x,1/2-y,-z
1/2+x,1/2-y,z
loop_
_atom_site_type_symbol
_atom_site_label
_atom_site_fract_x
_atom_site_fract_y
_atom_site_fract_z
Si Si1 0.539680 0.816272 0.139348
Si Si2 0.000424 0.185876 0.662448
Si Si3 0.840421 0.500000 0.416133
Si Si4 0.793219 0.748355 0.139013
Si Si5 0.657840 0.500000 0.586880
Si Si6 0.715140 0.123414 0.594890
Si Si7 0.754010 0.383349 0.654019
Si Si8 0.500000 0.217182 0.500000
O O1 0.649472 0.762575 0.164629
O O2 0.396506 0.805162 0.166839
O O3 0.630158 0.862495 0.228015
O O4 0.500000 0.828298 0.000000
O O5 0.096776 0.203957 0.792654
O O6 0.118170 0.156771 0.618682
O O7 0.874266 0.144473 0.655122
O O8 0.947064 0.241403 0.582650
O O9 0.743910 0.500000 0.497297
O O10 0.813490 0.562561 0.358045
O O11 0.000000 0.500000 0.500000
O O12 0.750000 0.750000 0.000000
O O13 0.500000 0.500000 0.500000
O O14 0.697198 0.444791 0.664013
O O15 0.691420 0.115995 0.455912
O O16 0.615262 0.176701 0.587524
#
# Coordination Sequence:
#
# PCOD9184470 Si02
#       8
#     8   8   4   8   4   8   8   4
#     4   9  18  33  51  72 102 135 173 213 257 310
#     4  11  21  31  50  77 107 134 174 215 267 321
#     4  10  20  38  52  71 104 144 185 216 250 309
#     4   9  19  33  50  71 102 139 171 208 257 319
#     4  10  20  34  57  71  98 139 179 216 257 315
#     4  11  21  34  50  74 107 143 175 213 262 317
#     4  10  19  34  50  74 100 137 175 216 261 313
#     4  12  22  29  48  77 116 134 164 212 272 318
#
# _framework density 18.915255999999999
#
# number of rings (size 3 to 8) (size 9 to 14) (size 15 to 20)
#    0.000    1.846    2.308    3.231    4.308    0.000 
#    0.000    0.385    0.000    0.000    0.000    0.000 
#    0.000    1.231    0.000    3.231    0.000    0.000 
#
# Total GULP energy -144743.960811 kJ/mol
# GULP energy per Si atom -5567.075416 kJ/mol
# Density = 1.887220 g / cm^3
# Si number density = 18.915256 Si / 1000 Ang^3
#
#
#
# Elastic Constant Matrix: (Units=GPa)
#
#
# Indices 1 2 3 4 5 6 
#
# 1 57.4845 15.6637 17.6133 0.0000 18.0151 0.0000
# 2 15.6637 115.2058 33.2709 0.0000 12.4920 0.0000
# 3 17.6133 33.2709 93.7133 0.0000 19.1679 0.0000
# 4 0.0000 0.0000 0.0000 20.4875 0.0000 8.0704
# 5 18.0151 12.4920 19.1679 0.0000 27.6066 0.0000
# 6 0.0000 0.0000 0.0000 8.0704 0.0000 26.7942
#
#
#
# Elastic Compliance Matrix: (Units=1/GPa)
#
#
# Indices 1 2 3 4 5 6 
#
# 1 0.022194 -0.001294 -0.001013 0.000000 -0.013194 0.000000
# 2 -0.001294 0.009877 -0.002939 0.000000 -0.001584 0.000000
# 3 -0.001013 -0.002939 0.013401 0.000000 -0.007313 0.000000
# 4 0.000000 0.000000 0.000000 0.055381 0.000000 -0.016681
# 5 -0.013194 -0.001584 -0.007313 0.000000 0.050627 0.000000
# 6 0.000000 0.000000 0.000000 -0.016681 0.000000 0.042346
#
#
# Mechanical properties :
#
#
# Convention : Reuss Voigt Hill
#
# Bulk Modulus (GPa) = 28.58967 44.38881 36.48924
# Shear Modulus (GPa) = 23.15050 28.30139 25.72594
#
# Velocity S-wave (km/s) = 3.50223 3.87230 3.69190
# Velocity P-wave (km/s) = 5.61263 6.59629 6.12424
#
# Compressibility (1/GPa) = 0.03497767
#
# Stress axis : x y z
#
# Youngs Moduli (GPa) = 45.05737 101.24853 74.62340
#
# Poissons Ratio (x) = 0.13105 0.07561
# Poissons Ratio (y) = 0.05832 0.21934
# Poissons Ratio (z) = 0.04565 0.29760
#
# Static dielectric constant tensor:
#      x y z
#    x 1.714620 0.000000 -0.012970 
#    y 0.000000 2.441930 0.000000 
#    z -0.012970 0.000000 1.653720 
# 
# From -- ./inp_files/207348.got.cif
#   From: 2010.05.17/outbox.cif.g08.bks.cpg/sg12_104_cif.got.tgz:207348.got - 2010.06.03 13:09:07.
