data_PCOD9184276
_publ_section_title
;
Structure prediction by ZEFSAII (Michael W. Deem and Ramdas Pophale) SiO2 
 PCOD9184276
Probable space group: C 2/M
;
_chemical_formula_sum "Si O2"
_cell_formula_units_Z 64
_cell_length_a 15.011588
_cell_length_b 16.636205
_cell_length_c 17.708048
_cell_angle_alpha 90.000000
_cell_angle_beta 127.091157
_cell_angle_gamma 90.000000
_cell_volume 3527.594608
_symmetry_space_group_name_H-M "C 2/M"
_symmetry_group_IT_number 12
_symmetry_cell_setting 'monoclinic'
loop_
_space_group_symop_operation_xyz
x,y,z
-x,y,-z
-x,-y,-z
x,-y,z
1/2+x,1/2+y,z
1/2-x,1/2+y,-z
1/2-x,1/2-y,-z
1/2+x,1/2-y,z
loop_
_atom_site_type_symbol
_atom_site_label
_atom_site_fract_x
_atom_site_fract_y
_atom_site_fract_z
Si Si1 0.747250 0.252218 0.087977
Si Si2 0.475797 0.407395 0.371112
Si Si3 0.651041 0.768610 0.348876
Si Si4 0.035935 0.837699 0.798000
Si Si5 0.592929 0.744431 0.485674
Si Si6 0.106526 0.906539 0.998906
Si Si7 0.729383 0.910715 0.295759
Si Si8 0.131797 0.412598 0.079411
O O1 0.872786 0.230972 0.176844
O O2 0.678892 0.172031 0.074860
O O3 0.750000 0.250000 0.000000
O O4 0.692014 0.338897 0.075674
O O5 0.494895 0.500000 0.398863
O O6 0.469058 0.396320 0.276936
O O7 0.567603 0.349733 0.454740
O O8 0.354631 0.381480 0.340727
O O9 0.582520 0.707087 0.261796
O O10 0.590029 0.777634 0.398476
O O11 0.779699 0.740788 0.424560
O O12 0.662374 0.853447 0.315370
O O13 0.070580 0.878687 0.895066
O O14 0.500000 0.770068 0.500000
O O15 0.146053 0.000000 0.016563
O O16 0.000000 0.904153 0.000000
O O17 0.665381 0.914033 0.183804
O O18 0.739605 0.000000 0.332234
O O19 0.174155 0.500000 0.069170
O O20 0.000000 0.411787 0.000000
#
# Coordination Sequence:
#
# PCOD9184276 Si02
#       8
#     8   8   8   8   8   8   8   8
#     4  10  21  33  52  79 109 152 195 236 291 339
#     4  10  19  33  58  88 114 146 184 237 302 350
#     4  10  22  36  57  85 116 147 190 232 288 353
#     4  10  21  36  56  82 112 152 197 240 288 350
#     4  10  20  38  57  85 117 150 182 232 294 355
#     4  10  22  38  55  78 111 155 206 252 284 327
#     4  10  20  34  56  85 116 147 184 238 293 343
#     4  10  21  35  55  83 118 153 189 239 298 353
#
# _framework density 18.142674
#
# number of rings (size 3 to 8) (size 9 to 14) (size 15 to 20)
#    0.000    2.000    2.500    0.750    5.250    2.750 
#    0.000    0.625    0.000    0.375    0.000    0.000 
#    0.000    0.000    0.000    0.000    0.000    0.000 
#
# Total GULP energy -178189.315941 kJ/mol
# GULP energy per Si atom -5568.416123 kJ/mol
# Density = 1.810138 g / cm^3
# Si number density = 18.142674 Si / 1000 Ang^3
#
#
#
# Elastic Constant Matrix: (Units=GPa)
#
#
# Indices 1 2 3 4 5 6 
#
# 1 84.5757 47.5950 19.0019 0.0000 -4.2779 0.0000
# 2 47.5950 120.3660 33.6682 0.0000 1.6236 0.0000
# 3 19.0019 33.6682 61.3020 0.0000 15.5081 0.0000
# 4 0.0000 0.0000 0.0000 24.9244 0.0000 -6.0365
# 5 -4.2779 1.6236 15.5081 0.0000 33.6176 0.0000
# 6 0.0000 0.0000 0.0000 -6.0365 0.0000 20.1843
#
#
#
# Elastic Compliance Matrix: (Units=1/GPa)
#
#
# Indices 1 2 3 4 5 6 
#
# 1 0.015710 -0.005491 -0.002747 0.000000 0.003532 0.000000
# 2 -0.005491 0.011892 -0.005103 0.000000 0.001081 0.000000
# 3 -0.002747 -0.005103 0.022634 0.000000 -0.010545 0.000000
# 4 0.000000 0.000000 0.000000 0.043254 0.000000 0.012936
# 5 0.003532 0.001081 -0.010545 0.000000 0.035008 0.000000
# 6 0.000000 0.000000 0.000000 0.012936 0.000000 0.053412
#
#
# Mechanical properties :
#
#
# Convention : Reuss Voigt Hill
#
# Bulk Modulus (GPa) = 42.45546 51.86377 47.15962
# Shear Modulus (GPa) = 23.10070 26.81049 24.95560
#
# Velocity S-wave (km/s) = 3.57218 3.84833 3.71282
# Velocity P-wave (km/s) = 6.36126 6.95664 6.66560
#
# Compressibility (1/GPa) = 0.02355410
#
# Stress axis : x y z
#
# Youngs Moduli (GPa) = 63.65490 84.09016 44.18088
#
# Poissons Ratio (x) = 0.46175 0.12137
# Poissons Ratio (y) = 0.34954 0.22544
# Poissons Ratio (z) = 0.17487 0.42908
#
# Static dielectric constant tensor:
#      x y z
#    x 1.644580 0.000000 0.005930 
#    y 0.000000 1.655660 0.000000 
#    z 0.005930 0.000000 1.652290 
# 
# From -- ./inp_files/270725.got.cif
#   From: 2010.05.17/outbox.cif.g08.bks.cpg/sg12_136_cif.got.tgz:270725.got - 2010.06.03 13:09:07.
