data_PCOD9184693
_publ_section_title
;
Structure prediction by ZEFSAII (Michael W. Deem and Ramdas Pophale) SiO2 
 PCOD9184693
Probable space group: C 2/M
;
_chemical_formula_sum "Si O2"
_cell_formula_units_Z 64
_cell_length_a 21.463014
_cell_length_b 19.946580
_cell_length_c 9.993470
_cell_angle_alpha 90.000000
_cell_angle_beta 48.901812
_cell_angle_gamma 90.000000
_cell_volume 3224.090610
_symmetry_space_group_name_H-M "C 2/M"
_symmetry_group_IT_number 12
_symmetry_cell_setting 'monoclinic'
loop_
_space_group_symop_operation_xyz
x,y,z
-x,y,-z
-x,-y,-z
x,-y,z
1/2+x,1/2+y,z
1/2-x,1/2+y,-z
1/2-x,1/2-y,-z
1/2+x,1/2-y,z
loop_
_atom_site_type_symbol
_atom_site_label
_atom_site_fract_x
_atom_site_fract_y
_atom_site_fract_z
Si Si1 0.713080 0.073977 0.199394
Si Si2 0.248173 0.292037 0.297907
Si Si3 0.375625 0.211172 0.271619
Si Si4 0.376723 0.717843 0.694368
Si Si5 0.815089 0.074286 0.778366
Si Si6 0.951093 0.574584 0.735824
Si Si7 0.000138 0.279541 0.696663
Si Si8 0.849019 0.425134 0.157012
O O1 0.743983 0.132712 0.250149
O O2 0.619210 0.082221 0.278760
O O3 0.720585 0.000000 0.249774
O O4 0.766109 0.075131 0.987960
O O5 0.334931 0.262532 0.224772
O O6 0.186164 0.288536 0.512686
O O7 0.211004 0.246402 0.230833
O O8 0.464938 0.229904 0.204600
O O9 0.374346 0.136581 0.213046
O O10 0.373930 0.638007 0.699697
O O11 0.410186 0.751816 0.783059
O O12 0.439011 0.741722 0.490605
O O13 0.745500 0.082688 0.761025
O O14 0.852405 0.000000 0.709850
O O15 0.988760 0.500000 0.670550
O O16 0.005106 0.641202 0.658976
O O17 0.903997 0.576311 0.944855
O O18 0.858633 0.500000 0.203037
#
# Coordination Sequence:
#
# PCOD9184693 Si02
#       8
#     8   8   8   8   8   8   8   8
#     4   9  18  33  56  84 106 134 180 224 264 310
#     4  10  19  34  54  75 107 145 180 220 258 309
#     4  10  21  33  49  76 113 144 177 213 262 314
#     4  10  19  35  55  76 103 141 179 219 261 310
#     4   9  18  34  58  83 103 129 179 236 270 303
#     4   9  18  34  54  78 111 144 176 214 259 318
#     4  10  21  34  50  77 111 143 176 214 258 322
#     4   9  18  33  54  80 107 140 179 217 264 320
#
# _framework density 19.850556999999998
#
# number of rings (size 3 to 8) (size 9 to 14) (size 15 to 20)
#    0.000    2.500    2.500    1.500    0.000    3.000 
#    0.000    5.625    0.000    0.750    0.000    1.750 
#    0.000    0.000    0.000    0.000    0.000    0.000 
#
# Total GULP energy -178602.999036 kJ/mol
# GULP energy per Si atom -5581.343720 kJ/mol
# Density = 1.980538 g / cm^3
# Si number density = 19.850557 Si / 1000 Ang^3
#
#
#
# Elastic Constant Matrix: (Units=GPa)
#
#
# Indices 1 2 3 4 5 6 
#
# 1 124.8312 66.8686 21.8779 0.0000 32.5963 0.0000
# 2 66.8686 138.4467 15.5119 0.0000 11.9563 0.0000
# 3 21.8779 15.5119 27.5642 0.0000 5.2244 0.0000
# 4 0.0000 0.0000 0.0000 35.4953 0.0000 0.6511
# 5 32.5963 11.9563 5.2244 0.0000 19.9000 0.0000
# 6 0.0000 0.0000 0.0000 0.6511 0.0000 16.5227
#
#
#
# Elastic Compliance Matrix: (Units=1/GPa)
#
#
# Indices 1 2 3 4 5 6 
#
# 1 0.019506 -0.006375 -0.006908 0.000000 -0.026307 0.000000
# 2 -0.006375 0.010057 -0.001509 0.000000 0.004796 0.000000
# 3 -0.006908 -0.001509 0.042405 0.000000 0.001090 0.000000
# 4 0.000000 0.000000 0.000000 0.028193 0.000000 -0.001111
# 5 -0.026307 0.004796 0.001090 0.000000 0.090174 0.000000
# 6 0.000000 0.000000 0.000000 -0.001111 0.000000 0.060567
#
#
# Mechanical properties :
#
#
# Convention : Reuss Voigt Hill
#
# Bulk Modulus (GPa) = 23.59426 55.48434 39.53930
# Shear Modulus (GPa) = 16.97142 26.82251 21.89696
#
# Velocity S-wave (km/s) = 2.92714 3.67988 3.32488
# Velocity P-wave (km/s) = 4.83073 6.78728 5.89080
#
# Compressibility (1/GPa) = 0.04238319
#
# Stress axis : x y z
#
# Youngs Moduli (GPa) = 51.26652 99.43289 23.58238
#
# Poissons Ratio (x) = 0.63392 0.16291
# Poissons Ratio (y) = 0.32684 0.03558
# Poissons Ratio (z) = 0.35416 0.15000
#
# Static dielectric constant tensor:
#      x y z
#    x 1.754120 0.000000 -0.012220 
#    y 0.000000 1.696060 0.000000 
#    z -0.012220 0.000000 1.722670 
# 
# From -- ./inp_files/167215.got.cif
#   From: 2010.05.17/outbox.cif.g08.bks.cpg/sg12_84_cif.got.tgz:167215.got - 2010.06.03 13:09:07.
