data_PCOD9184322
_publ_section_title
;
Structure prediction by ZEFSAII (Michael W. Deem and Ramdas Pophale) SiO2 
 PCOD9184322
Probable space group: C 2/M
;
_chemical_formula_sum "Si O2"
_cell_formula_units_Z 56
_cell_length_a 12.145871
_cell_length_b 22.894540
_cell_length_c 11.383096
_cell_angle_alpha 90.000000
_cell_angle_beta 74.155186
_cell_angle_gamma 90.000000
_cell_volume 3045.076406
_symmetry_space_group_name_H-M "C 2/M"
_symmetry_group_IT_number 12
_symmetry_cell_setting 'monoclinic'
loop_
_space_group_symop_operation_xyz
x,y,z
-x,y,-z
-x,-y,-z
x,-y,z
1/2+x,1/2+y,z
1/2-x,1/2+y,-z
1/2-x,1/2-y,-z
1/2+x,1/2-y,z
loop_
_atom_site_type_symbol
_atom_site_label
_atom_site_fract_x
_atom_site_fract_y
_atom_site_fract_z
Si Si1 0.611836 0.567013 0.210210
Si Si2 0.611886 0.319736 0.047725
Si Si3 0.172866 0.758870 0.637710
Si Si4 0.816039 0.286498 0.817336
Si Si5 0.216227 0.431639 0.625531
Si Si6 0.011459 0.348765 0.637791
Si Si7 0.581452 0.621966 0.584299
O O1 0.614947 0.500000 0.165714
O O2 0.615114 0.618824 0.115179
O O3 0.717516 0.575527 0.270010
O O4 0.495783 0.576983 0.320002
O O5 0.614737 0.264089 0.134564
O O6 0.500000 0.316879 0.000000
O O7 0.723582 0.312563 0.933815
O O8 0.250000 0.750000 0.500000
O O9 0.249966 0.754627 0.730243
O O10 0.115518 0.822331 0.650512
O O11 0.079352 0.709352 0.653788
O O12 0.891145 0.338021 0.737135
O O13 0.204883 0.500000 0.605885
O O14 0.302998 0.404182 0.504466
O O15 0.093567 0.400787 0.655835
O O16 0.000000 0.351693 0.500000
O O17 0.500000 0.641705 0.500000
#
# Coordination Sequence:
#
# PCOD9184322 Si02
#       7
#     8   8   8   8   8   8   8
#     4  10  21  38  62  86 112 154 206 253 294 343
#     4  11  24  42  61  83 119 158 197 245 291 353
#     4  12  21  35  59  90 121 151 189 241 292 356
#     4  11  24  40  59  88 121 157 194 236 302 353
#     4  10  21  37  55  83 121 157 193 238 296 355
#     4  12  22  35  58  88 120 151 193 238 289 357
#     4  10  19  33  58  90 122 152 189 244 303 352
#
# _framework density 18.390343999999999
#
# number of rings (size 3 to 8) (size 9 to 14) (size 15 to 20)
#    0.000    1.143    2.857    4.286    2.000    3.429 
#    0.000    0.714    0.000    1.714    0.000    0.000 
#    0.000    0.000    0.000    0.000    0.000    0.000 
#
# Total GULP energy -156429.456347 kJ/mol
# GULP energy per Si atom -5586.766298 kJ/mol
# Density = 1.834849 g / cm^3
# Si number density = 18.390344 Si / 1000 Ang^3
#
#
#
# Elastic Constant Matrix: (Units=GPa)
#
#
# Indices 1 2 3 4 5 6 
#
# 1 82.8093 49.0284 26.2636 0.0000 10.6130 0.0000
# 2 49.0284 89.5369 10.4504 0.0000 25.0304 0.0000
# 3 26.2636 10.4504 62.5038 0.0000 10.0011 0.0000
# 4 0.0000 0.0000 0.0000 21.4702 0.0000 1.4971
# 5 10.6130 25.0304 10.0011 0.0000 27.3270 0.0000
# 6 0.0000 0.0000 0.0000 1.4971 0.0000 32.2995
#
#
#
# Elastic Compliance Matrix: (Units=1/GPa)
#
#
# Indices 1 2 3 4 5 6 
#
# 1 0.021032 -0.012262 -0.007730 0.000000 0.005892 0.000000
# 2 -0.012262 0.022168 0.004177 0.000000 -0.017071 0.000000
# 3 -0.007730 0.004177 0.019843 0.000000 -0.008086 0.000000
# 4 0.000000 0.000000 0.000000 0.046727 0.000000 -0.002166
# 5 0.005892 -0.017071 -0.008086 0.000000 0.052902 0.000000
# 6 0.000000 0.000000 0.000000 -0.002166 0.000000 0.031061
#
#
# Mechanical properties :
#
#
# Convention : Reuss Voigt Hill
#
# Bulk Modulus (GPa) = 31.83337 45.14830 38.49083
# Shear Modulus (GPa) = 21.20156 26.15985 23.68071
#
# Velocity S-wave (km/s) = 3.39907 3.77567 3.59231
# Velocity P-wave (km/s) = 5.72296 6.60385 6.17912
#
# Compressibility (1/GPa) = 0.03141358
#
# Stress axis : x y z
#
# Youngs Moduli (GPa) = 47.54621 45.11096 50.39669
#
# Poissons Ratio (x) = 0.55313 0.38958
# Poissons Ratio (y) = 0.58299 -0.21053
# Poissons Ratio (z) = 0.36754 -0.18845
#
# Static dielectric constant tensor:
#      x y z
#    x 1.612550 0.000000 -0.002060 
#    y 0.000000 1.614760 0.000000 
#    z -0.002060 0.000000 1.634620 
# 
# From -- ./inp_files/133303.got.cif
#   From: 2010.05.17/outbox.cif.g08.bks.cpg/sg12_67_cif.got.tgz:133303.got - 2010.06.03 13:09:07.
