data_PCOD9184514
_publ_section_title
;
Structure prediction by ZEFSAII (Michael W. Deem and Ramdas Pophale) SiO2 
 PCOD9184514
Probable space group: C 2/M
;
_chemical_formula_sum "Si O2"
_cell_formula_units_Z 44
_cell_length_a 23.287971
_cell_length_b 13.965573
_cell_length_c 13.326311
_cell_angle_alpha 90.000000
_cell_angle_beta 144.856317
_cell_angle_gamma 90.000000
_cell_volume 2494.841210
_symmetry_space_group_name_H-M "C 2/M"
_symmetry_group_IT_number 12
_symmetry_cell_setting 'monoclinic'
loop_
_space_group_symop_operation_xyz
x,y,z
-x,y,-z
-x,-y,-z
x,-y,z
1/2+x,1/2+y,z
1/2-x,1/2+y,-z
1/2-x,1/2-y,-z
1/2+x,1/2-y,z
loop_
_atom_site_type_symbol
_atom_site_label
_atom_site_fract_x
_atom_site_fract_y
_atom_site_fract_z
Si Si1 0.523123 0.339933 0.783361
Si Si2 0.579227 0.500000 0.702461
Si Si3 0.257414 0.000000 0.357274
Si Si4 0.933082 0.713616 0.494987
Si Si5 0.026347 0.500000 0.380610
Si Si6 0.236321 0.156921 0.155511
Si Si7 0.206583 0.500000 0.930648
Si Si8 0.061948 0.000000 0.192666
O O1 0.555068 0.410081 0.738837
O O2 0.459282 0.258273 0.639326
O O3 0.469111 0.406623 0.787674
O O4 0.627704 0.303462 0.977027
O O5 0.500000 0.500000 0.500000
O O6 0.699448 0.500000 0.858389
O O7 0.375595 0.000000 0.552760
O O8 0.232721 0.089045 0.248337
O O9 0.178778 0.000000 0.334094
O O10 0.952445 0.599161 0.530605
O O11 0.820481 0.732975 0.301060
O O12 0.000000 0.750883 0.500000
O O13 0.906758 0.500000 0.188912
O O14 0.275659 0.091186 0.118690
O O15 0.000000 0.000000 0.000000
#
# Coordination Sequence:
#
# PCOD9184514 Si02
#       8
#     8   4   4   8   4   8   4   4
#     4  10  21  33  53  82 107 138 188 218 272 327
#     4   9  18  35  50  75 117 141 172 219 274 327
#     4   9  17  30  61  77  95 132 182 236 265 296
#     4  11  20  32  52  79 118 146 173 219 262 324
#     4  10  19  34  51  80 105 146 186 210 257 324
#     4   9  17  31  50  80 107 138 178 222 259 319
#     4   9  15  31  55  74 102 149 182 214 257 317
#     4  11  18  38  63  77  98 140 180 244 280 297
#
# _framework density 17.636393000000002
#
# number of rings (size 3 to 8) (size 9 to 14) (size 15 to 20)
#    0.000    2.182    3.636    2.455    0.000    0.727 
#    3.273    3.636    0.000    0.000    0.000    3.182 
#    0.000    0.000    0.000    0.000    0.000    0.000 
#
# Total GULP energy -122474.464334 kJ/mol
# GULP energy per Si atom -5567.021106 kJ/mol
# Density = 1.759625 g / cm^3
# Si number density = 17.636393 Si / 1000 Ang^3
#
#
#
# Elastic Constant Matrix: (Units=GPa)
#
#
# Indices 1 2 3 4 5 6 
#
# 1 105.2815 16.2224 68.2782 0.0000 23.9857 0.0000
# 2 16.2224 40.1995 23.7942 0.0000 -4.3655 0.0000
# 3 68.2782 23.7942 152.5281 0.0000 26.3835 0.0000
# 4 0.0000 0.0000 0.0000 9.8098 0.0000 -7.6121
# 5 23.9857 -4.3655 26.3835 0.0000 31.8405 0.0000
# 6 0.0000 0.0000 0.0000 -7.6121 0.0000 -3.6710
#
#
#
# Elastic Compliance Matrix: (Units=1/GPa)
#
#
# Indices 1 2 3 4 5 6 
#
# 1 0.014993 -0.004144 -0.004685 0.000000 -0.007981 0.000000
# 2 -0.004144 0.030687 -0.004902 0.000000 0.011392 0.000000
# 3 -0.004685 -0.004902 0.010417 0.000000 -0.005775 0.000000
# 4 0.000000 0.000000 0.000000 0.039072 0.000000 -0.081018
# 5 -0.007981 0.011392 -0.005775 0.000000 0.043766 0.000000
# 6 0.000000 0.000000 0.000000 -0.081018 0.000000 -0.104409
#
#
# Mechanical properties :
#
#
# Convention : Reuss Voigt Hill
#
# Bulk Modulus (GPa) = 34.92286 57.17764 46.05025
# Shear Modulus (GPa) = 69.89766 20.24349 45.07058
#
# Velocity S-wave (km/s) = 6.30227 3.39163 5.06072
# Velocity P-wave (km/s) = 8.53246 6.91579 7.76631
#
# Compressibility (1/GPa) = 0.02863454
#
# Stress axis : x y z
#
# Youngs Moduli (GPa) = 66.69633 32.58690 95.99818
#
# Poissons Ratio (x) = 0.13505 0.44971
# Poissons Ratio (y) = 0.27641 0.47062
# Poissons Ratio (z) = 0.31245 0.15975
#
# Static dielectric constant tensor:
#      x y z
#    x 1.601050 0.000000 0.042460 
#    y 0.000000 1.656400 0.000000 
#    z 0.042460 0.000000 1.648380 
# 
# From -- ./inp_files/167463.got.cif
#   From: 2010.05.17/outbox.cif.g08.bks.cpg/sg12_84_cif.got.tgz:167463.got - 2010.06.03 13:09:07.
