data_PCOD9184489
_publ_section_title
;
Structure prediction by ZEFSAII (Michael W. Deem and Ramdas Pophale) SiO2 
 PCOD9184489
Probable space group: C 2/M
;
_chemical_formula_sum "Si O2"
_cell_formula_units_Z 60
_cell_length_a 21.324674
_cell_length_b 14.464946
_cell_length_c 20.781123
_cell_angle_alpha 90.000000
_cell_angle_beta 152.490003
_cell_angle_gamma 90.000000
_cell_volume 2960.870161
_symmetry_space_group_name_H-M "C 2/M"
_symmetry_group_IT_number 12
_symmetry_cell_setting 'monoclinic'
loop_
_space_group_symop_operation_xyz
x,y,z
-x,y,-z
-x,-y,-z
x,-y,z
1/2+x,1/2+y,z
1/2-x,1/2+y,-z
1/2-x,1/2-y,-z
1/2+x,1/2-y,z
loop_
_atom_site_type_symbol
_atom_site_label
_atom_site_fract_x
_atom_site_fract_y
_atom_site_fract_z
Si Si1 0.500000 0.252046 0.000000
Si Si2 0.112238 0.792331 0.229865
Si Si3 0.801327 0.396938 0.867938
Si Si4 0.580021 0.798366 0.510858
Si Si5 0.500415 0.105000 0.832766
Si Si6 0.546040 0.890399 0.350087
Si Si7 0.521982 0.394696 0.415918
Si Si8 0.361717 0.609055 0.619763
O O1 0.480647 0.308008 0.916909
O O2 0.371014 0.183769 0.890510
O O3 0.263022 0.826650 0.350339
O O4 0.102513 0.682682 0.235917
O O5 0.070740 0.839709 0.258791
O O6 0.832309 0.500000 0.869749
O O7 0.640761 0.388500 0.728198
O O8 0.873180 0.391832 0.003444
O O9 0.500000 0.832938 0.500000
O O10 0.511101 0.833504 0.381976
O O11 0.580579 0.687088 0.511929
O O12 0.535328 0.124986 0.790042
O O13 0.443906 0.000000 0.782553
O O14 0.702130 0.864897 0.473807
O O15 0.541777 0.000000 0.361010
O O16 0.562172 0.500000 0.469586
O O17 0.571435 0.374715 0.388278
O O18 0.367984 0.500000 0.637474
#
# Coordination Sequence:
#
# PCOD9184489 Si02
#       8
#     4   8   8   8   8   8   8   8
#     4  10  19  34  51  70  98 136 172 198 234 288
#     4  10  20  34  52  73  99 130 167 205 242 290
#     4   9  18  32  50  73 103 135 164 197 239 292
#     4  11  22  34  49  73 103 133 164 200 244 294
#     4   9  17  31  53  78  99 125 164 205 243 286
#     4   9  18  34  55  75  96 126 167 209 246 286
#     4  10  20  34  52  76 104 130 159 200 251 298
#     4   9  18  34  55  75  96 126 164 208 253 290
#
# _framework density 20.264313999999999
#
# number of rings (size 3 to 8) (size 9 to 14) (size 15 to 20)
#    0.000    2.400    0.000    2.600    0.000    4.800 
#    0.000    7.667    0.000    0.000    0.000    0.000 
#    0.000    0.000    0.000    0.000    0.000    0.000 
#
# Total GULP energy -167450.318924 kJ/mol
# GULP energy per Si atom -5581.677297 kJ/mol
# Density = 2.021819 g / cm^3
# Si number density = 20.264314 Si / 1000 Ang^3
#
#
#
# Elastic Constant Matrix: (Units=GPa)
#
#
# Indices 1 2 3 4 5 6 
#
# 1 72.3033 13.2740 -3.9757 -0.0002 -5.6590 -0.0001
# 2 13.2740 21.8264 -2.0012 -0.0001 -7.9821 -0.0001
# 3 -3.9757 -2.0012 16.4388 -0.0001 -6.8840 -0.0002
# 4 -0.0002 -0.0001 -0.0001 16.9626 0.0000 -2.7319
# 5 -5.6590 -7.9821 -6.8840 0.0000 33.3139 -0.0001
# 6 -0.0001 -0.0001 -0.0002 -2.7319 -0.0001 13.7138
#
#
#
# Elastic Compliance Matrix: (Units=1/GPa)
#
#
# Indices 1 2 3 4 5 6 
#
# 1 0.015724 -0.008816 0.003244 0.000000 0.001229 0.000000
# 2 -0.008816 0.057501 0.010959 0.000000 0.014545 0.000001
# 3 0.003244 0.010959 0.070370 0.000001 0.017718 0.000001
# 4 0.000000 0.000000 0.000001 0.060907 0.000000 0.012133
# 5 0.001229 0.014545 0.017718 0.000000 0.037373 0.000001
# 6 0.000000 0.000001 0.000001 0.012133 0.000001 0.075336
#
#
# Mechanical properties :
#
#
# Convention : Reuss Voigt Hill
#
# Bulk Modulus (GPa) = 6.47790 13.90695 10.19243
# Shear Modulus (GPa) = 13.97063 19.68280 16.82672
#
# Velocity S-wave (km/s) = 2.62853 3.11996 2.88473
# Velocity P-wave (km/s) = 3.52362 4.45606 4.01699
#
# Compressibility (1/GPa) = 0.15437092
#
# Stress axis : x y z
#
# Youngs Moduli (GPa) = 63.59852 17.39086 14.21050
#
# Poissons Ratio (x) = 0.15331 -0.04610
# Poissons Ratio (y) = 0.56066 -0.15573
# Poissons Ratio (z) = -0.20633 -0.19059
#
# Static dielectric constant tensor:
#      x y z
#    x 1.722900 0.000000 -0.019300 
#    y 0.000000 1.746860 0.000000 
#    z -0.019300 0.000000 1.725260 
# 
# From -- ./inp_files/322140.got.cif
#   From: 2010.05.17/outbox.cif.g08.bks.cpg/sg12_162_cif.got.tgz:322140.got - 2010.06.03 13:09:07.
