data_PCOD9184432
_publ_section_title
;
Structure prediction by ZEFSAII (Michael W. Deem and Ramdas Pophale) SiO2 
 PCOD9184432
Probable space group: C 2/M
;
_chemical_formula_sum "Si O2"
_cell_formula_units_Z 48
_cell_length_a 21.500621
_cell_length_b 13.755113
_cell_length_c 8.970436
_cell_angle_alpha 90.000000
_cell_angle_beta 63.154944
_cell_angle_gamma 90.000000
_cell_volume 2367.042299
_symmetry_space_group_name_H-M "C 2/M"
_symmetry_group_IT_number 12
_symmetry_cell_setting 'monoclinic'
loop_
_space_group_symop_operation_xyz
x,y,z
-x,y,-z
-x,-y,-z
x,-y,z
1/2+x,1/2+y,z
1/2-x,1/2+y,-z
1/2-x,1/2-y,-z
1/2+x,1/2-y,z
loop_
_atom_site_type_symbol
_atom_site_label
_atom_site_fract_x
_atom_site_fract_y
_atom_site_fract_z
Si Si1 0.185444 0.890126 0.765798
Si Si2 0.910609 0.608701 0.867148
Si Si3 0.607372 0.790173 0.821666
Si Si4 0.260140 0.385288 0.632884
Si Si5 0.959539 0.693691 0.411360
Si Si6 0.677984 0.204079 0.266779
O O1 0.126848 0.813282 0.869266
O O2 0.204605 0.877495 0.568814
O O3 0.254738 0.861151 0.779452
O O4 0.165488 0.000000 0.814072
O O5 0.882324 0.500000 0.890348
O O6 0.854395 0.684313 0.860133
O O7 0.981826 0.615170 0.695185
O O8 0.925164 0.640147 0.019743
O O9 0.681654 0.842592 0.703450
O O10 0.561638 0.766602 0.726604
O O11 0.259116 0.500000 0.675162
O O12 0.300761 0.312729 0.702541
O O13 0.885046 0.666301 0.560076
O O14 0.000000 0.752227 0.500000
#
# Coordination Sequence:
#
# PCOD9184432 Si02
#       6
#     8   8   8   8   8   8
#     4  10  19  33  62  89 110 146 188 234 282 333
#     4  11  25  37  55  84 117 154 185 226 283 340
#     4  11  20  39  56  84 120 148 181 236 286 326
#     4  10  19  33  62  90 111 146 188 233 282 333
#     4  10  21  37  59  79 112 151 188 228 275 331
#     4  10  19  39  57  85 118 147 185 234 278 326
#
# _framework density 20.278471
#
# number of rings (size 3 to 8) (size 9 to 14) (size 15 to 20)
#    0.000    1.667    3.333    2.500    0.000    8.333 
#    0.000    2.500    0.000   12.000    0.000    0.000 
#    0.000    0.000    0.000    0.000    0.000    0.000 
#
# Total GULP energy -133710.713206 kJ/mol
# GULP energy per Si atom -5571.279717 kJ/mol
# Density = 2.023232 g / cm^3
# Si number density = 20.278471 Si / 1000 Ang^3
#
#
#
# Elastic Constant Matrix: (Units=GPa)
#
#
# Indices 1 2 3 4 5 6 
#
# 1 116.9993 33.7410 22.3767 0.0000 29.7971 0.0000
# 2 33.7410 124.6374 14.5002 0.0000 10.5695 0.0000
# 3 22.3767 14.5002 45.5951 0.0000 16.9975 0.0000
# 4 0.0000 0.0000 0.0000 20.5795 0.0000 2.1946
# 5 29.7971 10.5695 16.9975 0.0000 29.2733 0.0000
# 6 0.0000 0.0000 0.0000 2.1946 0.0000 9.9258
#
#
#
# Elastic Compliance Matrix: (Units=1/GPa)
#
#
# Indices 1 2 3 4 5 6 
#
# 1 0.012202 -0.002237 -0.001210 0.000000 -0.010910 0.000000
# 2 -0.002237 0.008823 -0.001748 0.000000 0.000106 0.000000
# 3 -0.001210 -0.001748 0.028572 0.000000 -0.014728 0.000000
# 4 0.000000 0.000000 0.000000 0.049765 0.000000 -0.011003
# 5 -0.010910 0.000106 -0.014728 0.000000 0.053780 0.000000
# 6 0.000000 0.000000 0.000000 -0.011003 0.000000 0.103180
#
#
# Mechanical properties :
#
#
# Convention : Reuss Voigt Hill
#
# Bulk Modulus (GPa) = 25.50478 47.60751 36.55614
# Shear Modulus (GPa) = 17.87108 26.39664 22.13386
#
# Velocity S-wave (km/s) = 2.97186 3.61183 3.30736
# Velocity P-wave (km/s) = 4.93766 6.39700 5.71411
#
# Compressibility (1/GPa) = 0.03920834
#
# Stress axis : x y z
#
# Youngs Moduli (GPa) = 81.95192 113.33691 34.99917
#
# Poissons Ratio (x) = 0.25358 0.04234
# Poissons Ratio (y) = 0.18336 0.06116
# Poissons Ratio (z) = 0.09914 0.19807
#
# Static dielectric constant tensor:
#      x y z
#    x 1.743120 0.000000 0.012830 
#    y 0.000000 1.684910 0.000000 
#    z 0.012830 0.000000 1.795780 
# 
# From -- ./inp_files/85652.got.cif
#   From: 2010.05.17/outbox.cif.g08.bks.cpg/sg12_43_cif.got.tgz:85652.got - 2010.06.03 13:09:07.
