data_PCOD9184075
_publ_section_title
;
Structure prediction by ZEFSAII (Michael W. Deem and Ramdas Pophale) SiO2 
 PCOD9184075
Probable space group: C 2/M
;
_chemical_formula_sum "Si O2"
_cell_formula_units_Z 56
_cell_length_a 24.902626
_cell_length_b 9.169489
_cell_length_c 14.147087
_cell_angle_alpha 90.000000
_cell_angle_beta 85.010621
_cell_angle_gamma 90.000000
_cell_volume 3218.166919
_symmetry_space_group_name_H-M "C 2/M"
_symmetry_group_IT_number 12
_symmetry_cell_setting 'monoclinic'
loop_
_space_group_symop_operation_xyz
x,y,z
-x,y,-z
-x,-y,-z
x,-y,z
1/2+x,1/2+y,z
1/2-x,1/2+y,-z
1/2-x,1/2-y,-z
1/2+x,1/2-y,z
loop_
_atom_site_type_symbol
_atom_site_label
_atom_site_fract_x
_atom_site_fract_y
_atom_site_fract_z
Si Si1 0.789169 0.173928 0.281196
Si Si2 0.439307 0.326251 0.972307
Si Si3 0.136705 0.173054 0.547929
Si Si4 0.451905 0.172402 0.321452
Si Si5 0.167816 0.325224 0.348458
Si Si6 0.932305 0.674978 0.770964
Si Si7 0.877324 0.672600 0.148578
O O1 0.819441 0.202343 0.376154
O O2 0.726835 0.215181 0.300953
O O3 0.822040 0.260494 0.196859
O O4 0.793028 0.000000 0.262463
O O5 0.431516 0.500000 0.970594
O O6 0.432935 0.257062 0.870174
O O7 0.500000 0.297263 0.000000
O O8 0.398700 0.253119 0.052746
O O9 0.080771 0.239105 0.595188
O O10 0.155056 0.246990 0.448606
O O11 0.132243 0.000000 0.537175
O O12 0.513909 0.213807 0.296259
O O13 0.420996 0.195242 0.226318
O O14 0.448837 0.000000 0.344071
O O15 0.168064 0.500000 0.364260
O O16 0.120923 0.292231 0.280818
O O17 0.934808 0.500000 0.787373
O O18 0.872710 0.500000 0.133189
#
# Coordination Sequence:
#
# PCOD9184075 Si02
#       7
#     8   8   8   8   8   8   8
#     4   9  19  36  56  80 109 141 181 226 269 313
#     4  11  22  35  56  84 112 141 172 215 270 324
#     4  10  20  33  54  80 108 141 180 225 269 317
#     4   9  18  33  53  78 107 138 176 221 267 317
#     4  10  21  37  56  77 107 146 183 223 268 316
#     4  10  21  37  56  79 108 143 182 221 266 320
#     4  10  19  33  57  84 108 138 178 224 266 312
#
# _framework density 17.401209999999999
#
# number of rings (size 3 to 8) (size 9 to 14) (size 15 to 20)
#    0.000    2.143    1.429    1.714    0.000    4.000 
#    0.000    3.571    0.000    0.000    0.000    0.000 
#    0.000    0.000    0.000    0.000    0.000    0.000 
#
# Total GULP energy -156334.455653 kJ/mol
# GULP energy per Si atom -5583.373416 kJ/mol
# Density = 1.736160 g / cm^3
# Si number density = 17.401210 Si / 1000 Ang^3
#
#
#
# Elastic Constant Matrix: (Units=GPa)
#
#
# Indices 1 2 3 4 5 6 
#
# 1 147.1209 71.8015 95.7246 0.0000 -29.8869 0.0000
# 2 71.8015 38.9551 41.8251 0.0000 -19.1477 0.0000
# 3 95.7246 41.8251 70.5212 0.0000 -42.5109 0.0000
# 4 0.0000 0.0000 0.0000 35.8337 0.0000 -5.2579
# 5 -29.8869 -19.1477 -42.5109 0.0000 19.4767 0.0000
# 6 0.0000 0.0000 0.0000 -5.2579 0.0000 15.6445
#
#
#
# Elastic Compliance Matrix: (Units=1/GPa)
#
#
# Indices 1 2 3 4 5 6 
#
# 1 0.018711 -0.039468 0.025567 0.000000 0.045713 0.000000
# 2 -0.039468 0.132928 -0.053858 0.000000 -0.047433 0.000000
# 3 0.025567 -0.053858 -0.009978 0.000000 -0.035495 0.000000
# 4 0.000000 0.000000 0.000000 0.029354 0.000000 0.009866
# 5 0.045713 -0.047433 -0.035495 0.000000 -0.002615 0.000000
# 6 0.000000 0.000000 0.000000 0.009866 0.000000 0.067236
#
#
# Mechanical properties :
#
#
# Convention : Reuss Voigt Hill
#
# Bulk Modulus (GPa) = 162.79854 75.03331 118.91592
# Shear Modulus (GPa) = 13.39759 17.34070 15.36915
#
# Velocity S-wave (km/s) = 2.77776 3.16020 2.97513
# Velocity P-wave (km/s) = 10.20034 7.51858 8.96035
#
# Compressibility (1/GPa) = 0.00614256
#
# Stress axis : x y z
#
# Youngs Moduli (GPa) = 53.44531 7.52288 -100.22097
#
# Poissons Ratio (x) = 0.29691 2.56230
# Poissons Ratio (y) = 2.10938 -5.39766
# Poissons Ratio (z) = -1.36641 0.40516
#
# Static dielectric constant tensor:
#      x y z
#    x 1.585380 0.000000 -0.001760 
#    y 0.000000 1.575270 0.000000 
#    z -0.001760 0.000000 1.551560 
# 
# From -- ./inp_files/237402.got.cif
#   From: 2010.05.17/outbox.cif.g08.bks.cpg/sg12_119_cif.got.tgz:237402.got - 2010.06.03 13:09:07.
