data_PCOD9184803
_publ_section_title
;
Structure prediction by ZEFSAII (Michael W. Deem and Ramdas Pophale) SiO2 
 PCOD9184803
Probable space group: C 2/M
;
_chemical_formula_sum "Si O2"
_cell_formula_units_Z 56
_cell_length_a 14.200086
_cell_length_b 14.507301
_cell_length_c 21.956123
_cell_angle_alpha 90.000000
_cell_angle_beta 36.838548
_cell_angle_gamma 90.000000
_cell_volume 2711.861381
_symmetry_space_group_name_H-M "C 2/M"
_symmetry_group_IT_number 12
_symmetry_cell_setting 'monoclinic'
loop_
_space_group_symop_operation_xyz
x,y,z
-x,y,-z
-x,-y,-z
x,-y,z
1/2+x,1/2+y,z
1/2-x,1/2+y,-z
1/2-x,1/2-y,-z
1/2+x,1/2-y,z
loop_
_atom_site_type_symbol
_atom_site_label
_atom_site_fract_x
_atom_site_fract_y
_atom_site_fract_z
Si Si1 0.121303 0.279241 0.986109
Si Si2 0.475742 0.276786 0.828394
Si Si3 0.074575 0.399804 0.704146
Si Si4 0.261426 0.397139 0.278359
Si Si5 0.293698 0.609082 0.471919
Si Si6 0.031711 0.264011 0.553490
Si Si7 0.289975 0.403855 0.127057
O O1 0.302512 0.311672 0.897723
O O2 0.153276 0.178498 0.942210
O O3 0.050741 0.264340 0.089678
O O4 0.000000 0.323929 0.000000
O O5 0.561837 0.191043 0.750796
O O6 0.595881 0.359833 0.756149
O O7 0.104065 0.500000 0.719612
O O8 0.193225 0.391848 0.586907
O O9 0.897909 0.403467 0.770289
O O10 0.206202 0.500000 0.322209
O O11 0.339063 0.398884 0.171139
O O12 0.119919 0.324858 0.351361
O O13 0.323150 0.500000 0.441442
O O14 0.181327 0.666152 0.483534
O O15 0.436709 0.677594 0.417355
O O16 0.000000 0.233902 0.500000
O O17 0.334290 0.500000 0.074356
#
# Coordination Sequence:
#
# PCOD9184803 Si02
#       7
#     8   8   8   8   8   8   8
#     4  10  19  34  54  82 118 148 179 241 294 350
#     4  10  21  34  55  87 113 150 192 235 297 347
#     4   9  17  35  59  82 111 148 198 245 284 339
#     4  11  21  36  57  83 116 152 196 244 294 352
#     4  10  21  39  62  89 121 161 207 253 302 361
#     4  11  23  38  60  90 124 160 199 256 313 359
#     4   9  17  30  54  83 108 144 188 242 294 335
#
# _framework density 20.650023000000001
#
# number of rings (size 3 to 8) (size 9 to 14) (size 15 to 20)
#    0.000    2.000    2.857    1.286    0.000    2.286 
#    0.000    2.857    0.000    1.714    0.000    0.000 
#    0.000    0.000    0.000    0.000    0.000    0.000 
#
# Total GULP energy -155920.825297 kJ/mol
# GULP energy per Si atom -5568.600903 kJ/mol
# Density = 2.060302 g / cm^3
# Si number density = 20.650023 Si / 1000 Ang^3
#
#
#
# Elastic Constant Matrix: (Units=GPa)
#
#
# Indices 1 2 3 4 5 6 
#
# 1 89.6669 23.2922 5.0296 0.0000 -20.0792 0.0000
# 2 23.2922 83.2473 8.0414 0.0000 -20.9919 0.0000
# 3 5.0296 8.0414 47.0631 -0.0004 -15.0795 0.0001
# 4 0.0000 0.0000 -0.0004 35.9302 0.0001 -1.9025
# 5 -20.0792 -20.9919 -15.0795 0.0001 31.4428 0.0000
# 6 0.0000 0.0000 0.0001 -1.9025 0.0000 22.7310
#
#
#
# Elastic Compliance Matrix: (Units=1/GPa)
#
#
# Indices 1 2 3 4 5 6 
#
# 1 0.013340 -0.001863 0.001446 0.000000 0.007968 0.000000
# 2 -0.001863 0.014726 0.000534 0.000000 0.008898 0.000000
# 3 0.001446 0.000534 0.025300 0.000000 0.013413 0.000000
# 4 0.000000 0.000000 0.000000 0.027956 0.000000 0.002340
# 5 0.007968 0.008898 0.013413 0.000000 0.049266 0.000000
# 6 0.000000 0.000000 0.000000 0.002340 0.000000 0.044189
#
#
# Mechanical properties :
#
#
# Convention : Reuss Voigt Hill
#
# Bulk Modulus (GPa) = 18.65688 32.52263 25.58976
# Shear Modulus (GPa) = 25.98651 30.26173 28.12412
#
# Velocity S-wave (km/s) = 3.55128 3.83228 3.69445
# Velocity P-wave (km/s) = 5.08624 5.94689 5.53332
#
# Compressibility (1/GPa) = 0.05359952
#
# Stress axis : x y z
#
# Youngs Moduli (GPa) = 74.96522 67.90854 39.52555
#
# Poissons Ratio (x) = 0.12649 -0.05715
# Poissons Ratio (y) = 0.13963 -0.02110
# Poissons Ratio (z) = -0.10839 -0.03626
#
# Static dielectric constant tensor:
#      x y z
#    x 1.835100 0.000000 -0.021700 
#    y 0.000000 1.775780 0.000000 
#    z -0.021700 0.000000 1.794830 
# 
# From -- ./inp_files/339906.got.cif
#   From: 2010.05.17/outbox.cif.g08.bks.cpg/sg12_170_cif.got.tgz:339906.got - 2010.06.03 13:09:07.
