data_PCOD9184356
_publ_section_title
;
Structure prediction by ZEFSAII (Michael W. Deem and Ramdas Pophale) SiO2 
 PCOD9184356
Probable space group: C 2/M
;
_chemical_formula_sum "Si O2"
_cell_formula_units_Z 56
_cell_length_a 18.226916
_cell_length_b 32.326589
_cell_length_c 7.276201
_cell_angle_alpha 90.000000
_cell_angle_beta 39.393300
_cell_angle_gamma 90.000000
_cell_volume 2720.854410
_symmetry_space_group_name_H-M "C 2/M"
_symmetry_group_IT_number 12
_symmetry_cell_setting 'monoclinic'
loop_
_space_group_symop_operation_xyz
x,y,z
-x,y,-z
-x,-y,-z
x,-y,z
1/2+x,1/2+y,z
1/2-x,1/2+y,-z
1/2-x,1/2-y,-z
1/2+x,1/2-y,z
loop_
_atom_site_type_symbol
_atom_site_label
_atom_site_fract_x
_atom_site_fract_y
_atom_site_fract_z
Si Si1 0.598024 0.231990 0.182160
Si Si2 0.528941 0.067520 0.724699
Si Si3 0.776046 0.808498 0.122809
Si Si4 0.051551 0.340427 0.702912
Si Si5 0.273909 0.047086 0.143997
Si Si6 0.624901 0.603392 0.166711
Si Si7 0.782839 0.953704 0.315366
O O1 0.500000 0.252890 0.500000
O O2 0.698323 0.209859 0.106110
O O3 0.528193 0.194784 0.227478
O O4 0.649649 0.268826 0.960496
O O5 0.545902 0.114603 0.623047
O O6 0.654652 0.047060 0.471418
O O7 0.500000 0.066021 0.000000
O O8 0.413319 0.049532 0.859415
O O9 0.682388 0.824471 0.449888
O O10 0.845934 0.848437 0.921696
O O11 0.000000 0.347482 0.000000
O O12 0.214593 0.081068 0.131220
O O13 0.237998 0.055003 0.427490
O O14 0.237431 0.000000 0.168788
O O15 0.500000 0.598668 0.500000
O O16 0.640723 0.579307 0.942413
O O17 0.830993 0.000000 0.204916
#
# Coordination Sequence:
#
# PCOD9184356 Si02
#       7
#     8   8   8   8   8   8   8
#     4   9  19  35  59  83 112 151 193 237 296 353
#     4   9  17  34  60  90 121 151 188 240 308 360
#     4  10  20  38  57  81 114 153 196 243 291 351
#     4  10  19  33  59  88 118 149 186 240 301 357
#     4  10  22  39  62  90 119 155 199 251 305 356
#     4  12  25  40  60  83 118 164 211 246 292 357
#     4  10  21  39  62  89 123 156 194 250 304 355
#
# _framework density 20.581771
#
# number of rings (size 3 to 8) (size 9 to 14) (size 15 to 20)
#    0.000    2.000    1.429    2.143    0.000    4.571 
#    0.000    2.857    3.143    0.000    0.000    0.000 
#    0.000    0.000    0.000    0.000    0.000    0.000 
#
# Total GULP energy -156227.040963 kJ/mol
# GULP energy per Si atom -5579.537177 kJ/mol
# Density = 2.053493 g / cm^3
# Si number density = 20.581771 Si / 1000 Ang^3
#
#
#
# Elastic Constant Matrix: (Units=GPa)
#
#
# Indices 1 2 3 4 5 6 
#
# 1 22.6140 1.3318 -12.7696 0.0000 3.0069 0.0000
# 2 1.3318 118.8646 24.0621 0.0000 2.5695 0.0000
# 3 -12.7696 24.0621 81.7243 0.0000 5.5426 0.0000
# 4 0.0000 0.0000 0.0000 34.4227 0.0000 -1.2316
# 5 3.0069 2.5695 5.5426 0.0000 20.5970 0.0000
# 6 0.0000 0.0000 0.0000 -1.2316 0.0000 11.5010
#
#
#
# Elastic Compliance Matrix: (Units=1/GPa)
#
#
# Indices 1 2 3 4 5 6 
#
# 1 0.050862 -0.002236 0.009259 0.000000 -0.009638 0.000000
# 2 -0.002236 0.009048 -0.003014 0.000000 0.000009 0.000000
# 3 0.009259 -0.003014 0.014909 0.000000 -0.004988 0.000000
# 4 0.000000 0.000000 0.000000 0.029162 0.000000 0.003123
# 5 -0.009638 0.000009 -0.004988 0.000000 0.051299 0.000000
# 6 0.000000 0.000000 0.000000 0.003123 0.000000 0.087284
#
#
# Mechanical properties :
#
#
# Convention : Reuss Voigt Hill
#
# Bulk Modulus (GPa) = 12.07183 27.60572 19.83878
# Shear Modulus (GPa) = 19.07254 27.34271 23.20762
#
# Velocity S-wave (km/s) = 3.04743 3.64880 3.36159
# Velocity P-wave (km/s) = 4.27323 5.58511 4.97262
#
# Compressibility (1/GPa) = 0.08283746
#
# Stress axis : x y z
#
# Youngs Moduli (GPa) = 19.66104 110.52269 67.07497
#
# Poissons Ratio (x) = 0.24712 -0.62106
# Poissons Ratio (y) = 0.04396 0.20216
# Poissons Ratio (z) = -0.18205 0.33311
#
# Static dielectric constant tensor:
#      x y z
#    x 1.759720 0.000000 0.034940 
#    y 0.000000 1.738770 0.000000 
#    z 0.034940 0.000000 1.788130 
# 
# From -- ./inp_files/91528.got.cif
#   From: 2010.05.17/outbox.cif.g08.bks.cpg/sg12_46_cif.got.tgz:91528.got - 2010.06.03 13:09:07.
