data_PCOD9184424
_publ_section_title
;
Structure prediction by ZEFSAII (Michael W. Deem and Ramdas Pophale) SiO2 
 PCOD9184424
Probable space group: C 2/M
;
_chemical_formula_sum "Si O2"
_cell_formula_units_Z 56
_cell_length_a 17.828035
_cell_length_b 27.297791
_cell_length_c 10.384627
_cell_angle_alpha 90.000000
_cell_angle_beta 140.860317
_cell_angle_gamma 90.000000
_cell_volume 3190.053149
_symmetry_space_group_name_H-M "C 2/M"
_symmetry_group_IT_number 12
_symmetry_cell_setting 'monoclinic'
loop_
_space_group_symop_operation_xyz
x,y,z
-x,y,-z
-x,-y,-z
x,-y,z
1/2+x,1/2+y,z
1/2-x,1/2+y,-z
1/2-x,1/2-y,-z
1/2+x,1/2-y,z
loop_
_atom_site_type_symbol
_atom_site_label
_atom_site_fract_x
_atom_site_fract_y
_atom_site_fract_z
Si Si1 0.045951 0.255934 0.198027
Si Si2 0.591546 0.500000 0.239654
Si Si3 0.226803 0.906107 0.014027
Si Si4 0.267944 0.806962 0.394562
Si Si5 0.572224 0.500000 0.728761
Si Si6 0.474341 0.055682 0.312708
Si Si7 0.691226 0.292644 0.008732
Si Si8 0.761088 0.418323 0.367067
O O1 0.157439 0.221906 0.308308
O O2 0.106189 0.294030 0.374762
O O3 0.939532 0.225921 0.122542
O O4 0.000000 0.276714 0.000000
O O5 0.520391 0.500000 0.276554
O O6 0.675559 0.453615 0.330384
O O7 0.500000 0.500000 0.000000
O O8 0.361185 0.910283 0.138776
O O9 0.234627 0.920526 0.177376
O O10 0.186607 0.849007 0.950041
O O11 0.149249 0.949690 0.847162
O O12 0.239749 0.863156 0.377271
O O13 0.267515 0.796349 0.241895
O O14 0.500000 0.500000 0.500000
O O15 0.500000 0.056897 0.500000
O O16 0.601405 0.069085 0.424051
O O17 0.441784 0.000000 0.235005
O O18 0.750000 0.250000 0.000000
#
# Coordination Sequence:
#
# PCOD9184424 Si02
#       8
#     8   4   8   8   4   8   8   8
#     4   9  19  38  56  77 112 154 192 241 298 352
#     4  12  22  35  65  91 119 146 198 250 285 352
#     4  10  20  38  59  83 118 158 192 248 299 355
#     4   9  20  36  59  82 114 150 193 249 292 352
#     4  12  26  43  57  87 129 164 196 241 311 372
#     4   9  16  29  54  83 113 136 178 233 291 340
#     4  10  22  36  56  88 118 149 201 247 300 356
#     4  10  19  33  61  95 107 140 198 253 295 332
#
# _framework density 17.554566999999999
#
# number of rings (size 3 to 8) (size 9 to 14) (size 15 to 20)
#    0.000    2.143    2.857    0.000    4.000    1.143 
#    2.571    1.429    0.000    0.857    0.000    0.000 
#    0.000    0.000    0.000    0.000    0.000    0.000 
#
# Total GULP energy -155980.119411 kJ/mol
# GULP energy per Si atom -5570.718550 kJ/mol
# Density = 1.751461 g / cm^3
# Si number density = 17.554567 Si / 1000 Ang^3
#
#
#
# Elastic Constant Matrix: (Units=GPa)
#
#
# Indices 1 2 3 4 5 6 
#
# 1 70.6454 31.1296 35.8173 0.0000 4.8314 0.0000
# 2 31.1296 116.1175 60.3333 0.0000 -5.5456 0.0000
# 3 35.8173 60.3333 107.3991 0.0000 8.5248 0.0000
# 4 0.0000 0.0000 0.0000 10.4066 0.0000 -12.8594
# 5 4.8314 -5.5456 8.5248 0.0000 14.3734 0.0000
# 6 0.0000 0.0000 0.0000 -12.8594 0.0000 -1.1462
#
#
#
# Elastic Compliance Matrix: (Units=1/GPa)
#
#
# Indices 1 2 3 4 5 6 
#
# 1 0.017759 -0.002985 -0.003862 0.000000 -0.004830 0.000000
# 2 -0.002985 0.013938 -0.007703 0.000000 0.010950 0.000000
# 3 -0.003862 -0.007703 0.015804 0.000000 -0.011047 0.000000
# 4 0.000000 0.000000 0.000000 0.006465 0.000000 -0.072532
# 5 -0.004830 0.010950 -0.011047 0.000000 0.081973 0.000000
# 6 0.000000 0.000000 0.000000 -0.072532 0.000000 -0.058698
#
#
# Mechanical properties :
#
#
# Convention : Reuss Voigt Hill
#
# Bulk Modulus (GPa) = 54.35089 60.96914 57.66002
# Shear Modulus (GPa) = 44.45429 15.85222 30.15326
#
# Velocity S-wave (km/s) = 5.03770 3.00830 4.14900
# Velocity P-wave (km/s) = 8.05396 6.84639 7.47460
#
# Compressibility (1/GPa) = 0.01839896
#
# Stress axis : x y z
#
# Youngs Moduli (GPa) = 56.30942 71.74768 63.27673
#
# Poissons Ratio (x) = 0.21415 0.24440
# Poissons Ratio (y) = 0.16807 0.48745
# Poissons Ratio (z) = 0.21749 0.55271
#
# Static dielectric constant tensor:
#      x y z
#    x 1.598120 0.000000 0.001700 
#    y 0.000000 1.578900 0.000000 
#    z 0.001700 0.000000 1.602960 
# 
# From -- ./inp_files/80139.got.cif
#   From: 2010.05.17/outbox.cif.g08.bks.cpg/sg12_41_cif.got.tgz:80139.got - 2010.06.03 13:09:07.
