data_PCOD9184584
_publ_section_title
;
Structure prediction by ZEFSAII (Michael W. Deem and Ramdas Pophale) SiO2 
 PCOD9184584
Probable space group: C 2/M
;
_chemical_formula_sum "Si O2"
_cell_formula_units_Z 56
_cell_length_a 11.113231
_cell_length_b 15.164025
_cell_length_c 20.700947
_cell_angle_alpha 90.000000
_cell_angle_beta 46.366632
_cell_angle_gamma 90.000000
_cell_volume 2524.908794
_symmetry_space_group_name_H-M "C 2/M"
_symmetry_group_IT_number 12
_symmetry_cell_setting 'monoclinic'
loop_
_space_group_symop_operation_xyz
x,y,z
-x,y,-z
-x,-y,-z
x,-y,z
1/2+x,1/2+y,z
1/2-x,1/2+y,-z
1/2-x,1/2-y,-z
1/2+x,1/2-y,z
loop_
_atom_site_type_symbol
_atom_site_label
_atom_site_fract_x
_atom_site_fract_y
_atom_site_fract_z
Si Si1 0.570697 0.392056 0.631706
Si Si2 0.903677 0.899299 0.098438
Si Si3 0.700229 0.892769 0.720218
Si Si4 0.855809 0.342406 0.890356
Si Si5 0.193081 0.351460 0.948003
Si Si6 0.031996 0.899720 0.784957
Si Si7 0.189924 0.895241 0.455470
O O1 0.579633 0.500000 0.629969
O O2 0.381087 0.371310 0.682074
O O3 0.600282 0.359238 0.693526
O O4 0.688468 0.360720 0.529436
O O5 0.715430 0.895231 0.144138
O O6 0.926936 0.858251 0.160284
O O7 0.961398 0.000000 0.082592
O O8 0.000000 0.861520 0.000000
O O9 0.552853 0.846722 0.813210
O O10 0.698769 0.863717 0.645319
O O11 0.682027 0.000000 0.730209
O O12 0.771791 0.246535 0.916677
O O13 0.800935 0.381468 0.979536
O O14 0.330497 0.402923 0.855950
O O15 0.000000 0.355133 0.000000
O O16 0.096667 0.000000 0.763676
O O17 0.000000 0.886923 0.500000
O O18 0.222523 0.000000 0.448107
#
# Coordination Sequence:
#
# PCOD9184584 Si02
#       7
#     8   8   8   8   8   8   8
#     4   8  14  27  48  78 109 130 160 207 259 306
#     4  10  19  34  53  71  97 135 176 209 246 296
#     4   9  16  28  50  79 105 133 171 213 253 292
#     4  11  22  34  50  69 101 135 171 209 250 298
#     4  11  24  36  50  71 100 134 167 210 261 303
#     4  10  20  34  54  77 100 132 171 211 254 300
#     4   7  11  22  44  74 106 133 158 200 256 306
#
# _framework density 22.179020000000001
#
# number of rings (size 3 to 8) (size 9 to 14) (size 15 to 20)
#    0.000    2.571    1.429    3.429    2.000    0.857 
#    0.000    0.000    0.000    1.714    0.000    5.000 
#    0.000    0.000    0.000    0.000    0.000    0.000 
#
# Total GULP energy -156015.895826 kJ/mol
# GULP energy per Si atom -5571.996279 kJ/mol
# Density = 2.212854 g / cm^3
# Si number density = 22.179020 Si / 1000 Ang^3
#
#
#
# Elastic Constant Matrix: (Units=GPa)
#
#
# Indices 1 2 3 4 5 6 
#
# 1 76.8342 11.7115 14.8279 0.0000 35.0468 0.0000
# 2 11.7115 44.5161 7.3671 0.0000 1.9944 0.0000
# 3 14.8279 7.3671 92.6144 -0.0001 48.3892 0.0000
# 4 0.0000 0.0000 -0.0001 6.2015 0.0000 -4.9554
# 5 35.0468 1.9944 48.3892 0.0000 49.0604 0.0000
# 6 0.0000 0.0000 0.0000 -4.9554 0.0000 8.5445
#
#
#
# Elastic Compliance Matrix: (Units=1/GPa)
#
#
# Indices 1 2 3 4 5 6 
#
# 1 0.025344 -0.007329 0.012027 0.000001 -0.029670 0.000000
# 2 -0.007329 0.024958 -0.006225 0.000000 0.010361 0.000000
# 3 0.012027 -0.006225 0.028316 0.000002 -0.036267 0.000001
# 4 0.000001 0.000000 0.000002 0.300519 -0.000002 0.174286
# 5 -0.029670 0.010361 -0.036267 -0.000002 0.076927 -0.000001
# 6 0.000000 0.000000 0.000001 0.174286 -0.000001 0.218111
#
#
# Mechanical properties :
#
#
# Convention : Reuss Voigt Hill
#
# Bulk Modulus (GPa) = 13.23388 31.30865 22.27127
# Shear Modulus (GPa) = 7.11826 24.76515 15.94170
#
# Velocity S-wave (km/s) = 1.79344 3.34519 2.68390
# Velocity P-wave (km/s) = 3.20443 5.39141 4.43485
#
# Compressibility (1/GPa) = 0.07556360
#
# Stress axis : x y z
#
# Youngs Moduli (GPa) = 39.45639 40.06729 35.31588
#
# Poissons Ratio (x) = 0.29365 -0.42474
# Poissons Ratio (y) = 0.28917 0.21986
# Poissons Ratio (z) = -0.47454 0.24944
#
# Static dielectric constant tensor:
#      x y z
#    x 1.891650 0.000000 0.027810 
#    y 0.000000 1.820550 0.000000 
#    z 0.027810 0.000000 1.848660 
# 
# From -- ./inp_files/306602.got.cif
#   From: 2010.05.17/outbox.cif.g08.bks.cpg/sg12_154_cif.got.tgz:306602.got - 2010.06.03 13:09:07.
