data_PCOD9184698
_publ_section_title
;
Structure prediction by ZEFSAII (Michael W. Deem and Ramdas Pophale) SiO2 
 PCOD9184698
Probable space group: C 2/M
;
_chemical_formula_sum "Si O2"
_cell_formula_units_Z 60
_cell_length_a 23.491803
_cell_length_b 9.210154
_cell_length_c 19.368426
_cell_angle_alpha 90.000000
_cell_angle_beta 35.428077
_cell_angle_gamma 90.000000
_cell_volume 2429.216910
_symmetry_space_group_name_H-M "C 2/M"
_symmetry_group_IT_number 12
_symmetry_cell_setting 'monoclinic'
loop_
_space_group_symop_operation_xyz
x,y,z
-x,y,-z
-x,-y,-z
x,-y,z
1/2+x,1/2+y,z
1/2-x,1/2+y,-z
1/2-x,1/2-y,-z
1/2+x,1/2-y,z
loop_
_atom_site_type_symbol
_atom_site_label
_atom_site_fract_x
_atom_site_fract_y
_atom_site_fract_z
Si Si1 0.138952 0.833952 0.377410
Si Si2 0.582247 0.331020 0.802841
Si Si3 0.312891 0.832783 0.536235
Si Si4 0.281131 0.500000 0.948618
Si Si5 0.304564 0.280675 0.038959
Si Si6 0.915294 0.664202 0.700190
Si Si7 0.371192 0.833722 0.107898
Si Si8 0.460949 0.325902 0.305708
O O1 0.134360 0.724776 0.446103
O O2 0.082047 0.771278 0.367752
O O3 0.254146 0.837392 0.241790
O O4 0.111397 0.000000 0.422187
O O5 0.558691 0.500000 0.841462
O O6 0.697917 0.327504 0.666773
O O7 0.577196 0.231234 0.875331
O O8 0.530624 0.284279 0.782780
O O9 0.352780 0.724490 0.438652
O O10 0.337486 0.000000 0.495510
O O11 0.333978 0.376089 0.944972
O O12 0.224227 0.624102 0.960228
O O13 0.199826 0.346391 0.166474
O O14 0.373217 0.267250 0.037981
O O15 0.948929 0.500000 0.652566
O O16 0.969507 0.736892 0.711280
O O17 0.399587 0.000000 0.065584
O O18 0.470795 0.500000 0.304708
#
# Coordination Sequence:
#
# PCOD9184698 Si02
#       8
#     8   8   8   4   8   8   8   8
#     4   9  18  32  52  76 103 141 177 216 268 315
#     4   9  20  35  53  76 102 140 186 228 266 302
#     4  10  19  34  54  76 105 135 179 236 273 308
#     4  10  20  34  58  88 118 136 164 200 266 316
#     4  10  20  35  56  89 116 139 164 210 254 321
#     4  11  22  36  53  76 110 144 176 214 260 320
#     4   9  17  30  52  79 110 138 171 213 259 306
#     4  11  23  36  51  74 103 144 187 223 267 312
#
# _framework density 24.699317000000001
#
# number of rings (size 3 to 8) (size 9 to 14) (size 15 to 20)
#    0.000    2.133    1.333    2.000    2.800    3.733 
#    0.000    2.667    0.000    0.000    0.000    5.600 
#    0.000    0.000    0.000    0.000    0.000    0.000 
#
# Total GULP energy -167491.085629 kJ/mol
# GULP energy per Si atom -5583.036188 kJ/mol
# Density = 2.464310 g / cm^3
# Si number density = 24.699317 Si / 1000 Ang^3
#
#
#
# Elastic Constant Matrix: (Units=GPa)
#
#
# Indices 1 2 3 4 5 6 
#
# 1 173.6759 38.7603 13.1002 -0.0001 36.2436 0.0002
# 2 38.7603 167.1602 28.0248 0.0002 31.8174 0.0010
# 3 13.1002 28.0248 77.1115 -0.0003 12.9019 0.0000
# 4 -0.0001 0.0002 -0.0003 -147.0018 0.0003 -148.1456
# 5 36.2436 31.8174 12.9019 0.0003 50.5159 -0.0001
# 6 0.0002 0.0010 0.0000 -148.1456 -0.0001 -104.4769
#
#
#
# Elastic Compliance Matrix: (Units=1/GPa)
#
#
# Indices 1 2 3 4 5 6 
#
# 1 0.006854 -0.000720 -0.000163 0.000000 -0.004422 0.000000
# 2 -0.000720 0.007130 -0.001885 0.000000 -0.003493 0.000000
# 3 -0.000163 -0.001885 0.014064 0.000000 -0.002288 0.000000
# 4 0.000000 0.000000 0.000000 0.015857 0.000000 -0.022484
# 5 -0.004422 -0.003493 -0.002288 0.000000 0.025753 0.000000
# 6 0.000000 0.000000 0.000000 -0.022484 0.000000 0.022311
#
#
# Mechanical properties :
#
#
# Convention : Reuss Voigt Hill
#
# Bulk Modulus (GPa) = 44.41986 64.19089 54.30537
# Shear Modulus (GPa) = 47.61596 -17.65507 14.98044
#
# Velocity S-wave (km/s) = 4.39546 -2.67647 2.46542
# Velocity P-wave (km/s) = 6.61690 4.06128 5.48987
#
# Compressibility (1/GPa) = 0.02251245
#
# Stress axis : x y z
#
# Youngs Moduli (GPa) = 145.90668 140.25136 71.10549
#
# Poissons Ratio (x) = 0.10101 0.01157
# Poissons Ratio (y) = 0.10508 0.13400
# Poissons Ratio (z) = 0.02374 0.26431
#
# Static dielectric constant tensor:
#      x y z
#    x 1.980010 0.000000 -0.114240 
#    y 0.000000 1.838960 0.000000 
#    z -0.114240 0.000000 2.086340 
# 
# From -- ./inp_files/288326.got.cif
#   From: 2010.05.17/outbox.cif.g08.bks.cpg/sg12_145_cif.got.tgz:288326.got - 2010.06.03 13:09:07.
