data_PCOD9184000
_publ_section_title
;
Structure prediction by ZEFSAII (Michael W. Deem and Ramdas Pophale) SiO2 
 PCOD9184000
Probable space group: C 2/M
;
_chemical_formula_sum "Si O2"
_cell_formula_units_Z 40
_cell_length_a 11.004383
_cell_length_b 21.509236
_cell_length_c 8.148411
_cell_angle_alpha 90.000000
_cell_angle_beta 117.693614
_cell_angle_gamma 90.000000
_cell_volume 1707.754385
_symmetry_space_group_name_H-M "C 2/M"
_symmetry_group_IT_number 12
_symmetry_cell_setting 'monoclinic'
loop_
_space_group_symop_operation_xyz
x,y,z
-x,y,-z
-x,-y,-z
x,-y,z
1/2+x,1/2+y,z
1/2-x,1/2+y,-z
1/2-x,1/2-y,-z
1/2+x,1/2-y,z
loop_
_atom_site_type_symbol
_atom_site_label
_atom_site_fract_x
_atom_site_fract_y
_atom_site_fract_z
Si Si1 0.575978 0.366581 0.372779
Si Si2 0.309214 0.615730 0.015814
Si Si3 0.853537 0.763608 0.838323
Si Si4 0.441096 0.931106 0.281189
Si Si5 0.183937 0.628399 0.273488
O O1 0.500000 0.357027 0.500000
O O2 0.465869 0.395130 0.173760
O O3 0.620385 0.304387 0.306959
O O4 0.716147 0.398055 0.522246
O O5 0.223082 0.599534 0.124564
O O6 0.299299 0.687044 0.940795
O O7 0.222607 0.579163 0.826213
O O8 0.779408 0.700922 0.738040
O O9 0.000000 0.742752 0.000000
O O10 0.500000 0.925781 0.500000
O O11 0.528874 0.881698 0.231724
O O12 0.472799 0.000000 0.237867
#
# Coordination Sequence:
#
# PCOD9184000 Si02
#       5
#     8   8   8   8   8
#     4   9  20  35  55  85 120 155 194 241 297 358
#     4  10  21  38  59  85 120 156 200 247 296 357
#     4  10  19  33  56  88 124 159 196 244 300 354
#     4  11  25  43  62  86 118 159 206 252 298 353
#     4  11  21  36  59  88 121 158 199 246 299 356
#
# _framework density 23.422571999999999
#
# number of rings (size 3 to 8) (size 9 to 14) (size 15 to 20)
#    0.000    1.800    0.000    4.200    0.000    5.600 
#    0.000    1.000    0.000   11.400    0.000    0.000 
#    0.000    0.000    0.000    0.000    0.000    0.000 
#
# Total GULP energy -111455.815283 kJ/mol
# GULP energy per Si atom -5572.790764 kJ/mol
# Density = 2.336926 g / cm^3
# Si number density = 23.422572 Si / 1000 Ang^3
#
#
#
# Elastic Constant Matrix: (Units=GPa)
#
#
# Indices 1 2 3 4 5 6 
#
# 1 57.5927 8.6782 37.2172 0.0000 8.1863 0.0000
# 2 8.6782 38.1986 19.3029 0.0000 -1.3579 0.0000
# 3 37.2172 19.3029 179.3283 0.0000 28.4285 0.0000
# 4 0.0000 0.0000 0.0000 -12.9660 0.0000 21.9685
# 5 8.1863 -1.3579 28.4285 0.0000 50.4151 0.0000
# 6 0.0000 0.0000 0.0000 21.9685 0.0000 -4.8436
#
#
#
# Elastic Compliance Matrix: (Units=1/GPa)
#
#
# Indices 1 2 3 4 5 6 
#
# 1 0.020373 -0.002792 -0.003724 0.000000 -0.001283 0.000000
# 2 -0.002792 0.028397 -0.002932 0.000000 0.002872 0.000000
# 3 -0.003724 -0.002932 0.007228 0.000000 -0.003550 0.000000
# 4 0.000000 0.000000 0.000000 0.011537 0.000000 0.052329
# 5 -0.001283 0.002872 -0.003550 0.000000 0.022123 0.000000
# 6 0.000000 0.000000 0.000000 0.052329 0.000000 0.030885
#
#
# Mechanical properties :
#
#
# Convention : Reuss Voigt Hill
#
# Bulk Modulus (GPa) = 26.95388 45.05736 36.00562
# Shear Modulus (GPa) = 32.93637 20.51586 26.72611
#
# Velocity S-wave (km/s) = 3.75398 2.96277 3.38159
# Velocity P-wave (km/s) = 5.50658 5.56619 5.53647
#
# Compressibility (1/GPa) = 0.03710041
#
# Stress axis : x y z
#
# Youngs Moduli (GPa) = 49.08446 35.21466 138.35711
#
# Poissons Ratio (x) = 0.09832 0.51527
# Poissons Ratio (y) = 0.13705 0.40573
# Poissons Ratio (z) = 0.18280 0.10327
#
# Static dielectric constant tensor:
#      x y z
#    x 1.880020 0.000000 0.004900 
#    y 0.000000 1.860590 0.000000 
#    z 0.004900 0.000000 1.996200 
# 
# From -- ./inp_files/50934.got.cif
#   From: 2010.05.17/outbox.cif.g08.bks.cpg/sg12_26_cif.got.tgz:50934.got - 2010.06.03 13:09:07.
