data_PCOD9184065
_publ_section_title
;
Structure prediction by ZEFSAII (Michael W. Deem and Ramdas Pophale) SiO2 
 PCOD9184065
Probable space group: C 2/M
;
_chemical_formula_sum "Si O2"
_cell_formula_units_Z 56
_cell_length_a 13.283678
_cell_length_b 14.661949
_cell_length_c 18.117776
_cell_angle_alpha 90.000000
_cell_angle_beta 45.242580
_cell_angle_gamma 90.000000
_cell_volume 2505.710506
_symmetry_space_group_name_H-M "C 2/M"
_symmetry_group_IT_number 12
_symmetry_cell_setting 'monoclinic'
loop_
_space_group_symop_operation_xyz
x,y,z
-x,y,-z
-x,-y,-z
x,-y,z
1/2+x,1/2+y,z
1/2-x,1/2+y,-z
1/2-x,1/2-y,-z
1/2+x,1/2-y,z
loop_
_atom_site_type_symbol
_atom_site_label
_atom_site_fract_x
_atom_site_fract_y
_atom_site_fract_z
Si Si1 0.101018 0.399446 0.876646
Si Si2 0.378570 0.388437 0.504030
Si Si3 0.056144 0.602961 0.665899
Si Si4 0.179280 0.852992 0.122921
Si Si5 0.123115 0.892741 0.665878
Si Si6 0.120196 0.653572 0.108516
Si Si7 0.882476 0.603845 0.622964
O O1 0.105552 0.500000 0.838301
O O2 0.249771 0.377600 0.835845
O O3 0.021502 0.327592 0.866840
O O4 0.000000 0.405668 0.000000
O O5 0.500000 0.356297 0.500000
O O6 0.387144 0.500000 0.502467
O O7 0.213261 0.362111 0.606025
O O8 0.397509 0.359616 0.407971
O O9 0.085374 0.500000 0.623558
O O10 0.947053 0.599917 0.789564
O O11 0.965494 0.650103 0.647865
O O12 0.185967 0.744939 0.107075
O O13 0.019024 0.882880 0.213504
O O14 0.268780 0.890381 0.006519
O O15 0.249460 0.851838 0.650030
O O16 0.157356 0.000000 0.639476
O O17 0.838644 0.500000 0.669734
O O18 0.000000 0.595174 0.500000
#
# Coordination Sequence:
#
# PCOD9184065 Si02
#       7
#     8   8   8   8   8   8   8
#     4   9  18  35  60  85 110 151 204 247 289 356
#     4   9  18  31  52  85 117 144 181 242 312 358
#     4  10  19  33  57  83 110 147 192 243 293 353
#     4  10  22  38  55  80 117 156 193 242 303 358
#     4  10  19  33  57  83 110 147 192 243 293 353
#     4  10  22  38  55  80 117 156 193 242 303 358
#     4   9  16  31  53  77 105 140 180 219 276 353
#
# _framework density 22.348949000000001
#
# number of rings (size 3 to 8) (size 9 to 14) (size 15 to 20)
#    0.000    2.429    1.429    0.857    2.000    2.857 
#    0.000    2.857    0.000    2.571    0.000    0.000 
#    0.000    0.000    0.000    0.000    0.000    0.000 
#
# Total GULP energy -155939.307334 kJ/mol
# GULP energy per Si atom -5569.260976 kJ/mol
# Density = 2.229808 g / cm^3
# Si number density = 22.348949 Si / 1000 Ang^3
#
#
#
# Elastic Constant Matrix: (Units=GPa)
#
#
# Indices 1 2 3 4 5 6 
#
# 1 191.7740 6.3600 65.4942 0.0005 -16.8644 0.0000
# 2 6.3600 35.4650 -1.4504 0.0004 1.0125 0.0000
# 3 65.4942 -1.4504 134.0060 0.0012 -10.2384 0.0001
# 4 0.0005 0.0004 0.0012 2749.3791 -0.0008 188.8927
# 5 -16.8644 1.0125 -10.2384 -0.0008 35.3533 -0.0001
# 6 0.0000 0.0000 0.0001 188.8927 -0.0001 20.8344
#
#
#
# Elastic Compliance Matrix: (Units=1/GPa)
#
#
# Indices 1 2 3 4 5 6 
#
# 1 0.006487 -0.001351 -0.003012 0.000000 0.002261 0.000000
# 2 -0.001351 0.028509 0.000877 0.000000 -0.001207 0.000000
# 3 -0.003012 0.000877 0.009032 0.000000 0.001154 0.000000
# 4 0.000000 0.000000 0.000000 0.000965 0.000000 -0.008745
# 5 0.002261 -0.001207 0.001154 0.000000 0.029733 0.000000
# 6 0.000000 0.000000 0.000000 -0.008745 0.000000 0.127279
#
#
# Mechanical properties :
#
#
# Convention : Reuss Voigt Hill
#
# Bulk Modulus (GPa) = 26.98682 55.78365 41.38523
# Shear Modulus (GPa) = 22.59067 580.50277 301.54672
#
# Velocity S-wave (km/s) = 3.18278 16.13409 11.62839
# Velocity P-wave (km/s) = 5.06046 19.28971 14.10144
#
# Compressibility (1/GPa) = 0.03705513
#
# Stress axis : x y z
#
# Youngs Moduli (GPa) = 154.15859 35.07612 110.71492
#
# Poissons Ratio (x) = 0.04739 0.33350
# Poissons Ratio (y) = 0.20827 -0.09706
# Poissons Ratio (z) = 0.46437 -0.03075
#
# Static dielectric constant tensor:
#      x y z
#    x 1.881560 0.000000 0.009340 
#    y 0.000000 1.855330 0.000000 
#    z 0.009340 0.000000 1.822110 
# 
# From -- ./inp_files/264195.got.cif
#   From: 2010.05.17/outbox.cif.g08.bks.cpg/sg12_133_cif.got.tgz:264195.got - 2010.06.03 13:09:07.
