data_PCOD9184940
_publ_section_title
;
Structure prediction by ZEFSAII (Michael W. Deem and Ramdas Pophale) SiO2 
 PCOD9184940
Probable space group: C 2/M
;
_chemical_formula_sum "Si O2"
_cell_formula_units_Z 64
_cell_length_a 19.885449
_cell_length_b 14.555397
_cell_length_c 16.826895
_cell_angle_alpha 90.000000
_cell_angle_beta 43.728047
_cell_angle_gamma 90.000000
_cell_volume 3366.587715
_symmetry_space_group_name_H-M "C 2/M"
_symmetry_group_IT_number 12
_symmetry_cell_setting 'monoclinic'
loop_
_space_group_symop_operation_xyz
x,y,z
-x,y,-z
-x,-y,-z
x,-y,z
1/2+x,1/2+y,z
1/2-x,1/2+y,-z
1/2-x,1/2-y,-z
1/2+x,1/2-y,z
loop_
_atom_site_type_symbol
_atom_site_label
_atom_site_fract_x
_atom_site_fract_y
_atom_site_fract_z
Si Si1 0.468749 0.109097 0.225096
Si Si2 0.192234 0.156031 0.054774
Si Si3 0.792041 0.390139 0.254016
Si Si4 0.372443 0.608275 0.058143
Si Si5 0.472357 0.296417 0.293452
Si Si6 0.416576 0.389756 0.505696
Si Si7 0.147423 0.396948 0.965719
Si Si8 0.086409 0.111151 0.811347
O O1 0.373378 0.118358 0.251983
O O2 0.466008 0.185612 0.295892
O O3 0.480011 0.000000 0.236704
O O4 0.560226 0.141591 0.092896
O O5 0.255581 0.100135 0.064221
O O6 0.082547 0.169653 0.179533
O O7 0.250000 0.250000 0.000000
O O8 0.193504 0.121743 0.962721
O O9 0.778308 0.500000 0.251610
O O10 0.687145 0.356861 0.371626
O O11 0.829567 0.350814 0.137862
O O12 0.382717 0.500000 0.060934
O O13 0.347824 0.639905 0.168837
O O14 0.478967 0.637386 0.936129
O O15 0.441450 0.338515 0.403235
O O16 0.405516 0.336791 0.278831
O O17 0.500000 0.375206 0.500000
O O18 0.411308 0.500000 0.494789
O O19 0.112009 0.500000 0.978298
O O20 0.090626 0.000000 0.793815
#
# Coordination Sequence:
#
# PCOD9184940 Si02
#       8
#     8   8   8   8   8   8   8   8
#     4  10  21  37  55  80 112 153 195 234 275 325
#     4  11  20  30  44  76 111 146 185 229 274 334
#     4   9  19  36  57  81 109 145 189 235 281 334
#     4   8  15  28  44  64  98 139 176 212 268 332
#     4  11  21  34  55  83 114 145 185 231 280 338
#     4  10  21  38  61  89 116 142 177 230 293 349
#     4  10  19  34  55  79 112 151 189 231 283 338
#     4   8  15  29  48  72 101 136 173 218 274 336
#
# _framework density 19.010345999999998
#
# number of rings (size 3 to 8) (size 9 to 14) (size 15 to 20)
#    0.000    2.375    1.250    2.625    0.000    5.500 
#    4.500    0.000    0.000    0.375    0.000    0.000 
#    0.000    1.000    0.000    0.000    0.000    0.000 
#
# Total GULP energy -178237.414314 kJ/mol
# GULP energy per Si atom -5569.919197 kJ/mol
# Density = 1.896708 g / cm^3
# Si number density = 19.010346 Si / 1000 Ang^3
#
#
#
# Elastic Constant Matrix: (Units=GPa)
#
#
# Indices 1 2 3 4 5 6 
#
# 1 55.6841 15.2038 26.6436 0.0000 6.9270 0.0000
# 2 15.2038 73.0712 24.0073 0.0000 15.7922 0.0000
# 3 26.6436 24.0073 55.7668 0.0000 17.7256 0.0000
# 4 0.0000 0.0000 0.0000 16.7001 0.0000 -3.7637
# 5 6.9270 15.7922 17.7256 0.0000 32.5306 0.0000
# 6 0.0000 0.0000 0.0000 -3.7637 0.0000 8.1849
#
#
#
# Elastic Compliance Matrix: (Units=1/GPa)
#
#
# Indices 1 2 3 4 5 6 
#
# 1 0.023489 -0.001638 -0.011103 0.000000 0.001843 0.000000
# 2 -0.001638 0.016709 -0.004769 0.000000 -0.005164 0.000000
# 3 -0.011103 -0.004769 0.028788 0.000000 -0.011007 0.000000
# 4 0.000000 0.000000 0.000000 0.066803 0.000000 0.030718
# 5 0.001843 -0.005164 -0.011007 0.000000 0.038852 0.000000
# 6 0.000000 0.000000 0.000000 0.030718 0.000000 0.136301
#
#
# Mechanical properties :
#
#
# Convention : Reuss Voigt Hill
#
# Bulk Modulus (GPa) = 29.44134 35.13682 32.28908
# Shear Modulus (GPa) = 13.99444 19.39427 16.69436
#
# Velocity S-wave (km/s) = 2.71615 3.19752 2.96661
# Velocity P-wave (km/s) = 5.03560 5.67056 5.36249
#
# Compressibility (1/GPa) = 0.03396584
#
# Stress axis : x y z
#
# Youngs Moduli (GPa) = 42.57335 59.84788 34.73650
#
# Poissons Ratio (x) = 0.09802 0.38568
# Poissons Ratio (y) = 0.06973 0.16567
# Poissons Ratio (z) = 0.47270 0.28543
#
# Static dielectric constant tensor:
#      x y z
#    x 1.686900 0.000000 0.013430 
#    y 0.000000 1.718150 0.000000 
#    z 0.013430 0.000000 1.655280 
# 
# From -- ./inp_files/225673.got.cif
#   From: 2010.05.17/outbox.cif.g08.bks.cpg/sg12_113_cif.got.tgz:225673.got - 2010.06.03 13:09:07.
