data_PCOD9184598
_publ_section_title
;
Structure prediction by ZEFSAII (Michael W. Deem and Ramdas Pophale) SiO2 
 PCOD9184598
Probable space group: C 2/M
;
_chemical_formula_sum "Si O2"
_cell_formula_units_Z 48
_cell_length_a 25.245497
_cell_length_b 7.340118
_cell_length_c 17.403082
_cell_angle_alpha 90.000000
_cell_angle_beta 33.591644
_cell_angle_gamma 90.000000
_cell_volume 1784.227835
_symmetry_space_group_name_H-M "C 2/M"
_symmetry_group_IT_number 12
_symmetry_cell_setting 'monoclinic'
loop_
_space_group_symop_operation_xyz
x,y,z
-x,y,-z
-x,-y,-z
x,-y,z
1/2+x,1/2+y,z
1/2-x,1/2+y,-z
1/2-x,1/2-y,-z
1/2+x,1/2-y,z
loop_
_atom_site_type_symbol
_atom_site_label
_atom_site_fract_x
_atom_site_fract_y
_atom_site_fract_z
Si Si1 0.333615 0.279744 0.991530
Si Si2 0.140247 0.282191 0.608466
Si Si3 0.287152 0.719551 0.210539
Si Si4 0.086915 0.277121 0.501344
Si Si5 0.939711 0.709282 0.142181
Si Si6 0.117341 0.707426 0.230627
O O1 0.337210 0.500000 0.981721
O O2 0.349112 0.227064 0.061165
O O3 0.223411 0.214642 0.111844
O O4 0.395798 0.205846 0.846446
O O5 0.127709 0.500000 0.622718
O O6 0.250000 0.250000 0.500000
O O7 0.115864 0.218804 0.552615
O O8 0.072260 0.208905 0.759000
O O9 0.287756 0.500000 0.213216
O O10 0.176024 0.775865 0.340345
O O11 0.334298 0.789725 0.231063
O O12 0.082498 0.500000 0.505231
O O13 0.978874 0.213520 0.617341
O O14 0.970655 0.500000 0.112482
O O15 0.000000 0.797177 0.000000
O O16 0.125547 0.500000 0.249250
#
# Coordination Sequence:
#
# PCOD9184598 Si02
#       6
#     8   8   8   8   8   8
#     4   9  19  34  52  78 106 131 165 210 254 299
#     4  10  19  34  53  74 102 133 168 208 249 297
#     4  10  20  35  53  75 105 134 167 211 254 300
#     4   9  18  32  53  77  99 131 171 207 248 298
#     4  10  22  36  52  76 104 134 172 213 250 297
#     4   9  18  34  56  77 100 134 170 205 252 304
#
# _framework density 26.902394000000001
#
# number of rings (size 3 to 8) (size 9 to 14) (size 15 to 20)
#    0.000    2.500    1.667    0.000    2.333    1.667 
#    0.000    5.000    0.000    0.000    0.000    5.833 
#    0.000    0.000    0.000    0.000    0.000    0.000 
#
# Total GULP energy -134226.509477 kJ/mol
# GULP energy per Si atom -5592.771228 kJ/mol
# Density = 2.684116 g / cm^3
# Si number density = 26.902394 Si / 1000 Ang^3
#
#
#
# Elastic Constant Matrix: (Units=GPa)
#
#
# Indices 1 2 3 4 5 6 
#
# 1 62.8468 1.9429 6.7101 0.0046 7.7322 -0.0043
# 2 1.9429 117.9291 4.6185 -0.0153 -0.6654 0.0222
# 3 6.7101 4.6185 156.5462 -0.0012 6.0126 0.0058
# 4 0.0046 -0.0153 -0.0012 0.4742 0.0053 -2.5430
# 5 7.7322 -0.6654 6.0126 0.0053 58.7692 -0.0041
# 6 -0.0043 0.0222 0.0058 -2.5430 -0.0041 12.5889
#
#
#
# Elastic Compliance Matrix: (Units=1/GPa)
#
#
# Indices 1 2 3 4 5 6 
#
# 1 0.016240 -0.000255 -0.000609 0.001363 -0.002077 0.000281
# 2 -0.000255 0.008494 -0.000246 -0.002323 0.000155 -0.000484
# 3 -0.000609 -0.000246 0.006444 -0.000054 -0.000582 -0.000014
# 4 0.001363 -0.002323 -0.000054-25.329751 0.001715 -5.116711
# 5 -0.002077 0.000155 -0.000582 0.001715 0.017350 0.000351
# 6 0.000281 -0.000484 -0.000014 -5.116711 0.000351 -0.954161
#
#
# Mechanical properties :
#
#
# Convention : Reuss Voigt Hill
#
# Bulk Modulus (GPa) = 34.53224 40.42945 37.48084
# Shear Modulus (GPa) = -0.19067 35.96983 17.88958
#
# Velocity S-wave (km/s) = -0.26651 3.66054 2.58152
# Velocity P-wave (km/s) = 3.57341 5.73819 4.77997
#
# Compressibility (1/GPa) = 0.02895845
#
# Stress axis : x y z
#
# Youngs Moduli (GPa) = 61.57592 117.72795 155.19318
#
# Poissons Ratio (x) = 0.03006 0.09448
# Poissons Ratio (y) = 0.01572 0.03812
# Poissons Ratio (z) = 0.03749 0.02891
#
# Static dielectric constant tensor:
#      x y z
#    x 2.157500 -0.000010 -0.022360 
#    y -0.000010 2.057640 0.000010 
#    z -0.022360 0.000010 2.102290 
# 
# From -- ./inp_files/222595.got.cif
#   From: 2010.05.17/outbox.cif.g08.bks.cpg/sg12_112_cif.got.tgz:222595.got - 2010.06.03 13:09:07.
