data_PCOD9184273
_publ_section_title
;
Structure prediction by ZEFSAII (Michael W. Deem and Ramdas Pophale) SiO2 
 PCOD9184273
Probable space group: C 2/M
;
_chemical_formula_sum "Si O2"
_cell_formula_units_Z 50
_cell_length_a 23.998125
_cell_length_b 11.912824
_cell_length_c 9.526010
_cell_angle_alpha 90.000000
_cell_angle_beta 70.669571
_cell_angle_gamma 90.000000
_cell_volume 2569.819618
_symmetry_space_group_name_H-M "C 2/M"
_symmetry_group_IT_number 12
_symmetry_cell_setting 'monoclinic'
loop_
_space_group_symop_operation_xyz
x,y,z
-x,y,-z
-x,-y,-z
x,-y,z
1/2+x,1/2+y,z
1/2-x,1/2+y,-z
1/2-x,1/2-y,-z
1/2+x,1/2-y,z
loop_
_atom_site_type_symbol
_atom_site_label
_atom_site_fract_x
_atom_site_fract_y
_atom_site_fract_z
Si Si1 0.652285 0.370615 0.443571
Si Si2 0.121937 0.867758 0.779828
Si Si3 0.500000 0.000000 0.000000
Si Si4 0.542606 0.631215 0.336657
Si Si5 0.565937 0.220328 0.061812
Si Si6 0.189877 0.373123 0.036775
Si Si7 0.250037 0.774100 0.759976
O O1 0.674245 0.500000 0.429808
O O2 0.615610 0.353988 0.617757
O O3 0.608457 0.359832 0.347844
O O4 0.705245 0.281915 0.386965
O O5 0.189169 0.825701 0.754515
O O6 0.116462 0.000000 0.819235
O O7 0.078401 0.793335 0.911120
O O8 0.536598 0.898580 0.051823
O O9 0.500000 0.663480 0.500000
O O10 0.531996 0.500000 0.311863
O O11 0.534257 0.706720 0.207326
O O12 0.630793 0.197708 0.070893
O O13 0.176606 0.500000 0.012451
O O14 0.216601 0.362818 0.169364
O O15 0.234525 0.324306 0.884113
#
# Coordination Sequence:
#
# PCOD9184273 Si02
#       7
#     8   8   2   8   8   8   8
#     4  10  20  36  58  90 129 162 204 258 312 373
#     4  10  22  38  62  95 127 161 205 263 317 378
#     4  12  28  44  68  88 124 172 214 274 314 382
#     4  10  22  41  67  94 122 160 211 267 321 376
#     4  11  23  43  65  87 124 160 213 259 317 374
#     4  10  19  34  56  86 118 158 203 249 299 368
#     4  10  19  33  58  87 125 166 198 249 310 373
#
# _framework density 19.456619
#
# number of rings (size 3 to 8) (size 9 to 14) (size 15 to 20)
#    0.000    1.760    2.400    1.920    2.240    0.000 
#    0.000    1.200    7.040    0.000    0.000    0.000 
#    0.000    0.000    0.000    0.000    0.000    0.000 
#
# Total GULP energy -139273.807682 kJ/mol
# GULP energy per Si atom -5570.952307 kJ/mol
# Density = 1.941233 g / cm^3
# Si number density = 19.456619 Si / 1000 Ang^3
#
#
#
# Elastic Constant Matrix: (Units=GPa)
#
#
# Indices 1 2 3 4 5 6 
#
# 1 52.8021 15.9523 25.5904 0.0000 7.9917 0.0000
# 2 15.9523 127.6138 82.3390 0.0000 -7.1190 0.0000
# 3 25.5904 82.3390 112.4635 0.0000 -3.2473 0.0000
# 4 0.0000 0.0000 0.0000 21.7924 0.0000 7.2424
# 5 7.9917 -7.1190 -3.2473 0.0000 27.6139 0.0000
# 6 0.0000 0.0000 0.0000 7.2424 0.0000 26.4222
#
#
#
# Elastic Compliance Matrix: (Units=1/GPa)
#
#
# Indices 1 2 3 4 5 6 
#
# 1 0.022632 0.000435 -0.005674 0.000000 -0.007105 0.000000
# 2 0.000435 0.015043 -0.011042 0.000000 0.002454 0.000000
# 3 -0.005674 -0.011042 0.018294 0.000000 0.000947 0.000000
# 4 0.000000 0.000000 0.000000 0.050487 0.000000 -0.013838
# 5 -0.007105 0.002454 0.000947 0.000000 0.039014 0.000000
# 6 0.000000 0.000000 0.000000 -0.013838 0.000000 0.041640
#
#
# Mechanical properties :
#
#
# Convention : Reuss Voigt Hill
#
# Bulk Modulus (GPa) = 42.71837 60.07141 51.39489
# Shear Modulus (GPa) = 21.98062 26.43222 24.20642
#
# Velocity S-wave (km/s) = 3.36478 3.68981 3.53104
# Velocity P-wave (km/s) = 6.09090 7.00675 6.56481
#
# Compressibility (1/GPa) = 0.02340913
#
# Stress axis : x y z
#
# Youngs Moduli (GPa) = 44.18485 66.47629 54.66212
#
# Poissons Ratio (x) = -0.02894 0.31013
# Poissons Ratio (y) = -0.01923 0.60356
# Poissons Ratio (z) = 0.25069 0.73401
#
# Static dielectric constant tensor:
#      x y z
#    x 1.717220 0.000000 0.003490 
#    y 0.000000 1.645210 0.000000 
#    z 0.003490 0.000000 1.683160 
# 
# From -- ./inp_files/102486.got.cif
#   From: 2010.05.17/outbox.cif.g08.bks.cpg/sg12_52_cif.got.tgz:102486.got - 2010.06.03 13:09:07.
