data_PCOD9184160
_publ_section_title
;
Structure prediction by ZEFSAII (Michael W. Deem and Ramdas Pophale) SiO2 
 PCOD9184160
Probable space group: C 2/M
;
_chemical_formula_sum "Si O2"
_cell_formula_units_Z 64
_cell_length_a 21.117021
_cell_length_b 8.623315
_cell_length_c 19.216087
_cell_angle_alpha 90.000000
_cell_angle_beta 97.389469
_cell_angle_gamma 90.000000
_cell_volume 3470.163223
_symmetry_space_group_name_H-M "C 2/M"
_symmetry_group_IT_number 12
_symmetry_cell_setting 'monoclinic'
loop_
_space_group_symop_operation_xyz
x,y,z
-x,y,-z
-x,-y,-z
x,-y,z
1/2+x,1/2+y,z
1/2-x,1/2+y,-z
1/2-x,1/2-y,-z
1/2+x,1/2-y,z
loop_
_atom_site_type_symbol
_atom_site_label
_atom_site_fract_x
_atom_site_fract_y
_atom_site_fract_z
Si Si1 0.806382 0.186650 0.420430
Si Si2 0.192033 0.313434 0.037742
Si Si3 0.555779 0.810976 0.955860
Si Si4 0.285113 0.315204 0.805237
Si Si5 0.894110 0.314908 0.719638
Si Si6 0.335031 0.684477 0.578258
Si Si7 0.966549 0.687524 0.206094
Si Si8 0.347081 0.314299 0.273810
O O1 0.737271 0.267251 0.411821
O O2 0.841394 0.226367 0.497664
O O3 0.842840 0.227491 0.355001
O O4 0.795789 0.000000 0.419274
O O5 0.193984 0.500000 0.038850
O O6 0.197921 0.251984 0.116825
O O7 0.250000 0.250000 0.000000
O O8 0.124879 0.263980 0.994107
O O9 0.543560 0.760740 0.875088
O O10 0.554705 0.000000 0.955559
O O11 0.500000 0.758900 0.000000
O O12 0.282605 0.500000 0.807951
O O13 0.338756 0.262026 0.758044
O O14 0.216456 0.251880 0.771350
O O15 0.888534 0.500000 0.726566
O O16 0.881831 0.268237 0.638217
O O17 0.963771 0.266041 0.756310
O O18 0.342058 0.500000 0.586609
O O19 0.963973 0.500000 0.206629
O O20 0.909840 0.750710 0.245601
O O21 0.345761 0.500000 0.268250
#
# Coordination Sequence:
#
# PCOD9184160 Si02
#       8
#     8   8   8   8   8   8   8   8
#     4   9  19  35  56  84 117 152 192 238 293 348
#     4  11  22  37  59  86 116 149 188 241 300 353
#     4   9  18  36  60  82 105 143 192 236 283 341
#     4  12  24  38  59  86 116 152 197 244 292 350
#     4  11  22  38  59  86 118 154 194 242 294 344
#     4  10  19  33  57  87 116 150 192 242 292 345
#     4  10  22  39  60  85 117 154 194 240 293 355
#     4  11  22  38  60  86 118 154 193 241 296 352
#
# _framework density 18.442937000000001
#
# number of rings (size 3 to 8) (size 9 to 14) (size 15 to 20)
#    0.000    1.625    1.250    4.125    0.000    5.000 
#    0.000    1.250    0.000    6.375    0.000    0.000 
#    0.000    0.000    0.000    0.000    0.000    0.000 
#
# Total GULP energy -178815.412832 kJ/mol
# GULP energy per Si atom -5587.981651 kJ/mol
# Density = 1.840096 g / cm^3
# Si number density = 18.442937 Si / 1000 Ang^3
#
#
#
# Elastic Constant Matrix: (Units=GPa)
#
#
# Indices 1 2 3 4 5 6 
#
# 1 132.5570 30.6232 69.2754 0.0000 6.3391 0.0000
# 2 30.6232 39.0628 32.2369 0.0000 2.2950 0.0000
# 3 69.2754 32.2369 154.4232 0.0000 9.9987 0.0000
# 4 0.0000 0.0000 0.0000 30.7839 0.0000 -1.7478
# 5 6.3391 2.2950 9.9987 0.0000 24.7300 0.0000
# 6 0.0000 0.0000 0.0000 -1.7478 0.0000 28.4046
#
#
#
# Elastic Compliance Matrix: (Units=1/GPa)
#
#
# Indices 1 2 3 4 5 6 
#
# 1 0.010721 -0.005354 -0.003641 0.000000 -0.000779 0.000000
# 2 -0.005354 0.033603 -0.004621 0.000000 0.000122 0.000000
# 3 -0.003641 -0.004621 0.009227 0.000000 -0.002368 0.000000
# 4 0.000000 0.000000 0.000000 0.032598 0.000000 0.002006
# 5 -0.000779 0.000122 -0.002368 0.000000 0.041583 0.000000
# 6 0.000000 0.000000 0.000000 0.002006 0.000000 0.035329
#
#
# Mechanical properties :
#
#
# Convention : Reuss Voigt Hill
#
# Bulk Modulus (GPa) = 37.99543 65.59047 51.79295
# Shear Modulus (GPa) = 25.11711 29.71087 27.41399
#
# Velocity S-wave (km/s) = 3.69437 4.01803 3.85960
# Velocity P-wave (km/s) = 6.23251 7.56091 6.92862
#
# Compressibility (1/GPa) = 0.02631896
#
# Stress axis : x y z
#
# Youngs Moduli (GPa) = 93.27412 29.75898 108.37365
#
# Poissons Ratio (x) = 0.15933 0.39464
# Poissons Ratio (y) = 0.49938 0.50080
# Poissons Ratio (z) = 0.33965 0.13752
#
# Static dielectric constant tensor:
#      x y z
#    x 1.594760 0.000000 0.006230 
#    y 0.000000 1.628300 0.000000 
#    z 0.006230 0.000000 1.638200 
# 
# From -- ./inp_files/281390.got.cif
#   From: 2010.05.17/outbox.cif.g08.bks.cpg/sg12_141_cif.got.tgz:281390.got - 2010.06.03 13:09:07.
