data_PCOD9184736
_publ_section_title
;
Structure prediction by ZEFSAII (Michael W. Deem and Ramdas Pophale) SiO2 
 PCOD9184736
Probable space group: C 2/M
;
_chemical_formula_sum "Si O2"
_cell_formula_units_Z 44
_cell_length_a 9.811167
_cell_length_b 24.030062
_cell_length_c 11.572446
_cell_angle_alpha 90.000000
_cell_angle_beta 119.260243
_cell_angle_gamma 90.000000
_cell_volume 2380.239623
_symmetry_space_group_name_H-M "C 2/M"
_symmetry_group_IT_number 12
_symmetry_cell_setting 'monoclinic'
loop_
_space_group_symop_operation_xyz
x,y,z
-x,y,-z
-x,-y,-z
x,-y,z
1/2+x,1/2+y,z
1/2-x,1/2+y,-z
1/2-x,1/2-y,-z
1/2+x,1/2-y,z
loop_
_atom_site_type_symbol
_atom_site_label
_atom_site_fract_x
_atom_site_fract_y
_atom_site_fract_z
Si Si1 0.632902 0.671043 0.887102
Si Si2 0.799344 0.378590 0.734195
Si Si3 0.053296 0.290953 0.886357
Si Si4 0.870834 0.000000 0.600433
Si Si5 0.601165 0.000000 0.296641
Si Si6 0.000000 0.090365 0.000000
Si Si7 0.000000 0.906310 0.500000
Si Si8 0.269232 0.500000 0.825359
O O1 0.718770 0.639689 0.819739
O O2 0.555971 0.730594 0.828252
O O3 0.770212 0.686458 0.034858
O O4 0.512951 0.629655 0.895302
O O5 0.856504 0.442621 0.752082
O O6 0.659082 0.373214 0.584270
O O7 0.941922 0.335901 0.780719
O O8 0.000000 0.284069 0.000000
O O9 0.712511 0.000000 0.456772
O O10 0.831261 0.000000 0.718614
O O11 0.970333 0.052950 0.597063
O O12 0.417442 0.000000 0.248352
O O13 0.152369 0.052226 0.077237
#
# Coordination Sequence:
#
# PCOD9184736 Si02
#       8
#     8   8   8   4   4   4   4   4
#     4  10  19  34  54  78 106 144 182 222 263 323
#     4  10  20  35  57  80 106 146 178 230 270 315
#     4   9  18  34  55  78 104 140 190 218 261 320
#     4   9  18  35  58  76 107 150 179 216 262 325
#     4  10  21  37  56  80 109 138 188 225 266 327
#     4  11  22  32  50  82 118 139 172 222 278 329
#     4   9  18  34  56  82 108 138 186 217 262 328
#     4  11  22  34  50  83 116 141 171 223 280 324
#
# _framework density 18.485534000000001
#
# number of rings (size 3 to 8) (size 9 to 14) (size 15 to 20)
#    0.000    2.182    0.909    3.000    0.000    1.455 
#    0.000    5.909    0.000    0.000    0.000    0.000 
#    0.000    0.000    0.000    0.000    0.000    0.000 
#
# Total GULP energy -122635.860821 kJ/mol
# GULP energy per Si atom -5574.357310 kJ/mol
# Density = 1.844346 g / cm^3
# Si number density = 18.485534 Si / 1000 Ang^3
#
#
#
# Elastic Constant Matrix: (Units=GPa)
#
#
# Indices 1 2 3 4 5 6 
#
# 1 56.7435 36.0507 7.6680 0.0000 14.5727 0.0000
# 2 36.0507 129.9940 38.1659 0.0000 10.5506 0.0000
# 3 7.6680 38.1659 42.4647 0.0000 13.0572 0.0000
# 4 0.0000 0.0000 0.0000 20.1203 0.0000 12.2736
# 5 14.5727 10.5506 13.0572 0.0000 36.7152 0.0000
# 6 0.0000 0.0000 0.0000 12.2736 0.0000 39.9462
#
#
#
# Elastic Compliance Matrix: (Units=1/GPa)
#
#
# Indices 1 2 3 4 5 6 
#
# 1 0.024018 -0.007433 0.005185 0.000000 -0.009241 0.000000
# 2 -0.007433 0.012755 -0.011118 0.000000 0.003239 0.000000
# 3 0.005185 -0.011118 0.036216 0.000000 -0.011743 0.000000
# 4 0.000000 0.000000 0.000000 0.061165 0.000000 -0.018793
# 5 -0.009241 0.003239 -0.011743 0.000000 0.034150 0.000000
# 6 0.000000 0.000000 0.000000 -0.018793 0.000000 0.030808
#
#
# Mechanical properties :
#
#
# Convention : Reuss Voigt Hill
#
# Bulk Modulus (GPa) = 21.61802 43.66350 32.64076
# Shear Modulus (GPa) = 20.72428 29.17754 24.95091
#
# Velocity S-wave (km/s) = 3.35193 3.97722 3.67788
# Velocity P-wave (km/s) = 5.16725 6.69049 5.97759
#
# Compressibility (1/GPa) = 0.04625771
#
# Stress axis : x y z
#
# Youngs Moduli (GPa) = 41.63495 78.39836 27.61240
#
# Poissons Ratio (x) = 0.58275 -0.14318
# Poissons Ratio (y) = 0.30948 0.30699
# Poissons Ratio (z) = -0.21589 0.87161
#
# Static dielectric constant tensor:
#      x y z
#    x 1.637580 0.000000 0.006200 
#    y 0.000000 1.662940 0.000000 
#    z 0.006200 0.000000 1.655840 
# 
# From -- ./inp_files/121814.got.cif
#   From: 2010.05.17/outbox.cif.g08.bks.cpg/sg12_61_cif.got.tgz:121814.got - 2010.06.03 13:09:07.
