data_PCOD9184663
_publ_section_title
;
Structure prediction by ZEFSAII (Michael W. Deem and Ramdas Pophale) SiO2 
 PCOD9184663
Probable space group: C 2/M
;
_chemical_formula_sum "Si O2"
_cell_formula_units_Z 60
_cell_length_a 15.913031
_cell_length_b 16.914261
_cell_length_c 12.108019
_cell_angle_alpha 90.000000
_cell_angle_beta 97.269450
_cell_angle_gamma 90.000000
_cell_volume 3232.764652
_symmetry_space_group_name_H-M "C 2/M"
_symmetry_group_IT_number 12
_symmetry_cell_setting 'monoclinic'
loop_
_space_group_symop_operation_xyz
x,y,z
-x,y,-z
-x,-y,-z
x,-y,z
1/2+x,1/2+y,z
1/2-x,1/2+y,-z
1/2-x,1/2-y,-z
1/2+x,1/2-y,z
loop_
_atom_site_type_symbol
_atom_site_label
_atom_site_fract_x
_atom_site_fract_y
_atom_site_fract_z
Si Si1 0.241648 0.161501 0.546714
Si Si2 0.341880 0.088576 0.370530
Si Si3 0.030821 0.231967 0.290462
Si Si4 0.685963 0.816259 0.200555
Si Si5 0.155157 0.712587 0.817522
Si Si6 0.101244 0.591309 0.999266
Si Si7 0.578530 0.588082 0.432464
Si Si8 0.500000 0.834566 0.500000
O O1 0.250000 0.250000 0.500000
O O2 0.289948 0.103073 0.472728
O O3 0.275831 0.157706 0.675572
O O4 0.146093 0.134732 0.517329
O O5 0.317671 0.154797 0.278137
O O6 0.436271 0.109860 0.423504
O O7 0.333779 0.000000 0.327078
O O8 0.102517 0.264464 0.218859
O O9 0.053193 0.142131 0.324704
O O10 0.934154 0.245333 0.232287
O O11 0.038624 0.279714 0.409129
O O12 0.764069 0.770023 0.154711
O O13 0.650830 0.886543 0.119259
O O14 0.132550 0.655107 0.914989
O O15 0.116489 0.500000 0.969124
O O16 0.000000 0.600171 0.000000
O O17 0.500000 0.580834 0.500000
O O18 0.607751 0.500000 0.405522
#
# Coordination Sequence:
#
# PCOD9184663 Si02
#       8
#     8   8   8   8   8   8   8   4
#     4  12  21  38  58  90 128 163 206 250 304 371
#     4  11  21  33  56  89 124 161 201 252 311 368
#     4  11  20  38  62  89 126 169 215 253 304 375
#     4  12  23  40  66  93 125 170 212 256 311 378
#     4  11  23  41  66  91 121 169 216 257 311 379
#     4  11  25  46  67  94 126 158 208 270 328 374
#     4  11  22  35  55  86 128 171 206 247 298 359
#     4  10  19  34  53  84 128 166 202 244 307 374
#
# _framework density 18.559964999999998
#
# number of rings (size 3 to 8) (size 9 to 14) (size 15 to 20)
#    0.000    0.800    6.000    2.200    0.000    1.067 
#    0.000    1.333    0.000    0.000    0.000    1.867 
#    0.000    0.000    0.000    0.000    0.000    0.000 
#
# Total GULP energy -167437.795198 kJ/mol
# GULP energy per Si atom -5581.259840 kJ/mol
# Density = 1.851772 g / cm^3
# Si number density = 18.559965 Si / 1000 Ang^3
#
#
#
# Elastic Constant Matrix: (Units=GPa)
#
#
# Indices 1 2 3 4 5 6 
#
# 1 95.4629 42.9554 18.3810 0.0000 7.4698 0.0000
# 2 42.9554 68.8738 24.8681 0.0000 21.6127 0.0000
# 3 18.3810 24.8681 79.1073 0.0000 9.1167 0.0000
# 4 0.0000 0.0000 0.0000 136.5616 0.0000 99.4439
# 5 7.4698 21.6127 9.1167 0.0000 27.4840 0.0000
# 6 0.0000 0.0000 0.0000 99.4439 0.0000 112.4590
#
#
#
# Elastic Compliance Matrix: (Units=1/GPa)
#
#
# Indices 1 2 3 4 5 6 
#
# 1 0.014975 -0.010467 -0.000695 0.000000 0.004391 0.000000
# 2 -0.010467 0.028253 -0.004385 0.000000 -0.017918 0.000000
# 3 -0.000695 -0.004385 0.014309 0.000000 -0.001109 0.000000
# 4 0.000000 0.000000 0.000000 0.020565 0.000000 -0.018185
# 5 0.004391 -0.017918 -0.001109 0.000000 0.049650 0.000000
# 6 0.000000 0.000000 0.000000 -0.018185 0.000000 0.024973
#
#
# Mechanical properties :
#
#
# Convention : Reuss Voigt Hill
#
# Bulk Modulus (GPa) = 37.81602 46.20588 42.01095
# Shear Modulus (GPa) = 25.95614 65.78353 45.86983
#
# Velocity S-wave (km/s) = 3.74371 5.95993 4.97675
# Velocity P-wave (km/s) = 6.25351 8.50356 7.46381
#
# Compressibility (1/GPa) = 0.02644382
#
# Stress axis : x y z
#
# Youngs Moduli (GPa) = 66.77687 35.39423 69.88684
#
# Poissons Ratio (x) = 0.37046 0.04859
# Poissons Ratio (y) = 0.69894 0.30643
# Poissons Ratio (z) = 0.04643 0.15519
#
# Static dielectric constant tensor:
#      x y z
#    x 1.654020 0.000000 -0.004590 
#    y 0.000000 1.664240 0.000000 
#    z -0.004590 0.000000 1.631710 
# 
# From -- ./inp_files/146190.got.cif
#   From: 2010.05.17/outbox.cif.g08.bks.cpg/sg12_74_cif.got.tgz:146190.got - 2010.06.03 13:09:07.
