data_PCOD9184669
_publ_section_title
;
Structure prediction by ZEFSAII (Michael W. Deem and Ramdas Pophale) SiO2 
 PCOD9184669
Probable space group: C 2/M
;
_chemical_formula_sum "Si O2"
_cell_formula_units_Z 64
_cell_length_a 29.222204
_cell_length_b 7.890995
_cell_length_c 14.969939
_cell_angle_alpha 90.000000
_cell_angle_beta 86.753519
_cell_angle_gamma 90.000000
_cell_volume 3446.412287
_symmetry_space_group_name_H-M "C 2/M"
_symmetry_group_IT_number 12
_symmetry_cell_setting 'monoclinic'
loop_
_space_group_symop_operation_xyz
x,y,z
-x,y,-z
-x,-y,-z
x,-y,z
1/2+x,1/2+y,z
1/2-x,1/2+y,-z
1/2-x,1/2-y,-z
1/2+x,1/2-y,z
loop_
_atom_site_type_symbol
_atom_site_label
_atom_site_fract_x
_atom_site_fract_y
_atom_site_fract_z
Si Si1 0.051544 0.708007 0.521295
Si Si2 0.093380 0.295313 0.053987
Si Si3 0.598195 0.796151 0.338607
Si Si4 0.635649 0.208670 0.864600
Si Si5 0.521208 0.301558 0.202158
Si Si6 0.668823 0.795975 0.190891
Si Si7 0.236915 0.299599 0.900722
Si Si8 0.073990 0.302324 0.715947
O O1 0.051187 0.500000 0.522913
O O2 0.085447 0.764742 0.438571
O O3 0.065230 0.769759 0.618165
O O4 0.000000 0.759129 0.500000
O O5 0.092619 0.500000 0.055888
O O6 0.047026 0.235099 0.106404
O O7 0.135864 0.239527 0.112752
O O8 0.104247 0.240501 0.952467
O O9 0.556589 0.754640 0.275822
O O10 0.644144 0.734335 0.284093
O O11 0.600960 0.000000 0.343196
O O12 0.687409 0.268720 0.876664
O O13 0.613583 0.269766 0.774743
O O14 0.635494 0.000000 0.863637
O O15 0.512811 0.500000 0.211395
O O16 0.473437 0.209439 0.224072
O O17 0.720705 0.746117 0.167263
O O18 0.667178 0.000000 0.190877
O O19 0.232099 0.500000 0.901394
O O20 0.250000 0.250000 0.000000
O O21 0.084962 0.500000 0.701040
#
# Coordination Sequence:
#
# PCOD9184669 Si02
#       8
#     8   8   8   8   8   8   8   8
#     4   9  15  27  53  81  95 118 168 215 244 279
#     4   9  17  33  51  68  97 133 171 202 236 290
#     4   9  17  32  52  74 101 130 163 205 245 291
#     4   9  19  34  52  73  96 129 170 208 243 292
#     4  11  21  31  45  72 105 133 166 201 244 294
#     4   9  17  30  50  74  99 127 161 202 247 289
#     4  11  20  33  52  75 100 127 165 206 247 291
#     4  10  19  34  54  72  96 131 170 207 247 289
#
# _framework density 18.570036999999999
#
# number of rings (size 3 to 8) (size 9 to 14) (size 15 to 20)
#    0.000    2.375    2.500    2.250    0.000    2.500 
#    0.000    5.625    0.000    0.750    0.000    0.000 
#    0.000    0.000    0.000    0.000    0.000    0.375 
#
# Total GULP energy -178488.933329 kJ/mol
# GULP energy per Si atom -5577.779167 kJ/mol
# Density = 1.852777 g / cm^3
# Si number density = 18.570037 Si / 1000 Ang^3
#
#
#
# Elastic Constant Matrix: (Units=GPa)
#
#
# Indices 1 2 3 4 5 6 
#
# 1 40.4159 42.2153 37.9700 0.0000 46.4859 0.0000
# 2 42.2153 -17.4563 42.4210 0.0000 -30.6911 0.0000
# 3 37.9700 42.4210 121.3891 0.0000 32.2271 0.0000
# 4 0.0000 0.0000 0.0000 4.4460 0.0000 -4.6294
# 5 46.4859 -30.6911 32.2271 0.0000 -5.2293 0.0000
# 6 0.0000 0.0000 0.0000 -4.6294 0.0000 16.0713
#
#
#
# Elastic Compliance Matrix: (Units=1/GPa)
#
#
# Indices 1 2 3 4 5 6 
#
# 1 0.018362 0.015754 -0.011395 0.000000 0.000547 0.000000
# 2 0.015754 0.023999 -0.004970 0.000000 -0.031432 0.000000
# 3 -0.011395 -0.004970 0.012399 0.000000 0.004292 0.000000
# 4 0.000000 0.000000 0.000000 0.321292 0.000000 0.092550
# 5 0.000547 -0.031432 0.004292 0.000000 0.024563 0.000000
# 6 0.000000 0.000000 0.000000 0.092550 0.000000 0.088882
#
#
# Mechanical properties :
#
#
# Convention : Reuss Voigt Hill
#
# Bulk Modulus (GPa) = 18.67731 43.28460 30.98095
# Shear Modulus (GPa) = 9.83157 4.50708 7.16933
#
# Velocity S-wave (km/s) = 2.30344 1.55960 1.96700
# Velocity P-wave (km/s) = 4.14174 5.15777 4.67742
#
# Compressibility (1/GPa) = 0.05354091
#
# Stress axis : x y z
#
# Youngs Moduli (GPa) = 54.45887 41.66818 80.64868
#
# Poissons Ratio (x) = -0.65646 0.91896
# Poissons Ratio (y) = -0.85797 0.40082
# Poissons Ratio (z) = 0.62054 0.20709
#
# Static dielectric constant tensor:
#      x y z
#    x 1.640970 0.000000 -0.009710 
#    y 0.000000 1.669170 0.000000 
#    z -0.009710 0.000000 1.657130 
# 
# From -- ./inp_files/243928.got.cif
#   From: 2010.05.17/outbox.cif.g08.bks.cpg/sg12_122_cif.got.tgz:243928.got - 2010.06.03 13:09:07.
