data_PCOD9184797
_publ_section_title
;
Structure prediction by ZEFSAII (Michael W. Deem and Ramdas Pophale) SiO2 
 PCOD9184797
Probable space group: C 2/M
;
_chemical_formula_sum "Si O2"
_cell_formula_units_Z 56
_cell_length_a 15.054080
_cell_length_b 16.884217
_cell_length_c 14.610561
_cell_angle_alpha 90.000000
_cell_angle_beta 58.575981
_cell_angle_gamma 90.000000
_cell_volume 3168.985311
_symmetry_space_group_name_H-M "C 2/M"
_symmetry_group_IT_number 12
_symmetry_cell_setting 'monoclinic'
loop_
_space_group_symop_operation_xyz
x,y,z
-x,y,-z
-x,-y,-z
x,-y,z
1/2+x,1/2+y,z
1/2-x,1/2+y,-z
1/2-x,1/2-y,-z
1/2+x,1/2-y,z
loop_
_atom_site_type_symbol
_atom_site_label
_atom_site_fract_x
_atom_site_fract_y
_atom_site_fract_z
Si Si1 0.204007 0.242184 0.174728
Si Si2 0.710914 0.161249 0.688327
Si Si3 0.129289 0.500000 0.823908
Si Si4 0.260190 0.369587 0.015718
Si Si5 0.492389 0.412783 0.896229
Si Si6 0.039369 0.787453 0.721048
Si Si7 0.616944 0.000000 0.038685
Si Si8 0.092200 0.094499 0.526111
O O1 0.239511 0.210389 0.253556
O O2 0.255515 0.323816 0.114287
O O3 0.078360 0.244226 0.232840
O O4 0.244773 0.185274 0.071468
O O5 0.664832 0.080072 0.755244
O O6 0.623470 0.216988 0.687798
O O7 0.802846 0.131701 0.572539
O O8 0.005497 0.500000 0.896560
O O9 0.165028 0.500000 0.910484
O O10 0.160898 0.424512 0.065881
O O11 0.368823 0.413454 0.944673
O O12 0.536213 0.500000 0.849378
O O13 0.537622 0.340447 0.814174
O O14 0.500000 0.400051 0.000000
O O15 0.063448 0.850606 0.627839
O O16 0.000000 0.100042 0.500000
O O17 0.104003 0.000000 0.540916
#
# Coordination Sequence:
#
# PCOD9184797 Si02
#       8
#     8   8   4   8   8   8   4   8
#     4  10  21  35  55  85 120 153 204 237 295 359
#     4  12  22  41  61  86 124 154 200 253 307 357
#     4  11  24  36  57  90 116 161 202 251 296 359
#     4  10  19  34  54  81 118 164 192 243 292 348
#     4  10  20  35  56  86 121 157 204 239 290 360
#     4  11  23  38  60  91 119 161 194 253 304 357
#     4  11  20  36  55  82 119 162 206 238 295 355
#     4  11  23  41  67  93 117 150 201 257 311 360
#
# _framework density 17.671271999999998
#
# number of rings (size 3 to 8) (size 9 to 14) (size 15 to 20)
#    0.000    1.286    4.286    2.571    0.000    0.000 
#    2.571    0.000    0.000    0.000    0.000    1.500 
#    0.000    0.000    0.000    0.000    0.000    0.000 
#
# Total GULP energy -156132.809318 kJ/mol
# GULP energy per Si atom -5576.171761 kJ/mol
# Density = 1.763105 g / cm^3
# Si number density = 17.671272 Si / 1000 Ang^3
#
#
#
# Elastic Constant Matrix: (Units=GPa)
#
#
# Indices 1 2 3 4 5 6 
#
# 1 64.1553 35.4457 6.9303 0.0000 -3.7876 0.0000
# 2 35.4457 102.6916 34.6391 0.0000 -5.0728 0.0000
# 3 6.9303 34.6391 57.4118 0.0000 -8.2401 0.0000
# 4 0.0000 0.0000 0.0000 65.8552 0.0000 -6.9285
# 5 -3.7876 -5.0728 -8.2401 0.0000 29.2622 0.0000
# 6 0.0000 0.0000 0.0000 -6.9285 0.0000 32.3497
#
#
#
# Elastic Compliance Matrix: (Units=1/GPa)
#
#
# Indices 1 2 3 4 5 6 
#
# 1 0.019570 -0.007478 0.002425 0.000000 0.001920 0.000000
# 2 -0.007478 0.015084 -0.008297 0.000000 -0.000689 0.000000
# 3 0.002425 -0.008297 0.022895 0.000000 0.005323 0.000000
# 4 0.000000 0.000000 0.000000 0.015535 0.000000 0.003327
# 5 0.001920 -0.000689 0.005323 0.000000 0.035802 0.000000
# 6 0.000000 0.000000 0.000000 0.003327 0.000000 0.031625
#
#
# Mechanical properties :
#
#
# Convention : Reuss Voigt Hill
#
# Bulk Modulus (GPa) = 32.41593 42.03209 37.22401
# Shear Modulus (GPa) = 28.17007 35.30964 31.73986
#
# Velocity S-wave (km/s) = 3.99697 4.47490 4.24267
# Velocity P-wave (km/s) = 6.29958 7.10893 6.71646
#
# Compressibility (1/GPa) = 0.03084903
#
# Stress axis : x y z
#
# Youngs Moduli (GPa) = 51.09803 66.29677 43.67745
#
# Poissons Ratio (x) = 0.49578 -0.10592
# Poissons Ratio (y) = 0.38212 0.36239
# Poissons Ratio (z) = -0.12392 0.55006
#
# Static dielectric constant tensor:
#      x y z
#    x 1.594950 0.000000 0.005810 
#    y 0.000000 1.613230 0.000000 
#    z 0.005810 0.000000 1.586610 
# 
# From -- ./inp_files/146065.got.cif
#   From: 2010.05.17/outbox.cif.g08.bks.cpg/sg12_74_cif.got.tgz:146065.got - 2010.06.03 13:09:07.
