data_PCOD9184761
_publ_section_title
;
Structure prediction by ZEFSAII (Michael W. Deem and Ramdas Pophale) SiO2 
 PCOD9184761
Probable space group: C 2/M
;
_chemical_formula_sum "Si O2"
_cell_formula_units_Z 64
_cell_length_a 14.002030
_cell_length_b 17.938556
_cell_length_c 14.377819
_cell_angle_alpha 90.000000
_cell_angle_beta 91.288732
_cell_angle_gamma 90.000000
_cell_volume 3610.452442
_symmetry_space_group_name_H-M "C 2/M"
_symmetry_group_IT_number 12
_symmetry_cell_setting 'monoclinic'
loop_
_space_group_symop_operation_xyz
x,y,z
-x,y,-z
-x,-y,-z
x,-y,z
1/2+x,1/2+y,z
1/2-x,1/2+y,-z
1/2-x,1/2-y,-z
1/2+x,1/2-y,z
loop_
_atom_site_type_symbol
_atom_site_label
_atom_site_fract_x
_atom_site_fract_y
_atom_site_fract_z
Si Si1 0.535354 0.669461 0.804541
Si Si2 0.846416 0.914829 0.337132
Si Si3 0.354911 0.134885 0.748159
Si Si4 0.149921 0.226533 0.121683
Si Si5 0.990083 0.419778 0.111282
Si Si6 0.643861 0.277441 0.519139
Si Si7 0.862340 0.715996 0.077214
Si Si8 0.987840 0.724037 0.635842
O O1 0.578282 0.602961 0.744458
O O2 0.432321 0.667760 0.852895
O O3 0.611500 0.703810 0.878221
O O4 0.520977 0.734449 0.728620
O O5 0.741479 0.901550 0.290679
O O6 0.857567 0.853068 0.419582
O O7 0.856453 0.000000 0.369185
O O8 0.332870 0.215991 0.793283
O O9 0.412271 0.090906 0.829056
O O10 0.427758 0.152343 0.665100
O O11 0.252087 0.196397 0.091814
O O12 0.115914 0.274831 0.031740
O O13 0.948104 0.500000 0.138771
O O14 0.924912 0.347912 0.125866
O O15 0.000000 0.422202 0.000000
O O16 0.750000 0.250000 0.500000
O O17 0.582923 0.216412 0.576537
O O18 0.583129 0.279045 0.422768
#
# Coordination Sequence:
#
# PCOD9184761 Si02
#       8
#     8   8   8   8   8   8   8   8
#     4  10  19  34  54  79 109 144 182 229 270 320
#     4  11  23  37  57  85 111 143 180 227 286 342
#     4  11  18  35  54  85 110 140 186 234 267 329
#     4  10  20  30  55  84 107 142 201 238 259 307
#     4  11  21  33  51  80 118 151 178 222 278 324
#     4  10  19  36  57  83 107 138 177 226 274 336
#     4  11  18  33  54  81 111 147 195 232 271 316
#     4   9  19  31  57  86 100 132 189 223 270 320
#
# _framework density 17.726310000000002
#
# number of rings (size 3 to 8) (size 9 to 14) (size 15 to 20)
#    0.000    1.625    6.250    0.750    0.000    0.000 
#    0.000    5.625    0.000    3.750    0.000    0.000 
#    0.000    0.000    0.000    0.000    0.000    0.000 
#
# Total GULP energy -178148.408730 kJ/mol
# GULP energy per Si atom -5567.137773 kJ/mol
# Density = 1.768596 g / cm^3
# Si number density = 17.726310 Si / 1000 Ang^3
#
#
#
# Elastic Constant Matrix: (Units=GPa)
#
#
# Indices 1 2 3 4 5 6 
#
# 1 101.5490 16.5787 28.0374 0.0000 -14.1255 0.0000
# 2 16.5787 66.1547 22.2121 0.0000 -6.4587 0.0000
# 3 28.0374 22.2121 74.8854 0.0000 -0.6439 0.0000
# 4 0.0000 0.0000 0.0000 12.8113 0.0000 -2.3774
# 5 -14.1255 -6.4587 -0.6439 0.0000 34.1490 0.0000
# 6 0.0000 0.0000 0.0000 -2.3774 0.0000 13.1952
#
#
#
# Elastic Compliance Matrix: (Units=1/GPa)
#
#
# Indices 1 2 3 4 5 6 
#
# 1 0.011786 -0.001153 -0.004031 0.000000 0.004581 0.000000
# 2 -0.001153 0.017231 -0.004656 0.000000 0.002694 0.000000
# 3 -0.004031 -0.004656 0.016225 0.000000 -0.002242 0.000000
# 4 0.000000 0.000000 0.000000 0.080756 0.000000 0.014550
# 5 0.004581 0.002694 -0.002242 0.000000 0.031646 0.000000
# 6 0.000000 0.000000 0.000000 0.014550 0.000000 0.078407
#
#
# Mechanical properties :
#
#
# Convention : Reuss Voigt Hill
#
# Bulk Modulus (GPa) = 39.12154 41.80505 40.46330
# Shear Modulus (GPa) = 18.92130 23.74849 21.33489
#
# Velocity S-wave (km/s) = 3.27067 3.66420 3.47302
# Velocity P-wave (km/s) = 6.03164 6.44490 6.24169
#
# Compressibility (1/GPa) = 0.02556137
#
# Stress axis : x y z
#
# Youngs Moduli (GPa) = 84.84678 58.03347 61.63351
#
# Poissons Ratio (x) = 0.06690 0.24847
# Poissons Ratio (y) = 0.09781 0.28698
# Poissons Ratio (z) = 0.34205 0.27022
#
# Static dielectric constant tensor:
#      x y z
#    x 1.645510 0.000000 -0.014450 
#    y 0.000000 1.604490 0.000000 
#    z -0.014450 0.000000 1.663030 
# 
# From -- ./inp_files/215925.got.cif
#   From: 2010.05.17/outbox.cif.g08.bks.cpg/sg12_108_cif.got.tgz:215925.got - 2010.06.03 13:09:07.
