data_PCOD9184545
_publ_section_title
;
Structure prediction by ZEFSAII (Michael W. Deem and Ramdas Pophale) SiO2 
 PCOD9184545
Probable space group: C 2/M
;
_chemical_formula_sum "Si O2"
_cell_formula_units_Z 56
_cell_length_a 24.533855
_cell_length_b 7.592219
_cell_length_c 15.481022
_cell_angle_alpha 90.000000
_cell_angle_beta 63.708171
_cell_angle_gamma 90.000000
_cell_volume 2585.285283
_symmetry_space_group_name_H-M "C 2/M"
_symmetry_group_IT_number 12
_symmetry_cell_setting 'monoclinic'
loop_
_space_group_symop_operation_xyz
x,y,z
-x,y,-z
-x,-y,-z
x,-y,z
1/2+x,1/2+y,z
1/2-x,1/2+y,-z
1/2-x,1/2-y,-z
1/2+x,1/2-y,z
loop_
_atom_site_type_symbol
_atom_site_label
_atom_site_fract_x
_atom_site_fract_y
_atom_site_fract_z
Si Si1 0.159055 0.290868 0.060659
Si Si2 0.034961 0.787665 0.227013
Si Si3 0.747211 0.796438 0.145766
Si Si4 0.598927 0.298075 0.695009
Si Si5 0.723760 0.282792 0.684379
Si Si6 0.154102 0.295277 0.479792
Si Si7 0.059835 0.212968 0.403999
O O1 0.169776 0.500000 0.048806
O O2 0.088354 0.256821 0.123545
O O3 0.195086 0.219469 0.120051
O O4 0.191489 0.212362 0.954143
O O5 0.053799 0.725008 0.309756
O O6 0.968120 0.718782 0.249738
O O7 0.030487 0.000000 0.235972
O O8 0.758740 0.721154 0.232002
O O9 0.730344 0.000000 0.171647
O O10 0.594383 0.500000 0.728525
O O11 0.657365 0.220574 0.702237
O O12 0.616641 0.298135 0.581308
O O13 0.723345 0.500000 0.683535
O O14 0.777685 0.227888 0.582274
O O15 0.156447 0.500000 0.502261
O O16 0.118373 0.278443 0.414602
O O17 0.000000 0.266075 0.500000
O O18 0.062197 0.000000 0.402363
#
# Coordination Sequence:
#
# PCOD9184545 Si02
#       7
#     8   8   8   8   8   8   8
#     4  10  20  34  56  83 110 135 164 212 273 322
#     4  10  20  34  54  77 104 140 180 215 256 310
#     4   9  18  36  58  80 105 133 173 218 261 314
#     4  10  20  37  55  73 104 146 185 218 255 309
#     4   9  19  35  56  78 103 138 181 225 263 307
#     4  11  21  33  52  81 110 139 176 221 272 313
#     4  10  19  34  52  74 105 140 177 216 255 305
#
# _framework density 21.661052999999999
#
# number of rings (size 3 to 8) (size 9 to 14) (size 15 to 20)
#    0.000    2.143    1.429    2.143    0.000    3.143 
#    0.000    3.571    0.000    4.286    0.000    0.000 
#    0.000    0.000    0.000    0.000    0.000    0.000 
#
# Total GULP energy -156428.835261 kJ/mol
# GULP energy per Si atom -5586.744116 kJ/mol
# Density = 2.161175 g / cm^3
# Si number density = 21.661053 Si / 1000 Ang^3
#
#
#
# Elastic Constant Matrix: (Units=GPa)
#
#
# Indices 1 2 3 4 5 6 
#
# 1 108.2300 -4.0560 41.8326 0.0000 -27.0463 0.0000
# 2 -4.0560 52.5471 -8.5813 0.0000 3.2981 -0.0002
# 3 41.8326 -8.5813 52.9868 0.0000 -32.1110 0.0000
# 4 0.0000 0.0000 0.0000 7.3967 0.0000 -2.1258
# 5 -27.0463 3.2981 -32.1110 0.0000 32.0474 0.0000
# 6 0.0000 -0.0002 0.0000 -2.1258 0.0000 1.4911
#
#
#
# Elastic Compliance Matrix: (Units=1/GPa)
#
#
# Indices 1 2 3 4 5 6 
#
# 1 0.013359 -0.000647 -0.009621 0.000000 0.001701 0.000000
# 2 -0.000647 0.019689 0.005450 0.000001 0.002889 0.000005
# 3 -0.009621 0.005450 0.056241 0.000000 0.047672 0.000001
# 4 0.000000 0.000001 0.000000 0.229033 0.000000 0.326514
# 5 0.001701 0.002889 0.047672 0.000000 0.080109 0.000000
# 6 0.000000 0.000005 0.000001 0.326514 0.000000 1.136122
#
#
# Mechanical properties :
#
#
# Convention : Reuss Voigt Hill
#
# Bulk Modulus (GPa) = 12.55426 30.23938 21.39682
# Shear Modulus (GPa) = 3.18321 20.49162 11.83742
#
# Velocity S-wave (km/s) = 1.21357 3.07907 2.34024
# Velocity P-wave (km/s) = 2.78783 5.16057 4.14750
#
# Compressibility (1/GPa) = 0.07965422
#
# Stress axis : x y z
#
# Youngs Moduli (GPa) = 74.85607 50.78892 17.78065
#
# Poissons Ratio (x) = 0.03285 0.17106
# Poissons Ratio (y) = 0.04841 -0.09690
# Poissons Ratio (z) = 0.72016 -0.27679
#
# Static dielectric constant tensor:
#      x y z
#    x 1.801560 0.000000 -0.002740 
#    y 0.000000 1.826780 0.000000 
#    z -0.002740 0.000000 1.752280 
# 
# From -- ./inp_files/238323.got.cif
#   From: 2010.05.17/outbox.cif.g08.bks.cpg/sg12_120_cif.got.tgz:238323.got - 2010.06.03 13:09:07.
