data_PCOD9184521
_publ_section_title
;
Structure prediction by ZEFSAII (Michael W. Deem and Ramdas Pophale) SiO2 
 PCOD9184521
Probable space group: C 2/M
;
_chemical_formula_sum "Si O2"
_cell_formula_units_Z 48
_cell_length_a 9.281888
_cell_length_b 23.603618
_cell_length_c 12.919283
_cell_angle_alpha 90.000000
_cell_angle_beta 103.041441
_cell_angle_gamma 90.000000
_cell_volume 2757.430698
_symmetry_space_group_name_H-M "C 2/M"
_symmetry_group_IT_number 12
_symmetry_cell_setting 'monoclinic'
loop_
_space_group_symop_operation_xyz
x,y,z
-x,y,-z
-x,-y,-z
x,-y,z
1/2+x,1/2+y,z
1/2-x,1/2+y,-z
1/2-x,1/2-y,-z
1/2+x,1/2-y,z
loop_
_atom_site_type_symbol
_atom_site_label
_atom_site_fract_x
_atom_site_fract_y
_atom_site_fract_z
Si Si1 0.836243 0.832390 0.454944
Si Si2 0.436748 0.857225 0.722212
Si Si3 0.330208 0.340553 0.965210
Si Si4 0.416655 0.065877 0.096494
Si Si5 0.358034 0.221010 0.899961
Si Si6 0.863933 0.293297 0.399285
O O1 0.704067 0.865708 0.376288
O O2 0.850385 0.774641 0.388188
O O3 0.777309 0.814367 0.559247
O O4 0.000000 0.856909 0.500000
O O5 0.479478 0.912709 0.793711
O O6 0.396685 0.810029 0.801326
O O7 0.578387 0.831389 0.685006
O O8 0.223307 0.392386 0.924774
O O9 0.321119 0.287360 0.884657
O O10 0.500000 0.358087 0.000000
O O11 0.273673 0.311548 0.062771
O O12 0.378456 0.000000 0.099818
O O13 0.500000 0.074081 0.000000
O O14 0.500000 0.217588 0.000000
O O15 0.000000 0.299180 0.500000
#
# Coordination Sequence:
#
# PCOD9184521 Si02
#       6
#     8   8   8   8   8   8
#     4   9  18  33  49  80 117 146 174 227 288 337
#     4  11  19  33  57  79 108 154 192 217 272 342
#     4  10  20  34  52  80 121 142 178 237 281 321
#     4  11  23  42  59  76 112 159 199 227 267 338
#     4  10  19  34  51  83 123 146 177 222 286 350
#     4   8  17  32  49  75 114 148 177 219 277 348
#
# _framework density 17.407508
#
# number of rings (size 3 to 8) (size 9 to 14) (size 15 to 20)
#    0.000    2.167    3.333    1.000    2.333    0.333 
#    3.000    0.000    0.000    5.000    0.000    0.000 
#    0.000    0.000    0.000    0.000    0.000    0.000 
#
# Total GULP energy -133747.093655 kJ/mol
# GULP energy per Si atom -5572.795569 kJ/mol
# Density = 1.736789 g / cm^3
# Si number density = 17.407508 Si / 1000 Ang^3
#
#
#
# Elastic Constant Matrix: (Units=GPa)
#
#
# Indices 1 2 3 4 5 6 
#
# 1 119.7047 37.4953 25.9604 0.0000 13.8829 0.0000
# 2 37.4953 99.9091 23.9200 0.0000 6.8126 0.0000
# 3 25.9604 23.9200 45.9371 0.0000 13.4833 0.0000
# 4 0.0000 0.0000 0.0000 9.3264 0.0000 -0.2576
# 5 13.8829 6.8126 13.4833 0.0000 27.7494 0.0000
# 6 0.0000 0.0000 0.0000 -0.2576 0.0000 21.4760
#
#
#
# Elastic Compliance Matrix: (Units=1/GPa)
#
#
# Indices 1 2 3 4 5 6 
#
# 1 0.010333 -0.002839 -0.003555 0.000000 -0.002745 0.000000
# 2 -0.002839 0.012215 -0.005007 0.000000 0.000854 0.000000
# 3 -0.003555 -0.005007 0.029744 0.000000 -0.011445 0.000000
# 4 0.000000 0.000000 0.000000 0.107257 0.000000 0.001287
# 5 -0.002745 0.000854 -0.011445 0.000000 0.042761 0.000000
# 6 0.000000 0.000000 0.000000 0.001287 0.000000 0.046579
#
#
# Mechanical properties :
#
#
# Convention : Reuss Voigt Hill
#
# Bulk Modulus (GPa) = 33.91024 48.92250 41.41637
# Shear Modulus (GPa) = 17.76057 23.58869 20.67463
#
# Velocity S-wave (km/s) = 3.19765 3.68514 3.45002
# Velocity P-wave (km/s) = 5.75811 6.80238 6.30191
#
# Compressibility (1/GPa) = 0.02948962
#
# Stress axis : x y z
#
# Youngs Moduli (GPa) = 96.78081 81.86539 33.61984
#
# Poissons Ratio (x) = 0.23245 0.11952
# Poissons Ratio (y) = 0.27481 0.16833
# Poissons Ratio (z) = 0.34406 0.40988
#
# Static dielectric constant tensor:
#      x y z
#    x 1.636570 0.000000 -0.005230 
#    y 0.000000 1.577560 0.000000 
#    z -0.005230 0.000000 1.650020 
# 
# From -- ./inp_files/122017.got.cif
#   From: 2010.05.17/outbox.cif.g08.bks.cpg/sg12_62_cif.got.tgz:122017.got - 2010.06.03 13:09:07.
