data_PCOD9184297
_publ_section_title
;
Structure prediction by ZEFSAII (Michael W. Deem and Ramdas Pophale) SiO2 
 PCOD9184297
Probable space group: C 2/M
;
_chemical_formula_sum "Si O2"
_cell_formula_units_Z 56
_cell_length_a 18.529779
_cell_length_b 13.839434
_cell_length_c 12.893580
_cell_angle_alpha 90.000000
_cell_angle_beta 61.060432
_cell_angle_gamma 90.000000
_cell_volume 2893.576318
_symmetry_space_group_name_H-M "C 2/M"
_symmetry_group_IT_number 12
_symmetry_cell_setting 'monoclinic'
loop_
_space_group_symop_operation_xyz
x,y,z
-x,y,-z
-x,-y,-z
x,-y,z
1/2+x,1/2+y,z
1/2-x,1/2+y,-z
1/2-x,1/2-y,-z
1/2+x,1/2-y,z
loop_
_atom_site_type_symbol
_atom_site_label
_atom_site_fract_x
_atom_site_fract_y
_atom_site_fract_z
Si Si1 0.800841 0.680908 0.540658
Si Si2 0.120395 0.886080 0.142527
Si Si3 0.763313 0.608784 0.899372
Si Si4 0.989684 0.745247 0.127686
Si Si5 0.112423 0.259798 0.311835
Si Si6 0.470373 0.112381 0.332877
Si Si7 0.845163 0.104471 0.228559
O O1 0.750000 0.750000 0.500000
O O2 0.844029 0.735630 0.607604
O O3 0.875132 0.628136 0.430013
O O4 0.732902 0.612742 0.641238
O O5 0.105529 0.846664 0.268730
O O6 0.061991 0.818123 0.113401
O O7 0.103154 0.000000 0.142808
O O8 0.214952 0.871253 0.039067
O O9 0.798378 0.500000 0.878755
O O10 0.830469 0.682572 0.811218
O O11 0.692422 0.608487 0.860541
O O12 0.986081 0.653992 0.206593
O O13 0.906589 0.807395 0.201452
O O14 0.000000 0.720538 0.000000
O O15 0.027391 0.319125 0.365168
O O16 0.491899 0.000000 0.328997
O O17 0.886723 0.000000 0.213423
#
# Coordination Sequence:
#
# PCOD9184297 Si02
#       7
#     8   8   8   8   8   8   8
#     4  11  22  41  64  86 119 156 207 256 310 360
#     4  10  20  34  55  85 122 163 202 241 299 365
#     4   9  17  31  55  85 115 154 203 247 293 354
#     4  11  21  36  61  90 125 160 197 247 301 362
#     4  10  22  37  61  85 121 158 204 256 306 361
#     4  11  24  42  64  91 123 162 205 252 308 368
#     4  10  19  33  58  89 117 151 199 254 298 348
#
# _framework density 19.353214000000001
#
# number of rings (size 3 to 8) (size 9 to 14) (size 15 to 20)
#    0.000    1.714    2.857    2.143    0.000    3.143 
#    0.000    1.429    0.000    1.714    0.000    0.000 
#    0.000    0.000    0.000    0.000    0.000    0.000 
#
# Total GULP energy -156252.195523 kJ/mol
# GULP energy per Si atom -5580.435554 kJ/mol
# Density = 1.930917 g / cm^3
# Si number density = 19.353214 Si / 1000 Ang^3
#
#
#
# Elastic Constant Matrix: (Units=GPa)
#
#
# Indices 1 2 3 4 5 6 
#
# 1 67.7645 9.4922 28.1610 0.0000 1.6003 0.0000
# 2 9.4922 57.9972 35.5798 0.0000 2.5281 0.0000
# 3 28.1610 35.5798 98.7988 0.0000 3.4194 0.0000
# 4 0.0000 0.0000 0.0000 7.8852 0.0000 -6.5652
# 5 1.6003 2.5281 3.4194 0.0000 37.2953 0.0000
# 6 0.0000 0.0000 0.0000 -6.5652 0.0000 17.3049
#
#
#
# Elastic Compliance Matrix: (Units=1/GPa)
#
#
# Indices 1 2 3 4 5 6 
#
# 1 0.016746 0.000249 -0.004853 0.000000 -0.000290 0.000000
# 2 0.000249 0.022158 -0.008024 0.000000 -0.000777 0.000000
# 3 -0.004853 -0.008024 0.014414 0.000000 -0.000569 0.000000
# 4 0.000000 0.000000 0.000000 0.185374 0.000000 0.070328
# 5 -0.000290 -0.000777 -0.000569 0.000000 0.026930 0.000000
# 6 0.000000 0.000000 0.000000 0.070328 0.000000 0.084469
#
#
# Mechanical properties :
#
#
# Convention : Reuss Voigt Hill
#
# Bulk Modulus (GPa) = 35.63462 41.22518 38.42990
# Shear Modulus (GPa) = 12.99718 22.58560 17.79139
#
# Velocity S-wave (km/s) = 2.59429 3.41987 3.03528
# Velocity P-wave (km/s) = 5.23704 6.07797 5.67311
#
# Compressibility (1/GPa) = 0.02806260
#
# Stress axis : x y z
#
# Youngs Moduli (GPa) = 59.71720 45.13131 69.37733
#
# Poissons Ratio (x) = -0.01124 0.33666
# Poissons Ratio (y) = -0.01487 0.55665
# Poissons Ratio (z) = 0.28979 0.36211
#
# Static dielectric constant tensor:
#      x y z
#    x 1.678110 0.000000 -0.015630 
#    y 0.000000 1.664480 0.000000 
#    z -0.015630 0.000000 1.704780 
# 
# From -- ./inp_files/156523.got.cif
#   From: 2010.05.17/outbox.cif.g08.bks.cpg/sg12_79_cif.got.tgz:156523.got - 2010.06.03 13:09:07.
