data_PCOD9184244
_publ_section_title
;
Structure prediction by ZEFSAII (Michael W. Deem and Ramdas Pophale) SiO2 
 PCOD9184244
Probable space group: C 2/M
;
_chemical_formula_sum "Si O2"
_cell_formula_units_Z 64
_cell_length_a 22.862586
_cell_length_b 26.887455
_cell_length_c 18.509670
_cell_angle_alpha 90.000000
_cell_angle_beta 162.732812
_cell_angle_gamma 90.000000
_cell_volume 3377.370235
_symmetry_space_group_name_H-M "C 2/M"
_symmetry_group_IT_number 12
_symmetry_cell_setting 'monoclinic'
loop_
_space_group_symop_operation_xyz
x,y,z
-x,y,-z
-x,-y,-z
x,-y,z
1/2+x,1/2+y,z
1/2-x,1/2+y,-z
1/2-x,1/2-y,-z
1/2+x,1/2-y,z
loop_
_atom_site_type_symbol
_atom_site_label
_atom_site_fract_x
_atom_site_fract_y
_atom_site_fract_z
Si Si1 0.851771 0.592692 0.758783
Si Si2 0.876487 0.195847 0.731747
Si Si3 0.941370 0.912603 0.351168
Si Si4 0.017245 0.348344 0.708418
Si Si5 0.810641 0.306925 0.227297
Si Si6 0.174808 0.197574 0.823819
Si Si7 0.977174 0.554992 0.189945
Si Si8 0.280279 0.695055 0.452262
O O1 0.630288 0.581015 0.523060
O O2 0.842693 0.651310 0.729845
O O3 0.915628 0.566708 0.759822
O O4 0.000000 0.582452 0.000000
O O5 0.697914 0.171912 0.564851
O O6 0.843655 0.254785 0.696601
O O7 0.833384 0.181511 0.597240
O O8 0.099087 0.182573 0.012901
O O9 0.874660 0.854065 0.275871
O O10 0.000000 0.928755 0.500000
O O11 0.754378 0.941477 0.101181
O O12 0.156992 0.341914 0.804315
O O13 0.991815 0.402051 0.714394
O O14 0.125290 0.313752 0.896150
O O15 0.806745 0.248861 0.197438
O O16 0.000000 0.313474 0.500000
O O17 0.987677 0.203246 0.656291
O O18 0.031684 0.500000 0.279137
#
# Coordination Sequence:
#
# PCOD9184244 Si02
#       8
#     8   8   8   8   8   8   8   8
#     4  11  22  37  57  87 124 161 198 243 285 336
#     4  11  21  34  59  83 116 161 197 233 282 341
#     4  10  21  36  55  85 124 162 195 235 283 337
#     4  11  22  42  61  83 118 154 198 244 286 352
#     4  12  25  37  56  90 125 155 190 241 292 348
#     4  10  19  35  58  84 123 164 196 223 271 345
#     4  11  25  42  62  83 108 152 203 251 298 347
#     4  10  19  33  58  85 118 163 202 231 271 337
#
# _framework density 18.949655
#
# number of rings (size 3 to 8) (size 9 to 14) (size 15 to 20)
#    0.000    1.250    5.000    2.250    1.750    3.500 
#    0.000    0.000    0.000    0.375    0.000    0.875 
#    0.000    0.000    0.000    0.000    0.000    0.000 
#
# Total GULP energy -178802.511664 kJ/mol
# GULP energy per Si atom -5587.578489 kJ/mol
# Density = 1.890652 g / cm^3
# Si number density = 18.949655 Si / 1000 Ang^3
#
#
#
# Elastic Constant Matrix: (Units=GPa)
#
#
# Indices 1 2 3 4 5 6 
#
# 1 31.8943 21.8963 23.3874 -0.0001 7.0906 -0.0002
# 2 21.8963 61.9194 11.6910 0.0002 1.6688 0.0001
# 3 23.3874 11.6910 105.5328 -0.0003 16.2926 -0.0005
# 4 -0.0001 0.0002 -0.0003 -12.8535 -0.0004 -7.0747
# 5 7.0906 1.6688 16.2926 -0.0004 28.6245 -0.0003
# 6 -0.0002 0.0001 -0.0005 -7.0747 -0.0003 -0.6694
#
#
#
# Elastic Compliance Matrix: (Units=1/GPa)
#
#
# Indices 1 2 3 4 5 6 
#
# 1 0.049780 -0.015867 -0.008237 -0.000001 -0.006718 0.000000
# 2 -0.015867 0.021553 0.000785 0.000001 0.002227 0.000000
# 3 -0.008237 0.000785 0.011957 0.000000 -0.004811 0.000001
# 4 -0.000001 0.000001 0.000000 0.016151 -0.000001 -0.170691
# 5 -0.006718 0.002227 -0.004811 -0.000001 0.039208 0.000001
# 6 0.000000 0.000000 0.000001 -0.170691 0.000001 0.310115
#
#
# Mechanical properties :
#
#
# Convention : Reuss Voigt Hill
#
# Bulk Modulus (GPa) = 27.28420 34.81067 31.04744
# Shear Modulus (GPa) = 9.84990 12.51178 11.18084
#
# Velocity S-wave (km/s) = 2.28237 2.57235 2.43169
# Velocity P-wave (km/s) = 4.62333 5.21849 4.92990
#
# Compressibility (1/GPa) = 0.03665124
#
# Stress axis : x y z
#
# Youngs Moduli (GPa) = 20.08824 46.39747 83.63330
#
# Poissons Ratio (x) = 0.73620 0.68889
# Poissons Ratio (y) = 0.31875 -0.06564
# Poissons Ratio (z) = 0.16547 -0.03642
#
# Static dielectric constant tensor:
#      x y z
#    x 1.677790 0.000000 0.014480 
#    y 0.000000 1.657170 0.000000 
#    z 0.014480 0.000000 1.659960 
# 
# From -- ./inp_files/286700.got.cif
#   From: 2010.05.17/outbox.cif.g08.bks.cpg/sg12_144_cif.got.tgz:286700.got - 2010.06.03 13:09:07.
