data_PCOD9184400
_publ_section_title
;
Structure prediction by ZEFSAII (Michael W. Deem and Ramdas Pophale) SiO2 
 PCOD9184400
Probable space group: C 2/M
;
_chemical_formula_sum "Si O2"
_cell_formula_units_Z 40
_cell_length_a 10.370812
_cell_length_b 21.154441
_cell_length_c 15.556840
_cell_angle_alpha 90.000000
_cell_angle_beta 39.388136
_cell_angle_gamma 90.000000
_cell_volume 2165.786160
_symmetry_space_group_name_H-M "C 2/M"
_symmetry_group_IT_number 12
_symmetry_cell_setting 'monoclinic'
loop_
_space_group_symop_operation_xyz
x,y,z
-x,y,-z
-x,-y,-z
x,-y,z
1/2+x,1/2+y,z
1/2-x,1/2+y,-z
1/2-x,1/2-y,-z
1/2+x,1/2-y,z
loop_
_atom_site_type_symbol
_atom_site_label
_atom_site_fract_x
_atom_site_fract_y
_atom_site_fract_z
Si Si1 0.112965 0.500000 0.298358
Si Si2 0.954852 0.000000 0.875861
Si Si3 0.657180 0.129721 0.838328
Si Si4 0.519892 0.000000 0.823798
Si Si5 0.981503 0.759109 0.906649
Si Si6 0.939790 0.132304 0.266224
Si Si7 0.000000 0.398586 0.500000
O O1 0.355760 0.500000 0.154841
O O2 0.989446 0.500000 0.274322
O O3 0.059024 0.441107 0.387231
O O4 0.000242 0.062315 0.797066
O O5 0.719068 0.000000 0.024214
O O6 0.590063 0.193565 0.824754
O O7 0.882592 0.144123 0.756767
O O8 0.626832 0.063699 0.804189
O O9 0.500000 0.125030 0.000000
O O10 0.052114 0.819872 0.817881
O O11 0.750000 0.750000 0.000000
O O12 0.000000 0.767597 0.000000
O O13 0.708584 0.135719 0.417271
#
# Coordination Sequence:
#
# PCOD9184400 Si02
#       7
#     4   4   8   4   8   8   4
#     4   9  21  38  56  89 124 157 204 243 302 364
#     4  10  19  33  60  93 121 149 193 259 305 353
#     4  11  21  37  59  94 125 154 191 252 319 362
#     4  12  20  34  65  96 121 145 205 262 308 355
#     4  11  21  37  61  91 126 156 194 250 315 362
#     4  11  21  40  62  86 123 163 203 239 304 367
#     4   9  22  42  60  78 122 173 198 240 296 361
#
# _framework density 18.469042999999999
#
# number of rings (size 3 to 8) (size 9 to 14) (size 15 to 20)
#    0.000    1.400    6.000    1.800    0.000    6.400 
#    0.000    3.000    0.000    0.000    0.000    0.000 
#    0.000    0.000    0.000    0.000    0.000    0.000 
#
# Total GULP energy -111457.644606 kJ/mol
# GULP energy per Si atom -5572.882230 kJ/mol
# Density = 1.842701 g / cm^3
# Si number density = 18.469043 Si / 1000 Ang^3
#
#
#
# Elastic Constant Matrix: (Units=GPa)
#
#
# Indices 1 2 3 4 5 6 
#
# 1 141.4251 41.5411 41.7218 -0.0011 -25.3357 0.0013
# 2 41.5411 127.6795 15.7809 -0.0009 -3.9422 0.0011
# 3 41.7218 15.7809 72.8311 -0.0032 -25.7868 0.0034
# 4 -0.0011 -0.0009 -0.0032 -26.0610 0.0013 -18.8781
# 5 -25.3357 -3.9422 -25.7868 0.0013 35.5610 -0.0018
# 6 0.0013 0.0011 0.0034 -18.8781 -0.0018 7.2594
#
#
#
# Elastic Compliance Matrix: (Units=1/GPa)
#
#
# Indices 1 2 3 4 5 6 
#
# 1 0.009574 -0.002557 -0.003519 0.000000 0.003986 0.000001
# 2 -0.002557 0.008737 -0.000983 0.000000 -0.001566 0.000000
# 3 -0.003519 -0.000983 0.020226 0.000001 0.012050 -0.000003
# 4 0.000000 0.000000 0.000001 -0.013306 -0.000001 -0.034603
# 5 0.003986 -0.001566 0.012050 -0.000001 0.039525 0.000002
# 6 0.000001 0.000000 -0.000003 -0.034603 0.000002 0.047768
#
#
# Mechanical properties :
#
#
# Convention : Reuss Voigt Hill
#
# Bulk Modulus (GPa) = 40.95157 60.00259 50.47708
# Shear Modulus (GPa) = 37.09677 19.54468 28.32072
#
# Velocity S-wave (km/s) = 4.48659 3.25659 3.92013
# Velocity P-wave (km/s) = 7.00433 6.83368 6.91953
#
# Compressibility (1/GPa) = 0.02441909
#
# Stress axis : x y z
#
# Youngs Moduli (GPa) = 104.44695 114.45373 49.44117
#
# Poissons Ratio (x) = 0.29265 0.17401
# Poissons Ratio (y) = 0.26707 0.04859
# Poissons Ratio (z) = 0.36760 0.11248
#
# Static dielectric constant tensor:
#      x y z
#    x 1.653320 0.000000 -0.023950 
#    y 0.000000 1.668900 0.000000 
#    z -0.023950 0.000000 1.638050 
# 
# From -- ./inp_files/120367.got.cif
#   From: 2010.05.17/outbox.cif.g08.bks.cpg/sg12_61_cif.got.tgz:120367.got - 2010.06.03 13:09:07.
