data_PCOD9184814
_publ_section_title
;
Structure prediction by ZEFSAII (Michael W. Deem and Ramdas Pophale) SiO2 
 PCOD9184814
Probable space group: C 2/M
;
_chemical_formula_sum "Si O2"
_cell_formula_units_Z 48
_cell_length_a 10.375258
_cell_length_b 23.483471
_cell_length_c 11.851097
_cell_angle_alpha 90.000000
_cell_angle_beta 115.394593
_cell_angle_gamma 90.000000
_cell_volume 2608.484036
_symmetry_space_group_name_H-M "C 2/M"
_symmetry_group_IT_number 12
_symmetry_cell_setting 'monoclinic'
loop_
_space_group_symop_operation_xyz
x,y,z
-x,y,-z
-x,-y,-z
x,-y,z
1/2+x,1/2+y,z
1/2-x,1/2+y,-z
1/2-x,1/2-y,-z
1/2+x,1/2-y,z
loop_
_atom_site_type_symbol
_atom_site_label
_atom_site_fract_x
_atom_site_fract_y
_atom_site_fract_z
Si Si1 0.166926 0.377718 0.851278
Si Si2 0.786739 0.127239 0.142084
Si Si3 0.933685 0.500000 0.155622
Si Si4 0.935593 0.180965 0.861548
Si Si5 0.509414 0.199494 0.382489
Si Si6 0.751169 0.719193 0.684491
Si Si7 0.775540 0.500000 0.853553
O O1 0.113388 0.441112 0.806909
O O2 0.324202 0.366755 0.860631
O O3 0.066341 0.333199 0.749292
O O4 0.182804 0.368887 0.992769
O O5 0.735430 0.165430 0.227015
O O6 0.802554 0.060738 0.179556
O O7 0.936522 0.153831 0.159741
O O8 0.101255 0.500000 0.193901
O O9 0.854468 0.500000 0.004472
O O10 0.850076 0.229308 0.765382
O O11 0.000000 0.207297 0.000000
O O12 0.500000 0.168554 0.500000
O O13 0.409483 0.255527 0.367103
O O14 0.673758 0.205348 0.406430
#
# Coordination Sequence:
#
# PCOD9184814 Si02
#       7
#     8   8   4   8   8   8   4
#     4   9  20  33  55  76 112 139 176 226 264 329
#     4  10  19  34  54  85 109 142 178 218 279 319
#     4   9  16  33  48  79 102 145 177 214 276 309
#     4   9  19  31  49  83 110 139 175 213 274 329
#     4  11  23  37  52  77 106 144 183 222 271 320
#     4  11  21  35  57  77 110 141 175 230 268 329
#     4   9  18  29  51  77 115 137 174 218 264 335
#
# _framework density 18.401492999999999
#
# number of rings (size 3 to 8) (size 9 to 14) (size 15 to 20)
#    0.000    2.167    1.667    1.500    2.333    4.000 
#    0.000    3.750    0.000    0.000    0.000    0.583 
#    0.000    0.000    0.000    0.000    0.000    0.000 
#
# Total GULP energy -133732.374823 kJ/mol
# GULP energy per Si atom -5572.182284 kJ/mol
# Density = 1.835961 g / cm^3
# Si number density = 18.401493 Si / 1000 Ang^3
#
#
#
# Elastic Constant Matrix: (Units=GPa)
#
#
# Indices 1 2 3 4 5 6 
#
# 1 80.2017 27.4470 23.0674 0.0000 -25.5832 0.0000
# 2 27.4470 96.1523 31.5060 0.0000 -10.0364 0.0000
# 3 23.0674 31.5060 51.9821 0.0000 -6.0808 0.0000
# 4 0.0000 0.0000 0.0000 20.5338 0.0000 -3.5518
# 5 -25.5832 -10.0364 -6.0808 0.0000 24.8484 0.0000
# 6 0.0000 0.0000 0.0000 -3.5518 0.0000 15.8148
#
#
#
# Elastic Compliance Matrix: (Units=1/GPa)
#
#
# Indices 1 2 3 4 5 6 
#
# 1 0.021038 -0.002078 -0.005807 0.000000 0.019400 0.000000
# 2 -0.002078 0.013470 -0.007058 0.000000 0.001574 0.000000
# 3 -0.005807 -0.007058 0.025798 0.000000 -0.002517 0.000000
# 4 0.000000 0.000000 0.000000 0.050669 0.000000 0.011380
# 5 0.019400 0.001574 -0.002517 0.000000 0.060238 0.000000
# 6 0.000000 0.000000 0.000000 0.011380 0.000000 0.065788
#
#
# Mechanical properties :
#
#
# Convention : Reuss Voigt Hill
#
# Bulk Modulus (GPa) = 32.87259 43.59743 38.23501
# Shear Modulus (GPa) = 18.04883 21.99379 20.02131
#
# Velocity S-wave (km/s) = 3.13523 3.46094 3.30210
# Velocity P-wave (km/s) = 5.56858 6.30195 5.94658
#
# Compressibility (1/GPa) = 0.03042048
#
# Stress axis : x y z
#
# Youngs Moduli (GPa) = 47.53267 74.23740 38.76288
#
# Poissons Ratio (x) = 0.15424 0.22510
# Poissons Ratio (y) = 0.09875 0.27359
# Poissons Ratio (z) = 0.27603 0.52398
#
# Static dielectric constant tensor:
#      x y z
#    x 1.665700 0.000000 -0.000560 
#    y 0.000000 1.621070 0.000000 
#    z -0.000560 0.000000 1.666650 
# 
# From -- ./inp_files/122591.got.cif
#   From: 2010.05.17/outbox.cif.g08.bks.cpg/sg12_62_cif.got.tgz:122591.got - 2010.06.03 13:09:07.
