data_PCOD9184712
_publ_section_title
;
Structure prediction by ZEFSAII (Michael W. Deem and Ramdas Pophale) SiO2 
 PCOD9184712
Probable space group: C 2/M
;
_chemical_formula_sum "Si O2"
_cell_formula_units_Z 64
_cell_length_a 17.161143
_cell_length_b 20.774797
_cell_length_c 8.803288
_cell_angle_alpha 90.000000
_cell_angle_beta 60.197724
_cell_angle_gamma 90.000000
_cell_volume 2723.456135
_symmetry_space_group_name_H-M "C 2/M"
_symmetry_group_IT_number 12
_symmetry_cell_setting 'monoclinic'
loop_
_space_group_symop_operation_xyz
x,y,z
-x,y,-z
-x,-y,-z
x,-y,z
1/2+x,1/2+y,z
1/2-x,1/2+y,-z
1/2-x,1/2-y,-z
1/2+x,1/2-y,z
loop_
_atom_site_type_symbol
_atom_site_label
_atom_site_fract_x
_atom_site_fract_y
_atom_site_fract_z
Si Si1 0.873546 0.244110 0.985778
Si Si2 0.113887 0.151354 0.583680
Si Si3 0.971872 0.429094 0.349647
Si Si4 0.223472 0.841255 0.183614
Si Si5 0.458351 0.788683 0.367358
Si Si6 0.188307 0.876048 0.814009
Si Si7 0.174884 0.573047 0.123024
Si Si8 0.538324 0.570061 0.134300
O O1 0.827193 0.204641 0.890680
O O2 0.962341 0.274259 0.830536
O O3 0.809875 0.296119 0.127353
O O4 0.875259 0.186640 0.104273
O O5 0.155222 0.139485 0.379543
O O6 0.176365 0.114915 0.647637
O O7 0.109264 0.229345 0.588080
O O8 0.014352 0.123000 0.716301
O O9 0.933374 0.500000 0.348072
O O10 0.922929 0.361097 0.373126
O O11 0.070634 0.421049 0.181507
O O12 0.000000 0.431704 0.500000
O O13 0.268310 0.905370 0.075415
O O14 0.500000 0.785671 0.500000
O O15 0.289936 0.877665 0.778449
O O16 0.141326 0.921913 0.984339
O O17 0.186677 0.500000 0.165672
O O18 0.522396 0.500000 0.218331
O O19 0.500000 0.571226 0.000000
#
# Coordination Sequence:
#
# PCOD9184712 Si02
#       8
#     8   8   8   8   8   8   8   8
#     4  10  19  34  54  76 115 152 185 240 296 342
#     4  11  22  35  56  88 119 156 199 245 291 350
#     4   9  19  35  60  91 114 144 197 247 292 347
#     4  10  21  35  53  84 115 149 195 242 296 350
#     4  11  19  33  58  85 115 149 190 248 295 337
#     4  10  21  35  56  81 120 153 197 234 292 359
#     4  10  20  37  60  85 116 156 194 241 298 354
#     4   9  18  33  51  74 110 155 196 231 272 334
#
# _framework density 23.499552000000001
#
# number of rings (size 3 to 8) (size 9 to 14) (size 15 to 20)
#    0.000    2.000    3.750    0.375    0.000    1.500 
#    0.000    0.000    0.000    2.625    0.000    2.625 
#    0.000    0.375    0.000    0.000    0.000    0.000 
#
# Total GULP energy -178196.430197 kJ/mol
# GULP energy per Si atom -5568.638444 kJ/mol
# Density = 2.344607 g / cm^3
# Si number density = 23.499552 Si / 1000 Ang^3
#
#
#
# Elastic Constant Matrix: (Units=GPa)
#
#
# Indices 1 2 3 4 5 6 
#
# 1 5.2672 2.9803 6.3342 0.0000 -6.4535 0.0000
# 2 2.9803 124.3213 20.1688 0.0000 -0.6224 0.0000
# 3 6.3342 20.1688 104.6881 0.0000 -7.6479 0.0000
# 4 0.0000 0.0000 0.0000 34.9754 0.0000 -35.1893
# 5 -6.4535 -0.6224 -7.6479 0.0000 17.1331 0.0000
# 6 0.0000 0.0000 0.0000 -35.1893 0.0000 84.0918
#
#
#
# Elastic Compliance Matrix: (Units=1/GPa)
#
#
# Indices 1 2 3 4 5 6 
#
# 1 0.372705 -0.006401 -0.011452 0.000000 0.135041 0.000000
# 2 -0.006401 0.008416 -0.001435 0.000000 -0.002746 0.000000
# 3 -0.011452 -0.001435 0.010546 0.000000 0.000342 0.000000
# 4 0.000000 0.000000 0.000000 0.049383 0.000000 0.020665
# 5 0.135041 -0.002746 0.000342 0.000000 0.109285 0.000000
# 6 0.000000 0.000000 0.000000 0.020665 0.000000 0.020539
#
#
# Mechanical properties :
#
#
# Convention : Reuss Voigt Hill
#
# Bulk Modulus (GPa) = 2.83212 32.58256 17.70734
# Shear Modulus (GPa) = 6.87619 40.89296 23.88458
#
# Velocity S-wave (km/s) = 1.71244 4.17605 3.19154
# Velocity P-wave (km/s) = 2.26224 6.09490 4.59704
#
# Compressibility (1/GPa) = 0.35309202
#
# Stress axis : x y z
#
# Youngs Moduli (GPa) = 2.68309 118.81946 94.81827
#
# Poissons Ratio (x) = 0.76054 1.08588
# Poissons Ratio (y) = 0.01717 0.13604
# Poissons Ratio (z) = 0.03073 0.17047
#
# Static dielectric constant tensor:
#      x y z
#    x 2.156740 0.000000 -0.061580 
#    y 0.000000 1.971960 0.000000 
#    z -0.061580 0.000000 1.922040 
# 
# From -- ./inp_files/89600.got.cif
#   From: 2010.05.17/outbox.cif.g08.bks.cpg/sg12_45_cif.got.tgz:89600.got - 2010.06.03 13:09:07.
