data_PCOD9184917
_publ_section_title
;
Structure prediction by ZEFSAII (Michael W. Deem and Ramdas Pophale) SiO2 
 PCOD9184917
Probable space group: C 2/M
;
_chemical_formula_sum "Si O2"
_cell_formula_units_Z 64
_cell_length_a 20.880519
_cell_length_b 7.483992
_cell_length_c 27.106012
_cell_angle_alpha 90.000000
_cell_angle_beta 134.398161
_cell_angle_gamma 90.000000
_cell_volume 3026.491836
_symmetry_space_group_name_H-M "C 2/M"
_symmetry_group_IT_number 12
_symmetry_cell_setting 'monoclinic'
loop_
_space_group_symop_operation_xyz
x,y,z
-x,y,-z
-x,-y,-z
x,-y,z
1/2+x,1/2+y,z
1/2-x,1/2+y,-z
1/2-x,1/2-y,-z
1/2+x,1/2-y,z
loop_
_atom_site_type_symbol
_atom_site_label
_atom_site_fract_x
_atom_site_fract_y
_atom_site_fract_z
Si Si1 0.445528 0.707915 0.288760
Si Si2 0.525072 0.706097 0.803860
Si Si3 0.600933 0.281545 0.041749
Si Si4 0.011202 0.781709 0.426699
Si Si5 0.352468 0.713913 0.042497
Si Si6 0.144101 0.782220 0.580617
Si Si7 0.740338 0.714310 0.200654
Si Si8 0.825976 0.289475 0.724642
O O1 0.472787 0.500000 0.300486
O O2 0.461738 0.787433 0.243357
O O3 0.498944 0.783930 0.364497
O O4 0.340459 0.716303 0.245554
O O5 0.555866 0.500000 0.815964
O O6 0.584200 0.786036 0.879863
O O7 0.421732 0.707741 0.763959
O O8 0.602718 0.500000 0.043219
O O9 0.672504 0.223554 0.121360
O O10 0.500000 0.227243 0.000000
O O11 0.625485 0.218926 0.000251
O O12 0.098623 0.726686 0.504732
O O13 0.924881 0.729333 0.413090
O O14 0.010614 0.000000 0.425593
O O15 0.366705 0.500000 0.047890
O O16 0.250000 0.750000 0.000000
O O17 0.243501 0.720167 0.647038
O O18 0.145744 0.000000 0.581934
O O19 0.745169 0.500000 0.201131
O O20 0.702783 0.764322 0.234061
O O21 0.835263 0.500000 0.720433
#
# Coordination Sequence:
#
# PCOD9184917 Si02
#       8
#     8   8   8   8   8   8   8   8
#     4  10  19  34  55  79 106 137 175 216 257 309
#     4  10  22  37  54  78 110 144 174 214 268 317
#     4   9  18  33  52  72  97 133 172 207 249 308
#     4   8  13  26  50  77 103 132 172 215 254 304
#     4  10  20  36  56  76 102 137 176 214 257 313
#     4   8  14  26  49  78 102 132 174 215 254 304
#     4  11  21  33  54  80 105 133 171 220 269 313
#     4  11  21  35  55  79 107 140 179 219 260 313
#
# _framework density 21.146597
#
# number of rings (size 3 to 8) (size 9 to 14) (size 15 to 20)
#    0.000    2.375    1.250    3.000    0.000    3.000 
#    0.000    1.250    0.000    4.875    0.000    0.000 
#    0.000    0.000    0.000    0.000    0.000    0.000 
#
# Total GULP energy -178713.910242 kJ/mol
# GULP energy per Si atom -5584.809695 kJ/mol
# Density = 2.109847 g / cm^3
# Si number density = 21.146597 Si / 1000 Ang^3
#
#
#
# Elastic Constant Matrix: (Units=GPa)
#
#
# Indices 1 2 3 4 5 6 
#
# 1 130.3057 -19.2665 82.8447 -0.0001 -9.1829 0.0001
# 2 -19.2665 59.6552 -7.5006 -0.0003 -2.7374 0.0000
# 3 82.8447 -7.5006 218.0945 -0.0001 -13.3307 0.0001
# 4 -0.0001 -0.0003 -0.0001 6.9938 0.0001 6.2377
# 5 -9.1829 -2.7374 -13.3307 0.0001 24.5016 0.0000
# 6 0.0001 0.0000 0.0001 6.2377 0.0000 11.8478
#
#
#
# Elastic Compliance Matrix: (Units=1/GPa)
#
#
# Indices 1 2 3 4 5 6 
#
# 1 0.010726 0.003087 -0.003829 0.000001 0.002282 0.000000
# 2 0.003087 0.017848 -0.000379 0.000001 0.002945 -0.000001
# 3 -0.003829 -0.000379 0.006140 0.000000 0.001864 0.000000
# 4 0.000001 0.000001 0.000000 0.269554 -0.000001 -0.141915
# 5 0.002282 0.002945 0.001864 -0.000001 0.043012 0.000001
# 6 0.000000 -0.000001 0.000000 -0.141915 0.000001 0.159119
#
#
# Mechanical properties :
#
#
# Convention : Reuss Voigt Hill
#
# Bulk Modulus (GPa) = 30.79461 57.80119 44.29790
# Shear Modulus (GPa) = 9.62531 32.13384 20.87958
#
# Velocity S-wave (km/s) = 2.13579 3.90240 3.14566
# Velocity P-wave (km/s) = 4.54711 6.90637 5.84697
#
# Compressibility (1/GPa) = 0.03247321
#
# Stress axis : x y z
#
# Youngs Moduli (GPa) = 93.23462 56.03004 162.85715
#
# Poissons Ratio (x) = -0.17298 0.62351
# Poissons Ratio (y) = -0.28785 0.06171
# Poissons Ratio (z) = 0.35695 0.02123
#
# Static dielectric constant tensor:
#      x y z
#    x 1.704650 0.000000 -0.029100 
#    y 0.000000 1.829620 0.000000 
#    z -0.029100 0.000000 1.767880 
# 
# From -- ./inp_files/365739.got.cif
#   From: 2010.05.17/outbox.cif.g08.bks.cpg/sg12_183_cif.got.tgz:365739.got - 2010.06.03 13:09:07.
