data_PCOD9184753
_publ_section_title
;
Structure prediction by ZEFSAII (Michael W. Deem and Ramdas Pophale) SiO2 
 PCOD9184753
Probable space group: C 2/M
;
_chemical_formula_sum "Si O2"
_cell_formula_units_Z 64
_cell_length_a 14.621176
_cell_length_b 27.263628
_cell_length_c 10.203175
_cell_angle_alpha 90.000000
_cell_angle_beta 112.213353
_cell_angle_gamma 90.000000
_cell_volume 3765.392524
_symmetry_space_group_name_H-M "C 2/M"
_symmetry_group_IT_number 12
_symmetry_cell_setting 'monoclinic'
loop_
_space_group_symop_operation_xyz
x,y,z
-x,y,-z
-x,-y,-z
x,-y,z
1/2+x,1/2+y,z
1/2-x,1/2+y,-z
1/2-x,1/2-y,-z
1/2+x,1/2-y,z
loop_
_atom_site_type_symbol
_atom_site_label
_atom_site_fract_x
_atom_site_fract_y
_atom_site_fract_z
Si Si1 0.110336 0.265640 0.048834
Si Si2 0.283594 0.132452 0.609043
Si Si3 0.351408 0.237107 0.628468
Si Si4 0.563091 0.057681 0.409410
Si Si5 0.925552 0.555671 0.081622
Si Si6 0.272562 0.863045 0.918652
Si Si7 0.562789 0.659660 0.908114
Si Si8 0.933459 0.168061 0.586612
O O1 0.145998 0.250458 0.214664
O O2 0.182597 0.308132 0.038187
O O3 0.093331 0.216838 0.953533
O O4 0.000000 0.288167 0.000000
O O5 0.357408 0.178673 0.626563
O O6 0.337301 0.086852 0.570928
O O7 0.270318 0.128235 0.759512
O O8 0.176517 0.146406 0.491504
O O9 0.250000 0.250000 0.500000
O O10 0.427306 0.272656 0.597658
O O11 0.500000 0.075462 0.500000
O O12 0.491027 0.062446 0.246011
O O13 0.585151 0.000000 0.441242
O O14 0.884717 0.500000 0.059932
O O15 0.843440 0.596784 0.020475
O O16 0.000000 0.559693 0.000000
O O17 0.165169 0.865630 0.925413
O O18 0.488964 0.652933 0.747557
O O19 0.500000 0.643564 0.000000
O O20 0.000000 0.154396 0.500000
#
# Coordination Sequence:
#
# PCOD9184753 Si02
#       8
#     8   8   8   8   8   8   8   8
#     4  10  19  34  54  78 114 149 185 234 282 327
#     4  10  21  35  58  84 110 144 192 232 273 333
#     4   9  19  34  51  76 112 148 187 230 273 324
#     4  10  22  40  60  86 118 145 173 223 291 345
#     4  10  20  36  61  88 112 140 178 226 281 339
#     4  11  21  34  57  85 109 146 192 232 273 332
#     4  11  22  37  54  77 112 153 191 232 276 322
#     4  11  20  36  55  76 111 153 191 229 275 323
#
# _framework density 16.996898999999999
#
# number of rings (size 3 to 8) (size 9 to 14) (size 15 to 20)
#    0.000    1.750    5.000    0.750    1.750    1.500 
#    0.000    0.000    0.000    1.500    0.000    0.000 
#    0.000    0.000    0.000    0.000    0.000    0.000 
#
# Total GULP energy -178303.389559 kJ/mol
# GULP energy per Si atom -5571.980924 kJ/mol
# Density = 1.695821 g / cm^3
# Si number density = 16.996899 Si / 1000 Ang^3
#
#
#
# Elastic Constant Matrix: (Units=GPa)
#
#
# Indices 1 2 3 4 5 6 
#
# 1 113.6710 43.5179 38.8346 0.0000 -7.8442 0.0000
# 2 43.5179 62.2182 24.1415 0.0000 -0.9855 0.0000
# 3 38.8346 24.1415 97.9060 0.0000 -5.9285 0.0000
# 4 0.0000 0.0000 0.0000 20.1881 0.0000 5.6979
# 5 -7.8442 -0.9855 -5.9285 0.0000 26.5825 0.0000
# 6 0.0000 0.0000 0.0000 5.6979 0.0000 22.4624
#
#
#
# Elastic Compliance Matrix: (Units=1/GPa)
#
#
# Indices 1 2 3 4 5 6 
#
# 1 0.013069 -0.007908 -0.003059 0.000000 0.002881 0.000000
# 2 -0.007908 0.022561 -0.002551 0.000000 -0.002066 0.000000
# 3 -0.003059 -0.002551 0.012160 0.000000 0.001715 0.000000
# 4 0.000000 0.000000 0.000000 0.053354 0.000000 -0.013534
# 5 0.002881 -0.002066 0.001715 0.000000 0.038775 0.000000
# 6 0.000000 0.000000 0.000000 -0.013534 0.000000 0.047952
#
#
# Mechanical properties :
#
#
# Convention : Reuss Voigt Hill
#
# Bulk Modulus (GPa) = 48.18726 54.08701 51.13714
# Shear Modulus (GPa) = 22.54020 25.00002 23.77011
#
# Velocity S-wave (km/s) = 3.64557 3.83934 3.74371
# Velocity P-wave (km/s) = 6.79208 7.17947 6.98846
#
# Compressibility (1/GPa) = 0.02075237
#
# Stress axis : x y z
#
# Youngs Moduli (GPa) = 76.51740 44.32426 82.23462
#
# Poissons Ratio (x) = 0.35053 0.25159
# Poissons Ratio (y) = 0.60512 0.20981
# Poissons Ratio (z) = 0.23410 0.11309
#
# Static dielectric constant tensor:
#      x y z
#    x 1.560910 0.000000 -0.002240 
#    y 0.000000 1.589470 0.000000 
#    z -0.002240 0.000000 1.577960 
# 
# From -- ./inp_files/67022.got.cif
#   From: 2010.05.17/outbox.cif.g08.bks.cpg/sg12_34_cif.got.tgz:67022.got - 2010.06.03 13:09:07.
