data_PCOD9184190
_publ_section_title
;
Structure prediction by ZEFSAII (Michael W. Deem and Ramdas Pophale) SiO2 
 PCOD9184190
Probable space group: C 2/M
;
_chemical_formula_sum "Si O2"
_cell_formula_units_Z 64
_cell_length_a 24.674996
_cell_length_b 14.822603
_cell_length_c 16.055934
_cell_angle_alpha 90.000000
_cell_angle_beta 152.283665
_cell_angle_gamma 90.000000
_cell_volume 2731.230170
_symmetry_space_group_name_H-M "C 2/M"
_symmetry_group_IT_number 12
_symmetry_cell_setting 'monoclinic'
loop_
_space_group_symop_operation_xyz
x,y,z
-x,y,-z
-x,-y,-z
x,-y,z
1/2+x,1/2+y,z
1/2-x,1/2+y,-z
1/2-x,1/2-y,-z
1/2+x,1/2-y,z
loop_
_atom_site_type_symbol
_atom_site_label
_atom_site_fract_x
_atom_site_fract_y
_atom_site_fract_z
Si Si1 0.093499 0.127383 0.196500
Si Si2 0.933991 0.397512 0.141075
Si Si3 0.425668 0.158298 0.824203
Si Si4 0.005049 0.892901 0.411698
Si Si5 0.766026 0.110662 0.014999
Si Si6 0.137510 0.608042 0.671858
Si Si7 0.839898 0.143947 0.531790
Si Si8 0.337070 0.153558 0.470915
O O1 0.093201 0.235733 0.186231
O O2 0.085589 0.111041 0.286030
O O3 0.224523 0.101044 0.349901
O O4 0.000000 0.095489 0.000000
O O5 0.907732 0.500000 0.081238
O O6 0.820372 0.358290 0.029470
O O7 0.989620 0.350041 0.138481
O O8 0.040143 0.396176 0.351272
O O9 0.295757 0.118403 0.638929
O O10 0.500000 0.117361 0.000000
O O11 0.000000 0.856426 0.500000
O O12 0.113393 0.883357 0.495943
O O13 0.987456 0.000000 0.396588
O O14 0.894882 0.856167 0.210045
O O15 0.711437 0.135190 0.852746
O O16 0.764301 0.000000 0.013648
O O17 0.156381 0.500000 0.681809
O O18 0.177414 0.665629 0.647037
O O19 0.000000 0.620102 0.500000
O O20 0.844827 0.252907 0.532105
#
# Coordination Sequence:
#
# PCOD9184190 Si02
#       8
#     8   8   8   8   8   8   8   8
#     4  10  21  39  61  83 117 161 189 234 307 355
#     4  11  20  35  61  88 117 153 194 243 293 343
#     4  10  21  38  60  85 116 150 191 244 298 345
#     4  10  24  45  63  81 117 161 198 242 292 349
#     4   9  20  38  59  84 117 157 194 232 292 352
#     4  10  19  33  57  88 120 154 188 235 295 347
#     4  11  22  41  62  88 117 154 200 240 294 354
#     4  11  20  37  59  85 123 153 189 244 293 350
#
# _framework density 23.432663999999999
#
# number of rings (size 3 to 8) (size 9 to 14) (size 15 to 20)
#    0.000    1.750    3.750    1.125    3.500    1.250 
#    0.000    0.625    0.000    1.875    0.000    0.000 
#    0.000    0.000    0.000    0.000    0.000    0.000 
#
# Total GULP energy -178664.341752 kJ/mol
# GULP energy per Si atom -5583.260680 kJ/mol
# Density = 2.337933 g / cm^3
# Si number density = 23.432664 Si / 1000 Ang^3
#
#
#
# Elastic Constant Matrix: (Units=GPa)
#
#
# Indices 1 2 3 4 5 6 
#
# 1 121.3439 -7.6753 30.3550 0.0000 -24.5342 0.0000
# 2 -7.6753 52.6329 4.4807 0.0000 -4.1141 0.0000
# 3 30.3550 4.4807 92.6716 0.0000 -31.4456 0.0000
# 4 0.0000 0.0000 0.0000 -18.9537 0.0000 -7.4200
# 5 -24.5342 -4.1141 -31.4456 0.0000 38.4245 0.0000
# 6 0.0000 0.0000 0.0000 -7.4200 0.0000 9.4454
#
#
#
# Elastic Compliance Matrix: (Units=1/GPa)
#
#
# Indices 1 2 3 4 5 6 
#
# 1 0.009804 0.001968 -0.001538 0.000000 0.005212 0.000000
# 2 0.001968 0.019562 -0.000628 0.000000 0.002837 0.000000
# 3 -0.001538 -0.000628 0.015186 0.000000 0.011379 0.000000
# 4 0.000000 0.000000 0.000000 -0.040351 0.000000 -0.031698
# 5 0.005212 0.002837 0.011379 0.000000 0.038969 0.000000
# 6 0.000000 0.000000 0.000000 -0.031698 0.000000 0.080970
#
#
# Mechanical properties :
#
#
# Convention : Reuss Voigt Hill
#
# Bulk Modulus (GPa) = 22.64671 35.66325 29.15498
# Shear Modulus (GPa) = 35.90561 21.74909 28.82735
#
# Velocity S-wave (km/s) = 3.91869 3.04987 3.51126
# Velocity P-wave (km/s) = 5.49185 5.25878 5.37658
#
# Compressibility (1/GPa) = 0.04415652
#
# Stress axis : x y z
#
# Youngs Moduli (GPa) = 101.99852 51.12021 65.85052
#
# Poissons Ratio (x) = -0.10061 0.10128
# Poissons Ratio (y) = -0.20074 0.04133
# Poissons Ratio (z) = 0.15687 0.03209
#
# Static dielectric constant tensor:
#      x y z
#    x 1.924370 0.000000 -0.042570 
#    y 0.000000 1.905930 0.000000 
#    z -0.042570 0.000000 1.915900 
# 
# From -- ./inp_files/241530.got.cif
#   From: 2010.05.17/outbox.cif.g08.bks.cpg/sg12_121_cif.got.tgz:241530.got - 2010.06.03 13:09:07.
