data_PCOD9184657
_publ_section_title
;
Structure prediction by ZEFSAII (Michael W. Deem and Ramdas Pophale) SiO2 
 PCOD9184657
Probable space group: C 2/M
;
_chemical_formula_sum "Si O2"
_cell_formula_units_Z 40
_cell_length_a 13.985226
_cell_length_b 29.101059
_cell_length_c 5.903602
_cell_angle_alpha 90.000000
_cell_angle_beta 56.202945
_cell_angle_gamma 90.000000
_cell_volume 1996.655798
_symmetry_space_group_name_H-M "C 2/M"
_symmetry_group_IT_number 12
_symmetry_cell_setting 'monoclinic'
loop_
_space_group_symop_operation_xyz
x,y,z
-x,y,-z
-x,-y,-z
x,-y,z
1/2+x,1/2+y,z
1/2-x,1/2+y,-z
1/2-x,1/2-y,-z
1/2+x,1/2-y,z
loop_
_atom_site_type_symbol
_atom_site_label
_atom_site_fract_x
_atom_site_fract_y
_atom_site_fract_z
Si Si1 0.347732 0.624893 0.060183
Si Si2 0.649995 0.873219 0.942805
Si Si3 0.284192 0.199171 0.523495
Si Si4 0.500000 0.167123 0.500000
Si Si5 0.500000 0.412683 0.500000
Si Si6 0.216312 0.053069 0.473775
O O1 0.324217 0.671011 0.232090
O O2 0.324014 0.581382 0.252572
O O3 0.248843 0.625867 0.001657
O O4 0.463068 0.617972 0.764519
O O5 0.674164 0.830286 0.747335
O O6 0.673800 0.919513 0.770603
O O7 0.535895 0.864403 0.238536
O O8 0.250000 0.250000 0.500000
O O9 0.390163 0.196531 0.562852
O O10 0.390130 0.441799 0.563326
O O11 0.238489 0.000000 0.490149
#
# Coordination Sequence:
#
# PCOD9184657 Si02
#       6
#     8   8   8   4   4   8
#     4   9  20  35  54  80 116 153 190 235 285 342
#     4   9  20  39  58  80 113 149 189 235 285 338
#     4  10  21  40  61  86 116 150 193 239 287 345
#     4  10  20  38  64  85 112 153 189 236 295 342
#     4  10  19  34  53  81 118 155 192 238 292 344
#     4  10  20  35  56  82 115 154 195 239 288 345
#
# _framework density 20.033498000000002
#
# number of rings (size 3 to 8) (size 9 to 14) (size 15 to 20)
#    0.000    2.400    0.000    1.500    0.000    8.000 
#    0.000   24.500    0.000   15.600    0.000    0.000 
#    0.000    0.000    0.000    0.000    0.000    0.000 
#
# Total GULP energy -111542.634067 kJ/mol
# GULP energy per Si atom -5577.131703 kJ/mol
# Density = 1.998790 g / cm^3
# Si number density = 20.033498 Si / 1000 Ang^3
#
#
#
# Elastic Constant Matrix: (Units=GPa)
#
#
# Indices 1 2 3 4 5 6 
#
# 1 80.0566 40.1767 3.9737 0.0000 5.7859 0.0000
# 2 40.1767 193.3633 83.0114 0.0000 -3.0116 0.0000
# 3 3.9737 83.0114 149.7271 0.0000 -5.5323 0.0000
# 4 0.0000 0.0000 0.0000 4.8352 0.0000 4.3090
# 5 5.7859 -3.0116 -5.5323 0.0000 31.8353 0.0000
# 6 0.0000 0.0000 0.0000 4.3090 0.0000 24.6225
#
#
#
# Elastic Compliance Matrix: (Units=1/GPa)
#
#
# Indices 1 2 3 4 5 6 
#
# 1 0.014481 -0.003731 0.001584 0.000000 -0.002709 0.000000
# 2 -0.003731 0.007748 -0.004171 0.000000 0.000686 0.000000
# 3 0.001584 -0.004171 0.008982 0.000000 0.000878 0.000000
# 4 0.000000 0.000000 0.000000 0.245032 0.000000 -0.042881
# 5 -0.002709 0.000686 0.000878 0.000000 0.032122 0.000000
# 6 0.000000 0.000000 0.000000 -0.042881 0.000000 0.048117
#
#
# Mechanical properties :
#
#
# Convention : Reuss Voigt Hill
#
# Bulk Modulus (GPa) = 53.83764 75.27450 64.55607
# Shear Modulus (GPa) = 13.32232 31.99095 22.65663
#
# Velocity S-wave (km/s) = 2.58156 4.00042 3.36659
# Velocity P-wave (km/s) = 5.98482 7.68074 6.88520
#
# Compressibility (1/GPa) = 0.01857437
#
# Stress axis : x y z
#
# Youngs Moduli (GPa) = 69.05689 129.05973 111.33430
#
# Poissons Ratio (x) = 0.48153 -0.17637
# Poissons Ratio (y) = 0.25766 0.46443
# Poissons Ratio (z) = -0.10940 0.53837
#
# Static dielectric constant tensor:
#      x y z
#    x 1.760460 0.000000 -0.016050 
#    y 0.000000 1.660270 0.000000 
#    z -0.016050 0.000000 1.762920 
# 
# From -- ./inp_files/7656.got.cif
#   From: 2010.05.17/outbox.cif.g08.bks.cpg/sg12_4_cif.got.tgz:7656.got - 2010.06.03 13:09:07.
