data_PCOD9184257
_publ_section_title
;
Structure prediction by ZEFSAII (Michael W. Deem and Ramdas Pophale) SiO2 
 PCOD9184257
Probable space group: C 2/M
;
_chemical_formula_sum "Si O2"
_cell_formula_units_Z 56
_cell_length_a 21.527163
_cell_length_b 7.945929
_cell_length_c 30.405500
_cell_angle_alpha 90.000000
_cell_angle_beta 31.210576
_cell_angle_gamma 90.000000
_cell_volume 2695.059594
_symmetry_space_group_name_H-M "C 2/M"
_symmetry_group_IT_number 12
_symmetry_cell_setting 'monoclinic'
loop_
_space_group_symop_operation_xyz
x,y,z
-x,y,-z
-x,-y,-z
x,-y,z
1/2+x,1/2+y,z
1/2-x,1/2+y,-z
1/2-x,1/2-y,-z
1/2+x,1/2-y,z
loop_
_atom_site_type_symbol
_atom_site_label
_atom_site_fract_x
_atom_site_fract_y
_atom_site_fract_z
Si Si1 0.748687 0.200372 0.051751
Si Si2 0.401525 0.295478 0.617869
Si Si3 0.102088 0.796902 0.220931
Si Si4 0.761036 0.703683 0.204018
Si Si5 0.829631 0.204197 0.565278
Si Si6 0.980026 0.799743 0.963156
Si Si7 0.342443 0.305969 0.405938
O O1 0.635938 0.251115 0.150526
O O2 0.753909 0.000000 0.049560
O O3 0.750000 0.250000 0.000000
O O4 0.867801 0.270166 0.004161
O O5 0.403428 0.500000 0.616455
O O6 0.333242 0.239841 0.702276
O O7 0.540082 0.244415 0.532334
O O8 0.334965 0.246060 0.613178
O O9 0.210033 0.739127 0.187664
O O10 0.975609 0.731186 0.317224
O O11 0.098424 0.000000 0.225092
O O12 0.765093 0.500000 0.201427
O O13 0.891887 0.769342 0.136453
O O14 0.726926 0.282060 0.597924
O O15 0.820329 0.000000 0.568290
O O16 0.960913 0.000000 0.979122
O O17 0.000000 0.726868 0.000000
O O18 0.363942 0.500000 0.403299
O O19 0.250000 0.250000 0.500000
#
# Coordination Sequence:
#
# PCOD9184257 Si02
#       7
#     8   8   8   8   8   8   8
#     4  11  24  42  64  88 121 160 198 244 299 359
#     4   8  16  32  55  82 111 147 186 231 283 335
#     4  10  22  39  59  85 119 155 195 244 294 346
#     4  10  19  33  58  87 112 144 193 239 278 337
#     4   9  17  34  57  78 110 151 191 232 280 338
#     4  10  21  39  59  82 114 147 183 233 294 345
#     4  11  23  38  57  83 117 154 193 240 292 347
#
# _framework density 20.778760999999999
#
# number of rings (size 3 to 8) (size 9 to 14) (size 15 to 20)
#    0.000    2.143    1.429    2.571    0.000    6.000 
#    0.000    7.143    0.000    0.000    0.000    0.000 
#    0.000    0.000    0.000    0.000    0.000    0.000 
#
# Total GULP energy -156234.098099 kJ/mol
# GULP energy per Si atom -5579.789218 kJ/mol
# Density = 2.073147 g / cm^3
# Si number density = 20.778761 Si / 1000 Ang^3
#
#
#
# Elastic Constant Matrix: (Units=GPa)
#
#
# Indices 1 2 3 4 5 6 
#
# 1 93.4750 3.8693 59.1642 0.0037 -2.2907 0.0019
# 2 3.8693 24.7066 9.6900 0.0016 1.9486 0.0099
# 3 59.1642 9.6900 120.4547 0.0000 9.9230 -0.0016
# 4 0.0037 0.0016 0.0000 22.3465 -0.0012 0.0147
# 5 -2.2907 1.9486 9.9230 -0.0012 33.4792 0.0025
# 6 0.0019 0.0099 -0.0016 0.0147 0.0025 22.8547
#
#
#
# Elastic Compliance Matrix: (Units=1/GPa)
#
#
# Indices 1 2 3 4 5 6 
#
# 1 0.015917 0.000425 -0.008139 -0.000002 0.003476 -0.000002
# 2 0.000425 0.041876 -0.003464 -0.000003 -0.001382 -0.000018
# 3 -0.008139 -0.003464 0.012923 0.000001 -0.004185 0.000004
# 4 -0.000002 -0.000003 0.000001 0.044750 0.000001 -0.000029
# 5 0.003476 -0.001382 -0.004185 0.000001 0.031428 -0.000003
# 6 -0.000002 -0.000018 0.000004 -0.000029 -0.000003 0.043755
#
#
# Mechanical properties :
#
#
# Convention : Reuss Voigt Hill
#
# Bulk Modulus (GPa) = 20.67777 42.67594 31.67686
# Shear Modulus (GPa) = 21.82237 26.79694 24.30966
#
# Velocity S-wave (km/s) = 3.24423 3.59504 3.42413
# Velocity P-wave (km/s) = 4.89963 6.14941 5.55975
#
# Compressibility (1/GPa) = 0.04836110
#
# Stress axis : x y z
#
# Youngs Moduli (GPa) = 62.82649 23.88013 77.38302
#
# Poissons Ratio (x) = -0.01015 0.62978
# Poissons Ratio (y) = -0.02670 0.26803
# Poissons Ratio (z) = 0.51131 0.08271
#
# Static dielectric constant tensor:
#      x y z
#    x 1.744540 0.000000 0.001350 
#    y 0.000000 1.757670 0.000000 
#    z 0.001350 0.000000 1.772840 
# 
# From -- ./inp_files/380639.got.cif
#   From: 2010.05.17/outbox.cif.g08.bks.cpg/sg12_191_cif.got.tgz:380639.got - 2010.06.03 13:09:07.
