data_PCOD9184449
_publ_section_title
;
Structure prediction by ZEFSAII (Michael W. Deem and Ramdas Pophale) SiO2 
 PCOD9184449
Probable space group: C 2/M
;
_chemical_formula_sum "Si O2"
_cell_formula_units_Z 64
_cell_length_a 8.765471
_cell_length_b 29.655997
_cell_length_c 21.794983
_cell_angle_alpha 90.000000
_cell_angle_beta 134.429052
_cell_angle_gamma 90.000000
_cell_volume 4045.891130
_symmetry_space_group_name_H-M "C 2/M"
_symmetry_group_IT_number 12
_symmetry_cell_setting 'monoclinic'
loop_
_space_group_symop_operation_xyz
x,y,z
-x,y,-z
-x,-y,-z
x,-y,z
1/2+x,1/2+y,z
1/2-x,1/2+y,-z
1/2-x,1/2-y,-z
1/2+x,1/2-y,z
loop_
_atom_site_type_symbol
_atom_site_label
_atom_site_fract_x
_atom_site_fract_y
_atom_site_fract_z
Si Si1 0.560369 0.219187 0.667290
Si Si2 0.136730 0.552028 0.443106
Si Si3 0.273482 0.361181 0.405700
Si Si4 0.770023 0.766539 0.936202
Si Si5 0.199533 0.285021 0.178218
Si Si6 0.830978 0.051350 0.633925
Si Si7 0.929211 0.864844 0.312811
Si Si8 0.261349 0.795663 0.410571
O O1 0.414540 0.175297 0.636357
O O2 0.693627 0.240529 0.760677
O O3 0.723686 0.212270 0.657920
O O4 0.393957 0.258935 0.603902
O O5 0.160145 0.500000 0.427510
O O6 0.216245 0.590950 0.420406
O O7 0.265823 0.554896 0.543627
O O8 0.887873 0.559720 0.390260
O O9 0.500000 0.345857 0.500000
O O10 0.303999 0.366263 0.341422
O O11 0.790194 0.726652 0.891139
O O12 0.541398 0.790192 0.863650
O O13 0.750000 0.750000 0.000000
O O14 0.000000 0.791608 0.000000
O O15 0.325895 0.328795 0.237429
O O16 0.016982 0.086744 0.699259
O O17 0.895785 0.000000 0.663813
O O18 0.161411 0.843997 0.395049
O O19 0.500000 0.792152 0.500000
#
# Coordination Sequence:
#
# PCOD9184449 Si02
#       8
#     8   8   8   8   8   8   8   8
#     4  11  21  32  45  63  91 131 158 202 248 278
#     4   9  19  33  48  62  84 121 173 231 263 284
#     4  12  21  30  43  65  92 126 177 214 248 292
#     4   9  18  33  55  73  92 122 151 181 219 277
#     4  10  19  34  47  71 101 123 155 189 236 291
#     4   9  18  34  50  65  86 122 170 215 262 296
#     4  11  21  30  47  69  95 129 158 208 255 284
#     4  11  21  32  43  58  88 128 176 207 236 278
#
# _framework density 15.818517999999999
#
# number of rings (size 3 to 8) (size 9 to 14) (size 15 to 20)
#    0.000    1.750    1.250    6.750    1.750    0.750 
#    0.000    0.000    0.000    0.000    0.000    0.000 
#    0.000    5.000    0.000    6.625    0.000   16.500 
#
# Total GULP energy -178385.262696 kJ/mol
# GULP energy per Si atom -5574.539459 kJ/mol
# Density = 1.578251 g / cm^3
# Si number density = 15.818518 Si / 1000 Ang^3
#
#
#
# Elastic Constant Matrix: (Units=GPa)
#
#
# Indices 1 2 3 4 5 6 
#
# 1 77.6613 37.9628 23.8453 0.0000 -0.3911 0.0000
# 2 37.9628 87.8167 22.5565 0.0000 1.8460 0.0000
# 3 23.8453 22.5565 55.8488 0.0000 1.1652 0.0000
# 4 0.0000 0.0000 0.0000 7.5059 0.0000 -1.5728
# 5 -0.3911 1.8460 1.1652 0.0000 32.5827 0.0000
# 6 0.0000 0.0000 0.0000 -1.5728 0.0000 27.0856
#
#
#
# Elastic Compliance Matrix: (Units=1/GPa)
#
#
# Indices 1 2 3 4 5 6 
#
# 1 0.017476 -0.006304 -0.004931 0.000000 0.000743 0.000000
# 2 -0.006304 0.014989 -0.003345 0.000000 -0.000805 0.000000
# 3 -0.004931 -0.003345 0.021375 0.000000 -0.000634 0.000000
# 4 0.000000 0.000000 0.000000 0.134870 0.000000 0.007832
# 5 0.000743 -0.000805 -0.000634 0.000000 0.030768 0.000000
# 6 0.000000 0.000000 0.000000 0.007832 0.000000 0.037375
#
#
# Mechanical properties :
#
#
# Convention : Reuss Voigt Hill
#
# Bulk Modulus (GPa) = 40.51985 43.33955 41.92970
# Shear Modulus (GPa) = 16.99300 22.56567 19.77934
#
# Velocity S-wave (km/s) = 3.28113 3.78105 3.53992
# Velocity P-wave (km/s) = 6.32657 6.82050 6.57817
#
# Compressibility (1/GPa) = 0.02467926
#
# Stress axis : x y z
#
# Youngs Moduli (GPa) = 57.22273 66.71718 46.78315
#
# Poissons Ratio (x) = 0.42056 0.23069
# Poissons Ratio (y) = 0.36071 0.15651
# Poissons Ratio (z) = 0.28216 0.22320
#
# Static dielectric constant tensor:
#      x y z
#    x 1.563150 0.000000 0.011890 
#    y 0.000000 1.535480 0.000000 
#    z 0.011890 0.000000 1.566110 
# 
# From -- ./inp_files/302626.got.cif
#   From: 2010.05.17/outbox.cif.g08.bks.cpg/sg12_152_cif.got.tgz:302626.got - 2010.06.03 13:09:07.
