data_PCOD9184839
_publ_section_title
;
Structure prediction by ZEFSAII (Michael W. Deem and Ramdas Pophale) SiO2 
 PCOD9184839
Probable space group: C 2/M
;
_chemical_formula_sum "Si O2"
_cell_formula_units_Z 56
_cell_length_a 14.719216
_cell_length_b 19.738794
_cell_length_c 12.284827
_cell_angle_alpha 90.000000
_cell_angle_beta 110.243836
_cell_angle_gamma 90.000000
_cell_volume 3348.752031
_symmetry_space_group_name_H-M "C 2/M"
_symmetry_group_IT_number 12
_symmetry_cell_setting 'monoclinic'
loop_
_space_group_symop_operation_xyz
x,y,z
-x,y,-z
-x,-y,-z
x,-y,z
1/2+x,1/2+y,z
1/2-x,1/2+y,-z
1/2-x,1/2-y,-z
1/2+x,1/2-y,z
loop_
_atom_site_type_symbol
_atom_site_label
_atom_site_fract_x
_atom_site_fract_y
_atom_site_fract_z
Si Si1 0.598502 0.918031 0.986279
Si Si2 0.726062 0.921138 0.242402
Si Si3 0.234193 0.656183 0.646915
Si Si4 0.865653 0.201099 0.356387
Si Si5 0.423622 0.708536 0.634817
Si Si6 0.897200 0.636628 0.621392
Si Si7 0.100787 0.419619 0.738159
O O1 0.684215 0.903670 0.106029
O O2 0.592154 0.000000 0.979483
O O3 0.500000 0.892183 0.000000
O O4 0.606159 0.895196 0.865358
O O5 0.805346 0.865989 0.306788
O O6 0.642172 0.910606 0.298317
O O7 0.756372 0.000000 0.256748
O O8 0.194827 0.728890 0.674916
O O9 0.348065 0.662043 0.668894
O O10 0.175429 0.638108 0.511333
O O11 0.198224 0.601323 0.717676
O O12 0.895342 0.200522 0.495911
O O13 0.960863 0.200385 0.319866
O O14 0.401024 0.785453 0.660124
O O15 0.007055 0.614308 0.642349
O O16 0.087215 0.500000 0.730050
#
# Coordination Sequence:
#
# PCOD9184839 Si02
#       7
#     8   8   8   8   8   8   8
#     4   9  18  33  52  75 107 143 173 213 269 315
#     4  11  20  33  56  80 105 138 180 226 261 299
#     4  11  20  34  53  80 111 143 171 205 270 327
#     4  10  19  35  55  77 104 145 182 211 254 315
#     4  10  19  34  55  75 107 145 177 204 258 326
#     4  11  18  32  56  81 107 138 171 214 266 326
#     4  11  22  34  52  82 113 138 170 218 273 320
#
# _framework density 16.722648
#
# number of rings (size 3 to 8) (size 9 to 14) (size 15 to 20)
#    0.000    1.571    5.714    1.714    0.000    1.714 
#    0.000    2.857    0.000    0.857    0.000    3.000 
#    0.000    0.000    0.000    0.000    0.000    0.000 
#
# Total GULP energy -156040.691559 kJ/mol
# GULP energy per Si atom -5572.881841 kJ/mol
# Density = 1.668459 g / cm^3
# Si number density = 16.722648 Si / 1000 Ang^3
#
#
#
# Elastic Constant Matrix: (Units=GPa)
#
#
# Indices 1 2 3 4 5 6 
#
# 1 86.5316 7.4711 12.1446 0.0000 -11.2900 0.0000
# 2 7.4711 50.7933 22.4891 0.0000 8.3419 0.0000
# 3 12.1446 22.4891 36.9700 0.0000 -5.9106 0.0000
# 4 0.0000 0.0000 0.0000 142.2688 0.0000 28.6335
# 5 -11.2900 8.3419 -5.9106 0.0000 19.3581 0.0000
# 6 0.0000 0.0000 0.0000 28.6335 0.0000 36.7009
#
#
#
# Elastic Compliance Matrix: (Units=1/GPa)
#
#
# Indices 1 2 3 4 5 6 
#
# 1 0.013070 -0.002734 -0.001286 0.000000 0.008408 0.000000
# 2 -0.002734 0.034616 -0.023969 0.000000 -0.023830 0.000000
# 3 -0.001286 -0.023969 0.045820 0.000000 0.023569 0.000000
# 4 0.000000 0.000000 0.000000 0.008338 0.000000 -0.006505
# 5 0.008408 -0.023830 0.023569 0.000000 0.074027 0.000000
# 6 0.000000 0.000000 0.000000 -0.006505 0.000000 0.032323
#
#
# Mechanical properties :
#
#
# Convention : Reuss Voigt Hill
#
# Bulk Modulus (GPa) = 26.64669 28.72273 27.68471
# Shear Modulus (GPa) = 18.07140 48.47824 33.27482
#
# Velocity S-wave (km/s) = 3.29090 5.39004 4.46556
# Velocity P-wave (km/s) = 5.51444 7.47997 6.57111
#
# Compressibility (1/GPa) = 0.03752811
#
# Stress axis : x y z
#
# Youngs Moduli (GPa) = 76.51074 28.88867 21.82454
#
# Poissons Ratio (x) = 0.07898 0.02807
# Poissons Ratio (y) = 0.20917 0.52311
# Poissons Ratio (z) = 0.09841 0.69242
#
# Static dielectric constant tensor:
#      x y z
#    x 1.599030 0.000000 -0.006040 
#    y 0.000000 1.546530 0.000000 
#    z -0.006040 0.000000 1.571870 
# 
# From -- ./inp_files/147176.got.cif
#   From: 2010.05.17/outbox.cif.g08.bks.cpg/sg12_74_cif.got.tgz:147176.got - 2010.06.03 13:09:07.
