data_PCOD9184543
_publ_section_title
;
Structure prediction by ZEFSAII (Michael W. Deem and Ramdas Pophale) SiO2 
 PCOD9184543
Probable space group: C 2/M
;
_chemical_formula_sum "Si O2"
_cell_formula_units_Z 56
_cell_length_a 31.111128
_cell_length_b 8.382014
_cell_length_c 17.494279
_cell_angle_alpha 90.000000
_cell_angle_beta 134.352888
_cell_angle_gamma 90.000000
_cell_volume 3262.084660
_symmetry_space_group_name_H-M "C 2/M"
_symmetry_group_IT_number 12
_symmetry_cell_setting 'monoclinic'
loop_
_space_group_symop_operation_xyz
x,y,z
-x,y,-z
-x,-y,-z
x,-y,z
1/2+x,1/2+y,z
1/2-x,1/2+y,-z
1/2-x,1/2-y,-z
1/2+x,1/2-y,z
loop_
_atom_site_type_symbol
_atom_site_label
_atom_site_fract_x
_atom_site_fract_y
_atom_site_fract_z
Si Si1 0.760215 0.805542 0.795915
Si Si2 0.119720 0.306823 0.630088
Si Si3 0.581651 0.809773 0.752310
Si Si4 0.804370 0.190820 0.014379
Si Si5 0.341312 0.306905 0.577608
Si Si6 0.219633 0.807328 0.346555
Si Si7 0.551442 0.309340 0.394907
O O1 0.689789 0.760425 0.710804
O O2 0.788002 0.751314 0.749901
O O3 0.761551 0.000000 0.797966
O O4 0.792762 0.750494 0.913445
O O5 0.116505 0.500000 0.622116
O O6 0.094809 0.254765 0.681590
O O7 0.081628 0.238465 0.512900
O O8 0.632896 0.743646 0.871500
O O9 0.514866 0.761303 0.692744
O O10 0.586935 0.000000 0.758315
O O11 0.802037 0.000000 0.010289
O O12 0.750000 0.250000 0.000000
O O13 0.340359 0.500000 0.574809
O O14 0.284995 0.246464 0.457769
O O15 0.327869 0.254530 0.647922
O O16 0.402918 0.253399 0.614882
O O17 0.219063 0.000000 0.345103
O O18 0.547179 0.500000 0.385704
#
# Coordination Sequence:
#
# PCOD9184543 Si02
#       7
#     8   8   8   8   8   8   8
#     4   9  17  31  53  77 102 132 168 205 248 300
#     4  10  19  34  52  74 103 137 172 206 245 301
#     4  11  23  38  53  72 100 139 181 213 249 300
#     4  11  21  36  55  77 103 134 172 215 255 296
#     4   9  18  30  47  75 106 130 161 207 251 296
#     4   9  16  30  52  74  99 133 167 200 247 303
#     4  11  22  34  49  76 109 137 168 209 257 304
#
# _framework density 17.166937000000001
#
# number of rings (size 3 to 8) (size 9 to 14) (size 15 to 20)
#    0.000    2.000    2.857    1.714    0.000    3.429 
#    0.000    1.429    0.000    0.857    0.000    6.000 
#    0.000    0.000    0.000    0.000    0.000    0.000 
#
# Total GULP energy -156240.515394 kJ/mol
# GULP energy per Si atom -5580.018407 kJ/mol
# Density = 1.712786 g / cm^3
# Si number density = 17.166937 Si / 1000 Ang^3
#
#
#
# Elastic Constant Matrix: (Units=GPa)
#
#
# Indices 1 2 3 4 5 6 
#
# 1 158.5160 17.8337 92.1874 0.0000 -20.8996 0.0000
# 2 17.8337 17.5729 18.0838 0.0000 -2.6175 0.0000
# 3 92.1874 18.0838 127.2904 0.0000 -7.0314 0.0000
# 4 0.0000 0.0000 0.0000 26.6030 0.0000 3.3902
# 5 -20.8996 -2.6175 -7.0314 0.0000 26.6940 0.0000
# 6 0.0000 0.0000 0.0000 3.3902 0.0000 18.3944
#
#
#
# Elastic Compliance Matrix: (Units=1/GPa)
#
#
# Indices 1 2 3 4 5 6 
#
# 1 0.012300 -0.003107 -0.008069 0.000000 0.007200 0.000000
# 2 -0.003107 0.067880 -0.007266 0.000000 0.002310 0.000000
# 3 -0.008069 -0.007266 0.014555 0.000000 -0.003196 0.000000
# 4 0.000000 0.000000 0.000000 0.038494 0.000000 -0.007095
# 5 0.007200 0.002310 -0.003196 0.000000 0.042483 0.000000
# 6 0.000000 0.000000 0.000000 -0.007095 0.000000 0.055672
#
#
# Mechanical properties :
#
#
# Convention : Reuss Voigt Hill
#
# Bulk Modulus (GPa) = 17.28541 62.17657 39.73099
# Shear Modulus (GPa) = 17.38818 26.02323 21.70571
#
# Velocity S-wave (km/s) = 3.18604 3.89767 3.55968
# Velocity P-wave (km/s) = 4.86059 7.52019 6.33161
#
# Compressibility (1/GPa) = 0.05785227
#
# Stress axis : x y z
#
# Youngs Moduli (GPa) = 81.30179 14.73190 68.70258
#
# Poissons Ratio (x) = 0.04577 0.55435
# Poissons Ratio (y) = 0.25257 0.49920
# Poissons Ratio (z) = 0.65601 0.10704
#
# Static dielectric constant tensor:
#      x y z
#    x 1.609290 0.000000 -0.018340 
#    y 0.000000 1.592140 0.000000 
#    z -0.018340 0.000000 1.559560 
# 
# From -- ./inp_files/287377.got.cif
#   From: 2010.05.17/outbox.cif.g08.bks.cpg/sg12_144_cif.got.tgz:287377.got - 2010.06.03 13:09:07.
