data_PCOD9184092
_publ_section_title
;
Structure prediction by ZEFSAII (Michael W. Deem and Ramdas Pophale) SiO2 
 PCOD9184092
Probable space group: C 2/M
;
_chemical_formula_sum "Si O2"
_cell_formula_units_Z 56
_cell_length_a 12.296529
_cell_length_b 20.419930
_cell_length_c 12.780563
_cell_angle_alpha 90.000000
_cell_angle_beta 76.290717
_cell_angle_gamma 90.000000
_cell_volume 3117.700385
_symmetry_space_group_name_H-M "C 2/M"
_symmetry_group_IT_number 12
_symmetry_cell_setting 'monoclinic'
loop_
_space_group_symop_operation_xyz
x,y,z
-x,y,-z
-x,-y,-z
x,-y,z
1/2+x,1/2+y,z
1/2-x,1/2+y,-z
1/2-x,1/2-y,-z
1/2+x,1/2-y,z
loop_
_atom_site_type_symbol
_atom_site_label
_atom_site_fract_x
_atom_site_fract_y
_atom_site_fract_z
Si Si1 0.857455 0.810970 0.872482
Si Si2 0.772793 0.172504 0.486205
Si Si3 0.233197 0.663109 0.108920
Si Si4 0.689292 0.841027 0.731984
Si Si5 0.034658 0.574936 0.191694
Si Si6 0.115611 0.571090 0.411783
Si Si7 0.890900 0.189300 0.259791
O O1 0.827845 0.733674 0.873466
O O2 0.775831 0.844175 0.807079
O O3 0.985655 0.820720 0.812724
O O4 0.823211 0.834459 0.995401
O O5 0.750000 0.250000 0.500000
O O6 0.756623 0.146687 0.608027
O O7 0.681386 0.132878 0.440433
O O8 0.879158 0.167314 0.383932
O O9 0.133967 0.612059 0.108541
O O10 0.301222 0.655211 0.202146
O O11 0.583516 0.887785 0.776176
O O12 0.640094 0.766768 0.737401
O O13 0.020489 0.500000 0.161364
O O14 0.082535 0.576170 0.298925
O O15 0.173437 0.500000 0.415797
O O16 0.000000 0.569436 0.500000
#
# Coordination Sequence:
#
# PCOD9184092 Si02
#       7
#     8   8   8   8   8   8   8
#     4  10  21  35  56  79 114 151 182 236 285 343
#     4  10  20  32  52  85 118 148 180 238 289 333
#     4  10  20  36  57  82 107 145 199 236 278 331
#     4  10  21  34  51  85 117 145 184 227 293 348
#     4  11  21  36  60  85 115 148 188 243 285 335
#     4  10  19  33  57  84 113 152 192 235 284 338
#     4  10  19  35  56  80 113 149 187 236 281 333
#
# _framework density 17.961957000000002
#
# number of rings (size 3 to 8) (size 9 to 14) (size 15 to 20)
#    0.000    1.857    4.286    0.429    0.000    1.143 
#    0.000    1.429    0.000    4.286    0.000    2.000 
#    0.000    0.000    0.000    0.000    0.000    0.000 
#
# Total GULP energy -155990.651502 kJ/mol
# GULP energy per Si atom -5571.094697 kJ/mol
# Density = 1.792107 g / cm^3
# Si number density = 17.961957 Si / 1000 Ang^3
#
#
#
# Elastic Constant Matrix: (Units=GPa)
#
#
# Indices 1 2 3 4 5 6 
#
# 1 73.2948 44.8851 50.7993 0.0000 -17.1110 0.0000
# 2 44.8851 54.7917 12.5422 0.0000 -2.9974 0.0000
# 3 50.7993 12.5422 91.1279 0.0000 -23.7090 0.0000
# 4 0.0000 0.0000 0.0000 -95.3750 0.0000 75.1024
# 5 -17.1110 -2.9974 -23.7090 0.0000 34.2624 0.0000
# 6 0.0000 0.0000 0.0000 75.1024 0.0000 -25.0646
#
#
#
# Elastic Compliance Matrix: (Units=1/GPa)
#
#
# Indices 1 2 3 4 5 6 
#
# 1 0.057725 -0.041263 -0.024316 0.000000 0.008392 0.000000
# 2 -0.041263 0.048341 0.014741 0.000000 -0.006177 0.000000
# 3 -0.024316 0.014741 0.023996 0.000000 0.005751 0.000000
# 4 0.000000 0.000000 0.000000 0.007713 0.000000 0.023110
# 5 0.008392 -0.006177 0.005751 0.000000 0.036817 0.000000
# 6 0.000000 0.000000 0.000000 0.023110 0.000000 0.029348
#
#
# Mechanical properties :
#
#
# Convention : Reuss Voigt Hill
#
# Bulk Modulus (GPa) = 35.22775 48.40753 41.81764
# Shear Modulus (GPa) = 15.86925 -9.83627 3.01649
#
# Velocity S-wave (km/s) = 2.97558 -2.34266 1.29731
# Velocity P-wave (km/s) = 5.60896 4.43747 5.05725
#
# Compressibility (1/GPa) = 0.02838671
#
# Stress axis : x y z
#
# Youngs Moduli (GPa) = 17.32363 20.68652 41.67384
#
# Poissons Ratio (x) = 0.85358 1.01335
# Poissons Ratio (y) = 0.71482 -0.61433
# Poissons Ratio (z) = 0.42124 -0.30495
#
# Static dielectric constant tensor:
#      x y z
#    x 1.593610 0.000000 -0.008620 
#    y 0.000000 1.628350 0.000000 
#    z -0.008620 0.000000 1.654790 
# 
# From -- ./inp_files/133841.got.cif
#   From: 2010.05.17/outbox.cif.g08.bks.cpg/sg12_67_cif.got.tgz:133841.got - 2010.06.03 13:09:07.
