data_PCOD9184935
_publ_section_title
;
Structure prediction by ZEFSAII (Michael W. Deem and Ramdas Pophale) SiO2 
 PCOD9184935
Probable space group: C 2/M
;
_chemical_formula_sum "Si O2"
_cell_formula_units_Z 64
_cell_length_a 12.100166
_cell_length_b 23.399992
_cell_length_c 27.238231
_cell_angle_alpha 90.000000
_cell_angle_beta 155.713159
_cell_angle_gamma 90.000000
_cell_volume 3172.122528
_symmetry_space_group_name_H-M "C 2/M"
_symmetry_group_IT_number 12
_symmetry_cell_setting 'monoclinic'
loop_
_space_group_symop_operation_xyz
x,y,z
-x,y,-z
-x,-y,-z
x,-y,z
1/2+x,1/2+y,z
1/2-x,1/2+y,-z
1/2-x,1/2-y,-z
1/2+x,1/2-y,z
loop_
_atom_site_type_symbol
_atom_site_label
_atom_site_fract_x
_atom_site_fract_y
_atom_site_fract_z
Si Si1 0.314701 0.432984 0.642307
Si Si2 0.001312 0.261463 0.862941
Si Si3 0.673672 0.667360 0.284461
Si Si4 0.440301 0.564286 0.363845
Si Si5 0.576955 0.244275 0.323378
Si Si6 0.822944 0.359586 0.580297
Si Si7 0.954702 0.435264 0.240070
Si Si8 0.216727 0.667434 0.874669
O O1 0.318309 0.500000 0.657660
O O2 0.416980 0.391974 0.727250
O O3 0.501760 0.425611 0.669905
O O4 0.000000 0.419959 0.500000
O O5 0.056807 0.322458 0.859818
O O6 0.996323 0.208865 0.820998
O O7 0.701611 0.264110 0.763879
O O8 0.250000 0.250000 0.000000
O O9 0.722724 0.706455 0.352464
O O10 0.926359 0.649958 0.354006
O O11 0.554538 0.500000 0.419755
O O12 0.591537 0.612263 0.455532
O O13 0.149291 0.563432 0.271176
O O14 0.742713 0.203792 0.426764
O O15 0.463458 0.199954 0.237456
O O16 0.900539 0.403788 0.655474
O O17 0.881458 0.500000 0.223075
O O18 0.725387 0.392785 0.127927
O O19 0.500000 0.696860 0.000000
#
# Coordination Sequence:
#
# PCOD9184935 Si02
#       8
#     8   8   8   8   8   8   8   8
#     4  10  20  36  57  81 116 159 198 235 282 344
#     4  10  19  35  61  83 109 148 190 242 292 349
#     4  10  21  35  57  87 116 148 195 237 288 351
#     4  10  20  36  59  83 111 156 203 237 282 346
#     4   9  20  35  53  85 115 144 187 235 291 343
#     4  10  19  36  58  81 115 150 192 238 284 344
#     4  10  22  36  56  84 112 146 191 243 295 345
#     4  10  19  34  55  79 110 140 186 236 288 356
#
# _framework density 20.175765999999999
#
# number of rings (size 3 to 8) (size 9 to 14) (size 15 to 20)
#    0.000    2.125    2.500    0.750    1.750    1.750 
#    0.000    4.375    0.000    0.000    0.000    0.875 
#    0.000    0.000    0.000    0.000    0.000    0.000 
#
# Total GULP energy -178172.331313 kJ/mol
# GULP energy per Si atom -5567.885354 kJ/mol
# Density = 2.012984 g / cm^3
# Si number density = 20.175766 Si / 1000 Ang^3
#
#
#
# Elastic Constant Matrix: (Units=GPa)
#
#
# Indices 1 2 3 4 5 6 
#
# 1 103.9442 29.7322 -0.7804 -0.0097 -3.3631 0.0037
# 2 29.7322 90.8909 10.6996 -0.0027 -15.7907 -0.0024
# 3 -0.7804 10.6996 27.2415 -0.0301 -7.8730 0.0073
# 4 -0.0097 -0.0027 -0.0301 37.8602 -0.0204 -12.1606
# 5 -3.3631 -15.7907 -7.8730 -0.0204 16.1647 -0.0015
# 6 0.0037 -0.0024 0.0073 -12.1606 -0.0015 38.7671
#
#
#
# Elastic Compliance Matrix: (Units=1/GPa)
#
#
# Indices 1 2 3 4 5 6 
#
# 1 0.010700 -0.003813 0.001596 0.000003 -0.000722 -0.000001
# 2 -0.003813 0.014678 -0.002281 0.000006 0.012435 0.000004
# 3 0.001596 -0.002281 0.043180 0.000047 0.019135 0.000007
# 4 0.000003 0.000006 0.000047 0.029372 0.000068 0.009214
# 5 -0.000722 0.012435 0.019135 0.000068 0.083180 0.000022
# 6 -0.000001 0.000004 0.000007 0.009214 0.000022 0.028685
#
#
# Mechanical properties :
#
#
# Convention : Reuss Voigt Hill
#
# Bulk Modulus (GPa) = 16.78922 33.48659 25.13791
# Shear Modulus (GPa) = 20.95140 30.72008 25.83574
#
# Velocity S-wave (km/s) = 3.22599 3.90631 3.58234
# Velocity P-wave (km/s) = 4.71333 6.08105 5.44034
#
# Compressibility (1/GPa) = 0.05956202
#
# Stress axis : x y z
#
# Youngs Moduli (GPa) = 93.45820 68.12706 23.15862
#
# Poissons Ratio (x) = 0.25980 -0.03695
# Poissons Ratio (y) = 0.35640 0.05282
# Poissons Ratio (z) = -0.14913 0.15538
#
# Static dielectric constant tensor:
#      x y z
#    x 1.748210 0.000000 0.044140 
#    y 0.000000 1.791980 -0.000010 
#    z 0.044140 -0.000010 1.663610 
# 
# From -- ./inp_files/265056.got.cif
#   From: 2010.05.17/outbox.cif.g08.bks.cpg/sg12_133_cif.got.tgz:265056.got - 2010.06.03 13:09:07.
