data_PCOD9184579
_publ_section_title
;
Structure prediction by ZEFSAII (Michael W. Deem and Ramdas Pophale) SiO2 
 PCOD9184579
Probable space group: C 2/M
;
_chemical_formula_sum "Si O2"
_cell_formula_units_Z 56
_cell_length_a 10.340133
_cell_length_b 14.718675
_cell_length_c 17.775759
_cell_angle_alpha 90.000000
_cell_angle_beta 81.910180
_cell_angle_gamma 90.000000
_cell_volume 2678.425320
_symmetry_space_group_name_H-M "C 2/M"
_symmetry_group_IT_number 12
_symmetry_cell_setting 'monoclinic'
loop_
_space_group_symop_operation_xyz
x,y,z
-x,y,-z
-x,-y,-z
x,-y,z
1/2+x,1/2+y,z
1/2-x,1/2+y,-z
1/2-x,1/2-y,-z
1/2+x,1/2-y,z
loop_
_atom_site_type_symbol
_atom_site_label
_atom_site_fract_x
_atom_site_fract_y
_atom_site_fract_z
Si Si1 0.720688 0.609119 0.199267
Si Si2 0.133588 0.643128 0.957574
Si Si3 0.569004 0.608846 0.801532
Si Si4 0.178931 0.889066 0.372157
Si Si5 0.849818 0.388895 0.500694
Si Si6 0.882613 0.889010 0.370805
Si Si7 0.363509 0.358568 0.040392
O O1 0.714991 0.500000 0.202117
O O2 0.835476 0.632462 0.132803
O O3 0.580937 0.642702 0.178000
O O4 0.726786 0.639641 0.285242
O O5 0.131771 0.750716 0.972025
O O6 0.249992 0.603940 0.997900
O O7 0.000000 0.605060 0.000000
O O8 0.562334 0.500000 0.796847
O O9 0.620442 0.640358 0.716261
O O10 0.649883 0.629251 0.869338
O O11 0.279221 0.860651 0.428743
O O12 0.025501 0.861736 0.392251
O O13 0.177261 0.000000 0.374003
O O14 0.853890 0.500000 0.500639
O O15 0.745972 0.360624 0.573353
O O16 0.000000 0.358276 0.500000
O O17 0.883031 0.000000 0.372653
O O18 0.500000 0.397073 0.000000
#
# Coordination Sequence:
#
# PCOD9184579 Si02
#       7
#     8   8   8   8   8   8   8
#     4   9  17  31  50  71  97 124 157 199 239 280
#     4  10  21  34  48  70  97 126 158 194 238 286
#     4   9  17  30  51  75  93 119 162 205 236 268
#     4   8  14  25  42  62  85 119 155 188 225 266
#     4   9  15  23  37  59  91 126 152 177 220 276
#     4   8  14  25  41  63  89 115 151 192 226 268
#     4  10  19  34  53  69  92 125 162 199 232 278
#
# _framework density 20.907806999999998
#
# number of rings (size 3 to 8) (size 9 to 14) (size 15 to 20)
#    0.000    3.000    1.429    2.143    0.000    2.857 
#    2.571    0.000    0.000    0.000    0.000    1.000 
#    0.000    0.000    0.000    0.000    0.000    0.000 
#
# Total GULP energy -156097.277448 kJ/mol
# GULP energy per Si atom -5574.902766 kJ/mol
# Density = 2.086022 g / cm^3
# Si number density = 20.907807 Si / 1000 Ang^3
#
#
#
# Elastic Constant Matrix: (Units=GPa)
#
#
# Indices 1 2 3 4 5 6 
#
# 1 164.2874 8.9780 107.1618 0.0000 -18.4344 0.0000
# 2 8.9780 43.4762 -5.6046 0.0000 -2.0252 0.0000
# 3 107.1618 -5.6046 149.2025 0.0000 -13.2917 0.0000
# 4 0.0000 0.0000 0.0000 22.9597 0.0000 2.3309
# 5 -18.4344 -2.0252 -13.2917 0.0000 29.5693 0.0000
# 6 0.0000 0.0000 0.0000 2.3309 0.0000 -8.2299
#
#
#
# Elastic Compliance Matrix: (Units=1/GPa)
#
#
# Indices 1 2 3 4 5 6 
#
# 1 0.012335 -0.003500 -0.008674 0.000000 0.003551 0.000000
# 2 -0.003500 0.024227 0.003518 0.000000 0.001059 0.000000
# 3 -0.008674 0.003518 0.013130 0.000000 0.000735 0.000000
# 4 0.000000 0.000000 0.000000 0.042337 0.000000 0.011991
# 5 0.003551 0.001059 0.000735 0.000000 0.036436 0.000000
# 6 0.000000 0.000000 0.000000 0.011991 0.000000 -0.118112
#
#
# Mechanical properties :
#
#
# Convention : Reuss Voigt Hill
#
# Bulk Modulus (GPa) = 30.88402 64.22628 47.55515
# Shear Modulus (GPa) = 130.01406 25.28855 77.65131
#
# Velocity S-wave (km/s) = 7.89427 3.48160 6.10086
# Velocity P-wave (km/s) = 9.89425 6.85183 8.51010
#
# Compressibility (1/GPa) = 0.03237921
#
# Stress axis : x y z
#
# Youngs Moduli (GPa) = 81.07221 41.27684 76.16096
#
# Poissons Ratio (x) = 0.14447 0.66064
# Poissons Ratio (y) = 0.28375 -0.26794
# Poissons Ratio (z) = 0.70324 -0.14522
#
# Static dielectric constant tensor:
#      x y z
#    x 1.788560 0.000000 -0.016010 
#    y 0.000000 1.761520 0.000000 
#    z -0.016010 0.000000 1.757770 
# 
# From -- ./inp_files/257610.got.cif
#   From: 2010.05.17/outbox.cif.g08.bks.cpg/sg12_129_cif.got.tgz:257610.got - 2010.06.03 13:09:07.
