data_PCOD9184217
_publ_section_title
;
Structure prediction by ZEFSAII (Michael W. Deem and Ramdas Pophale) SiO2 
 PCOD9184217
Probable space group: C 2/M
;
_chemical_formula_sum "Si O2"
_cell_formula_units_Z 64
_cell_length_a 26.217796
_cell_length_b 15.015687
_cell_length_c 20.410464
_cell_angle_alpha 90.000000
_cell_angle_beta 155.187812
_cell_angle_gamma 90.000000
_cell_volume 3371.914080
_symmetry_space_group_name_H-M "C 2/M"
_symmetry_group_IT_number 12
_symmetry_cell_setting 'monoclinic'
loop_
_space_group_symop_operation_xyz
x,y,z
-x,y,-z
-x,-y,-z
x,-y,z
1/2+x,1/2+y,z
1/2-x,1/2+y,-z
1/2-x,1/2-y,-z
1/2+x,1/2-y,z
loop_
_atom_site_type_symbol
_atom_site_label
_atom_site_fract_x
_atom_site_fract_y
_atom_site_fract_z
Si Si1 0.058135 0.296306 0.136464
Si Si2 0.637211 0.596146 0.207503
Si Si3 0.595773 0.252910 0.663524
Si Si4 0.836973 0.403360 0.551044
Si Si5 0.493565 0.256586 0.293157
Si Si6 0.293792 0.395262 0.463330
Si Si7 0.859726 0.259126 0.007422
Si Si8 0.739189 0.399519 0.179623
O O1 0.074178 0.189620 0.148524
O O2 0.188186 0.343001 0.300139
O O3 0.966494 0.307912 0.091103
O O4 0.000000 0.327480 0.000000
O O5 0.571865 0.500000 0.141547
O O6 0.749722 0.593358 0.387301
O O7 0.687113 0.600636 0.192051
O O8 0.500000 0.293588 0.500000
O O9 0.541250 0.240684 0.672144
O O10 0.638387 0.158805 0.682004
O O11 0.728071 0.298288 0.831945
O O12 0.899062 0.500000 0.631077
O O13 0.923878 0.322359 0.638594
O O14 0.753912 0.389319 0.517719
O O15 0.577405 0.345039 0.390047
O O16 0.384261 0.252048 0.113073
O O17 0.300742 0.500000 0.453657
O O18 0.850833 0.157651 0.970493
O O19 0.756296 0.500000 0.177559
#
# Coordination Sequence:
#
# PCOD9184217 Si02
#       8
#     8   8   8   8   8   8   8   8
#     4  12  21  37  64  86 128 163 205 256 310 366
#     4  10  19  33  57  93 128 162 194 236 303 382
#     4  10  23  39  62  89 118 167 208 251 306 366
#     4  10  20  35  59  93 123 153 195 244 309 382
#     4  12  21  40  69  85 127 163 208 256 307 366
#     4  11  25  41  62  93 121 159 210 263 319 364
#     4  10  23  37  58  94 119 167 210 243 306 359
#     4   9  20  37  55  89 130 158 201 247 296 369
#
# _framework density 18.980316999999999
#
# number of rings (size 3 to 8) (size 9 to 14) (size 15 to 20)
#    0.750    0.750    3.750    2.250    1.750    2.250 
#    0.000    0.000    0.000    1.125    0.000    0.000 
#    0.000    0.000    0.000    0.000    0.000    0.000 
#
# Total GULP energy -178211.508940 kJ/mol
# GULP energy per Si atom -5569.109654 kJ/mol
# Density = 1.893712 g / cm^3
# Si number density = 18.980317 Si / 1000 Ang^3
#
#
#
# Elastic Constant Matrix: (Units=GPa)
#
#
# Indices 1 2 3 4 5 6 
#
# 1 66.6009 10.3102 18.4481 0.0000 -3.6780 0.0000
# 2 10.3102 59.6946 13.2528 0.0000 9.1964 0.0000
# 3 18.4481 13.2528 115.4153 0.0000 -16.2614 0.0000
# 4 0.0000 0.0000 0.0000 -2.0232 0.0000 -12.4071
# 5 -3.6780 9.1964 -16.2614 0.0000 34.3871 0.0000
# 6 0.0000 0.0000 0.0000 -12.4071 0.0000 20.2711
#
#
#
# Elastic Compliance Matrix: (Units=1/GPa)
#
#
# Indices 1 2 3 4 5 6 
#
# 1 0.016060 -0.002530 -0.002078 0.000000 0.001412 0.000000
# 2 -0.002530 0.018795 -0.002679 0.000000 -0.006564 0.000000
# 3 -0.002078 -0.002679 0.010043 0.000000 0.005243 0.000000
# 4 0.000000 0.000000 0.000000 -0.103982 0.000000 -0.063643
# 5 0.001412 -0.006564 0.005243 0.000000 0.033467 0.000000
# 6 0.000000 0.000000 0.000000 -0.063643 0.000000 0.010378
#
#
# Mechanical properties :
#
#
# Convention : Reuss Voigt Hill
#
# Bulk Modulus (GPa) = 32.97598 36.19255 34.58427
# Shear Modulus (GPa) = 529.62153 23.84031 276.73092
#
# Velocity S-wave (km/s) = 16.72253 3.54793 12.08782
# Velocity P-wave (km/s) = 19.75522 5.99113 14.59730
#
# Compressibility (1/GPa) = 0.03032510
#
# Stress axis : x y z
#
# Youngs Moduli (GPa) = 62.26672 53.20632 99.57423
#
# Poissons Ratio (x) = 0.13462 0.20687
# Poissons Ratio (y) = 0.15754 0.26671
# Poissons Ratio (z) = 0.12936 0.14251
#
# Static dielectric constant tensor:
#      x y z
#    x 1.650150 0.000000 0.016120 
#    y 0.000000 1.671870 0.000000 
#    z 0.016120 0.000000 1.725090 
# 
# From -- ./inp_files/290132.got.cif
#   From: 2010.05.17/outbox.cif.g08.bks.cpg/sg12_146_cif.got.tgz:290132.got - 2010.06.03 13:09:07.
