data_PCOD9184992
_publ_section_title
;
Structure prediction by ZEFSAII (Michael W. Deem and Ramdas Pophale) SiO2 
 PCOD9184992
Probable space group: C 2/M
;
_chemical_formula_sum "Si O2"
_cell_formula_units_Z 56
_cell_length_a 24.612559
_cell_length_b 8.549501
_cell_length_c 14.368355
_cell_angle_alpha 90.000000
_cell_angle_beta 70.832627
_cell_angle_gamma 90.000000
_cell_volume 2855.852296
_symmetry_space_group_name_H-M "C 2/M"
_symmetry_group_IT_number 12
_symmetry_cell_setting 'monoclinic'
loop_
_space_group_symop_operation_xyz
x,y,z
-x,y,-z
-x,-y,-z
x,-y,z
1/2+x,1/2+y,z
1/2-x,1/2+y,-z
1/2-x,1/2-y,-z
1/2+x,1/2-y,z
loop_
_atom_site_type_symbol
_atom_site_label
_atom_site_fract_x
_atom_site_fract_y
_atom_site_fract_z
Si Si1 0.215390 0.679911 0.294019
Si Si2 0.375657 0.680936 0.777283
Si Si3 0.514797 0.814112 0.386937
Si Si4 0.812793 0.318725 0.481918
Si Si5 0.156287 0.188813 0.815883
Si Si6 0.313667 0.309709 0.992453
Si Si7 0.083838 0.815646 0.689417
O O1 0.213291 0.500000 0.259089
O O2 0.184739 0.795464 0.241213
O O3 0.181805 0.683437 0.409716
O O4 0.282409 0.719769 0.268458
O O5 0.391980 0.500000 0.773643
O O6 0.423642 0.765098 0.688836
O O7 0.360968 0.739558 0.889133
O O8 0.500000 0.752111 0.500000
O O9 0.468478 0.761345 0.336030
O O10 0.513025 0.000000 0.394478
O O11 0.817014 0.500000 0.448973
O O12 0.750000 0.250000 0.500000
O O13 0.860709 0.215770 0.406089
O O14 0.104177 0.245752 0.779843
O O15 0.150040 0.000000 0.822674
O O16 0.165918 0.242171 0.916368
O O17 0.310981 0.500000 0.993414
O O18 0.250000 0.250000 0.000000
O O19 0.072307 0.000000 0.703385
#
# Coordination Sequence:
#
# PCOD9184992 Si02
#       7
#     8   8   8   8   8   8   8
#     4  10  19  34  55  80 116 159 193 229 290 357
#     4  11  23  37  59  92 119 150 199 251 296 342
#     4  11  25  45  65  85 114 159 203 241 295 362
#     4  11  21  33  51  80 116 153 193 235 289 354
#     4   9  18  35  57  83 118 157 190 229 291 356
#     4  10  20  36  59  88 122 157 197 240 292 351
#     4  11  22  39  61  86 116 154 198 248 298 348
#
# _framework density 19.608858000000001
#
# number of rings (size 3 to 8) (size 9 to 14) (size 15 to 20)
#    0.000    1.571    2.857    2.571    0.000    6.286 
#    0.000    2.143    0.000    4.286    0.000    0.000 
#    0.000    0.000    0.000    0.000    0.000    0.000 
#
# Total GULP energy -156203.616283 kJ/mol
# GULP energy per Si atom -5578.700582 kJ/mol
# Density = 1.956423 g / cm^3
# Si number density = 19.608858 Si / 1000 Ang^3
#
#
#
# Elastic Constant Matrix: (Units=GPa)
#
#
# Indices 1 2 3 4 5 6 
#
# 1 98.4796 16.9712 44.9534 0.0000 15.0100 0.0000
# 2 16.9712 21.9482 25.3237 0.0000 1.6964 0.0000
# 3 44.9534 25.3237 119.1471 0.0000 18.9789 0.0000
# 4 0.0000 0.0000 0.0000 17.1239 0.0000 0.1708
# 5 15.0100 1.6964 18.9789 0.0000 27.9192 0.0000
# 6 0.0000 0.0000 0.0000 0.1708 0.0000 33.0667
#
#
#
# Elastic Compliance Matrix: (Units=1/GPa)
#
#
# Indices 1 2 3 4 5 6 
#
# 1 0.013337 -0.006653 -0.002849 0.000000 -0.004830 0.000000
# 2 -0.006653 0.064494 -0.012496 0.000000 0.008153 0.000000
# 3 -0.002849 -0.012496 0.013187 0.000000 -0.006673 0.000000
# 4 0.000000 0.000000 0.000000 0.058401 0.000000 -0.000302
# 5 -0.004830 0.008153 -0.006673 0.000000 0.042455 0.000000
# 6 0.000000 0.000000 0.000000 -0.000302 0.000000 0.030243
#
#
# Mechanical properties :
#
#
# Convention : Reuss Voigt Hill
#
# Bulk Modulus (GPa) = 21.26641 46.00793 33.63717
# Shear Modulus (GPa) = 17.74387 25.77706 21.76047
#
# Velocity S-wave (km/s) = 3.01140 3.62962 3.33487
# Velocity P-wave (km/s) = 4.79169 6.40931 5.65860
#
# Compressibility (1/GPa) = 0.04702250
#
# Stress axis : x y z
#
# Youngs Moduli (GPa) = 74.97704 15.50536 75.83363
#
# Poissons Ratio (x) = 0.10315 0.21604
# Poissons Ratio (y) = 0.49880 0.94763
# Poissons Ratio (z) = 0.21360 0.19376
#
# Static dielectric constant tensor:
#      x y z
#    x 1.738620 0.000000 0.011250 
#    y 0.000000 1.685000 0.000000 
#    z 0.011250 0.000000 1.741450 
# 
# From -- ./inp_files/237366.got.cif
#   From: 2010.05.17/outbox.cif.g08.bks.cpg/sg12_119_cif.got.tgz:237366.got - 2010.06.03 13:09:07.
