data_PCOD9184835
_publ_section_title
;
Structure prediction by ZEFSAII (Michael W. Deem and Ramdas Pophale) SiO2 
 PCOD9184835
Probable space group: C 2/M
;
_chemical_formula_sum "Si O2"
_cell_formula_units_Z 48
_cell_length_a 16.730131
_cell_length_b 16.789850
_cell_length_c 23.109040
_cell_angle_alpha 90.000000
_cell_angle_beta 155.790983
_cell_angle_gamma 90.000000
_cell_volume 2661.842978
_symmetry_space_group_name_H-M "C 2/M"
_symmetry_group_IT_number 12
_symmetry_cell_setting 'monoclinic'
loop_
_space_group_symop_operation_xyz
x,y,z
-x,y,-z
-x,-y,-z
x,-y,z
1/2+x,1/2+y,z
1/2-x,1/2+y,-z
1/2-x,1/2-y,-z
1/2+x,1/2-y,z
loop_
_atom_site_type_symbol
_atom_site_label
_atom_site_fract_x
_atom_site_fract_y
_atom_site_fract_z
Si Si1 0.701154 0.763890 0.334585
Si Si2 0.183995 0.169453 0.885762
Si Si3 0.772129 0.589316 0.832837
Si Si4 0.110351 0.758454 0.663253
Si Si5 0.580349 0.906517 0.852429
Si Si6 0.792554 0.824135 0.890707
O O1 0.521522 0.708038 0.233557
O O2 0.777903 0.738512 0.322213
O O3 0.614602 0.853276 0.276788
O O4 0.882703 0.760375 0.497912
O O5 0.162959 0.105264 0.821174
O O6 0.307070 0.243283 0.939385
O O7 0.291957 0.130617 0.011096
O O8 0.745891 0.500000 0.793717
O O9 0.694762 0.655998 0.738612
O O10 0.000000 0.599635 0.000000
O O11 0.156249 0.700135 0.746780
O O12 0.696253 0.888321 0.869400
O O13 0.548591 0.000000 0.839741
O O14 0.000000 0.845039 0.000000
#
# Coordination Sequence:
#
# PCOD9184835 Si02
#       6
#     8   8   8   8   8   8
#     4  10  21  36  54  76 102 136 175 213 254 302
#     4  10  19  34  55  75 100 136 175 212 249 299
#     4  10  20  33  52  79 109 139 170 207 253 306
#     4  10  20  35  55  76 102 137 174 213 255 299
#     4  11  22  34  52  79 108 134 165 211 261 307
#     4  10  19  34  56  79 101 133 175 214 249 297
#
# _framework density 18.032619
#
# number of rings (size 3 to 8) (size 9 to 14) (size 15 to 20)
#    0.000    1.833    0.000    7.500    0.000    9.000 
#    0.000    1.667    0.000    1.000    0.000    7.000 
#    0.000    0.000    0.000    0.000    0.000    0.000 
#
# Total GULP energy -133995.233982 kJ/mol
# GULP energy per Si atom -5583.134749 kJ/mol
# Density = 1.799158 g / cm^3
# Si number density = 18.032619 Si / 1000 Ang^3
#
#
#
# Elastic Constant Matrix: (Units=GPa)
#
#
# Indices 1 2 3 4 5 6 
#
# 1 85.3210 14.2323 36.1583 -0.0119 -4.7296 -0.0059
# 2 14.2323 54.6178 27.2674 -0.0445 -2.2217 -0.0162
# 3 36.1583 27.2674 96.3607 -0.0174 -10.2993 -0.0131
# 4 -0.0119 -0.0445 -0.0174 7.6906 0.0014 -0.1055
# 5 -4.7296 -2.2217 -10.2993 0.0014 30.4093 0.0028
# 6 -0.0059 -0.0162 -0.0131 -0.1055 0.0028 7.6141
#
#
#
# Elastic Compliance Matrix: (Units=1/GPa)
#
#
# Indices 1 2 3 4 5 6 
#
# 1 0.014009 -0.001201 -0.004870 0.000004 0.000442 0.000000
# 2 -0.001201 0.021432 -0.005672 0.000110 -0.000542 0.000037
# 3 -0.004870 -0.005672 0.014199 -0.000009 0.003637 0.000007
# 4 0.000004 0.000110 -0.000009 0.130054 0.000000 0.001803
# 5 0.000442 -0.000542 0.003637 0.000000 0.034146 -0.000007
# 6 0.000000 0.000037 0.000007 0.001803 -0.000007 0.131360
#
#
# Mechanical properties :
#
#
# Convention : Reuss Voigt Hill
#
# Bulk Modulus (GPa) = 38.23500 43.51284 40.87392
# Shear Modulus (GPa) = 13.24845 19.71891 16.48368
#
# Velocity S-wave (km/s) = 2.71346 3.31042 3.02669
# Velocity P-wave (km/s) = 5.57373 6.22851 5.91019
#
# Compressibility (1/GPa) = 0.02615405
#
# Stress axis : x y z
#
# Youngs Moduli (GPa) = 71.38264 46.65992 70.42959
#
# Poissons Ratio (x) = 0.05606 0.34296
# Poissons Ratio (y) = 0.08576 0.39945
# Poissons Ratio (z) = 0.34760 0.26464
#
# Static dielectric constant tensor:
#      x y z
#    x 1.649810 0.000000 0.000400 
#    y 0.000000 1.612590 0.000000 
#    z 0.000400 0.000000 1.607910 
# 
# From -- ./inp_files/344494.got.cif
#   From: 2010.05.17/outbox.cif.g08.bks.cpg/sg12_173_cif.got.tgz:344494.got - 2010.06.03 13:09:07.
