data_PCOD9184901
_publ_section_title
;
Structure prediction by ZEFSAII (Michael W. Deem and Ramdas Pophale) SiO2 
 PCOD9184901
Probable space group: C 2/M
;
_chemical_formula_sum "Si O2"
_cell_formula_units_Z 56
_cell_length_a 25.591092
_cell_length_b 8.910554
_cell_length_c 17.144744
_cell_angle_alpha 90.000000
_cell_angle_beta 120.426972
_cell_angle_gamma 90.000000
_cell_volume 3371.091220
_symmetry_space_group_name_H-M "C 2/M"
_symmetry_group_IT_number 12
_symmetry_cell_setting 'monoclinic'
loop_
_space_group_symop_operation_xyz
x,y,z
-x,y,-z
-x,-y,-z
x,-y,z
1/2+x,1/2+y,z
1/2-x,1/2+y,-z
1/2-x,1/2-y,-z
1/2+x,1/2-y,z
loop_
_atom_site_type_symbol
_atom_site_label
_atom_site_fract_x
_atom_site_fract_y
_atom_site_fract_z
Si Si1 0.844430 0.179195 0.599489
Si Si2 0.195793 0.180650 0.908701
Si Si3 0.718580 0.178904 0.592210
Si Si4 0.074338 0.820149 0.908066
Si Si5 0.881784 0.320182 0.898534
Si Si6 0.239351 0.819721 0.772409
Si Si7 0.945429 0.320331 0.782005
O O1 0.785809 0.215206 0.609334
O O2 0.828249 0.244790 0.502639
O O3 0.902755 0.252135 0.683151
O O4 0.850406 0.000000 0.600420
O O5 0.131585 0.223366 0.897465
O O6 0.204636 0.223700 0.825182
O O7 0.201036 0.000000 0.916682
O O8 0.250000 0.250000 0.000000
O O9 0.715207 0.240630 0.676879
O O10 0.711403 0.000000 0.584712
O O11 0.012458 0.746690 0.832083
O O12 0.068913 0.000000 0.903705
O O13 0.088956 0.763042 0.006177
O O14 0.886837 0.500000 0.914661
O O15 0.810568 0.282811 0.837762
O O16 0.915089 0.282838 0.842912
O O17 0.235430 0.000000 0.759455
O O18 0.946954 0.500000 0.776644
#
# Coordination Sequence:
#
# PCOD9184901 Si02
#       7
#     8   8   8   8   8   8   8
#     4  10  20  34  54  79 110 142 174 215 264 317
#     4  10  21  36  55  77 104 140 182 224 265 311
#     4  10  20  33  53  82 111 139 174 216 265 318
#     4  11  23  36  52  77 108 143 183 223 264 314
#     4  10  20  34  53  77 107 144 180 215 263 319
#     4  10  19  34  55  78 108 142 176 219 268 314
#     4  11  22  36  54  77 108 145 181 217 263 320
#
# _framework density 16.611830999999999
#
# number of rings (size 3 to 8) (size 9 to 14) (size 15 to 20)
#    0.000    1.714    2.857    2.143    0.000    5.714 
#    0.000    0.000    0.000    0.857    0.000    6.000 
#    0.000    0.000    0.000    0.000    0.000    0.000 
#
# Total GULP energy -156393.902074 kJ/mol
# GULP energy per Si atom -5585.496503 kJ/mol
# Density = 1.657402 g / cm^3
# Si number density = 16.611831 Si / 1000 Ang^3
#
#
#
# Elastic Constant Matrix: (Units=GPa)
#
#
# Indices 1 2 3 4 5 6 
#
# 1 101.0035 43.1809 81.2881 0.0000 14.3679 0.0000
# 2 43.1809 40.2119 62.4607 0.0000 6.2082 0.0000
# 3 81.2881 62.4607 174.7035 0.0000 5.6450 0.0000
# 4 0.0000 0.0000 0.0000 36.7221 0.0000 2.2762
# 5 14.3679 6.2082 5.6450 0.0000 23.8901 0.0000
# 6 0.0000 0.0000 0.0000 2.2762 0.0000 21.6219
#
#
#
# Elastic Compliance Matrix: (Units=1/GPa)
#
#
# Indices 1 2 3 4 5 6 
#
# 1 0.020448 -0.014368 -0.004132 0.000000 -0.007588 0.000000
# 2 -0.014368 0.068438 -0.017622 0.000000 -0.004980 0.000000
# 3 -0.004132 -0.017622 0.013824 0.000000 0.003798 0.000000
# 4 0.000000 0.000000 0.000000 0.027410 0.000000 -0.002886
# 5 -0.007588 -0.004980 0.003798 0.000000 0.046818 0.000000
# 6 0.000000 0.000000 0.000000 -0.002886 0.000000 0.046553
#
#
# Mechanical properties :
#
#
# Convention : Reuss Voigt Hill
#
# Bulk Modulus (GPa) = 32.82352 76.64202 54.73277
# Shear Modulus (GPa) = 16.34561 25.04609 20.69585
#
# Velocity S-wave (km/s) = 3.14024 3.88716 3.53349
# Velocity P-wave (km/s) = 5.74022 8.14763 7.04748
#
# Compressibility (1/GPa) = 0.03046596
#
# Stress axis : x y z
#
# Youngs Moduli (GPa) = 48.90369 14.61178 72.33613
#
# Poissons Ratio (x) = 0.20994 0.29892
# Poissons Ratio (y) = 0.70264 1.27471
# Poissons Ratio (z) = 0.20209 0.25749
#
# Static dielectric constant tensor:
#      x y z
#    x 1.550070 0.000000 -0.007200 
#    y 0.000000 1.553690 0.000000 
#    z -0.007200 0.000000 1.527910 
# 
# From -- ./inp_files/237379.got.cif
#   From: 2010.05.17/outbox.cif.g08.bks.cpg/sg12_119_cif.got.tgz:237379.got - 2010.06.03 13:09:07.
