data_PCOD9184335
_publ_section_title
;
Structure prediction by ZEFSAII (Michael W. Deem and Ramdas Pophale) SiO2 
 PCOD9184335
Probable space group: C 2/M
;
_chemical_formula_sum "Si O2"
_cell_formula_units_Z 64
_cell_length_a 24.024017
_cell_length_b 16.666568
_cell_length_c 20.682782
_cell_angle_alpha 90.000000
_cell_angle_beta 158.807800
_cell_angle_gamma 90.000000
_cell_volume 2993.685894
_symmetry_space_group_name_H-M "C 2/M"
_symmetry_group_IT_number 12
_symmetry_cell_setting 'monoclinic'
loop_
_space_group_symop_operation_xyz
x,y,z
-x,y,-z
-x,-y,-z
x,-y,z
1/2+x,1/2+y,z
1/2-x,1/2+y,-z
1/2-x,1/2-y,-z
1/2+x,1/2-y,z
loop_
_atom_site_type_symbol
_atom_site_label
_atom_site_fract_x
_atom_site_fract_y
_atom_site_fract_z
Si Si1 0.938787 0.628820 0.503289
Si Si2 0.408235 0.318239 0.071838
Si Si3 0.396720 0.877149 0.196353
Si Si4 0.614678 0.725139 0.400417
Si Si5 0.666737 0.907995 0.155641
Si Si6 0.719274 0.863919 0.070405
Si Si7 0.403416 0.410327 0.831034
Si Si8 0.567256 0.684127 0.482213
O O1 0.757607 0.622886 0.317988
O O2 0.974592 0.724765 0.543156
O O3 0.000000 0.598600 0.500000
O O4 0.000357 0.585387 0.635040
O O5 0.512324 0.333432 0.247407
O O6 0.504612 0.351836 0.116915
O O7 0.251496 0.360850 0.920334
O O8 0.357961 0.225166 0.010891
O O9 0.500660 0.798957 0.292561
O O10 0.334175 0.900876 0.056946
O O11 0.750000 0.750000 0.500000
O O12 0.668148 0.690695 0.526004
O O13 0.661964 0.907145 0.072748
O O14 0.820006 0.859360 0.344722
O O15 0.683022 0.000000 0.196490
O O16 0.500000 0.876666 0.000000
O O17 0.904915 0.855182 0.282841
O O18 0.385546 0.500000 0.782475
O O19 0.500000 0.418048 0.000000
#
# Coordination Sequence:
#
# PCOD9184335 Si02
#       8
#     8   8   8   8   8   8   8   8
#     4  11  22  39  67 103 130 167 222 272 326 391
#     4  11  19  39  65  94 129 161 215 273 316 386
#     4  10  20  37  64 100 135 163 212 281 325 378
#     4  10  19  33  59 100 131 161 203 272 332 372
#     4  11  28  46  62  94 137 176 217 266 327 394
#     4  11  21  40  68  98 130 169 219 270 326 382
#     4  11  27  44  60  89 131 172 212 265 330 395
#     4  11  22  39  66 100 128 164 221 266 323 388
#
# _framework density 21.378328
#
# number of rings (size 3 to 8) (size 9 to 14) (size 15 to 20)
#    0.000    1.250    3.750    4.125    7.000    1.250 
#    0.000    2.500    0.000    0.000    0.000    0.000 
#    0.000    0.000    0.000    0.000    0.000    0.000 
#
# Total GULP energy -178200.969517 kJ/mol
# GULP energy per Si atom -5568.780297 kJ/mol
# Density = 2.132967 g / cm^3
# Si number density = 21.378328 Si / 1000 Ang^3
#
#
#
# Elastic Constant Matrix: (Units=GPa)
#
#
# Indices 1 2 3 4 5 6 
#
# 1 169.6068 16.1220 57.4444 -0.0015 -3.8564 -0.0156
# 2 16.1220 40.7181 16.4122 -0.0015 -11.1667 -0.0254
# 3 57.4444 16.4122 121.8644 -0.0011 -7.9107 -0.0146
# 4 -0.0015 -0.0015 -0.0011 -56.0528 -0.0014 -15.8152
# 5 -3.8564 -11.1667 -7.9107 -0.0014 50.8891 -0.0146
# 6 -0.0156 -0.0254 -0.0146 -15.8152 -0.0146 -448.6864
#
#
#
# Elastic Compliance Matrix: (Units=1/GPa)
#
#
# Indices 1 2 3 4 5 6 
#
# 1 0.007112 -0.001630 -0.003153 0.000000 -0.000309 0.000000
# 2 -0.001630 0.027784 -0.002612 0.000000 0.005567 -0.000002
# 3 -0.003153 -0.002612 0.010093 0.000000 0.000757 0.000000
# 4 0.000000 0.000000 0.000000 -0.018020 0.000000 0.000635
# 5 -0.000309 0.005567 0.000757 0.000000 0.020966 -0.000001
# 6 0.000000 -0.000002 0.000000 0.000635 -0.000001 -0.002251
#
#
# Mechanical properties :
#
#
# Convention : Reuss Voigt Hill
#
# Bulk Modulus (GPa) = 33.11360 56.90518 45.00939
# Shear Modulus (GPa) = 70.88122 -74.62265 -1.87071
#
# Velocity S-wave (km/s) = 5.76434 -5.91452 -0.93646
# Velocity P-wave (km/s) = 7.73476 4.46834 4.46432
#
# Compressibility (1/GPa) = 0.03019907
#
# Stress axis : x y z
#
# Youngs Moduli (GPa) = 140.61259 35.99193 99.07873
#
# Poissons Ratio (x) = 0.05866 0.31238
# Poissons Ratio (y) = 0.22916 0.25882
# Poissons Ratio (z) = 0.44334 0.09402
#
# Static dielectric constant tensor:
#      x y z
#    x 1.814780 -0.000010 0.069970 
#    y -0.000010 1.795970 -0.000020 
#    z 0.069970 -0.000020 2.122340 
# 
# From -- ./inp_files/326120.got.cif
#   From: 2010.05.17/outbox.cif.g08.bks.cpg/sg12_164_cif.got.tgz:326120.got - 2010.06.03 13:09:07.
