data_PCOD9184286
_publ_section_title
;
Structure prediction by ZEFSAII (Michael W. Deem and Ramdas Pophale) SiO2 
 PCOD9184286
Probable space group: C 2/M
;
_chemical_formula_sum "Si O2"
_cell_formula_units_Z 56
_cell_length_a 25.671277
_cell_length_b 21.810228
_cell_length_c 16.099573
_cell_angle_alpha 90.000000
_cell_angle_beta 162.296284
_cell_angle_gamma 90.000000
_cell_volume 2741.139238
_symmetry_space_group_name_H-M "C 2/M"
_symmetry_group_IT_number 12
_symmetry_cell_setting 'monoclinic'
loop_
_space_group_symop_operation_xyz
x,y,z
-x,y,-z
-x,-y,-z
x,-y,z
1/2+x,1/2+y,z
1/2-x,1/2+y,-z
1/2-x,1/2-y,-z
1/2+x,1/2-y,z
loop_
_atom_site_type_symbol
_atom_site_label
_atom_site_fract_x
_atom_site_fract_y
_atom_site_fract_z
Si Si1 0.322634 0.740388 0.424238
Si Si2 0.614764 0.353948 0.895833
Si Si3 0.423595 0.566414 0.475640
Si Si4 0.919059 0.926697 0.990578
Si Si5 0.382875 0.146995 0.003005
Si Si6 0.762937 0.140609 0.611801
Si Si7 0.380830 0.806529 0.190750
O O1 0.480632 0.703052 0.709535
O O2 0.228801 0.789030 0.342100
O O3 0.426615 0.781309 0.514759
O O4 0.196504 0.696410 0.181736
O O5 0.522833 0.382514 0.676330
O O6 0.613630 0.402006 0.967866
O O7 0.807978 0.344794 0.156605
O O8 0.500000 0.565556 0.500000
O O9 0.447268 0.500000 0.550595
O O10 0.226818 0.585818 0.174685
O O11 0.082884 0.886994 0.207717
O O12 0.944893 0.000000 0.023978
O O13 0.767930 0.903662 0.700142
O O14 0.582827 0.137558 0.291976
O O15 0.362638 0.166223 0.069693
O O16 0.250000 0.750000 0.000000
#
# Coordination Sequence:
#
# PCOD9184286 Si02
#       7
#     8   8   8   8   8   8   8
#     4   9  21  36  62  96 127 156 198 260 322 384
#     4  10  20  38  62  94 125 168 206 254 310 377
#     4  10  19  33  58  88 124 163 203 252 307 370
#     4  11  25  46  66  84 122 174 225 264 305 370
#     4  10  20  39  59  93 125 159 204 256 321 383
#     4  10  23  42  65  88 116 169 215 267 317 368
#     4   9  18  32  56  88 127 164 188 239 312 391
#
# _framework density 20.429461
#
# number of rings (size 3 to 8) (size 9 to 14) (size 15 to 20)
#    0.000    2.143    1.429    1.286    6.000    1.714 
#    5.143    2.143    0.000    7.714    0.000    0.000 
#    0.000    0.000    0.000    0.000    0.000    0.000 
#
# Total GULP energy -156021.807619 kJ/mol
# GULP energy per Si atom -5572.207415 kJ/mol
# Density = 2.038296 g / cm^3
# Si number density = 20.429461 Si / 1000 Ang^3
#
#
#
# Elastic Constant Matrix: (Units=GPa)
#
#
# Indices 1 2 3 4 5 6 
#
# 1 30.6430 14.5023 -7.9312 0.0000 -0.8358 0.0000
# 2 14.5023 92.3794 11.7867 0.0000 13.7260 0.0000
# 3 -7.9312 11.7867 84.7767 0.0002 10.8078 0.0001
# 4 0.0000 0.0000 0.0002 123.2492 0.0001 31.2762
# 5 -0.8358 13.7260 10.8078 0.0001 18.7233 0.0000
# 6 0.0000 0.0000 0.0001 31.2762 0.0000 36.6414
#
#
#
# Elastic Compliance Matrix: (Units=1/GPa)
#
#
# Indices 1 2 3 4 5 6 
#
# 1 0.037063 -0.006987 0.003859 0.000000 0.004549 0.000000
# 2 -0.006987 0.013493 -0.001326 0.000000 -0.009438 0.000000
# 3 0.003859 -0.001326 0.013164 0.000000 -0.006454 0.000000
# 4 0.000000 0.000000 0.000000 0.010357 0.000000 -0.008841
# 5 0.004549 -0.009438 -0.006454 0.000000 0.064257 0.000000
# 6 0.000000 0.000000 0.000000 -0.008841 0.000000 0.034838
#
#
# Mechanical properties :
#
#
# Convention : Reuss Voigt Hill
#
# Bulk Modulus (GPa) = 18.24414 27.16831 22.70622
# Shear Modulus (GPa) = 24.95615 48.35220 36.65417
#
# Velocity S-wave (km/s) = 3.49890 4.87024 4.24037
# Velocity P-wave (km/s) = 5.02720 6.70471 5.92562
#
# Compressibility (1/GPa) = 0.05481213
#
# Stress axis : x y z
#
# Youngs Moduli (GPa) = 26.98088 74.11085 75.96518
#
# Poissons Ratio (x) = 0.51779 -0.29314
# Poissons Ratio (y) = 0.18851 0.10076
# Poissons Ratio (z) = -0.10412 0.09830
#
# Static dielectric constant tensor:
#      x y z
#    x 1.768840 0.000000 0.017740 
#    y 0.000000 1.770670 0.000000 
#    z 0.017740 0.000000 1.761020 
# 
# From -- ./inp_files/242193.got.cif
#   From: 2010.05.17/outbox.cif.g08.bks.cpg/sg12_122_cif.got.tgz:242193.got - 2010.06.03 13:09:07.
