data_PCOD9184171
_publ_section_title
;
Structure prediction by ZEFSAII (Michael W. Deem and Ramdas Pophale) SiO2 
 PCOD9184171
Probable space group: C 2/M
;
_chemical_formula_sum "Si O2"
_cell_formula_units_Z 48
_cell_length_a 22.706039
_cell_length_b 12.164410
_cell_length_c 26.218403
_cell_angle_alpha 90.000000
_cell_angle_beta 18.740696
_cell_angle_gamma 90.000000
_cell_volume 2326.644611
_symmetry_space_group_name_H-M "C 2/M"
_symmetry_group_IT_number 12
_symmetry_cell_setting 'monoclinic'
loop_
_space_group_symop_operation_xyz
x,y,z
-x,y,-z
-x,-y,-z
x,-y,z
1/2+x,1/2+y,z
1/2-x,1/2+y,-z
1/2-x,1/2-y,-z
1/2+x,1/2-y,z
loop_
_atom_site_type_symbol
_atom_site_label
_atom_site_fract_x
_atom_site_fract_y
_atom_site_fract_z
Si Si1 0.493018 0.624815 0.078001
Si Si2 0.409647 0.119986 0.844890
Si Si3 0.343930 0.374862 0.421283
Si Si4 0.881257 0.275868 0.759089
Si Si5 0.910378 0.369712 0.627470
Si Si6 0.020542 0.837623 0.796585
O O1 0.562907 0.500000 0.010886
O O2 0.310759 0.643812 0.195255
O O3 0.423313 0.628482 0.193569
O O4 0.660682 0.709797 0.936751
O O5 0.425886 0.143506 0.770800
O O6 0.520189 0.207676 0.786800
O O7 0.467742 0.000000 0.810947
O O8 0.193829 0.131440 0.032922
O O9 0.289017 0.500000 0.483825
O O10 0.250000 0.250000 0.500000
O O11 0.535967 0.340779 0.291348
O O12 0.371508 0.386794 0.338476
O O13 0.963026 0.311557 0.637448
O O14 0.948351 0.500000 0.600859
O O15 0.000000 0.332451 0.500000
#
# Coordination Sequence:
#
# PCOD9184171 Si02
#       6
#     8   8   8   8   8   8
#     4  10  19  33  57  87 121 157 202 255 302 354
#     4   9  16  29  52  80 112 147 186 238 294 349
#     4  11  25  40  60  89 125 165 201 247 304 369
#     4  10  20  36  58  83 114 154 199 253 297 357
#     4  10  21  34  55  87 122 162 205 253 305 358
#     4   9  18  31  51  80 113 148 190 237 291 350
#
# _framework density 20.630566999999999
#
# number of rings (size 3 to 8) (size 9 to 14) (size 15 to 20)
#    0.000    2.167    0.000    5.500    2.333    5.333 
#    0.000    0.000    0.000    3.500    0.000    0.000 
#    0.000    0.000    0.000    0.000    0.000    0.000 
#
# Total GULP energy -133660.927288 kJ/mol
# GULP energy per Si atom -5569.205304 kJ/mol
# Density = 2.058361 g / cm^3
# Si number density = 20.630567 Si / 1000 Ang^3
#
#
#
# Elastic Constant Matrix: (Units=GPa)
#
#
# Indices 1 2 3 4 5 6 
#
# 1 91.4216 24.9372 19.3977 -0.0025 18.7398 -0.0049
# 2 24.9372 144.7165 32.7720 0.0047 -2.1959 0.0054
# 3 19.3977 32.7720 67.6436 -0.0238 7.3405 0.0114
# 4 -0.0025 0.0047 -0.0238 9.7203 0.0069 1.5157
# 5 18.7398 -2.1959 7.3405 0.0069 40.6727 -0.0001
# 6 -0.0049 0.0054 0.0114 1.5157 -0.0001 11.7133
#
#
#
# Elastic Compliance Matrix: (Units=1/GPa)
#
#
# Indices 1 2 3 4 5 6 
#
# 1 0.013088 -0.001834 -0.002243 0.000002 -0.005724 0.000008
# 2 -0.001834 0.008069 -0.003593 -0.000015 0.001929 0.000001
# 3 -0.002243 -0.003593 0.017417 0.000049 -0.002304 -0.000023
# 4 0.000002 -0.000015 0.000049 0.104997 -0.000028 -0.013587
# 5 -0.005724 0.001929 -0.002304 -0.000028 0.027744 0.000003
# 6 0.000008 0.000001 -0.000023 -0.013587 0.000003 0.087131
#
#
# Mechanical properties :
#
#
# Convention : Reuss Voigt Hill
#
# Bulk Modulus (GPa) = 43.04043 50.88839 46.96441
# Shear Modulus (GPa) = 17.76005 27.53292 22.64649
#
# Velocity S-wave (km/s) = 2.93723 3.65714 3.31677
# Velocity P-wave (km/s) = 5.69305 6.52326 6.12224
#
# Compressibility (1/GPa) = 0.02323397
#
# Stress axis : x y z
#
# Youngs Moduli (GPa) = 76.40572 123.93165 57.41433
#
# Poissons Ratio (x) = 0.22731 0.12880
# Poissons Ratio (y) = 0.14014 0.20627
# Poissons Ratio (z) = 0.17141 0.44524
#
# Static dielectric constant tensor:
#      x y z
#    x 1.743890 0.000000 -0.000500 
#    y 0.000000 1.743080 0.000010 
#    z -0.000500 0.000010 1.915200 
# 
# From -- ./inp_files/367892.got.cif
#   From: 2010.05.17/outbox.cif.g08.bks.cpg/sg12_184_cif.got.tgz:367892.got - 2010.06.03 13:09:07.
