data_PCOD9184536
_publ_section_title
;
Structure prediction by ZEFSAII (Michael W. Deem and Ramdas Pophale) SiO2 
 PCOD9184536
Probable space group: C 2/M
;
_chemical_formula_sum "Si O2"
_cell_formula_units_Z 40
_cell_length_a 15.019529
_cell_length_b 7.558522
_cell_length_c 20.560119
_cell_angle_alpha 90.000000
_cell_angle_beta 122.378560
_cell_angle_gamma 90.000000
_cell_volume 1971.210771
_symmetry_space_group_name_H-M "C 2/M"
_symmetry_group_IT_number 12
_symmetry_cell_setting 'monoclinic'
loop_
_space_group_symop_operation_xyz
x,y,z
-x,y,-z
-x,-y,-z
x,-y,z
1/2+x,1/2+y,z
1/2-x,1/2+y,-z
1/2-x,1/2-y,-z
1/2+x,1/2-y,z
loop_
_atom_site_type_symbol
_atom_site_label
_atom_site_fract_x
_atom_site_fract_y
_atom_site_fract_z
Si Si1 0.954184 0.795699 0.415629
Si Si2 0.410316 0.783471 0.877849
Si Si3 0.776661 0.283474 0.702110
Si Si4 0.653589 0.789410 0.413523
Si Si5 0.144785 0.288406 0.999617
O O1 0.844885 0.722736 0.345737
O O2 0.000000 0.713056 0.500000
O O3 0.047207 0.789961 0.400418
O O4 0.928845 0.000000 0.422545
O O5 0.344604 0.722329 0.789940
O O6 0.533190 0.727076 0.925350
O O7 0.409780 0.000000 0.877064
O O8 0.358476 0.727245 0.926337
O O9 0.779205 0.500000 0.705577
O O10 0.821690 0.229137 0.649677
O O11 0.750000 0.750000 0.500000
O O12 0.640591 0.000000 0.406937
O O13 0.137792 0.500000 0.999589
O O14 0.250000 0.250000 0.000000
#
# Coordination Sequence:
#
# PCOD9184536 Si02
#       5
#     8   8   8   8   8
#     4  10  19  34  52  72  97 131 172 209 252 299
#     4   8  16  32  51  73 100 136 170 195 238 305
#     4   9  18  33  52  71 100 136 169 205 247 299
#     4  11  21  34  52  74  98 131 172 213 255 298
#     4   9  17  31  54  78 101 129 165 202 243 297
#
# _framework density 20.292096999999998
#
# number of rings (size 3 to 8) (size 9 to 14) (size 15 to 20)
#    0.000    2.600    2.000    1.800    0.000    2.000 
#    0.000    2.000    0.000    4.800    0.000    0.000 
#    0.000    0.000    0.000    0.000    0.000    0.000 
#
# Total GULP energy -111573.897137 kJ/mol
# GULP energy per Si atom -5578.694857 kJ/mol
# Density = 2.024591 g / cm^3
# Si number density = 20.292097 Si / 1000 Ang^3
#
#
#
# Elastic Constant Matrix: (Units=GPa)
#
#
# Indices 1 2 3 4 5 6 
#
# 1 184.6830 -10.4446 124.2102 0.0000 8.4090 0.0000
# 2 -10.4446 45.8123 6.2198 0.0000 -0.1032 0.0000
# 3 124.2102 6.2198 239.1190 0.0000 0.8587 0.0000
# 4 0.0000 0.0000 0.0000 2.0602 0.0000 -1.5676
# 5 8.4090 -0.1032 0.8587 0.0000 21.0936 0.0000
# 6 0.0000 0.0000 0.0000 -1.5676 0.0000 26.1351
#
#
#
# Elastic Compliance Matrix: (Units=1/GPa)
#
#
# Indices 1 2 3 4 5 6 
#
# 1 0.008843 0.002640 -0.004650 0.000000 -0.003323 0.000000
# 2 0.002640 0.022694 -0.001958 0.000000 -0.000862 0.000000
# 3 -0.004650 -0.001958 0.006643 0.000000 0.001574 0.000000
# 4 0.000000 0.000000 0.000000 0.508614 0.000000 0.030507
# 5 -0.003323 -0.000862 0.001574 0.000000 0.048664 0.000000
# 6 0.000000 0.000000 0.000000 0.030507 0.000000 0.040093
#
#
# Mechanical properties :
#
#
# Convention : Reuss Voigt Hill
#
# Bulk Modulus (GPa) = 33.06647 78.84281 55.95464
# Shear Modulus (GPa) = 7.65031 33.16636 20.40833
#
# Velocity S-wave (km/s) = 1.94378 4.04722 3.17476
# Velocity P-wave (km/s) = 4.62259 7.79604 6.40884
#
# Compressibility (1/GPa) = 0.03024212
#
# Stress axis : x y z
#
# Youngs Moduli (GPa) = 113.08707 44.06452 150.53897
#
# Poissons Ratio (x) = -0.11632 0.70002
# Poissons Ratio (y) = -0.29854 0.29483
# Poissons Ratio (z) = 0.52587 0.08630
#
# Static dielectric constant tensor:
#      x y z
#    x 1.676990 0.000000 0.005970 
#    y 0.000000 1.782560 0.000000 
#    z 0.005970 0.000000 1.709070 
# 
# From -- ./inp_files/261077.got.cif
#   From: 2010.05.17/outbox.cif.g08.bks.cpg/sg12_131_cif.got.tgz:261077.got - 2010.06.03 13:09:07.
