data_PCOD9184374
_publ_section_title
;
Structure prediction by ZEFSAII (Michael W. Deem and Ramdas Pophale) SiO2 
 PCOD9184374
Probable space group: C 2/M
;
_chemical_formula_sum "Si O2"
_cell_formula_units_Z 58
_cell_length_a 12.250854
_cell_length_b 16.305098
_cell_length_c 13.908173
_cell_angle_alpha 90.000000
_cell_angle_beta 97.804176
_cell_angle_gamma 90.000000
_cell_volume 2752.445059
_symmetry_space_group_name_H-M "C 2/M"
_symmetry_group_IT_number 12
_symmetry_cell_setting 'monoclinic'
loop_
_space_group_symop_operation_xyz
x,y,z
-x,y,-z
-x,-y,-z
x,-y,z
1/2+x,1/2+y,z
1/2-x,1/2+y,-z
1/2-x,1/2-y,-z
1/2+x,1/2-y,z
loop_
_atom_site_type_symbol
_atom_site_label
_atom_site_fract_x
_atom_site_fract_y
_atom_site_fract_z
Si Si1 0.649144 0.162905 0.263558
Si Si2 0.761373 0.138377 0.915197
Si Si3 0.979511 0.591072 0.100867
Si Si4 0.421597 0.346871 0.768413
Si Si5 0.000000 0.000000 0.500000
Si Si6 0.828527 0.175954 0.134003
Si Si7 0.144119 0.862652 0.443619
Si Si8 0.620136 0.831753 0.478209
O O1 0.541648 0.134167 0.193940
O O2 0.639247 0.261104 0.262109
O O3 0.752843 0.139463 0.210039
O O4 0.645553 0.137364 0.373333
O O5 0.649415 0.088277 0.897424
O O6 0.851233 0.115117 0.846512
O O7 0.717036 0.231514 0.889404
O O8 0.810220 0.134174 0.028370
O O9 0.027826 0.500000 0.098951
O O10 0.000000 0.634250 0.000000
O O11 0.545160 0.329013 0.818378
O O12 0.414510 0.388865 0.663725
O O13 0.904041 0.072737 0.487634
O O14 0.276544 0.862511 0.447292
O O15 0.120214 0.768466 0.473229
O O16 0.500000 0.857375 0.500000
#
# Coordination Sequence:
#
# PCOD9184374 Si02
#       8
#     8   8   8   8   2   8   8   8
#     4  10  21  35  60  91 122 159 213 259 313 368
#     4  10  20  34  58  89 125 159 201 255 317 367
#     4  11  22  39  59  84 125 167 205 249 313 388
#     4  10  21  35  62  93 121 159 208 268 311 369
#     4  12  24  48  66  96 138 182 208 274 340 430
#     4  10  19  33  59  91 124 154 205 263 306 368
#     4  10  24  41  67  94 129 174 218 266 342 392
#     4  10  22  42  68  97 127 165 223 287 321 385
#
# _framework density 21.072172999999999
#
# number of rings (size 3 to 8) (size 9 to 14) (size 15 to 20)
#    0.000    1.793    3.448    0.414    3.862    2.207 
#    2.483    0.345    1.517    0.828    0.000    0.000 
#    0.000    0.000    0.000    0.000    0.000    0.000 
#
# Total GULP energy -161530.258870 kJ/mol
# GULP energy per Si atom -5570.008927 kJ/mol
# Density = 2.102421 g / cm^3
# Si number density = 21.072173 Si / 1000 Ang^3
#
#
#
# Elastic Constant Matrix: (Units=GPa)
#
#
# Indices 1 2 3 4 5 6 
#
# 1 150.9222 -7.3043 50.2805 0.0000 -10.6426 0.0000
# 2 -7.3043 23.4245 10.5462 0.0000 0.7974 0.0000
# 3 50.2805 10.5462 105.4093 0.0000 -1.1758 0.0000
# 4 0.0000 0.0000 0.0000 -13.6931 0.0000 -15.2889
# 5 -10.6426 0.7974 -1.1758 0.0000 32.2394 0.0000
# 6 0.0000 0.0000 0.0000 -15.2889 0.0000 -20.4311
#
#
#
# Elastic Compliance Matrix: (Units=1/GPa)
#
#
# Indices 1 2 3 4 5 6 
#
# 1 0.008526 0.004598 -0.004499 0.000000 0.002537 0.000000
# 2 0.004598 0.047235 -0.006918 0.000000 0.000097 0.000000
# 3 -0.004499 -0.006918 0.012315 0.000000 -0.000865 0.000000
# 4 0.000000 0.000000 0.000000 -0.444021 0.000000 0.332268
# 5 0.002537 0.000097 -0.000865 0.000000 0.031821 0.000000
# 6 0.000000 0.000000 0.000000 0.332268 0.000000 -0.297587
#
#
# Mechanical properties :
#
#
# Convention : Reuss Voigt Hill
#
# Bulk Modulus (GPa) = 18.36925 42.97786 30.67356
# Shear Modulus (GPa) = -8.19773 14.70526 3.25377
#
# Velocity S-wave (km/s) = -1.97453 2.64455 1.24397
# Velocity P-wave (km/s) = 1.88093 5.45571 4.08060
#
# Compressibility (1/GPa) = 0.05443881
#
# Stress axis : x y z
#
# Youngs Moduli (GPa) = 117.28715 21.17058 81.20048
#
# Poissons Ratio (x) = -0.09734 0.36529
# Poissons Ratio (y) = -0.53925 0.56174
# Poissons Ratio (z) = 0.52764 0.14646
#
# Static dielectric constant tensor:
#      x y z
#    x 1.740830 0.000000 -0.018560 
#    y 0.000000 1.733180 0.000000 
#    z -0.018560 0.000000 1.840280 
# 
# From -- ./inp_files/206158.got.cif
#   From: 2010.05.17/outbox.cif.g08.bks.cpg/sg12_104_cif.got.tgz:206158.got - 2010.06.03 13:09:07.
