data_PCOD9184241
_publ_section_title
;
Structure prediction by ZEFSAII (Michael W. Deem and Ramdas Pophale) SiO2 
 PCOD9184241
Probable space group: C 2/M
;
_chemical_formula_sum "Si O2"
_cell_formula_units_Z 56
_cell_length_a 19.701998
_cell_length_b 8.459911
_cell_length_c 21.434608
_cell_angle_alpha 90.000000
_cell_angle_beta 57.634353
_cell_angle_gamma 90.000000
_cell_volume 3017.643306
_symmetry_space_group_name_H-M "C 2/M"
_symmetry_group_IT_number 12
_symmetry_cell_setting 'monoclinic'
loop_
_space_group_symop_operation_xyz
x,y,z
-x,y,-z
-x,-y,-z
x,-y,z
1/2+x,1/2+y,z
1/2-x,1/2+y,-z
1/2-x,1/2-y,-z
1/2+x,1/2-y,z
loop_
_atom_site_type_symbol
_atom_site_label
_atom_site_fract_x
_atom_site_fract_y
_atom_site_fract_z
Si Si1 0.908980 0.679622 0.566600
Si Si2 0.761044 0.810508 0.565372
Si Si3 0.777915 0.181568 0.176989
Si Si4 0.783493 0.811439 0.918434
Si Si5 0.859111 0.193120 0.265734
Si Si6 0.037473 0.188404 0.206577
Si Si7 0.114344 0.180275 0.292643
O O1 0.884562 0.500000 0.596134
O O2 0.846018 0.743376 0.547643
O O3 0.907917 0.794685 0.625892
O O4 0.000000 0.673833 0.500000
O O5 0.750000 0.750000 0.500000
O O6 0.695289 0.753183 0.649557
O O7 0.761019 0.000000 0.565476
O O8 0.773937 0.262764 0.111183
O O9 0.826167 0.243955 0.213681
O O10 0.685890 0.200285 0.243553
O O11 0.801304 0.000000 0.156461
O O12 0.876001 0.752725 0.861621
O O13 0.786997 0.000000 0.917898
O O14 0.750000 0.750000 0.000000
O O15 0.951606 0.248594 0.226135
O O16 0.856007 0.000000 0.269192
O O17 0.043917 0.209406 0.278060
O O18 0.036672 0.000000 0.194273
O O19 0.143088 0.000000 0.267036
#
# Coordination Sequence:
#
# PCOD9184241 Si02
#       7
#     8   8   8   8   8   8   8
#     4  11  24  40  57  81 113 147 194 249 298 348
#     4  12  26  42  60  83 116 157 200 246 303 358
#     4  10  19  33  58  85 113 149 189 233 285 342
#     4  10  20  37  61  87 118 151 191 237 286 347
#     4  10  20  38  61  85 116 153 195 242 290 347
#     4   8  18  35  57  85 113 148 191 233 281 340
#     4  10  19  34  56  81 110 147 192 238 286 342
#
# _framework density 18.557528999999999
#
# number of rings (size 3 to 8) (size 9 to 14) (size 15 to 20)
#    0.000    1.857    1.429    3.857    2.000    1.714 
#    0.000    4.286    0.000    4.286    0.000    0.000 
#    0.000    0.000    0.000    0.000    0.000    0.000 
#
# Total GULP energy -156027.759622 kJ/mol
# GULP energy per Si atom -5572.419986 kJ/mol
# Density = 1.851529 g / cm^3
# Si number density = 18.557529 Si / 1000 Ang^3
#
#
#
# Elastic Constant Matrix: (Units=GPa)
#
#
# Indices 1 2 3 4 5 6 
#
# 1 161.3121 32.1160 77.4744 0.0001 20.8544 0.0003
# 2 32.1160 56.5574 29.7499 0.0001 6.7785 0.0004
# 3 77.4744 29.7499 127.3179 0.0000 28.7346 0.0000
# 4 0.0001 0.0001 0.0000 29.2917 0.0000 3.3427
# 5 20.8544 6.7785 28.7346 0.0000 23.8402 0.0000
# 6 0.0003 0.0004 0.0000 3.3427 0.0000 21.6506
#
#
#
# Elastic Compliance Matrix: (Units=1/GPa)
#
#
# Indices 1 2 3 4 5 6 
#
# 1 0.009127 -0.002576 -0.004554 0.000000 -0.001762 0.000000
# 2 -0.002576 0.020886 -0.003408 0.000000 0.000423 0.000000
# 3 -0.004554 -0.003408 0.014155 0.000000 -0.012108 0.000000
# 4 0.000000 0.000000 0.000000 0.034752 0.000000 -0.005365
# 5 -0.001762 0.000423 -0.012108 0.000000 0.057961 0.000000
# 6 0.000000 0.000000 0.000000 -0.005365 0.000000 0.047016
#
#
# Mechanical properties :
#
#
# Convention : Reuss Voigt Hill
#
# Bulk Modulus (GPa) = 43.30735 69.31865 56.31300
# Shear Modulus (GPa) = 23.51049 28.67964 26.09506
#
# Velocity S-wave (km/s) = 3.56321 3.93548 3.75396
# Velocity P-wave (km/s) = 6.34950 7.62136 7.01432
#
# Compressibility (1/GPa) = 0.02309077
#
# Stress axis : x y z
#
# Youngs Moduli (GPa) = 109.56269 47.87888 70.64784
#
# Poissons Ratio (x) = 0.12334 0.32175
# Poissons Ratio (y) = 0.28223 0.24079
# Poissons Ratio (z) = 0.49899 0.16318
#
# Static dielectric constant tensor:
#      x y z
#    x 1.727680 0.000000 -0.000940 
#    y 0.000000 1.668500 0.000000 
#    z -0.000940 0.000000 1.644320 
# 
# From -- ./inp_files/275042.got.cif
#   From: 2010.05.17/outbox.cif.g08.bks.cpg/sg12_138_cif.got.tgz:275042.got - 2010.06.03 13:09:07.
