data_PCOD9184382
_publ_section_title
;
Structure prediction by ZEFSAII (Michael W. Deem and Ramdas Pophale) SiO2 
 PCOD9184382
Probable space group: C 2/M
;
_chemical_formula_sum "Si O2"
_cell_formula_units_Z 58
_cell_length_a 10.953604
_cell_length_b 20.514113
_cell_length_c 25.148970
_cell_angle_alpha 90.000000
_cell_angle_beta 155.740946
_cell_angle_gamma 90.000000
_cell_volume 2321.811388
_symmetry_space_group_name_H-M "C 2/M"
_symmetry_group_IT_number 12
_symmetry_cell_setting 'monoclinic'
loop_
_space_group_symop_operation_xyz
x,y,z
-x,y,-z
-x,-y,-z
x,-y,z
1/2+x,1/2+y,z
1/2-x,1/2+y,-z
1/2-x,1/2-y,-z
1/2+x,1/2-y,z
loop_
_atom_site_type_symbol
_atom_site_label
_atom_site_fract_x
_atom_site_fract_y
_atom_site_fract_z
Si Si1 0.279445 0.670934 0.557406
Si Si2 0.119625 0.426537 0.918105
Si Si3 0.500000 0.500000 0.500000
Si Si4 0.332124 0.243483 0.147439
Si Si5 0.082257 0.884147 0.773920
Si Si6 0.709988 0.878165 0.316730
Si Si7 0.142847 0.924819 0.200127
Si Si8 0.372628 0.202485 0.309755
O O1 0.339870 0.623142 0.630367
O O2 0.482735 0.645067 0.589561
O O3 0.408340 0.741887 0.621551
O O4 0.959947 0.686416 0.406159
O O5 0.203099 0.500000 0.940283
O O6 0.852242 0.422144 0.854059
O O7 0.002087 0.399373 0.816581
O O8 0.403858 0.400717 0.062201
O O9 0.309842 0.440605 0.391744
O O10 0.297583 0.311668 0.165044
O O11 0.528307 0.189557 0.256325
O O12 0.543869 0.265800 0.181811
O O13 0.000000 0.221235 0.000000
O O14 0.983492 0.916894 0.789961
O O15 0.390679 0.869907 0.294060
O O16 0.229571 0.000000 0.227116
#
# Coordination Sequence:
#
# PCOD9184382 Si02
#       8
#     8   8   2   8   8   8   8   8
#     4   9  20  38  62  89 121 168 220 266 317 367
#     4  10  19  37  61  88 125 171 213 250 308 384
#     4  12  24  48  70  92 118 162 216 264 324 386
#     4  10  21  37  60  95 129 164 208 261 318 371
#     4  10  19  33  59  94 127 167 211 258 309 370
#     4  10  23  41  66  90 119 162 216 268 316 376
#     4  10  20  33  54  89 131 167 202 253 314 378
#     4   9  19  38  59  87 129 171 217 261 310 373
#
# _framework density 24.980497
#
# number of rings (size 3 to 8) (size 9 to 14) (size 15 to 20)
#    0.000    2.207    0.690    2.483    0.000    7.724 
#    1.241    7.241    3.034    0.000    0.000    0.000 
#    0.000    0.000    0.000    0.000    0.000    0.000 
#
# Total GULP energy -161532.433924 kJ/mol
# GULP energy per Si atom -5570.083928 kJ/mol
# Density = 2.492364 g / cm^3
# Si number density = 24.980497 Si / 1000 Ang^3
#
#
#
# Elastic Constant Matrix: (Units=GPa)
#
#
# Indices 1 2 3 4 5 6 
#
# 1 31.0563 40.5487 29.5135 -0.0005 -5.3548 -0.0014
# 2 40.5487 160.5350 64.0124 0.0024 -8.7052 -0.0046
# 3 29.5135 64.0124 138.8067 0.0168 -3.4288 -0.0061
# 4 -0.0005 0.0024 0.0168 47.2820 -0.0132 -10.5431
# 5 -5.3548 -8.7052 -3.4288 -0.0132 25.4521 -0.0065
# 6 -0.0014 -0.0046 -0.0061 -10.5431 -0.0065 28.6690
#
#
#
# Elastic Compliance Matrix: (Units=1/GPa)
#
#
# Indices 1 2 3 4 5 6 
#
# 1 0.053072 -0.010547 -0.006255 0.000006 0.006716 0.000003
# 2 -0.010547 0.009847 -0.002278 0.000001 0.000842 0.000001
# 3 -0.006255 -0.002278 0.009565 -0.000004 -0.000806 0.000000
# 4 0.000006 0.000001 -0.000004 0.023039 0.000015 0.008473
# 5 0.006716 0.000842 -0.000806 0.000015 0.040882 0.000015
# 6 0.000003 0.000001 0.000000 0.008473 0.000015 0.037997
#
#
# Mechanical properties :
#
#
# Convention : Reuss Voigt Hill
#
# Bulk Modulus (GPa) = 29.13318 66.50527 47.81922
# Shear Modulus (GPa) = 22.32122 33.36884 27.84503
#
# Velocity S-wave (km/s) = 2.99247 3.65882 3.34229
# Velocity P-wave (km/s) = 4.86081 6.67308 5.83770
#
# Compressibility (1/GPa) = 0.03432513
#
# Stress axis : x y z
#
# Youngs Moduli (GPa) = 18.84222 101.55250 104.55193
#
# Poissons Ratio (x) = 1.07109 0.65393
# Poissons Ratio (y) = 0.19873 0.23814
# Poissons Ratio (z) = 0.11785 0.23131
#
# Static dielectric constant tensor:
#      x y z
#    x 2.161140 0.000000 -0.087350 
#    y 0.000000 1.942990 -0.000010 
#    z -0.087350 -0.000010 2.075160 
# 
# From -- ./inp_files/377054.got.cif
#   From: 2010.05.17/outbox.cif.g08.bks.cpg/sg12_189_cif.got.tgz:377054.got - 2010.06.03 13:09:07.
