data_PCOD9184720
_publ_section_title
;
Structure prediction by ZEFSAII (Michael W. Deem and Ramdas Pophale) SiO2 
 PCOD9184720
Probable space group: C 2/M
;
_chemical_formula_sum "Si O2"
_cell_formula_units_Z 48
_cell_length_a 24.540515
_cell_length_b 8.588792
_cell_length_c 21.574169
_cell_angle_alpha 90.000000
_cell_angle_beta 38.303441
_cell_angle_gamma 90.000000
_cell_volume 2818.511021
_symmetry_space_group_name_H-M "C 2/M"
_symmetry_group_IT_number 12
_symmetry_cell_setting 'monoclinic'
loop_
_space_group_symop_operation_xyz
x,y,z
-x,y,-z
-x,-y,-z
x,-y,z
1/2+x,1/2+y,z
1/2-x,1/2+y,-z
1/2-x,1/2-y,-z
1/2+x,1/2-y,z
loop_
_atom_site_type_symbol
_atom_site_label
_atom_site_fract_x
_atom_site_fract_y
_atom_site_fract_z
Si Si1 0.022626 0.183349 0.072243
Si Si2 0.193641 0.686366 0.108554
Si Si3 0.205554 0.190349 0.858295
Si Si4 0.318701 0.814741 0.389128
Si Si5 0.176752 0.189053 0.750330
Si Si6 0.986117 0.817465 0.774116
O O1 0.039745 0.195785 0.130202
O O2 0.924534 0.243663 0.149499
O O3 0.018211 0.000000 0.060242
O O4 0.106624 0.247336 0.961771
O O5 0.199684 0.500000 0.100841
O O6 0.233790 0.740139 0.138623
O O7 0.092665 0.737899 0.192430
O O8 0.250000 0.750000 0.000000
O O9 0.227854 0.232787 0.767558
O O10 0.203923 0.000000 0.861248
O O11 0.250000 0.750000 0.500000
O O12 0.295204 0.755600 0.340829
O O13 0.417038 0.755012 0.317331
O O14 0.318382 0.000000 0.390045
O O15 0.176031 0.000000 0.745568
O O16 0.991028 0.000000 0.754685
#
# Coordination Sequence:
#
# PCOD9184720 Si02
#       6
#     8   8   8   8   8   8
#     4   8  13  24  45  71  99 134 175 212 247 298
#     4  11  20  31  48  74 110 151 189 221 253 300
#     4   9  16  27  46  73 105 145 183 211 248 306
#     4  11  22  38  59  82 105 130 166 216 273 323
#     4   9  17  30  51  76 103 136 176 216 259 310
#     4  10  19  34  54  77 105 139 181 222 263 308
#
# _framework density 17.030269000000001
#
# number of rings (size 3 to 8) (size 9 to 14) (size 15 to 20)
#    0.000    2.333    1.667    4.000    0.000    2.000 
#    0.000    1.667    0.000    3.000    0.000    7.000 
#    0.000    0.000    0.000    0.000    0.000    0.000 
#
# Total GULP energy -133753.081856 kJ/mol
# GULP energy per Si atom -5573.045077 kJ/mol
# Density = 1.699151 g / cm^3
# Si number density = 17.030269 Si / 1000 Ang^3
#
#
#
# Elastic Constant Matrix: (Units=GPa)
#
#
# Indices 1 2 3 4 5 6 
#
# 1 133.7830 37.2361 66.0159 -0.0002 28.5432 0.0000
# 2 37.2361 58.1706 36.8753 -0.0013 8.6894 0.0013
# 3 66.0159 36.8753 112.0304 -0.0002 15.1975 0.0003
# 4 -0.0002 -0.0013 -0.0002 22.1260 0.0003 -2.1547
# 5 28.5432 8.6894 15.1975 0.0003 13.5478 -0.0002
# 6 0.0000 0.0013 0.0003 -2.1547 -0.0002 21.0524
#
#
#
# Elastic Compliance Matrix: (Units=1/GPa)
#
#
# Indices 1 2 3 4 5 6 
#
# 1 0.016783 -0.003450 -0.005022 0.000000 -0.027514 0.000000
# 2 -0.003450 0.023006 -0.005336 0.000001 -0.001502 -0.000001
# 3 -0.005022 -0.005336 0.013850 0.000000 -0.001533 0.000000
# 4 0.000000 0.000001 0.000000 0.045651 -0.000002 0.004672
# 5 -0.027514 -0.001502 -0.001533 -0.000002 0.134463 0.000001
# 6 0.000000 -0.000001 0.000000 0.004672 0.000001 0.047979
#
#
# Mechanical properties :
#
#
# Convention : Reuss Voigt Hill
#
# Bulk Modulus (GPa) = 38.42664 64.91540 51.67102
# Shear Modulus (GPa) = 15.72219 22.26902 18.99561
#
# Velocity S-wave (km/s) = 3.04170 3.62002 3.34339
# Velocity P-wave (km/s) = 5.91174 7.46144 6.73134
#
# Compressibility (1/GPa) = 0.02602361
#
# Stress axis : x y z
#
# Youngs Moduli (GPa) = 59.58326 43.46695 72.20339
#
# Poissons Ratio (x) = 0.14996 0.36260
# Poissons Ratio (y) = 0.20555 0.38527
# Poissons Ratio (z) = 0.29922 0.23194
#
# Static dielectric constant tensor:
#      x y z
#    x 1.611870 0.000000 0.006030 
#    y 0.000000 1.586180 0.000000 
#    z 0.006030 0.000000 1.560850 
# 
# From -- ./inp_files/323498.got.cif
#   From: 2010.05.17/outbox.cif.g08.bks.cpg/sg12_162_cif.got.tgz:323498.got - 2010.06.03 13:09:07.
