data_PCOD9184381
_publ_section_title
;
Structure prediction by ZEFSAII (Michael W. Deem and Ramdas Pophale) SiO2 
 PCOD9184381
Probable space group: C 2/M
;
_chemical_formula_sum "Si O2"
_cell_formula_units_Z 64
_cell_length_a 15.173333
_cell_length_b 30.114838
_cell_length_c 9.355953
_cell_angle_alpha 90.000000
_cell_angle_beta 49.766222
_cell_angle_gamma 90.000000
_cell_volume 3263.701671
_symmetry_space_group_name_H-M "C 2/M"
_symmetry_group_IT_number 12
_symmetry_cell_setting 'monoclinic'
loop_
_space_group_symop_operation_xyz
x,y,z
-x,y,-z
-x,-y,-z
x,-y,z
1/2+x,1/2+y,z
1/2-x,1/2+y,-z
1/2-x,1/2-y,-z
1/2+x,1/2-y,z
loop_
_atom_site_type_symbol
_atom_site_label
_atom_site_fract_x
_atom_site_fract_y
_atom_site_fract_z
Si Si1 0.005560 0.315745 0.818419
Si Si2 0.885563 0.550835 0.717030
Si Si3 0.876469 0.844624 0.180835
Si Si4 0.132319 0.844691 0.350510
Si Si5 0.543912 0.951332 0.815896
Si Si6 0.874604 0.769070 0.413798
Si Si7 0.783161 0.616281 0.433514
Si Si8 0.774160 0.643640 0.917493
O O1 0.033279 0.269880 0.706607
O O2 0.115237 0.347017 0.668075
O O3 0.891430 0.337200 0.866484
O O4 0.000000 0.310535 0.000000
O O5 0.844766 0.500000 0.719783
O O6 0.803172 0.594030 0.823702
O O7 0.000000 0.560751 0.500000
O O8 0.938979 0.546611 0.818762
O O9 0.902484 0.805340 0.264094
O O10 0.807190 0.879676 0.346679
O O11 0.786612 0.830910 0.150997
O O12 0.000000 0.861235 0.000000
O O13 0.134746 0.795741 0.425907
O O14 0.215069 0.874892 0.359966
O O15 0.000000 0.858792 0.500000
O O16 0.180252 0.850589 0.141672
O O17 0.651296 0.929346 0.630006
O O18 0.581507 0.000000 0.823052
O O19 0.500000 0.924669 0.000000
O O20 0.750000 0.750000 0.500000
#
# Coordination Sequence:
#
# PCOD9184381 Si02
#       8
#     8   8   8   8   8   8   8   8
#     4  12  22  39  65  96 122 158 203 267 319 374
#     4  10  21  36  59  96 136 158 191 255 324 384
#     4  11  25  42  60  83 122 172 213 253 299 366
#     4  11  24  41  61  84 119 171 211 252 308 370
#     4  10  19  33  59  94 125 152 187 247 325 388
#     4  11  22  43  61  83 127 159 200 264 318 357
#     4  11  20  40  62  82 128 157 198 254 313 367
#     4  12  23  39  69  95 120 167 214 255 317 381
#
# _framework density 19.609636999999999
#
# number of rings (size 3 to 8) (size 9 to 14) (size 15 to 20)
#    0.000    1.000    5.000    3.750    0.000    1.000 
#    0.000    2.500    0.000    4.500    0.000    0.000 
#    0.000    0.000    0.000    0.000    0.000    0.000 
#
# Total GULP energy -178330.626343 kJ/mol
# GULP energy per Si atom -5572.832073 kJ/mol
# Density = 1.956500 g / cm^3
# Si number density = 19.609637 Si / 1000 Ang^3
#
#
#
# Elastic Constant Matrix: (Units=GPa)
#
#
# Indices 1 2 3 4 5 6 
#
# 1 33.2637 5.7429 -10.5425 0.0000 -10.0713 0.0000
# 2 5.7429 94.8221 36.8692 0.0000 -10.4125 0.0000
# 3 -10.5425 36.8692 105.9922 0.0000 -8.1988 0.0000
# 4 0.0000 0.0000 0.0000 14.2883 0.0000 2.8647
# 5 -10.0713 -10.4125 -8.1988 0.0000 38.9082 0.0000
# 6 0.0000 0.0000 0.0000 2.8647 0.0000 11.7707
#
#
#
# Elastic Compliance Matrix: (Units=1/GPa)
#
#
# Indices 1 2 3 4 5 6 
#
# 1 0.035132 -0.003168 0.005321 0.000000 0.009367 0.000000
# 2 -0.003168 0.012707 -0.004611 0.000000 0.001609 0.000000
# 3 0.005321 -0.004611 0.011771 0.000000 0.002624 0.000000
# 4 0.000000 0.000000 0.000000 0.073577 0.000000 -0.017907
# 5 0.009367 0.001609 0.002624 0.000000 0.029110 0.000000
# 6 0.000000 0.000000 0.000000 -0.017907 0.000000 0.089315
#
#
# Mechanical properties :
#
#
# Convention : Reuss Voigt Hill
#
# Bulk Modulus (GPa) = 18.28330 33.13522 25.70926
# Shear Modulus (GPa) = 18.19769 26.46067 22.32918
#
# Velocity S-wave (km/s) = 3.04961 3.67736 3.37810
# Velocity P-wave (km/s) = 4.66305 5.91310 5.32489
#
# Compressibility (1/GPa) = 0.05469473
#
# Stress axis : x y z
#
# Youngs Moduli (GPa) = 28.46373 78.69388 84.95623
#
# Poissons Ratio (x) = 0.24931 -0.45206
# Poissons Ratio (y) = 0.09018 0.39173
# Poissons Ratio (z) = -0.15146 0.36285
#
# Static dielectric constant tensor:
#      x y z
#    x 1.693330 0.000000 0.011880 
#    y 0.000000 1.670870 0.000000 
#    z 0.011880 0.000000 1.612860 
# 
# From -- ./inp_files/68610.got.cif
#   From: 2010.05.17/outbox.cif.g08.bks.cpg/sg12_35_cif.got.tgz:68610.got - 2010.06.03 13:09:07.
