data_PCOD9184459
_publ_section_title
;
Structure prediction by ZEFSAII (Michael W. Deem and Ramdas Pophale) SiO2 
 PCOD9184459
Probable space group: C 2/M
;
_chemical_formula_sum "Si O2"
_cell_formula_units_Z 44
_cell_length_a 9.299153
_cell_length_b 31.634200
_cell_length_c 6.921250
_cell_angle_alpha 90.000000
_cell_angle_beta 48.804879
_cell_angle_gamma 90.000000
_cell_volume 1532.055686
_symmetry_space_group_name_H-M "C 2/M"
_symmetry_group_IT_number 12
_symmetry_cell_setting 'monoclinic'
loop_
_space_group_symop_operation_xyz
x,y,z
-x,y,-z
-x,-y,-z
x,-y,z
1/2+x,1/2+y,z
1/2-x,1/2+y,-z
1/2-x,1/2-y,-z
1/2+x,1/2-y,z
loop_
_atom_site_type_symbol
_atom_site_label
_atom_site_fract_x
_atom_site_fract_y
_atom_site_fract_z
Si Si1 0.225958 0.904769 0.742076
Si Si2 0.732263 0.410824 0.282870
Si Si3 0.231299 0.000000 0.764431
Si Si4 0.676157 0.682990 0.642264
Si Si5 0.270660 0.500000 0.685592
Si Si6 0.000000 0.257833 0.000000
Si Si7 0.255423 0.173182 0.114392
O O1 0.275700 0.908903 0.470125
O O2 0.266304 0.853144 0.702775
O O3 0.292041 0.951200 0.764429
O O4 0.000000 0.905398 0.000000
O O5 0.500000 0.406012 0.500000
O O6 0.789632 0.456982 0.166183
O O7 0.811751 0.376160 0.064939
O O8 0.273810 0.000000 0.498924
O O9 0.000000 0.000000 0.000000
O O10 0.745335 0.679617 0.359317
O O11 0.450092 0.675719 0.799116
O O12 0.660439 0.728210 0.758909
O O13 0.500000 0.500000 0.500000
O O14 0.893903 0.288582 0.940486
#
# Coordination Sequence:
#
# PCOD9184459 Si02
#       7
#     8   8   4   8   4   4   8
#     4   9  14  24  41  65  91 116 141 177 227 268
#     4   9  14  27  44  64  92 116 144 185 222 267
#     4   8  14  20  34  62  94 112 132 174 224 272
#     4  10  19  34  49  67  91 121 154 193 228 269
#     4   8  14  20  40  67  84 113 147 173 219 267
#     4  12  22  32  50  68  86 124 164 188 230 280
#     4  10  20  34  48  67  95 120 149 197 234 265
#
# _framework density 28.719581999999999
#
# number of rings (size 3 to 8) (size 9 to 14) (size 15 to 20)
#    0.000    2.545    4.545    1.091    0.000    0.000 
#    0.000    0.000    0.000    0.545    0.000    0.000 
#    0.000    0.000    0.000   27.818    0.000    0.000 
#
# Total GULP energy -122565.671144 kJ/mol
# GULP energy per Si atom -5571.166870 kJ/mol
# Density = 2.865422 g / cm^3
# Si number density = 28.719582 Si / 1000 Ang^3
#
#
#
# Elastic Constant Matrix: (Units=GPa)
#
#
# Indices 1 2 3 4 5 6 
#
# 1 61.2340 32.8574 36.8156 0.0000 -12.2692 0.0000
# 2 32.8574 286.3088 4.6394 0.0000 1.3639 0.0000
# 3 36.8156 4.6394 74.7496 0.0000 13.9826 0.0000
# 4 0.0000 0.0000 0.0000 23.0010 0.0000 27.6271
# 5 -12.2692 1.3639 13.9826 0.0000 49.5047 0.0000
# 6 0.0000 0.0000 0.0000 27.6271 0.0000 2.8148
#
#
#
# Elastic Compliance Matrix: (Units=1/GPa)
#
#
# Indices 1 2 3 4 5 6 
#
# 1 0.031285 -0.003366 -0.017597 0.000000 0.012817 0.000000
# 2 -0.003366 0.003859 0.001683 0.000000 -0.001416 0.000000
# 3 -0.017597 0.001683 0.024035 0.000000 -0.011196 0.000000
# 4 0.000000 0.000000 0.000000 -0.004030 0.000000 0.039551
# 5 0.012817 -0.001416 -0.011196 0.000000 0.026578 0.000000
# 6 0.000000 0.000000 0.000000 0.039551 0.000000 -0.032929
#
#
# Mechanical properties :
#
#
# Convention : Reuss Voigt Hill
#
# Bulk Modulus (GPa) = 48.50030 63.43524 55.96777
# Shear Modulus (GPa) = 53.06164 38.26276 45.66220
#
# Velocity S-wave (km/s) = 4.30301 3.65401 3.99172
# Velocity P-wave (km/s) = 6.45074 6.31966 6.38554
#
# Compressibility (1/GPa) = 0.02061843
#
# Stress axis : x y z
#
# Youngs Moduli (GPa) = 31.96441 259.16711 41.60659
#
# Poissons Ratio (x) = 0.87241 0.73215
# Poissons Ratio (y) = 0.10760 -0.07004
# Poissons Ratio (z) = 0.56247 -0.43626
#
# Static dielectric constant tensor:
#      x y z
#    x 2.279090 0.000000 -0.021190 
#    y 0.000000 2.456020 0.000000 
#    z -0.021190 0.000000 2.249210 
# 
# From -- ./inp_files/54076.got.cif
#   From: 2010.05.17/outbox.cif.g08.bks.cpg/sg12_28_cif.got.tgz:54076.got - 2010.06.03 13:09:07.
