data_PCOD9184530
_publ_section_title
;
Structure prediction by ZEFSAII (Michael W. Deem and Ramdas Pophale) SiO2 
 PCOD9184530
Probable space group: C 2/M
;
_chemical_formula_sum "Si O2"
_cell_formula_units_Z 64
_cell_length_a 17.032549
_cell_length_b 13.806183
_cell_length_c 24.880095
_cell_angle_alpha 90.000000
_cell_angle_beta 36.407459
_cell_angle_gamma 90.000000
_cell_volume 3472.508740
_symmetry_space_group_name_H-M "C 2/M"
_symmetry_group_IT_number 12
_symmetry_cell_setting 'monoclinic'
loop_
_space_group_symop_operation_xyz
x,y,z
-x,y,-z
-x,-y,-z
x,-y,z
1/2+x,1/2+y,z
1/2-x,1/2+y,-z
1/2-x,1/2-y,-z
1/2+x,1/2-y,z
loop_
_atom_site_type_symbol
_atom_site_label
_atom_site_fract_x
_atom_site_fract_y
_atom_site_fract_z
Si Si1 0.134298 0.293437 0.893986
Si Si2 0.473065 0.613034 0.626944
Si Si3 0.255393 0.889435 0.763172
Si Si4 0.491167 0.107141 0.706192
Si Si5 0.765652 0.795411 0.549996
Si Si6 0.331203 0.890140 0.234625
Si Si7 0.648851 0.303932 0.714355
Si Si8 0.410835 0.688742 0.780490
O O1 0.182593 0.192669 0.839278
O O2 0.120465 0.368808 0.852527
O O3 0.255132 0.330337 0.864974
O O4 0.000000 0.280864 0.000000
O O5 0.502865 0.500000 0.617015
O O6 0.588321 0.661046 0.528842
O O7 0.328487 0.621655 0.680320
O O8 0.462156 0.658385 0.692736
O O9 0.410726 0.884270 0.693965
O O10 0.223208 0.863133 0.719521
O O11 0.212990 0.000000 0.798020
O O12 0.647347 0.125944 0.617718
O O13 0.430185 0.195436 0.772940
O O14 0.463732 0.000000 0.742154
O O15 0.750000 0.750000 0.500000
O O16 0.735112 0.719082 0.613912
O O17 0.379603 0.802100 0.244305
O O18 0.361541 0.000000 0.234699
O O19 0.511534 0.351187 0.769415
#
# Coordination Sequence:
#
# PCOD9184530 Si02
#       8
#     8   8   8   8   8   8   8   8
#     4   9  18  35  61  83 100 130 171 213 253 305
#     4  10  19  34  52  71 100 137 178 219 255 298
#     4   9  19  36  54  76 107 139 169 206 260 313
#     4   9  17  32  52  69  96 136 173 210 251 298
#     4  11  20  33  49  75 101 134 180 223 251 285
#     4   9  20  36  53  76 106 139 170 207 262 314
#     4  10  20  33  53  73 105 141 167 211 258 307
#     4   9  18  34  52  78 102 133 171 210 258 302
#
# _framework density 18.430478999999998
#
# number of rings (size 3 to 8) (size 9 to 14) (size 15 to 20)
#    0.000    2.500    2.500    1.125    0.000    4.000 
#    0.000    3.750    0.000    3.000    0.000    0.000 
#    0.000    0.000    0.000    0.000    0.000    0.000 
#
# Total GULP energy -178224.198937 kJ/mol
# GULP energy per Si atom -5569.506217 kJ/mol
# Density = 1.838853 g / cm^3
# Si number density = 18.430479 Si / 1000 Ang^3
#
#
#
# Elastic Constant Matrix: (Units=GPa)
#
#
# Indices 1 2 3 4 5 6 
#
# 1 90.6093 -4.3621 22.7276 0.0000 -7.4287 0.0000
# 2 -4.3621 29.4149 -3.4488 0.0000 0.2060 0.0000
# 3 22.7276 -3.4488 95.2346 0.0000 -11.7594 0.0001
# 4 0.0000 0.0000 0.0000 10.1345 0.0000 -5.5739
# 5 -7.4287 0.2060 -11.7594 0.0000 12.3919 0.0000
# 6 0.0000 0.0000 0.0001 -5.5739 0.0000 13.1985
#
#
#
# Elastic Compliance Matrix: (Units=1/GPa)
#
#
# Indices 1 2 3 4 5 6 
#
# 1 0.012080 0.001498 -0.002195 0.000000 0.005134 0.000000
# 2 0.001498 0.034332 0.001049 0.000000 0.001323 0.000000
# 3 -0.002195 0.001049 0.012344 0.000000 0.010381 0.000000
# 4 0.000000 0.000000 0.000000 0.128527 0.000000 0.054279
# 5 0.005134 0.001323 0.010381 0.000000 0.093604 0.000000
# 6 0.000000 0.000000 0.000000 0.054279 0.000000 0.098689
#
#
# Mechanical properties :
#
#
# Convention : Reuss Voigt Hill
#
# Bulk Modulus (GPa) = 16.81763 27.23245 22.02504
# Shear Modulus (GPa) = 12.54102 20.50111 16.52106
#
# Velocity S-wave (km/s) = 2.61137 3.33881 2.99724
# Velocity P-wave (km/s) = 4.27049 5.44714 4.89430
#
# Compressibility (1/GPa) = 0.05946140
#
# Stress axis : x y z
#
# Youngs Moduli (GPa) = 82.78187 29.12708 81.01157
#
# Poissons Ratio (x) = -0.04364 0.17779
# Poissons Ratio (y) = -0.12402 -0.08499
# Poissons Ratio (z) = 0.18168 -0.03056
#
# Static dielectric constant tensor:
#      x y z
#    x 1.695530 0.000000 -0.016760 
#    y 0.000000 1.663450 0.000000 
#    z -0.016760 0.000000 1.615060 
# 
# From -- ./inp_files/340132.got.cif
#   From: 2010.05.17/outbox.cif.g08.bks.cpg/sg12_171_cif.got.tgz:340132.got - 2010.06.03 13:09:07.
