data_PCOD9184349
_publ_section_title
;
Structure prediction by ZEFSAII (Michael W. Deem and Ramdas Pophale) SiO2 
 PCOD9184349
Probable space group: C 2/M
;
_chemical_formula_sum "Si O2"
_cell_formula_units_Z 56
_cell_length_a 16.547356
_cell_length_b 18.800555
_cell_length_c 11.702598
_cell_angle_alpha 90.000000
_cell_angle_beta 132.258071
_cell_angle_gamma 90.000000
_cell_volume 2694.546647
_symmetry_space_group_name_H-M "C 2/M"
_symmetry_group_IT_number 12
_symmetry_cell_setting 'monoclinic'
loop_
_space_group_symop_operation_xyz
x,y,z
-x,y,-z
-x,-y,-z
x,-y,z
1/2+x,1/2+y,z
1/2-x,1/2+y,-z
1/2-x,1/2-y,-z
1/2+x,1/2-y,z
loop_
_atom_site_type_symbol
_atom_site_label
_atom_site_fract_x
_atom_site_fract_y
_atom_site_fract_z
Si Si1 0.889989 0.084997 0.321663
Si Si2 0.947861 0.416343 0.641116
Si Si3 0.383683 0.678069 0.086976
Si Si4 0.880204 0.808392 0.675785
Si Si5 0.656351 0.210210 0.568666
Si Si6 0.351150 0.816929 0.191597
Si Si7 0.750303 0.583941 0.603200
O O1 0.888298 0.129318 0.204684
O O2 0.789057 0.105240 0.308475
O O3 0.000000 0.097953 0.500000
O O4 0.885735 0.000000 0.294411
O O5 0.951488 0.500000 0.622485
O O6 0.065974 0.380813 0.752338
O O7 0.878770 0.371777 0.482615
O O8 0.875936 0.403897 0.687788
O O9 0.506310 0.674711 0.155967
O O10 0.363983 0.760229 0.102856
O O11 0.274035 0.657298 0.916410
O O12 0.898946 0.753441 0.587893
O O13 0.825393 0.875167 0.559379
O O14 0.623738 0.224971 0.666630
O O15 0.784871 0.221140 0.666402
O O16 0.729380 0.500000 0.573233
#
# Coordination Sequence:
#
# PCOD9184349 Si02
#       7
#     8   8   8   8   8   8   8
#     4  10  19  33  59  88 111 145 188 232 287 340
#     4  10  21  38  60  84 113 149 194 239 276 329
#     4  11  23  37  54  83 120 148 185 232 286 345
#     4  10  19  35  60  84 110 147 188 239 287 330
#     4  10  21  36  60  84 108 146 198 237 279 334
#     4  11  24  38  53  81 117 156 188 227 283 342
#     4   9  18  33  57  90 115 139 188 241 281 326
#
# _framework density 20.782717000000002
#
# number of rings (size 3 to 8) (size 9 to 14) (size 15 to 20)
#    0.000    1.857    2.857    1.286    0.000    2.286 
#    0.000    0.714    0.000    2.571    0.000    6.000 
#    0.000    0.000    0.000    0.000    0.000    0.000 
#
# Total GULP energy -156247.259483 kJ/mol
# GULP energy per Si atom -5580.259267 kJ/mol
# Density = 2.073541 g / cm^3
# Si number density = 20.782717 Si / 1000 Ang^3
#
#
#
# Elastic Constant Matrix: (Units=GPa)
#
#
# Indices 1 2 3 4 5 6 
#
# 1 97.7629 21.4458 28.5741 0.0000 28.5518 0.0000
# 2 21.4458 67.2813 13.3049 0.0000 7.1494 0.0000
# 3 28.5741 13.3049 53.2459 0.0000 27.5565 0.0000
# 4 0.0000 0.0000 0.0000 16.6313 0.0000 5.3681
# 5 28.5518 7.1494 27.5565 0.0000 39.6956 0.0000
# 6 0.0000 0.0000 0.0000 5.3681 0.0000 33.1282
#
#
#
# Elastic Compliance Matrix: (Units=1/GPa)
#
#
# Indices 1 2 3 4 5 6 
#
# 1 0.013919 -0.003082 -0.002818 0.000000 -0.007500 0.000000
# 2 -0.003082 0.016319 -0.003199 0.000000 0.001499 0.000000
# 3 -0.002818 -0.003199 0.030817 0.000000 -0.018790 0.000000
# 4 0.000000 0.000000 0.000000 0.063446 0.000000 -0.010281
# 5 -0.007500 0.001499 -0.018790 0.000000 0.043360 0.000000
# 6 0.000000 0.000000 0.000000 -0.010281 0.000000 0.031852
#
#
# Mechanical properties :
#
#
# Convention : Reuss Voigt Hill
#
# Bulk Modulus (GPa) = 23.33404 38.32661 30.83033
# Shear Modulus (GPa) = 21.53347 28.22204 24.87775
#
# Velocity S-wave (km/s) = 3.22238 3.68904 3.46358
# Velocity P-wave (km/s) = 5.00969 6.05203 5.55536
#
# Compressibility (1/GPa) = 0.04285585
#
# Stress axis : x y z
#
# Youngs Moduli (GPa) = 71.84395 61.27870 32.44995
#
# Poissons Ratio (x) = 0.18889 0.09143
# Poissons Ratio (y) = 0.22146 0.10381
# Poissons Ratio (z) = 0.20243 0.19604
#
# Static dielectric constant tensor:
#      x y z
#    x 1.815750 0.000000 0.025930 
#    y 0.000000 1.748780 0.000000 
#    z 0.025930 0.000000 1.753590 
# 
# From -- ./inp_files/169495.got.cif
#   From: 2010.05.17/outbox.cif.g08.bks.cpg/sg12_85_cif.got.tgz:169495.got - 2010.06.03 13:09:07.
