data_PCOD9184749
_publ_section_title
;
Structure prediction by ZEFSAII (Michael W. Deem and Ramdas Pophale) SiO2 
 PCOD9184749
Probable space group: C 2/M
;
_chemical_formula_sum "Si O2"
_cell_formula_units_Z 56
_cell_length_a 11.520130
_cell_length_b 15.302658
_cell_length_c 26.012250
_cell_angle_alpha 90.000000
_cell_angle_beta 31.025154
_cell_angle_gamma 90.000000
_cell_volume 2363.516661
_symmetry_space_group_name_H-M "C 2/M"
_symmetry_group_IT_number 12
_symmetry_cell_setting 'monoclinic'
loop_
_space_group_symop_operation_xyz
x,y,z
-x,y,-z
-x,-y,-z
x,-y,z
1/2+x,1/2+y,z
1/2-x,1/2+y,-z
1/2-x,1/2-y,-z
1/2+x,1/2-y,z
loop_
_atom_site_type_symbol
_atom_site_label
_atom_site_fract_x
_atom_site_fract_y
_atom_site_fract_z
Si Si1 0.659351 0.599307 0.776099
Si Si2 0.162756 0.713114 0.816750
Si Si3 0.787908 0.903412 0.473059
Si Si4 0.248022 0.654335 0.593655
Si Si5 0.668473 0.905525 0.725058
Si Si6 0.131476 0.597009 0.003264
Si Si7 0.658605 0.654544 0.658925
O O1 0.735099 0.500000 0.759706
O O2 0.731128 0.686562 0.780325
O O3 0.697739 0.614084 0.700051
O O4 0.392824 0.601979 0.889989
O O5 0.087212 0.673921 0.790336
O O6 0.389075 0.665397 0.751858
O O7 0.964481 0.679333 0.928819
O O8 0.688548 0.842263 0.555912
O O9 0.059514 0.899088 0.373462
O O10 0.743058 0.890061 0.429955
O O11 0.715193 0.000000 0.516151
O O12 0.500000 0.615750 0.500000
O O13 0.109186 0.600199 0.687764
O O14 0.257900 0.748591 0.616264
O O15 0.599978 0.000000 0.771440
O O16 0.090411 0.500000 0.043097
O O17 0.000000 0.597336 0.000000
#
# Coordination Sequence:
#
# PCOD9184749 Si02
#       7
#     8   8   8   8   8   8   8
#     4  11  23  40  61  88 125 160 195 240 295 356
#     4  11  21  37  61  88 120 154 195 241 297 353
#     4   9  18  31  51  78 105 141 189 244 293 335
#     4  10  19  34  54  78 112 150 196 243 296 348
#     4   9  17  30  53  83 109 139 183 242 295 340
#     4  10  20  36  63  95 118 148 196 247 291 347
#     4  11  21  36  59  83 114 158 203 242 290 353
#
# _framework density 23.693507
#
# number of rings (size 3 to 8) (size 9 to 14) (size 15 to 20)
#    0.000    1.857    2.857    2.143    0.000    2.857 
#    0.000    1.429    0.000    1.286    0.000    0.000 
#    0.000    0.000    0.000    0.000    0.000    0.000 
#
# Total GULP energy -156233.298928 kJ/mol
# GULP energy per Si atom -5579.760676 kJ/mol
# Density = 2.363958 g / cm^3
# Si number density = 23.693507 Si / 1000 Ang^3
#
#
#
# Elastic Constant Matrix: (Units=GPa)
#
#
# Indices 1 2 3 4 5 6 
#
# 1 75.3487 24.7623 45.4790 -0.0029 10.5698 -0.0035
# 2 24.7623 125.7155 37.8746 -0.0016 23.2719 0.0011
# 3 45.4790 37.8746 107.2852 0.0008 29.7451 -0.0043
# 4 -0.0029 -0.0016 0.0008 22.7474 0.0020 15.2977
# 5 10.5698 23.2719 29.7451 0.0020 33.4734 0.0032
# 6 -0.0035 0.0011 -0.0043 15.2977 0.0032 18.7880
#
#
#
# Elastic Compliance Matrix: (Units=1/GPa)
#
#
# Indices 1 2 3 4 5 6 
#
# 1 0.018179 -0.001672 -0.007758 0.000003 0.002316 -0.000001
# 2 -0.001672 0.009599 -0.001295 0.000002 -0.004995 -0.000002
# 3 -0.007758 -0.001295 0.016106 -0.000008 -0.010962 0.000011
# 4 0.000003 0.000002 -0.000008 0.097166 0.000006 -0.079115
# 5 0.002316 -0.004995 -0.010962 0.000006 0.042357 -0.000014
# 6 -0.000001 -0.000002 0.000011 -0.079115 -0.000014 0.117643
#
#
# Mechanical properties :
#
#
# Convention : Reuss Voigt Hill
#
# Bulk Modulus (GPa) = 44.57686 58.28679 51.43182
# Shear Modulus (GPa) = 15.15260 28.35068 21.75164
#
# Velocity S-wave (km/s) = 2.53163 3.46288 3.03321
# Velocity P-wave (km/s) = 5.23453 6.37515 5.83279
#
# Compressibility (1/GPa) = 0.02243317
#
# Stress axis : x y z
#
# Youngs Moduli (GPa) = 55.00915 104.18258 62.08865
#
# Poissons Ratio (x) = 0.17421 0.48168
# Poissons Ratio (y) = 0.09199 0.08040
# Poissons Ratio (z) = 0.42676 0.13491
#
# Static dielectric constant tensor:
#      x y z
#    x 1.957960 0.000000 -0.014250 
#    y 0.000000 1.939230 0.000000 
#    z -0.014250 0.000000 1.918340 
# 
# From -- ./inp_files/361414.got.cif
#   From: 2010.05.17/outbox.cif.g08.bks.cpg/sg12_181_cif.got.tgz:361414.got - 2010.06.03 13:09:07.
