data_PCOD9184177
_publ_section_title
;
Structure prediction by ZEFSAII (Michael W. Deem and Ramdas Pophale) SiO2 
 PCOD9184177
Probable space group: C 2/M
;
_chemical_formula_sum "Si O2"
_cell_formula_units_Z 56
_cell_length_a 12.847419
_cell_length_b 15.976202
_cell_length_c 15.742416
_cell_angle_alpha 90.000000
_cell_angle_beta 114.839889
_cell_angle_gamma 90.000000
_cell_volume 2932.245883
_symmetry_space_group_name_H-M "C 2/M"
_symmetry_group_IT_number 12
_symmetry_cell_setting 'monoclinic'
loop_
_space_group_symop_operation_xyz
x,y,z
-x,y,-z
-x,-y,-z
x,-y,z
1/2+x,1/2+y,z
1/2-x,1/2+y,-z
1/2-x,1/2-y,-z
1/2+x,1/2-y,z
loop_
_atom_site_type_symbol
_atom_site_label
_atom_site_fract_x
_atom_site_fract_y
_atom_site_fract_z
Si Si1 0.063810 0.000000 0.656615
Si Si2 0.308766 0.666021 0.550162
Si Si3 0.059544 0.817726 0.667636
Si Si4 0.008435 0.253354 0.829894
Si Si5 0.820236 0.000000 0.487737
Si Si6 0.668054 0.902849 0.854734
Si Si7 0.260706 0.698128 0.724478
Si Si8 0.403262 0.406806 0.040009
O O1 0.092816 0.088541 0.707727
O O2 0.127218 0.000000 0.587552
O O3 0.927352 0.000000 0.590891
O O4 0.250000 0.750000 0.500000
O O5 0.444110 0.672541 0.573440
O O6 0.256635 0.585895 0.484977
O O7 0.295378 0.654999 0.647419
O O8 0.020025 0.764073 0.734064
O O9 0.167007 0.768355 0.668180
O O10 0.071276 0.342164 0.862310
O O11 0.072807 0.175587 0.896518
O O12 0.873464 0.243019 0.802570
O O13 0.709351 0.864176 0.778007
O O14 0.632604 0.000000 0.833071
O O15 0.779677 0.900861 0.953361
O O16 0.412788 0.500000 0.084924
O O17 0.500000 0.405721 0.000000
#
# Coordination Sequence:
#
# PCOD9184177 Si02
#       8
#     4   8   8   8   4   8   8   8
#     4   9  16  32  50  72 104 126 172 231 264 322
#     4  10  20  34  56  79 107 138 180 232 274 329
#     4   9  20  34  53  82 103 143 179 225 280 319
#     4  10  20  35  56  82 114 145 188 227 277 333
#     4   9  18  30  50  79  95 132 175 211 282 315
#     4  10  21  37  57  83 115 152 186 231 283 332
#     4  10  20  35  55  78 110 146 188 224 277 335
#     4  10  19  33  57  88 110 145 189 234 277 323
#
# _framework density 19.097989999999999
#
# number of rings (size 3 to 8) (size 9 to 14) (size 15 to 20)
#    0.000    2.286    1.429    1.286    2.000    1.714 
#    1.286    0.000   12.571    1.286    0.000    0.000 
#    0.000    0.000    0.000    0.000    0.000    0.000 
#
# Total GULP energy -155959.411421 kJ/mol
# GULP energy per Si atom -5569.978979 kJ/mol
# Density = 1.905452 g / cm^3
# Si number density = 19.097990 Si / 1000 Ang^3
#
#
#
# Elastic Constant Matrix: (Units=GPa)
#
#
# Indices 1 2 3 4 5 6 
#
# 1 51.5339 49.2031 8.5387 0.0000 4.4603 0.0000
# 2 49.2031 160.7883 23.8644 0.0000 19.7794 0.0000
# 3 8.5387 23.8644 28.2502 0.0000 6.7735 0.0000
# 4 0.0000 0.0000 0.0000 25.0870 0.0000 -11.9618
# 5 4.4603 19.7794 6.7735 0.0000 14.3612 0.0000
# 6 0.0000 0.0000 0.0000 -11.9618 0.0000 6.1995
#
#
#
# Elastic Compliance Matrix: (Units=1/GPa)
#
#
# Indices 1 2 3 4 5 6 
#
# 1 0.027674 -0.008699 -0.002061 0.000000 0.004358 0.000000
# 2 -0.008699 0.010727 -0.003989 0.000000 -0.010191 0.000000
# 3 -0.002061 -0.003989 0.042755 0.000000 -0.014031 0.000000
# 4 0.000000 0.000000 0.000000 0.498330 0.000000 0.961524
# 5 0.004358 -0.010191 -0.014031 0.000000 0.088932 0.000000
# 6 0.000000 0.000000 0.000000 0.961524 0.000000 2.016559
#
#
# Mechanical properties :
#
#
# Convention : Reuss Voigt Hill
#
# Bulk Modulus (GPa) = 19.35791 44.86498 32.11145
# Shear Modulus (GPa) = 1.83037 19.72729 10.77883
#
# Velocity S-wave (km/s) = 0.98004 3.21744 2.37828
# Velocity P-wave (km/s) = 3.38212 6.11110 4.93884
#
# Compressibility (1/GPa) = 0.05165846
#
# Stress axis : x y z
#
# Youngs Moduli (GPa) = 36.13442 93.22267 23.38913
#
# Poissons Ratio (x) = 0.81093 0.04821
# Poissons Ratio (y) = 0.31433 0.09330
# Poissons Ratio (z) = 0.07448 0.37186
#
# Static dielectric constant tensor:
#      x y z
#    x 1.692390 0.000000 0.007600 
#    y 0.000000 1.713250 0.000000 
#    z 0.007600 0.000000 1.690540 
# 
# From -- ./inp_files/263276.got.cif
#   From: 2010.05.17/outbox.cif.g08.bks.cpg/sg12_132_cif.got.tgz:263276.got - 2010.06.03 13:09:07.
