data_PCOD9184900
_publ_section_title
;
Structure prediction by ZEFSAII (Michael W. Deem and Ramdas Pophale) SiO2 
 PCOD9184900
Probable space group: C 2/M
;
_chemical_formula_sum "Si O2"
_cell_formula_units_Z 64
_cell_length_a 20.883624
_cell_length_b 7.603202
_cell_length_c 29.062275
_cell_angle_alpha 90.000000
_cell_angle_beta 42.098893
_cell_angle_gamma 90.000000
_cell_volume 3093.669851
_symmetry_space_group_name_H-M "C 2/M"
_symmetry_group_IT_number 12
_symmetry_cell_setting 'monoclinic'
loop_
_space_group_symop_operation_xyz
x,y,z
-x,y,-z
-x,-y,-z
x,-y,z
1/2+x,1/2+y,z
1/2-x,1/2+y,-z
1/2-x,1/2-y,-z
1/2+x,1/2-y,z
loop_
_atom_site_type_symbol
_atom_site_label
_atom_site_fract_x
_atom_site_fract_y
_atom_site_fract_z
Si Si1 0.903339 0.783735 0.235085
Si Si2 0.138395 0.709348 0.556904
Si Si3 0.982106 0.794898 0.289925
Si Si4 0.266106 0.211003 0.064677
Si Si5 0.292135 0.207051 0.703191
Si Si6 0.005489 0.715324 0.444024
Si Si7 0.694281 0.286581 0.198880
Si Si8 0.597240 0.290024 0.087483
O O1 0.931478 0.724262 0.271333
O O2 0.800220 0.719926 0.273685
O O3 0.991094 0.727693 0.155600
O O4 0.899643 0.000000 0.236338
O O5 0.127387 0.500000 0.564069
O O6 0.250000 0.750000 0.500000
O O7 0.084308 0.780849 0.630379
O O8 0.083407 0.772360 0.540350
O O9 0.086595 0.721907 0.245567
O O10 0.999360 0.000000 0.270377
O O11 0.258231 0.271339 0.121450
O O12 0.175478 0.277965 0.082866
O O13 0.258023 0.000000 0.070025
O O14 0.360164 0.253221 0.985399
O O15 0.395351 0.276534 0.632170
O O16 0.278253 0.226641 0.765083
O O17 0.296006 0.000000 0.690403
O O18 0.004462 0.500000 0.444664
O O19 0.000000 0.771279 0.500000
O O20 0.694273 0.500000 0.200357
O O21 0.595419 0.500000 0.094113
#
# Coordination Sequence:
#
# PCOD9184900 Si02
#       8
#     8   8   8   8   8   8   8   8
#     4   9  18  33  56  81 105 140 182 221 264 316
#     4  11  23  38  57  83 112 139 175 222 265 313
#     4  10  19  35  59  81 105 140 179 220 265 313
#     4   9  17  30  50  76 105 140 176 213 266 324
#     4  10  20  35  56  79 105 137 179 221 259 312
#     4   9  19  35  55  79 105 137 176 215 256 310
#     4  10  19  34  55  78 108 142 176 215 267 324
#     4   9  16  30  50  77 106 133 176 227 265 305
#
# _framework density 20.687404999999998
#
# number of rings (size 3 to 8) (size 9 to 14) (size 15 to 20)
#    0.000    2.375    2.500    0.375    1.750    0.500 
#    0.000    2.500    0.000    5.625    0.000    0.000 
#    0.000    0.000    0.000    0.000    0.000    0.000 
#
# Total GULP energy -178600.347378 kJ/mol
# GULP energy per Si atom -5581.260856 kJ/mol
# Density = 2.064032 g / cm^3
# Si number density = 20.687405 Si / 1000 Ang^3
#
#
#
# Elastic Constant Matrix: (Units=GPa)
#
#
# Indices 1 2 3 4 5 6 
#
# 1 142.8121 -1.6892 54.0119 0.0009 0.4932 0.0176
# 2 -1.6892 37.7111 -13.3902 0.0057 -6.6289 -0.0081
# 3 54.0119 -13.3902 107.5537 -0.0024 10.6687 0.0011
# 4 0.0009 0.0057 -0.0024 21.6099 0.0000 3.0922
# 5 0.4932 -6.6289 10.6687 0.0000 26.9020 0.0010
# 6 0.0176 -0.0081 0.0011 3.0922 0.0010 12.6728
#
#
#
# Elastic Compliance Matrix: (Units=1/GPa)
#
#
# Indices 1 2 3 4 5 6 
#
# 1 0.008748 -0.001010 -0.004662 0.000001 0.001439 -0.000013
# 2 -0.001010 0.028723 0.003518 -0.000010 0.005701 0.000022
# 3 -0.004662 0.003518 0.012473 -0.000001 -0.003994 0.000008
# 4 0.000001 -0.000010 -0.000001 0.047949 -0.000002 -0.011700
# 5 0.001439 0.005701 -0.003994 -0.000002 0.040134 -0.000001
# 6 -0.000013 0.000022 0.000008 -0.011700 -0.000001 0.081764
#
#
# Mechanical properties :
#
#
# Convention : Reuss Voigt Hill
#
# Bulk Modulus (GPa) = 21.91255 40.66020 31.28637
# Shear Modulus (GPa) = 20.89315 28.84659 24.86987
#
# Velocity S-wave (km/s) = 3.18141 3.73822 3.47100
# Velocity P-wave (km/s) = 4.91023 6.19109 5.58749
#
# Compressibility (1/GPa) = 0.04563595
#
# Stress axis : x y z
#
# Youngs Moduli (GPa) = 114.30624 34.81484 80.17327
#
# Poissons Ratio (x) = 0.03518 0.37376
# Poissons Ratio (y) = 0.11550 -0.28204
# Poissons Ratio (z) = 0.53288 -0.12248
#
# Static dielectric constant tensor:
#      x y z
#    x 1.720030 0.000000 -0.001770 
#    y 0.000000 1.796720 0.000000 
#    z -0.001770 0.000000 1.715790 
# 
# From -- ./inp_files/343063.got.cif
#   From: 2010.05.17/outbox.cif.g08.bks.cpg/sg12_172_cif.got.tgz:343063.got - 2010.06.03 13:09:07.
