data_PCOD9184319
_publ_section_title
;
Structure prediction by ZEFSAII (Michael W. Deem and Ramdas Pophale) SiO2 
 PCOD9184319
Probable space group: C 2/M
;
_chemical_formula_sum "Si O2"
_cell_formula_units_Z 52
_cell_length_a 9.669330
_cell_length_b 20.878953
_cell_length_c 17.500893
_cell_angle_alpha 90.000000
_cell_angle_beta 48.302799
_cell_angle_gamma 90.000000
_cell_volume 2638.119147
_symmetry_space_group_name_H-M "C 2/M"
_symmetry_group_IT_number 12
_symmetry_cell_setting 'monoclinic'
loop_
_space_group_symop_operation_xyz
x,y,z
-x,y,-z
-x,-y,-z
x,-y,z
1/2+x,1/2+y,z
1/2-x,1/2+y,-z
1/2-x,1/2-y,-z
1/2+x,1/2-y,z
loop_
_atom_site_type_symbol
_atom_site_label
_atom_site_fract_x
_atom_site_fract_y
_atom_site_fract_z
Si Si1 0.493719 0.118314 0.794760
Si Si2 0.204865 0.670972 0.432109
Si Si3 0.709408 0.317675 0.422076
Si Si4 0.400449 0.788982 0.117520
Si Si5 0.307858 0.000000 0.196656
Si Si6 0.901274 0.137384 0.117734
Si Si7 0.062529 0.882752 0.220237
O O1 0.658802 0.140375 0.678517
O O2 0.478481 0.175939 0.862050
O O3 0.556014 0.056015 0.817427
O O4 0.305939 0.110928 0.816197
O O5 0.229945 0.679815 0.512925
O O6 0.208010 0.743253 0.395919
O O7 0.370040 0.631085 0.334444
O O8 0.000000 0.642765 0.500000
O O9 0.500000 0.341930 0.500000
O O10 0.385088 0.713754 0.137679
O O11 0.200155 0.822822 0.186162
O O12 0.500000 0.798877 0.000000
O O13 0.170862 0.056236 0.212071
O O14 0.014998 0.111006 0.147963
O O15 0.000000 0.127222 0.000000
#
# Coordination Sequence:
#
# PCOD9184319 Si02
#       7
#     8   8   8   8   4   8   8
#     4  11  22  40  60  86 122 160 197 245 287 339
#     4  10  20  34  57  91 120 146 184 235 298 355
#     4  10  19  33  58  90 119 148 188 233 288 352
#     4  10  20  36  61  93 123 151 187 236 303 366
#     4  10  26  44  59  78 113 164 213 240 281 348
#     4  11  22  37  63  94 117 146 193 246 303 359
#     4  11  22  41  60  83 123 160 191 242 293 342
#
# _framework density 19.711013000000001
#
# number of rings (size 3 to 8) (size 9 to 14) (size 15 to 20)
#    0.000    1.538    0.000    6.462    0.000    5.538 
#    0.000   18.462    0.000    0.000    0.000    0.000 
#    0.000    0.000    0.000    0.000    0.000    0.000 
#
# Total GULP energy -144784.380873 kJ/mol
# GULP energy per Si atom -5568.630034 kJ/mol
# Density = 1.966615 g / cm^3
# Si number density = 19.711013 Si / 1000 Ang^3
#
#
#
# Elastic Constant Matrix: (Units=GPa)
#
#
# Indices 1 2 3 4 5 6 
#
# 1 61.6005 6.7027 -10.8611 0.0000 -7.3943 0.0000
# 2 6.7027 69.1168 17.5834 0.0000 -6.9782 0.0000
# 3 -10.8611 17.5834 38.4676 0.0000 -0.0556 0.0000
# 4 0.0000 0.0000 0.0000 2.1725 0.0000 -7.9678
# 5 -7.3943 -6.9782 -0.0556 0.0000 28.6689 0.0000
# 6 0.0000 0.0000 0.0000 -7.9678 0.0000 14.3057
#
#
#
# Elastic Compliance Matrix: (Units=1/GPa)
#
#
# Indices 1 2 3 4 5 6 
#
# 1 0.018189 -0.003023 0.006523 0.000000 0.003968 0.000000
# 2 -0.003023 0.017339 -0.008774 0.000000 0.003424 0.000000
# 3 0.006523 -0.008774 0.031848 0.000000 -0.000391 0.000000
# 4 0.000000 0.000000 0.000000 -0.441445 0.000000 -0.245869
# 5 0.003968 0.003424 -0.000391 0.000000 0.036737 0.000000
# 6 0.000000 0.000000 0.000000 -0.245869 0.000000 -0.067038
#
#
# Mechanical properties :
#
#
# Convention : Reuss Voigt Hill
#
# Bulk Modulus (GPa) = 17.59697 21.78166 19.68931
# Shear Modulus (GPa) = -13.33761 19.41341 3.03790
#
# Velocity S-wave (km/s) = -2.60409 3.14172 1.24281
# Velocity P-wave (km/s) = 0.30794 4.92291 3.47420
#
# Compressibility (1/GPa) = 0.05682796
#
# Stress axis : x y z
#
# Youngs Moduli (GPa) = 54.97841 57.67265 31.39945
#
# Poissons Ratio (x) = 0.17433 -0.20482
# Poissons Ratio (y) = 0.16618 0.27551
# Poissons Ratio (z) = -0.35862 0.50603
#
# Static dielectric constant tensor:
#      x y z
#    x 1.671050 0.000000 -0.005410 
#    y 0.000000 1.661950 0.000000 
#    z -0.005410 0.000000 1.692390 
# 
# From -- ./inp_files/258429.got.cif
#   From: 2010.05.17/outbox.cif.g08.bks.cpg/sg12_130_cif.got.tgz:258429.got - 2010.06.03 13:09:07.
