data_PCOD9184342
_publ_section_title
;
Structure prediction by ZEFSAII (Michael W. Deem and Ramdas Pophale) SiO2 
 PCOD9184342
Probable space group: C 2/M
;
_chemical_formula_sum "Si O2"
_cell_formula_units_Z 48
_cell_length_a 23.223889
_cell_length_b 22.781153
_cell_length_c 11.404288
_cell_angle_alpha 90.000000
_cell_angle_beta 159.310389
_cell_angle_gamma 90.000000
_cell_volume 2131.713717
_symmetry_space_group_name_H-M "C 2/M"
_symmetry_group_IT_number 12
_symmetry_cell_setting 'monoclinic'
loop_
_space_group_symop_operation_xyz
x,y,z
-x,y,-z
-x,-y,-z
x,-y,z
1/2+x,1/2+y,z
1/2-x,1/2+y,-z
1/2-x,1/2-y,-z
1/2+x,1/2-y,z
loop_
_atom_site_type_symbol
_atom_site_label
_atom_site_fract_x
_atom_site_fract_y
_atom_site_fract_z
Si Si1 0.767444 0.243540 0.754134
Si Si2 0.494627 0.068245 0.621948
Si Si3 0.750159 0.366850 0.444011
Si Si4 0.610037 0.863928 0.051349
Si Si5 0.384457 0.432924 0.018292
Si Si6 0.485680 0.321952 0.333815
O O1 0.763999 0.199118 0.636770
O O2 0.899504 0.293851 0.978782
O O3 0.619750 0.284042 0.518766
O O4 0.817848 0.203463 0.960343
O O5 0.500000 0.090775 0.500000
O O6 0.304702 0.069493 0.298250
O O7 0.546137 0.000000 0.722528
O O8 0.612674 0.105600 0.930550
O O9 0.751651 0.372954 0.586891
O O10 0.628101 0.406195 0.136488
O O11 0.934791 0.385307 0.763726
O O12 0.439337 0.500000 0.124364
O O13 0.486517 0.389459 0.294792
O O14 0.500000 0.315455 0.500000
#
# Coordination Sequence:
#
# PCOD9184342 Si02
#       6
#     8   8   8   8   8   8
#     4  11  21  39  55  86 121 151 194 249 288 347
#     4   9  19  35  57  86 119 154 194 244 293 343
#     4   9  19  36  56  87 115 153 199 233 296 342
#     4  10  19  33  59  85 115 154 196 240 284 355
#     4   9  20  39  59  83 117 156 196 243 296 348
#     4  11  24  38  59  87 117 161 197 238 297 349
#
# _framework density 22.517095999999999
#
# number of rings (size 3 to 8) (size 9 to 14) (size 15 to 20)
#    0.000    2.167    1.667    1.000    2.333    1.667 
#    0.000    4.167    0.000    1.000    0.000    0.000 
#    0.000    0.000    0.000    0.000    0.000    0.000 
#
# Total GULP energy -133874.286643 kJ/mol
# GULP energy per Si atom -5578.095277 kJ/mol
# Density = 2.246585 g / cm^3
# Si number density = 22.517096 Si / 1000 Ang^3
#
#
#
# Elastic Constant Matrix: (Units=GPa)
#
#
# Indices 1 2 3 4 5 6 
#
# 1 86.3884 20.4568 42.7924 0.0000 -36.5672 0.0000
# 2 20.4568 105.3490 43.5936 0.0000 -12.9815 0.0000
# 3 42.7924 43.5936 80.2550 0.0000 -30.8755 0.0000
# 4 0.0000 0.0000 0.0000 43.0450 0.0000 -10.9048
# 5 -36.5672 -12.9815 -30.8755 0.0000 47.7011 0.0000
# 6 0.0000 0.0000 0.0000 -10.9048 0.0000 22.6627
#
#
#
# Elastic Compliance Matrix: (Units=1/GPa)
#
#
# Indices 1 2 3 4 5 6 
#
# 1 0.019127 0.000156 -0.006160 0.000000 0.010718 0.000000
# 2 0.000156 0.012306 -0.007235 0.000000 -0.001215 0.000000
# 3 -0.006160 -0.007235 0.022771 0.000000 0.008048 0.000000
# 4 0.000000 0.000000 0.000000 0.026457 0.000000 0.012730
# 5 0.010718 -0.001215 0.008048 0.000000 0.034059 0.000000
# 6 0.000000 0.000000 0.000000 0.012730 0.000000 0.050251
#
#
# Mechanical properties :
#
#
# Convention : Reuss Voigt Hill
#
# Bulk Modulus (GPa) = 36.06759 53.96424 45.01591
# Shear Modulus (GPa) = 24.91413 33.69172 29.30292
#
# Velocity S-wave (km/s) = 3.32995 3.87237 3.61136
# Velocity P-wave (km/s) = 5.55314 6.63412 6.11755
#
# Compressibility (1/GPa) = 0.02772573
#
# Stress axis : x y z
#
# Youngs Moduli (GPa) = 52.28309 81.26016 43.91609
#
# Poissons Ratio (x) = -0.01264 0.27051
# Poissons Ratio (y) = -0.00813 0.31772
# Poissons Ratio (z) = 0.32204 0.58790
#
# Static dielectric constant tensor:
#      x y z
#    x 1.901680 0.000000 0.053210 
#    y 0.000000 1.824620 0.000000 
#    z 0.053210 0.000000 1.934880 
# 
# From -- ./inp_files/121874.got.cif
#   From: 2010.05.17/outbox.cif.g08.bks.cpg/sg12_61_cif.got.tgz:121874.got - 2010.06.03 13:09:07.
