data_PCOD9184268
_publ_section_title
;
Structure prediction by ZEFSAII (Michael W. Deem and Ramdas Pophale) SiO2 
 PCOD9184268
Probable space group: C 2/M
;
_chemical_formula_sum "Si O2"
_cell_formula_units_Z 64
_cell_length_a 14.873576
_cell_length_b 9.417317
_cell_length_c 23.563759
_cell_angle_alpha 90.000000
_cell_angle_beta 76.981622
_cell_angle_gamma 90.000000
_cell_volume 3215.725041
_symmetry_space_group_name_H-M "C 2/M"
_symmetry_group_IT_number 12
_symmetry_cell_setting 'monoclinic'
loop_
_space_group_symop_operation_xyz
x,y,z
-x,y,-z
-x,-y,-z
x,-y,z
1/2+x,1/2+y,z
1/2-x,1/2+y,-z
1/2-x,1/2-y,-z
1/2+x,1/2-y,z
loop_
_atom_site_type_symbol
_atom_site_label
_atom_site_fract_x
_atom_site_fract_y
_atom_site_fract_z
Si Si1 0.761927 0.671172 0.057454
Si Si2 0.792816 0.335635 0.635112
Si Si3 0.489220 0.664397 0.279276
Si Si4 0.685987 0.167745 0.738966
Si Si5 0.421355 0.667677 0.848818
Si Si6 0.827469 0.834922 0.455837
Si Si7 0.097775 0.668864 0.869647
Si Si8 0.967980 0.833542 0.593928
O O1 0.762409 0.500000 0.049766
O O2 0.675742 0.708230 0.110318
O O3 0.854848 0.710370 0.078145
O O4 0.750000 0.750000 0.000000
O O5 0.813660 0.500000 0.642919
O O6 0.765784 0.253420 0.696005
O O7 0.705474 0.328508 0.605045
O O8 0.879251 0.259623 0.592797
O O9 0.455915 0.500000 0.276553
O O10 0.408713 0.774022 0.275325
O O11 0.567901 0.687724 0.220525
O O12 0.520452 0.677372 0.339427
O O13 0.670867 0.192707 0.807953
O O14 0.698229 0.000000 0.727685
O O15 0.433670 0.500000 0.857198
O O16 0.505035 0.749867 0.866823
O O17 0.750000 0.750000 0.500000
O O18 0.933558 0.787131 0.445722
O O19 0.824481 0.000000 0.473204
O O20 0.079687 0.500000 0.872988
O O21 0.953678 0.000000 0.582031
#
# Coordination Sequence:
#
# PCOD9184268 Si02
#       8
#     8   8   8   8   8   8   8   8
#     4  10  22  39  57  80 111 151 193 233 280 338
#     4  11  23  39  58  87 121 153 191 238 289 339
#     4   9  17  34  59  83 117 152 185 233 290 342
#     4  10  19  33  58  87 117 151 190 233 285 347
#     4   9  19  35  58  83 110 148 189 231 283 339
#     4  10  23  43  63  83 116 156 195 238 284 337
#     4   9  20  37  57  82 114 148 187 234 285 337
#     4  10  21  38  60  87 117 154 194 234 286 344
#
# _framework density 19.902199
#
# number of rings (size 3 to 8) (size 9 to 14) (size 15 to 20)
#    0.000    2.250    1.250    0.750    1.750    4.500 
#    0.000    5.000    0.000    0.000    0.000    0.000 
#    0.000    0.000    0.000    0.000    0.000    0.000 
#
# Total GULP energy -178681.462496 kJ/mol
# GULP energy per Si atom -5583.795703 kJ/mol
# Density = 1.985690 g / cm^3
# Si number density = 19.902199 Si / 1000 Ang^3
#
#
#
# Elastic Constant Matrix: (Units=GPa)
#
#
# Indices 1 2 3 4 5 6 
#
# 1 67.7341 20.2442 5.6834 0.0000 -8.9600 0.0000
# 2 20.2442 40.0487 15.7922 0.0000 -4.6189 0.0000
# 3 5.6834 15.7922 49.6282 0.0000 1.7873 0.0000
# 4 0.0000 0.0000 0.0000 32.0105 0.0000 -5.6152
# 5 -8.9600 -4.6189 1.7873 0.0000 32.1657 0.0000
# 6 0.0000 0.0000 0.0000 -5.6152 0.0000 28.3350
#
#
#
# Elastic Compliance Matrix: (Units=1/GPa)
#
#
# Indices 1 2 3 4 5 6 
#
# 1 0.017839 -0.008847 0.000641 0.000000 0.003663 0.000000
# 2 -0.008847 0.033641 -0.009796 0.000000 0.002911 0.000000
# 3 0.000641 -0.009796 0.023285 0.000000 -0.002522 0.000000
# 4 0.000000 0.000000 0.000000 0.032365 0.000000 0.006414
# 5 0.003663 0.002911 -0.002522 0.000000 0.032668 0.000000
# 6 0.000000 0.000000 0.000000 0.006414 0.000000 0.036563
#
#
# Mechanical properties :
#
#
# Convention : Reuss Voigt Hill
#
# Bulk Modulus (GPa) = 25.80155 26.76118 26.28137
# Shear Modulus (GPa) = 22.19409 26.21496 24.20453
#
# Velocity S-wave (km/s) = 3.34302 3.63325 3.49115
# Velocity P-wave (km/s) = 5.28142 5.57460 5.42999
#
# Compressibility (1/GPa) = 0.03875736
#
# Stress axis : x y z
#
# Youngs Moduli (GPa) = 56.05779 29.72602 42.94680
#
# Poissons Ratio (x) = 0.26300 -0.02751
# Poissons Ratio (y) = 0.49597 0.42072
# Poissons Ratio (z) = -0.03591 0.29121
#
# Static dielectric constant tensor:
#      x y z
#    x 1.701630 0.000000 -0.003520 
#    y 0.000000 1.661480 0.000000 
#    z -0.003520 0.000000 1.731780 
# 
# From -- ./inp_files/359689.got.cif
#   From: 2010.05.17/outbox.cif.g08.bks.cpg/sg12_180_cif.got.tgz:359689.got - 2010.06.03 13:09:07.
