data_PCOD9184916
_publ_section_title
;
Structure prediction by ZEFSAII (Michael W. Deem and Ramdas Pophale) SiO2 
 PCOD9184916
Probable space group: C 2/M
;
_chemical_formula_sum "Si O2"
_cell_formula_units_Z 48
_cell_length_a 29.417101
_cell_length_b 7.793247
_cell_length_c 18.199369
_cell_angle_alpha 90.000000
_cell_angle_beta 144.322616
_cell_angle_gamma 90.000000
_cell_volume 2433.366425
_symmetry_space_group_name_H-M "C 2/M"
_symmetry_group_IT_number 12
_symmetry_cell_setting 'monoclinic'
loop_
_space_group_symop_operation_xyz
x,y,z
-x,y,-z
-x,-y,-z
x,-y,z
1/2+x,1/2+y,z
1/2-x,1/2+y,-z
1/2-x,1/2-y,-z
1/2+x,1/2-y,z
loop_
_atom_site_type_symbol
_atom_site_label
_atom_site_fract_x
_atom_site_fract_y
_atom_site_fract_z
Si Si1 0.050240 0.209617 0.996395
Si Si2 0.769958 0.789634 0.751332
Si Si3 0.873441 0.206375 0.145291
Si Si4 0.728210 0.205918 0.855277
Si Si5 0.299509 0.797359 0.492983
Si Si6 0.479610 0.293021 0.748739
O O1 0.011875 0.267024 0.869947
O O2 0.049574 0.000000 0.994695
O O3 0.139829 0.261140 0.122038
O O4 0.000000 0.265978 0.000000
O O5 0.726971 0.733320 0.769697
O O6 0.734640 0.725162 0.628374
O O7 0.768169 0.000000 0.747890
O O8 0.844661 0.251336 0.188796
O O9 0.958155 0.267655 0.230574
O O10 0.873517 0.000000 0.140109
O O11 0.805912 0.269548 0.000295
O O12 0.734720 0.000000 0.861471
O O13 0.250000 0.750000 0.500000
O O14 0.390343 0.754868 0.620329
O O15 0.292504 0.000000 0.477696
O O16 0.482339 0.500000 0.753028
#
# Coordination Sequence:
#
# PCOD9184916 Si02
#       6
#     8   8   8   8   8   8
#     4   9  15  26  50  78  98 124 172 224 259 297
#     4   9  17  32  53  78 102 134 181 222 255 302
#     4   9  17  30  51  80 109 135 167 212 268 317
#     4   9  16  30  53  79 105 133 173 220 260 304
#     4  11  23  38  56  77 106 142 178 216 263 315
#     4  10  19  34  55  79 106 137 174 217 263 314
#
# _framework density 19.725760000000001
#
# number of rings (size 3 to 8) (size 9 to 14) (size 15 to 20)
#    0.000    2.500    1.667    1.500    0.000    3.333 
#    0.000    2.500    0.000   10.500    0.000    0.000 
#    0.000    0.000    0.000    0.000    0.000    0.000 
#
# Total GULP energy -133905.913028 kJ/mol
# GULP energy per Si atom -5579.413043 kJ/mol
# Density = 1.968086 g / cm^3
# Si number density = 19.725760 Si / 1000 Ang^3
#
#
#
# Elastic Constant Matrix: (Units=GPa)
#
#
# Indices 1 2 3 4 5 6 
#
# 1 232.8005 11.2462 111.7509 0.0000 -5.5803 0.0000
# 2 11.2462 24.4519 6.0245 0.0000 -2.7203 0.0000
# 3 111.7509 6.0245 151.6438 0.0000 -9.0908 0.0000
# 4 0.0000 0.0000 0.0000 11.5662 0.0000 2.5883
# 5 -5.5803 -2.7203 -9.0908 0.0000 32.9759 0.0000
# 6 0.0000 0.0000 0.0000 2.5883 0.0000 24.0773
#
#
#
# Elastic Compliance Matrix: (Units=1/GPa)
#
#
# Indices 1 2 3 4 5 6 
#
# 1 0.006737 -0.001930 -0.004910 0.000000 -0.000373 0.000000
# 2 -0.001930 0.042149 -0.000064 0.000000 0.003133 0.000000
# 3 -0.004910 -0.000064 0.010336 0.000000 0.002013 0.000000
# 4 0.000000 0.000000 0.000000 0.088590 0.000000 -0.009523
# 5 -0.000373 0.003133 0.002013 0.000000 0.031076 0.000000
# 6 0.000000 0.000000 0.000000 -0.009523 0.000000 0.042557
#
#
# Mechanical properties :
#
#
# Convention : Reuss Voigt Hill
#
# Bulk Modulus (GPa) = 22.02046 74.10437 48.06242
# Shear Modulus (GPa) = 19.96875 32.38218 26.17547
#
# Velocity S-wave (km/s) = 3.18515 4.05609 3.64671
# Velocity P-wave (km/s) = 4.97136 7.71911 6.49227
#
# Compressibility (1/GPa) = 0.04541231
#
# Stress axis : x y z
#
# Youngs Moduli (GPa) = 148.43581 23.72552 96.74736
#
# Poissons Ratio (x) = 0.04579 0.47506
# Poissons Ratio (y) = 0.28651 0.00622
# Poissons Ratio (z) = 0.72887 0.00152
#
# Static dielectric constant tensor:
#      x y z
#    x 1.651890 0.000000 -0.043690 
#    y 0.000000 1.742530 0.000000 
#    z -0.043690 0.000000 1.655640 
# 
# From -- ./inp_files/274078.got.cif
#   From: 2010.05.17/outbox.cif.g08.bks.cpg/sg12_138_cif.got.tgz:274078.got - 2010.06.03 13:09:07.
