data_PCOD9184727
_publ_section_title
;
Structure prediction by ZEFSAII (Michael W. Deem and Ramdas Pophale) SiO2 
 PCOD9184727
Probable space group: C 2/M
;
_chemical_formula_sum "Si O2"
_cell_formula_units_Z 64
_cell_length_a 19.514369
_cell_length_b 18.574414
_cell_length_c 10.926517
_cell_angle_alpha 90.000000
_cell_angle_beta 121.401061
_cell_angle_gamma 90.000000
_cell_volume 3380.460324
_symmetry_space_group_name_H-M "C 2/M"
_symmetry_group_IT_number 12
_symmetry_cell_setting 'monoclinic'
loop_
_space_group_symop_operation_xyz
x,y,z
-x,y,-z
-x,-y,-z
x,-y,z
1/2+x,1/2+y,z
1/2-x,1/2+y,-z
1/2-x,1/2-y,-z
1/2+x,1/2-y,z
loop_
_atom_site_type_symbol
_atom_site_label
_atom_site_fract_x
_atom_site_fract_y
_atom_site_fract_z
Si Si1 0.834308 0.665221 0.387791
Si Si2 0.067844 0.417298 0.719758
Si Si3 0.714118 0.130307 0.013846
Si Si4 0.807052 0.084858 0.602598
Si Si5 0.065329 0.176788 0.153114
Si Si6 0.430265 0.179552 0.712006
Si Si7 0.796113 0.786996 0.905566
Si Si8 0.700712 0.084277 0.274415
O O1 0.901212 0.620594 0.375716
O O2 0.764364 0.612992 0.374665
O O3 0.874166 0.700707 0.543783
O O4 0.787907 0.716190 0.248660
O O5 0.044424 0.500000 0.678535
O O6 0.998421 0.372324 0.721696
O O7 0.145599 0.413125 0.880342
O O8 0.686914 0.213096 0.009317
O O9 0.726355 0.098554 0.159177
O O10 0.787693 0.145139 0.989568
O O11 0.889948 0.123870 0.712134
O O12 0.773013 0.100071 0.435537
O O13 0.815516 0.000000 0.625878
O O14 0.035390 0.248770 0.193629
O O15 0.136221 0.202692 0.130572
O O16 0.000000 0.144790 0.000000
O O17 0.373620 0.134648 0.752903
O O18 0.678613 0.000000 0.269163
#
# Coordination Sequence:
#
# PCOD9184727 Si02
#       8
#     8   8   8   8   8   8   8   8
#     4   9  20  35  57  82 108 147 192 229 277 319
#     4  11  22  35  52  80 121 158 187 223 268 329
#     4  10  19  34  54  77 108 148 192 223 273 322
#     4   9  20  37  59  85 108 139 189 240 282 329
#     4  11  22  37  58  82 112 143 183 232 285 333
#     4  11  22  33  54  81 117 154 188 223 270 333
#     4   9  19  35  56  78 105 142 186 241 268 316
#     4  10  20  34  55  83 114 149 187 227 274 330
#
# _framework density 18.932333
#
# number of rings (size 3 to 8) (size 9 to 14) (size 15 to 20)
#    0.000    2.000    1.250    2.250    1.750    3.750 
#    0.000    1.875    0.000    0.000    0.000    1.750 
#    0.000    0.000    0.000    0.000    0.000    0.000 
#
# Total GULP energy -178475.694314 kJ/mol
# GULP energy per Si atom -5577.365447 kJ/mol
# Density = 1.888924 g / cm^3
# Si number density = 18.932333 Si / 1000 Ang^3
#
#
#
# Elastic Constant Matrix: (Units=GPa)
#
#
# Indices 1 2 3 4 5 6 
#
# 1 41.1829 7.7946 13.4961 0.0000 -7.7781 0.0000
# 2 7.7946 43.7507 25.0777 0.0000 4.5622 0.0000
# 3 13.4961 25.0777 78.2571 0.0000 -14.5809 0.0000
# 4 0.0000 0.0000 0.0000 24.3541 0.0000 0.5625
# 5 -7.7781 4.5622 -14.5809 0.0000 29.8850 0.0000
# 6 0.0000 0.0000 0.0000 0.5625 0.0000 23.0759
#
#
#
# Elastic Compliance Matrix: (Units=1/GPa)
#
#
# Indices 1 2 3 4 5 6 
#
# 1 0.027037 -0.004365 -0.002012 0.000000 0.006722 0.000000
# 2 -0.004365 0.031403 -0.011457 0.000000 -0.011520 0.000000
# 3 -0.002012 -0.011457 0.018727 0.000000 0.010362 0.000000
# 4 0.000000 0.000000 0.000000 0.041084 0.000000 -0.001001
# 5 0.006722 -0.011520 0.010362 0.000000 0.042025 0.000000
# 6 0.000000 0.000000 0.000000 -0.001001 0.000000 0.043360
#
#
# Mechanical properties :
#
#
# Convention : Reuss Voigt Hill
#
# Bulk Modulus (GPa) = 24.09600 28.43637 26.26619
# Shear Modulus (GPa) = 19.75229 23.25116 21.50173
#
# Velocity S-wave (km/s) = 3.23354 3.50825 3.37369
# Velocity P-wave (km/s) = 5.16682 5.60920 5.39255
#
# Compressibility (1/GPa) = 0.04150067
#
# Stress axis : x y z
#
# Youngs Moduli (GPa) = 36.98674 31.84456 53.39781
#
# Poissons Ratio (x) = 0.13899 0.10742
# Poissons Ratio (y) = 0.16144 0.61176
# Poissons Ratio (z) = 0.07440 0.36483
#
# Static dielectric constant tensor:
#      x y z
#    x 1.661690 0.000000 -0.010120 
#    y 0.000000 1.645870 0.000000 
#    z -0.010120 0.000000 1.705960 
# 
# From -- ./inp_files/168805.got.cif
#   From: 2010.05.17/outbox.cif.g08.bks.cpg/sg12_85_cif.got.tgz:168805.got - 2010.06.03 13:09:07.
