data_PCOD9184618
_publ_section_title
;
Structure prediction by ZEFSAII (Michael W. Deem and Ramdas Pophale) SiO2 
 PCOD9184618
Probable space group: C 2/M
;
_chemical_formula_sum "Si O2"
_cell_formula_units_Z 56
_cell_length_a 24.771305
_cell_length_b 15.065978
_cell_length_c 11.022727
_cell_angle_alpha 90.000000
_cell_angle_beta 33.876517
_cell_angle_gamma 90.000000
_cell_volume 2293.010435
_symmetry_space_group_name_H-M "C 2/M"
_symmetry_group_IT_number 12
_symmetry_cell_setting 'monoclinic'
loop_
_space_group_symop_operation_xyz
x,y,z
-x,y,-z
-x,-y,-z
x,-y,z
1/2+x,1/2+y,z
1/2-x,1/2+y,-z
1/2-x,1/2-y,-z
1/2+x,1/2-y,z
loop_
_atom_site_type_symbol
_atom_site_label
_atom_site_fract_x
_atom_site_fract_y
_atom_site_fract_z
Si Si1 0.859495 0.098080 0.196738
Si Si2 0.519728 0.404974 0.684489
Si Si3 0.012241 0.288100 0.309198
Si Si4 0.266030 0.361417 0.688757
Si Si5 0.299271 0.155408 0.682468
Si Si6 0.097849 0.703639 0.880573
Si Si7 0.826192 0.599175 0.884058
O O1 0.874027 0.198450 0.224724
O O2 0.944713 0.097661 0.935820
O O3 0.866395 0.000000 0.242735
O O4 0.758603 0.102543 0.310788
O O5 0.506246 0.500000 0.646652
O O6 0.509297 0.315156 0.626519
O O7 0.628784 0.399371 0.531577
O O8 0.915763 0.346576 0.468497
O O9 0.067026 0.286551 0.078100
O O10 0.086775 0.331515 0.262674
O O11 0.276858 0.257177 0.695978
O O12 0.188909 0.363083 0.722287
O O13 0.228529 0.401096 0.885602
O O14 0.264851 0.128466 0.881462
O O15 0.000000 0.671475 0.000000
O O16 0.862679 0.500000 0.792361
#
# Coordination Sequence:
#
# PCOD9184618 Si02
#       7
#     8   8   8   8   8   8   8
#     4   9  18  32  51  78 109 140 179 221 258 310
#     4   9  17  34  56  74 102 142 177 216 265 307
#     4   9  20  35  53  80 107 137 179 223 264 317
#     4   9  19  34  53  79 107 138 179 225 261 308
#     4  10  19  34  53  75 109 145 176 217 268 317
#     4   9  18  35  57  78 104 140 176 217 272 317
#     4  11  21  33  54  80 108 144 180 218 268 321
#
# _framework density 24.422044
#
# number of rings (size 3 to 8) (size 9 to 14) (size 15 to 20)
#    0.000    2.571    0.000    2.571    0.000    2.000 
#    0.000   13.571    0.000   23.571    0.000    0.000 
#    0.000    0.000    0.000    0.000    0.000    0.000 
#
# Total GULP energy -156414.000713 kJ/mol
# GULP energy per Si atom -5586.214311 kJ/mol
# Density = 2.436646 g / cm^3
# Si number density = 24.422044 Si / 1000 Ang^3
#
#
#
# Elastic Constant Matrix: (Units=GPa)
#
#
# Indices 1 2 3 4 5 6 
#
# 1 85.2006 18.0754 21.6334 0.0000 -1.4946 0.0000
# 2 18.0754 117.4341 9.6944 0.0000 -0.9202 0.0000
# 3 21.6334 9.6944 81.0203 0.0000 -5.9449 0.0000
# 4 0.0000 0.0000 0.0000 -31.6460 0.0000 -8.2478
# 5 -1.4946 -0.9202 -5.9449 0.0000 26.4669 0.0000
# 6 0.0000 0.0000 0.0000 -8.2478 0.0000 0.8188
#
#
#
# Elastic Compliance Matrix: (Units=1/GPa)
#
#
# Indices 1 2 3 4 5 6 
#
# 1 0.012926 -0.001722 -0.003250 0.000000 -0.000060 0.000000
# 2 -0.001722 0.008830 -0.000591 0.000000 0.000077 0.000000
# 3 -0.003250 -0.000591 0.013488 0.000000 0.002826 0.000000
# 4 0.000000 0.000000 0.000000 -0.008716 0.000000 -0.087801
# 5 -0.000060 0.000077 0.002826 0.000000 0.038417 0.000000
# 6 0.000000 0.000000 0.000000 -0.087801 0.000000 0.336885
#
#
# Mechanical properties :
#
#
# Convention : Reuss Voigt Hill
#
# Bulk Modulus (GPa) = 41.46107 42.49571 41.97839
# Shear Modulus (GPa) = 11.87660 14.74472 13.31066
#
# Velocity S-wave (km/s) = 2.20763 2.45979 2.33711
# Velocity P-wave (km/s) = 4.84891 5.05032 4.95064
#
# Compressibility (1/GPa) = 0.02411901
#
# Stress axis : x y z
#
# Youngs Moduli (GPa) = 77.36088 113.25237 74.13778
#
# Poissons Ratio (x) = 0.19500 0.24094
# Poissons Ratio (y) = 0.13320 0.04383
# Poissons Ratio (z) = 0.25141 0.06695
#
# Static dielectric constant tensor:
#      x y z
#    x 1.992460 0.000000 0.012530 
#    y 0.000000 1.919180 0.000000 
#    z 0.012530 0.000000 2.005860 
# 
# From -- ./inp_files/240896.got.cif
#   From: 2010.05.17/outbox.cif.g08.bks.cpg/sg12_121_cif.got.tgz:240896.got - 2010.06.03 13:09:07.
