data_PCOD9184819
_publ_section_title
;
Structure prediction by ZEFSAII (Michael W. Deem and Ramdas Pophale) SiO2 
 PCOD9184819
Probable space group: C 2/M
;
_chemical_formula_sum "Si O2"
_cell_formula_units_Z 56
_cell_length_a 14.648118
_cell_length_b 18.298439
_cell_length_c 16.236593
_cell_angle_alpha 90.000000
_cell_angle_beta 41.371715
_cell_angle_gamma 90.000000
_cell_volume 2876.429841
_symmetry_space_group_name_H-M "C 2/M"
_symmetry_group_IT_number 12
_symmetry_cell_setting 'monoclinic'
loop_
_space_group_symop_operation_xyz
x,y,z
-x,y,-z
-x,-y,-z
x,-y,z
1/2+x,1/2+y,z
1/2-x,1/2+y,-z
1/2-x,1/2-y,-z
1/2+x,1/2-y,z
loop_
_atom_site_type_symbol
_atom_site_label
_atom_site_fract_x
_atom_site_fract_y
_atom_site_fract_z
Si Si1 0.588643 0.586325 0.676824
Si Si2 0.789229 0.848137 0.884119
Si Si3 0.313931 0.719010 0.280478
Si Si4 0.137027 0.420300 0.849524
Si Si5 0.978433 0.343327 0.828353
Si Si6 0.589363 0.324204 0.515438
Si Si7 0.377059 0.213276 0.745027
O O1 0.614863 0.500000 0.669484
O O2 0.426618 0.605008 0.804111
O O3 0.667278 0.643602 0.682909
O O4 0.619767 0.615018 0.563168
O O5 0.738565 0.865097 0.825180
O O6 0.816304 0.762220 0.860461
O O7 0.665824 0.862995 0.029849
O O8 0.457271 0.765466 0.182084
O O9 0.215899 0.776262 0.395605
O O10 0.240169 0.699816 0.243557
O O11 0.200328 0.500000 0.810310
O O12 0.089048 0.399435 0.791638
O O13 0.000000 0.419760 0.000000
O O14 0.955835 0.347215 0.745698
O O15 0.500000 0.354736 0.500000
O O16 0.492179 0.263790 0.625049
#
# Coordination Sequence:
#
# PCOD9184819 Si02
#       7
#     8   8   8   8   8   8   8
#     4  11  23  38  59  84 118 157 184 230 297 350
#     4  10  19  34  54  86 116 143 189 235 282 337
#     4  11  21  37  61  85 114 148 197 242 277 337
#     4   9  18  32  51  77 113 149 180 225 283 336
#     4  11  20  33  58  85 114 150 192 231 281 336
#     4   9  20  38  61  86 113 144 190 248 289 326
#     4  10  20  34  57  86 110 146 192 243 276 324
#
# _framework density 19.468578999999998
#
# number of rings (size 3 to 8) (size 9 to 14) (size 15 to 20)
#    0.000    1.857    4.286    1.286    0.000    0.857 
#    0.000    1.429    0.000    4.714    0.000    0.000 
#    0.000    0.000    0.000    0.000    0.000    0.000 
#
# Total GULP energy -155998.229020 kJ/mol
# GULP energy per Si atom -5571.365322 kJ/mol
# Density = 1.942427 g / cm^3
# Si number density = 19.468579 Si / 1000 Ang^3
#
#
#
# Elastic Constant Matrix: (Units=GPa)
#
#
# Indices 1 2 3 4 5 6 
#
# 1 127.3780 36.8384 15.5133 0.0000 5.9159 0.0000
# 2 36.8384 83.7084 7.9614 0.0000 -0.9991 0.0000
# 3 15.5133 7.9614 51.3176 0.0000 -2.2758 0.0000
# 4 0.0000 0.0000 0.0000 14.9039 0.0001 1.7736
# 5 5.9159 -0.9991 -2.2758 0.0001 22.1280 0.0000
# 6 0.0000 0.0000 0.0000 1.7736 0.0000 19.1930
#
#
#
# Elastic Compliance Matrix: (Units=1/GPa)
#
#
# Indices 1 2 3 4 5 6 
#
# 1 0.009419 -0.003955 -0.002364 0.000000 -0.002940 0.000000
# 2 -0.003955 0.013789 -0.000873 0.000000 0.001590 0.000000
# 3 -0.002364 -0.000873 0.020456 0.000000 0.002696 0.000000
# 4 0.000000 0.000000 0.000000 0.067843 0.000000 -0.006269
# 5 -0.002940 0.001590 0.002696 0.000000 0.046327 0.000000
# 6 0.000000 0.000000 0.000000 -0.006269 0.000000 0.052682
#
#
# Mechanical properties :
#
#
# Convention : Reuss Voigt Hill
#
# Bulk Modulus (GPa) = 34.15395 42.55893 38.35644
# Shear Modulus (GPa) = 21.30744 24.71770 23.01257
#
# Velocity S-wave (km/s) = 3.31184 3.56704 3.44181
# Velocity P-wave (km/s) = 5.67500 6.23480 5.96147
#
# Compressibility (1/GPa) = 0.02927919
#
# Stress axis : x y z
#
# Youngs Moduli (GPa) = 106.16799 72.52202 48.88498
#
# Poissons Ratio (x) = 0.28685 0.11557
# Poissons Ratio (y) = 0.41993 0.04268
# Poissons Ratio (z) = 0.25099 0.06331
#
# Static dielectric constant tensor:
#      x y z
#    x 1.718110 0.000000 -0.009170 
#    y 0.000000 1.675630 0.000000 
#    z -0.009170 0.000000 1.726330 
# 
# From -- ./inp_files/271389.got.cif
#   From: 2010.05.17/outbox.cif.g08.bks.cpg/sg12_136_cif.got.tgz:271389.got - 2010.06.03 13:09:07.
