data_PCOD9184572
_publ_section_title
;
Structure prediction by ZEFSAII (Michael W. Deem and Ramdas Pophale) SiO2 
 PCOD9184572
Probable space group: C 2/M
;
_chemical_formula_sum "Si O2"
_cell_formula_units_Z 44
_cell_length_a 15.650249
_cell_length_b 28.546237
_cell_length_c 5.171582
_cell_angle_alpha 90.000000
_cell_angle_beta 97.237429
_cell_angle_gamma 90.000000
_cell_volume 2292.025708
_symmetry_space_group_name_H-M "C 2/M"
_symmetry_group_IT_number 12
_symmetry_cell_setting 'monoclinic'
loop_
_space_group_symop_operation_xyz
x,y,z
-x,y,-z
-x,-y,-z
x,-y,z
1/2+x,1/2+y,z
1/2-x,1/2+y,-z
1/2-x,1/2-y,-z
1/2+x,1/2-y,z
loop_
_atom_site_type_symbol
_atom_site_label
_atom_site_fract_x
_atom_site_fract_y
_atom_site_fract_z
Si Si1 0.000000 0.877530 0.000000
Si Si2 0.226709 0.129117 0.525345
Si Si3 0.099259 0.658148 0.560749
Si Si4 0.842708 0.178800 0.018750
Si Si5 0.100424 0.719462 0.061132
Si Si6 0.092434 0.053834 0.390116
O O1 0.937549 0.842334 0.131655
O O2 0.931196 0.913953 0.860506
O O3 0.325946 0.121764 0.484601
O O4 0.185387 0.158066 0.269845
O O5 0.170847 0.082041 0.549014
O O6 0.218073 0.160507 0.777631
O O7 0.113552 0.679473 0.850063
O O8 0.000000 0.642005 0.500000
O O9 0.111234 0.699691 0.354011
O O10 0.847273 0.234255 0.988671
O O11 0.000000 0.732947 0.000000
O O12 0.000000 0.054574 0.500000
O O13 0.113506 0.000000 0.343311
#
# Coordination Sequence:
#
# PCOD9184572 Si02
#       6
#     4   8   8   8   8   8
#     4  10  19  34  52  82 114 152 170 214 263 330
#     4  11  23  36  54  81 106 142 183 224 270 324
#     4  10  22  38  54  73 106 145 189 228 270 305
#     4  11  21  33  55  78 115 141 181 219 265 317
#     4  10  20  35  54  78 105 149 186 224 263 314
#     4  10  20  36  57  81 111 141 175 217 276 340
#
# _framework density 19.196994
#
# number of rings (size 3 to 8) (size 9 to 14) (size 15 to 20)
#    0.000    1.636    2.727    2.455    0.000    4.364 
#    0.000    0.000    0.000    0.545    0.000    0.000 
#    0.000    9.091    0.000    0.000    0.000    1.273 
#
# Total GULP energy -122615.634282 kJ/mol
# GULP energy per Si atom -5573.437922 kJ/mol
# Density = 1.915330 g / cm^3
# Si number density = 19.196994 Si / 1000 Ang^3
#
#
#
# Elastic Constant Matrix: (Units=GPa)
#
#
# Indices 1 2 3 4 5 6 
#
# 1 128.9488 44.4799 5.3414 0.0000 -6.8753 0.0000
# 2 44.4799 34.5420 -6.2966 0.0000 6.9287 0.0000
# 3 5.3414 -6.2966 72.1381 0.0000 -4.3333 0.0000
# 4 0.0000 0.0000 0.0000 -1.2674 0.0000 3.1288
# 5 -6.8753 6.9287 -4.3333 0.0000 26.0102 0.0000
# 6 0.0000 0.0000 0.0000 3.1288 0.0000 2.2872
#
#
#
# Elastic Compliance Matrix: (Units=1/GPa)
#
#
# Indices 1 2 3 4 5 6 
#
# 1 0.016759 -0.024166 -0.002725 0.000000 0.010413 0.000000
# 2 -0.024166 0.065782 0.006156 0.000000 -0.022885 0.000000
# 3 -0.002725 0.006156 0.014606 0.000000 0.000073 0.000000
# 4 0.000000 0.000000 0.000000 -0.180266 0.000000 0.246593
# 5 0.010413 -0.022885 0.000073 0.000000 0.047307 0.000000
# 6 0.000000 0.000000 0.000000 0.246593 0.000000 0.099890
#
#
# Mechanical properties :
#
#
# Convention : Reuss Voigt Hill
#
# Bulk Modulus (GPa) = 17.96044 35.85315 26.90680
# Shear Modulus (GPa) = 40.28796 18.21295 29.25045
#
# Velocity S-wave (km/s) = 4.58608 3.08350 3.90769
# Velocity P-wave (km/s) = 6.11711 5.60306 5.86572
#
# Compressibility (1/GPa) = 0.05567793
#
# Stress axis : x y z
#
# Youngs Moduli (GPa) = 59.66910 15.20170 68.46587
#
# Poissons Ratio (x) = 0.36737 0.18655
# Poissons Ratio (y) = 1.44198 -0.42151
# Poissons Ratio (z) = 0.16258 -0.09359
#
# Static dielectric constant tensor:
#      x y z
#    x 1.762170 0.000000 0.085420 
#    y 0.000000 1.625040 0.000000 
#    z 0.085420 0.000000 2.448090 
# 
# From -- ./inp_files/12181.got.cif
#   From: 2010.05.17/outbox.cif.g08.bks.cpg/sg12_7_cif.got.tgz:12181.got - 2010.06.03 13:09:07.
