data_PCOD9184301
_publ_section_title
;
Structure prediction by ZEFSAII (Michael W. Deem and Ramdas Pophale) SiO2 
 PCOD9184301
Probable space group: C 2/M
;
_chemical_formula_sum "Si O2"
_cell_formula_units_Z 44
_cell_length_a 24.058216
_cell_length_b 15.225432
_cell_length_c 18.518579
_cell_angle_alpha 90.000000
_cell_angle_beta 19.612113
_cell_angle_gamma 90.000000
_cell_volume 2276.817868
_symmetry_space_group_name_H-M "C 2/M"
_symmetry_group_IT_number 12
_symmetry_cell_setting 'monoclinic'
loop_
_space_group_symop_operation_xyz
x,y,z
-x,y,-z
-x,-y,-z
x,-y,z
1/2+x,1/2+y,z
1/2-x,1/2+y,-z
1/2-x,1/2-y,-z
1/2+x,1/2-y,z
loop_
_atom_site_type_symbol
_atom_site_label
_atom_site_fract_x
_atom_site_fract_y
_atom_site_fract_z
Si Si1 0.395484 0.229771 0.976218
Si Si2 0.042001 0.603319 0.672527
Si Si3 0.602163 0.402902 0.703925
Si Si4 0.895495 0.746425 0.760420
Si Si5 0.000000 0.653601 0.000000
Si Si6 0.851980 0.904844 0.520330
O O1 0.465727 0.155599 0.834891
O O2 0.476343 0.323578 0.860845
O O3 0.201666 0.240663 0.195423
O O4 0.450595 0.207215 0.989174
O O5 0.998660 0.500000 0.726962
O O6 0.239892 0.611420 0.438430
O O7 0.981907 0.654488 0.674708
O O8 0.531059 0.500000 0.805233
O O9 0.668383 0.402908 0.541049
O O10 0.027918 0.824456 0.607205
O O11 0.750000 0.750000 0.000000
O O12 0.831245 0.602349 0.223465
O O13 0.926261 0.000000 0.449306
#
# Coordination Sequence:
#
# PCOD9184301 Si02
#       6
#     8   8   8   8   4   8
#     4  11  22  39  57  92 122 164 205 250 307 372
#     4  10  19  33  58  89 118 150 202 260 303 350
#     4  10  19  36  64  89 117 158 213 264 295 346
#     4  10  21  37  59  87 123 156 209 258 306 355
#     4  12  25  38  63  86 134 174 199 242 305 382
#     4  11  22  39  62  93 127 165 205 251 308 369
#
# _framework density 19.325216999999999
#
# number of rings (size 3 to 8) (size 9 to 14) (size 15 to 20)
#    0.000    1.455    5.455    1.909    0.000    5.091 
#    0.000    1.364    0.000    1.091    0.000    5.091 
#    0.000    0.000    0.000    0.000    0.000    0.000 
#
# Total GULP energy -122675.442300 kJ/mol
# GULP energy per Si atom -5576.156468 kJ/mol
# Density = 1.928123 g / cm^3
# Si number density = 19.325217 Si / 1000 Ang^3
#
#
#
# Elastic Constant Matrix: (Units=GPa)
#
#
# Indices 1 2 3 4 5 6 
#
# 1 82.1942 47.0598 17.7192 0.0032 -22.4678 -0.0035
# 2 47.0598 157.4346 49.2887 0.0047 -29.1966 -0.0057
# 3 17.7192 49.2887 60.5087 0.0058 -19.6347 -0.0090
# 4 0.0032 0.0047 0.0058 16.0697 -0.0021 -20.8113
# 5 -22.4678 -29.1966 -19.6347 -0.0021 28.1859 0.0019
# 6 -0.0035 -0.0057 -0.0090 -20.8113 0.0019 27.9301
#
#
#
# Elastic Compliance Matrix: (Units=1/GPa)
#
#
# Indices 1 2 3 4 5 6 
#
# 1 0.016790 -0.003458 0.001396 -0.000001 0.010775 0.000000
# 2 -0.003458 0.009862 -0.005944 -0.000009 0.003319 -0.000007
# 3 0.001396 -0.005944 0.024966 0.000058 0.012348 0.000049
# 4 -0.000001 -0.000009 0.000058 1.776944 0.000072 1.324037
# 5 0.010775 0.003319 0.012348 0.000072 0.056107 0.000056
# 6 0.000000 -0.000007 0.000049 1.324037 0.000056 1.022371
#
#
# Mechanical properties :
#
#
# Convention : Reuss Voigt Hill
#
# Bulk Modulus (GPa) = 28.08385 58.69699 43.39042
# Shear Modulus (GPa) = 1.70362 26.84177 14.27270
#
# Velocity S-wave (km/s) = 0.93993 3.73091 2.72058
# Velocity P-wave (km/s) = 3.96759 6.99991 5.68949
#
# Compressibility (1/GPa) = 0.03560765
#
# Stress axis : x y z
#
# Youngs Moduli (GPa) = 59.55778 101.40273 40.05443
#
# Poissons Ratio (x) = 0.35063 -0.05592
# Poissons Ratio (y) = 0.20594 0.23807
# Poissons Ratio (z) = -0.08315 0.60270
#
# Static dielectric constant tensor:
#      x y z
#    x 1.695820 0.000000 0.007430 
#    y 0.000000 1.687350 0.000000 
#    z 0.007430 0.000000 1.697590 
# 
# From -- ./inp_files/73129.got.cif
#   From: 2010.05.17/outbox.cif.g08.bks.cpg/sg12_37_cif.got.tgz:73129.got - 2010.06.03 13:09:07.
