data_PCOD9184333
_publ_section_title
;
Structure prediction by ZEFSAII (Michael W. Deem and Ramdas Pophale) SiO2 
 PCOD9184333
Probable space group: C 2/M
;
_chemical_formula_sum "Si O2"
_cell_formula_units_Z 28
_cell_length_a 4.880757
_cell_length_b 30.535256
_cell_length_c 7.349260
_cell_angle_alpha 90.000000
_cell_angle_beta 86.675548
_cell_angle_gamma 90.000000
_cell_volume 1093.454960
_symmetry_space_group_name_H-M "C 2/M"
_symmetry_group_IT_number 12
_symmetry_cell_setting 'monoclinic'
loop_
_space_group_symop_operation_xyz
x,y,z
-x,y,-z
-x,-y,-z
x,-y,z
1/2+x,1/2+y,z
1/2-x,1/2+y,-z
1/2-x,1/2-y,-z
1/2+x,1/2-y,z
loop_
_atom_site_type_symbol
_atom_site_label
_atom_site_fract_x
_atom_site_fract_y
_atom_site_fract_z
Si Si1 0.136901 0.357466 0.303705
Si Si2 0.127658 0.909639 0.194595
Si Si3 0.761748 0.500000 0.363091
Si Si4 0.008236 0.224432 0.721490
O O1 0.361335 0.395873 0.324491
O O2 0.331560 0.318710 0.223197
O O3 0.000000 0.343521 0.500000
O O4 0.877719 0.375365 0.202914
O O5 0.250842 0.956326 0.243601
O O6 0.000000 0.910430 0.000000
O O7 0.500000 0.500000 0.500000
O O8 0.000000 0.500000 0.500000
O O9 0.196855 0.264871 0.780288
O O10 0.000000 0.222624 0.500000
#
# Coordination Sequence:
#
# PCOD9184333 Si02
#       4
#     8   8   4   8
#     4  12  23  40  67  96 127 168 219 267 312 373
#     4  12  26  44  65  94 133 171 207 255 322 385
#     4  12  25  44  71  98 125 160 213 266 311 370
#     4  10  19  33  58  94 128 160 209 273 323 360
#
# _framework density 25.606909000000002
#
# number of rings (size 3 to 8) (size 9 to 14) (size 15 to 20)
#    0.000    0.571    0.000   12.429    0.000    0.000 
#    0.000    4.286    0.000   17.143    0.000    0.000 
#    0.000    0.000    0.000    0.000    0.000    0.000 
#
# Total GULP energy -78434.624215 kJ/mol
# GULP energy per Si atom -5602.473158 kJ/mol
# Density = 2.554863 g / cm^3
# Si number density = 25.606909 Si / 1000 Ang^3
#
#
#
# Elastic Constant Matrix: (Units=GPa)
#
#
# Indices 1 2 3 4 5 6 
#
# 1 185.2455 55.8335 47.0654 0.0000 60.5418 0.0000
# 2 55.8335 154.8967 45.3835 0.0000 47.9292 0.0000
# 3 47.0654 45.3835 121.7228 0.0000 50.7964 0.0000
# 4 0.0000 0.0000 0.0000 5.7230 0.0000 33.0230
# 5 60.5418 47.9292 50.7964 0.0000 58.2764 0.0000
# 6 0.0000 0.0000 0.0000 33.0230 0.0000 40.2427
#
#
#
# Elastic Compliance Matrix: (Units=1/GPa)
#
#
# Indices 1 2 3 4 5 6 
#
# 1 0.008225 -0.000450 0.000627 0.000000 -0.008721 0.000000
# 2 -0.000450 0.008697 -0.000438 0.000000 -0.006304 0.000000
# 3 0.000627 -0.000438 0.012979 0.000000 -0.011604 0.000000
# 4 0.000000 0.000000 0.000000 -0.046783 0.000000 0.038389
# 5 -0.008721 -0.006304 -0.011604 0.000000 0.041518 0.000000
# 6 0.000000 0.000000 0.000000 0.038389 0.000000 -0.006653
#
#
# Mechanical properties :
#
#
# Convention : Reuss Voigt Hill
#
# Bulk Modulus (GPa) = 34.03878 84.26999 59.15438
# Shear Modulus (GPa) = 176.69072 41.75392 109.22232
#
# Velocity S-wave (km/s) = 8.31571 4.04242 6.53805
# Velocity P-wave (km/s) = 10.27244 7.40059 8.95242
#
# Compressibility (1/GPa) = 0.02937825
#
# Stress axis : x y z
#
# Youngs Moduli (GPa) = 121.58502 114.98338 77.04885
#
# Poissons Ratio (x) = 0.05172 -0.04830
# Poissons Ratio (y) = 0.05469 0.03376
# Poissons Ratio (z) = -0.07622 0.05037
#
# Static dielectric constant tensor:
#      x y z
#    x 1.931500 0.000000 -0.066450 
#    y 0.000000 2.122370 0.000000 
#    z -0.066450 0.000000 2.047250 
# 
# From -- ./inp_files/34385.got.cif
#   From: 2010.05.17/outbox.cif.g08.bks.cpg/sg12_18_cif.got.tgz:34385.got - 2010.06.03 13:09:07.
