data_PCOD9184316
_publ_section_title
;
Structure prediction by ZEFSAII (Michael W. Deem and Ramdas Pophale) SiO2 
 PCOD9184316
Probable space group: C 2/M
;
_chemical_formula_sum "Si O2"
_cell_formula_units_Z 58
_cell_length_a 10.535355
_cell_length_b 18.359783
_cell_length_c 14.442508
_cell_angle_alpha 90.000000
_cell_angle_beta 65.427891
_cell_angle_gamma 90.000000
_cell_volume 2540.579202
_symmetry_space_group_name_H-M "C 2/M"
_symmetry_group_IT_number 12
_symmetry_cell_setting 'monoclinic'
loop_
_space_group_symop_operation_xyz
x,y,z
-x,y,-z
-x,-y,-z
x,-y,z
1/2+x,1/2+y,z
1/2-x,1/2+y,-z
1/2-x,1/2-y,-z
1/2+x,1/2-y,z
loop_
_atom_site_type_symbol
_atom_site_label
_atom_site_fract_x
_atom_site_fract_y
_atom_site_fract_z
Si Si1 0.883121 0.345917 0.114951
Si Si2 0.285324 0.371454 0.510196
Si Si3 0.500000 0.500000 0.500000
Si Si4 0.301220 0.665877 0.983938
Si Si5 0.101111 0.418152 0.176376
Si Si6 0.954765 0.262394 0.372305
Si Si7 0.171497 0.625915 0.352217
Si Si8 0.072019 0.799496 0.809653
O O1 0.848615 0.267751 0.167690
O O2 0.957832 0.393110 0.170707
O O3 0.756885 0.374061 0.091555
O O4 0.000000 0.334832 0.000000
O O5 0.376611 0.435006 0.528259
O O6 0.169284 0.322699 0.598735
O O7 0.390581 0.309025 0.439299
O O8 0.199163 0.402751 0.446624
O O9 0.226190 0.629552 0.094160
O O10 0.535517 0.668451 0.084929
O O11 0.250000 0.750000 0.000000
O O12 0.129086 0.500000 0.139439
O O13 0.097503 0.413896 0.288832
O O14 0.003922 0.238289 0.255190
O O15 0.083314 0.299322 0.386325
O O16 0.323480 0.643249 0.265332
#
# Coordination Sequence:
#
# PCOD9184316 Si02
#       8
#     8   8   2   8   8   8   8   8
#     4  10  19  33  58  89 129 169 226 286 345 397
#     4  10  26  43  77 102 148 183 229 296 371 435
#     4  12  28  52  70 112 152 184 216 304 392 444
#     4  11  20  37  62  96 132 179 236 292 347 419
#     4  11  24  40  63  93 140 189 233 295 356 426
#     4  10  21  45  74 110 132 185 247 300 343 434
#     4  11  23  42  69  98 138 180 248 291 347 424
#     4  11  20  35  66 102 131 174 232 308 345 399
#
# _framework density 22.829439000000001
#
# number of rings (size 3 to 8) (size 9 to 14) (size 15 to 20)
#    0.000    1.379    4.138    2.069    6.759    2.483 
#    1.241    2.069    1.517    0.000    0.000    0.000 
#    0.000    0.000    0.000    0.000    0.000    0.000 
#
# Total GULP energy -161599.140899 kJ/mol
# GULP energy per Si atom -5572.384169 kJ/mol
# Density = 2.277748 g / cm^3
# Si number density = 22.829439 Si / 1000 Ang^3
#
#
#
# Elastic Constant Matrix: (Units=GPa)
#
#
# Indices 1 2 3 4 5 6 
#
# 1 88.2242 20.9593 24.9949 0.0000 5.8826 0.0000
# 2 20.9593 107.2092 15.9668 0.0000 -4.4269 0.0000
# 3 24.9949 15.9668 85.3043 0.0000 8.6052 0.0000
# 4 0.0000 0.0000 0.0000 8.2840 0.0000 -3.1483
# 5 5.8826 -4.4269 8.6052 0.0000 39.2374 0.0000
# 6 0.0000 0.0000 0.0000 -3.1483 0.0000 24.4477
#
#
#
# Elastic Compliance Matrix: (Units=1/GPa)
#
#
# Indices 1 2 3 4 5 6 
#
# 1 0.012842 -0.002090 -0.003225 0.000000 -0.001454 0.000000
# 2 -0.002090 0.010024 -0.001441 0.000000 0.001760 0.000000
# 3 -0.003225 -0.001441 0.013197 0.000000 -0.002573 0.000000
# 4 0.000000 0.000000 0.000000 0.126926 0.000000 0.016345
# 5 -0.001454 0.001760 -0.002573 0.000000 0.026467 0.000000
# 6 0.000000 0.000000 0.000000 0.016345 0.000000 0.043008
#
#
# Mechanical properties :
#
#
# Convention : Reuss Voigt Hill
#
# Bulk Modulus (GPa) = 44.34672 44.95330 44.65001
# Shear Modulus (GPa) = 19.72437 28.98159 24.35298
#
# Velocity S-wave (km/s) = 2.94256 3.56685 3.26964
# Velocity P-wave (km/s) = 5.56887 6.05779 5.81847
#
# Compressibility (1/GPa) = 0.02254958
#
# Stress axis : x y z
#
# Youngs Moduli (GPa) = 77.86976 99.76501 75.77475
#
# Poissons Ratio (x) = 0.20854 0.24437
# Poissons Ratio (y) = 0.16277 0.10921
# Poissons Ratio (z) = 0.25112 0.14379
#
# Static dielectric constant tensor:
#      x y z
#    x 1.982250 0.000000 0.071800 
#    y 0.000000 1.686620 0.000000 
#    z 0.071800 0.000000 1.920190 
# 
# From -- ./inp_files/206152.got.cif
#   From: 2010.05.17/outbox.cif.g08.bks.cpg/sg12_104_cif.got.tgz:206152.got - 2010.06.03 13:09:07.
