data_PCOD9184988
_publ_section_title
;
Structure prediction by ZEFSAII (Michael W. Deem and Ramdas Pophale) SiO2 
 PCOD9184988
Probable space group: C 2/M
;
_chemical_formula_sum "Si O2"
_cell_formula_units_Z 56
_cell_length_a 9.566370
_cell_length_b 27.189875
_cell_length_c 18.832389
_cell_angle_alpha 90.000000
_cell_angle_beta 142.149695
_cell_angle_gamma 90.000000
_cell_volume 3005.699448
_symmetry_space_group_name_H-M "C 2/M"
_symmetry_group_IT_number 12
_symmetry_cell_setting 'monoclinic'
loop_
_space_group_symop_operation_xyz
x,y,z
-x,y,-z
-x,-y,-z
x,-y,z
1/2+x,1/2+y,z
1/2-x,1/2+y,-z
1/2-x,1/2-y,-z
1/2+x,1/2-y,z
loop_
_atom_site_type_symbol
_atom_site_label
_atom_site_fract_x
_atom_site_fract_y
_atom_site_fract_z
Si Si1 0.125122 0.440406 0.900613
Si Si2 0.827663 0.395249 0.227907
Si Si3 0.725522 0.301884 0.882755
Si Si4 0.120292 0.210559 0.125431
Si Si5 0.717643 0.442636 0.535426
Si Si6 0.907023 0.089439 0.150787
Si Si7 0.619753 0.444536 0.709849
O O1 0.133576 0.500000 0.906704
O O2 0.233285 0.420181 0.871931
O O3 0.863762 0.422094 0.789391
O O4 0.234180 0.419507 0.016359
O O5 0.771425 0.337467 0.200354
O O6 0.653840 0.415737 0.216240
O O7 0.078817 0.410141 0.352900
O O8 0.724077 0.259066 0.822945
O O9 0.576942 0.285578 0.892946
O O10 0.629416 0.356167 0.831222
O O11 0.000000 0.308631 0.000000
O O12 0.000000 0.203559 0.000000
O O13 0.500000 0.440241 0.500000
O O14 0.795114 0.500000 0.562749
O O15 0.610007 0.424552 0.417507
O O16 0.881062 0.054045 0.206188
O O17 0.629998 0.500000 0.684758
#
# Coordination Sequence:
#
# PCOD9184988 Si02
#       7
#     8   8   8   8   8   8   8
#     4  11  21  35  55  80 118 154 184 225 275 340
#     4  11  22  36  56  82 112 147 189 234 277 331
#     4  10  19  34  55  80 115 150 182 227 275 338
#     4  10  20  34  54  84 114 144 186 229 282 337
#     4  10  20  39  60  80 107 147 200 238 268 322
#     4  11  23  35  53  88 120 147 179 226 294 339
#     4  10  21  36  56  81 110 150 192 232 273 327
#
# _framework density 18.631271000000002
#
# number of rings (size 3 to 8) (size 9 to 14) (size 15 to 20)
#    0.000    1.571    1.429    6.000    0.000    5.714 
#    0.000    1.429    0.000    0.857    0.000    0.000 
#    0.000    0.000    0.000    0.000    0.000    0.000 
#
# Total GULP energy -156014.073670 kJ/mol
# GULP energy per Si atom -5571.931203 kJ/mol
# Density = 1.858887 g / cm^3
# Si number density = 18.631271 Si / 1000 Ang^3
#
#
#
# Elastic Constant Matrix: (Units=GPa)
#
#
# Indices 1 2 3 4 5 6 
#
# 1 109.1498 35.5850 35.1147 0.0001 1.4268 -0.0002
# 2 35.5850 92.6728 59.2407 0.0002 -19.3577 -0.0008
# 3 35.1147 59.2407 162.2393 0.0005 -36.0060 -0.0026
# 4 0.0001 0.0002 0.0005 11.7841 -0.0001 10.8889
# 5 1.4268 -19.3577 -36.0060 -0.0001 59.5965 0.0007
# 6 -0.0002 -0.0008 -0.0026 10.8889 0.0007 21.4180
#
#
#
# Elastic Compliance Matrix: (Units=1/GPa)
#
#
# Indices 1 2 3 4 5 6 
#
# 1 0.010894 -0.003700 -0.001538 0.000000 -0.002392 0.000000
# 2 -0.003700 0.015482 -0.004292 0.000000 0.002524 0.000000
# 3 -0.001538 -0.004292 0.008965 -0.000002 0.004059 0.000002
# 4 0.000000 0.000000 -0.000002 0.160046 0.000000 -0.081367
# 5 -0.002392 0.002524 0.004059 0.000000 0.020109 0.000000
# 6 0.000000 0.000000 0.000002 -0.081367 0.000000 0.088057
#
#
# Mechanical properties :
#
#
# Convention : Reuss Voigt Hill
#
# Bulk Modulus (GPa) = 61.41961 69.32698 65.37329
# Shear Modulus (GPa) = 15.24209 34.16781 24.70495
#
# Velocity S-wave (km/s) = 2.86333 4.28705 3.64537
# Velocity P-wave (km/s) = 6.63091 7.86103 7.27203
#
# Compressibility (1/GPa) = 0.01628145
#
# Stress axis : x y z
#
# Youngs Moduli (GPa) = 91.79496 64.58943 111.54943
#
# Poissons Ratio (x) = 0.23896 0.17153
# Poissons Ratio (y) = 0.33961 0.47881
# Poissons Ratio (z) = 0.14115 0.27724
#
# Static dielectric constant tensor:
#      x y z
#    x 1.663960 0.000000 -0.004260 
#    y 0.000000 1.681260 0.000000 
#    z -0.004260 0.000000 1.670610 
# 
# From -- ./inp_files/260148.got.cif
#   From: 2010.05.17/outbox.cif.g08.bks.cpg/sg12_131_cif.got.tgz:260148.got - 2010.06.03 13:09:07.
