data_PCOD9184921
_publ_section_title
;
Structure prediction by ZEFSAII (Michael W. Deem and Ramdas Pophale) SiO2 
 PCOD9184921
Probable space group: C 2/M
;
_chemical_formula_sum "Si O2"
_cell_formula_units_Z 40
_cell_length_a 14.017874
_cell_length_b 14.279490
_cell_length_c 16.986962
_cell_angle_alpha 90.000000
_cell_angle_beta 34.647895
_cell_angle_gamma 90.000000
_cell_volume 1933.148395
_symmetry_space_group_name_H-M "C 2/M"
_symmetry_group_IT_number 12
_symmetry_cell_setting 'monoclinic'
loop_
_space_group_symop_operation_xyz
x,y,z
-x,y,-z
-x,-y,-z
x,-y,z
1/2+x,1/2+y,z
1/2-x,1/2+y,-z
1/2-x,1/2-y,-z
1/2+x,1/2-y,z
loop_
_atom_site_type_symbol
_atom_site_label
_atom_site_fract_x
_atom_site_fract_y
_atom_site_fract_z
Si Si1 0.786317 0.892171 0.808138
Si Si2 0.392887 0.720112 0.994738
Si Si3 0.421137 0.105617 0.759039
Si Si4 0.084656 0.232747 0.559507
Si Si5 0.844954 0.324312 0.267405
O O1 0.700715 0.819366 0.926101
O O2 0.687332 0.876943 0.792651
O O3 0.974263 0.855144 0.663406
O O4 0.779569 0.000000 0.836546
O O5 0.249478 0.643198 0.085242
O O6 0.500000 0.698332 0.000000
O O7 0.526105 0.738946 0.835967
O O8 0.467916 0.177562 0.657044
O O9 0.567009 0.113802 0.725615
O O10 0.403962 0.000000 0.743346
O O11 0.250000 0.250000 0.500000
O O12 0.168148 0.213705 0.418773
#
# Coordination Sequence:
#
# PCOD9184921 Si02
#       5
#     8   8   8   8   8
#     4  10  20  34  55  82 108 134 168 214 268 318
#     4   9  20  36  54  77 109 141 172 214 260 310
#     4  10  20  35  54  76 105 142 179 214 255 307
#     4   9  20  35  50  73 106 139 171 210 254 306
#     4  10  19  34  55  79 107 135 170 218 269 310
#
# _framework density 20.691634000000001
#
# number of rings (size 3 to 8) (size 9 to 14) (size 15 to 20)
#    0.000    2.400    0.000    1.800    0.000    9.600 
#    0.000    1.000    0.000   15.600    0.000    0.000 
#    0.000    0.000    0.000    0.000    0.000    0.000 
#
# Total GULP energy -111633.899704 kJ/mol
# GULP energy per Si atom -5581.694985 kJ/mol
# Density = 2.064454 g / cm^3
# Si number density = 20.691634 Si / 1000 Ang^3
#
#
#
# Elastic Constant Matrix: (Units=GPa)
#
#
# Indices 1 2 3 4 5 6 
#
# 1 38.7209 4.2797 0.9700 -0.0004 -15.7160 0.0002
# 2 4.2797 98.2172 11.0953 -0.0013 -11.9128 0.0005
# 3 0.9700 11.0953 111.2457 -0.0025 -19.3331 0.0011
# 4 -0.0004 -0.0013 -0.0025 4.3496 0.0011 -3.3081
# 5 -15.7160 -11.9128 -19.3331 0.0011 32.4707 -0.0004
# 6 0.0002 0.0005 0.0011 -3.3081 -0.0004 16.2553
#
#
#
# Elastic Compliance Matrix: (Units=1/GPa)
#
#
# Indices 1 2 3 4 5 6 
#
# 1 0.032900 0.000404 0.002751 0.000000 0.017710 0.000000
# 2 0.000404 0.010679 -0.000395 0.000002 0.003878 0.000000
# 3 0.002751 -0.000395 0.010274 0.000005 0.007304 0.000000
# 4 0.000000 0.000002 0.000005 0.272006 -0.000005 0.055356
# 5 0.017710 0.003878 0.007304 -0.000005 0.045140 -0.000001
# 6 0.000000 0.000000 0.000000 0.055356 -0.000001 0.072784
#
#
# Mechanical properties :
#
#
# Convention : Reuss Voigt Hill
#
# Bulk Modulus (GPa) = 16.84283 31.20819 24.02551
# Shear Modulus (GPa) = 10.91573 26.07105 18.49339
#
# Velocity S-wave (km/s) = 2.29932 3.55347 2.99283
# Velocity P-wave (km/s) = 3.89959 5.65256 4.85583
#
# Compressibility (1/GPa) = 0.05937244
#
# Stress axis : x y z
#
# Youngs Moduli (GPa) = 30.39480 93.64252 97.33538
#
# Poissons Ratio (x) = -0.03780 -0.26773
# Poissons Ratio (y) = -0.01227 0.03841
# Poissons Ratio (z) = -0.08360 0.03695
#
# Static dielectric constant tensor:
#      x y z
#    x 1.812620 0.000000 0.020040 
#    y 0.000000 1.699060 0.000000 
#    z 0.020040 0.000000 1.789780 
# 
# From -- ./inp_files/59076.got.cif
#   From: 2010.05.17/outbox.cif.g08.bks.cpg/sg12_30_cif.got.tgz:59076.got - 2010.06.03 13:09:07.
