data_PCOD9184812
_publ_section_title
;
Structure prediction by ZEFSAII (Michael W. Deem and Ramdas Pophale) SiO2 
 PCOD9184812
Probable space group: C 2/M
;
_chemical_formula_sum "Si O2"
_cell_formula_units_Z 64
_cell_length_a 17.843369
_cell_length_b 13.051679
_cell_length_c 13.809074
_cell_angle_alpha 90.000000
_cell_angle_beta 65.932497
_cell_angle_gamma 90.000000
_cell_volume 2936.363327
_symmetry_space_group_name_H-M "C 2/M"
_symmetry_group_IT_number 12
_symmetry_cell_setting 'monoclinic'
loop_
_space_group_symop_operation_xyz
x,y,z
-x,y,-z
-x,-y,-z
x,-y,z
1/2+x,1/2+y,z
1/2-x,1/2+y,-z
1/2-x,1/2-y,-z
1/2+x,1/2-y,z
loop_
_atom_site_type_symbol
_atom_site_label
_atom_site_fract_x
_atom_site_fract_y
_atom_site_fract_z
Si Si1 0.536041 0.312231 0.581837
Si Si2 0.281491 0.383225 0.495339
Si Si3 0.929968 0.692950 0.103741
Si Si4 0.376365 0.119759 0.532899
Si Si5 0.676383 0.822513 0.225541
Si Si6 0.944806 0.798834 0.820289
Si Si7 0.238595 0.613596 0.743894
Si Si8 0.813193 0.823971 0.025060
O O1 0.500000 0.354073 0.500000
O O2 0.625177 0.351425 0.562904
O O3 0.553832 0.191570 0.550741
O O4 0.476501 0.338200 0.700940
O O5 0.279474 0.500000 0.462401
O O6 0.208307 0.337189 0.470274
O O7 0.257488 0.380533 0.620381
O O8 0.859446 0.625834 0.190133
O O9 0.876574 0.761648 0.058475
O O10 0.978347 0.764305 0.154800
O O11 0.000000 0.641160 0.000000
O O12 0.360549 0.133712 0.655959
O O13 0.390993 0.000000 0.503901
O O14 0.604824 0.803632 0.185529
O O15 0.714169 0.709548 0.232790
O O16 0.751734 0.879619 0.132243
O O17 0.877518 0.867362 0.912427
O O18 0.263148 0.500000 0.766582
O O19 0.750000 0.750000 0.000000
#
# Coordination Sequence:
#
# PCOD9184812 Si02
#       8
#     8   8   8   8   8   8   8   8
#     4  12  22  36  58  87 122 153 188 236 298 343
#     4  10  22  37  56  82 112 153 200 236 278 341
#     4   9  18  31  52  84 116 146 179 235 292 342
#     4  11  23  38  57  84 115 156 201 237 282 347
#     4  10  19  37  57  79 111 152 191 235 280 339
#     4  10  19  34  54  84 116 149 191 230 288 345
#     4  10  19  34  56  81 110 148 191 234 284 339
#     4   8  17  32  57  82 109 148 196 229 277 344
#
# _framework density 21.795667999999999
#
# number of rings (size 3 to 8) (size 9 to 14) (size 15 to 20)
#    0.000    2.000    2.500    1.125    3.500    0.750 
#    0.000    1.250    0.000   27.000    0.000    1.750 
#    0.000    0.000    0.000    0.000    0.000    0.000 
#
# Total GULP energy -178274.133166 kJ/mol
# GULP energy per Si atom -5571.066661 kJ/mol
# Density = 2.174606 g / cm^3
# Si number density = 21.795668 Si / 1000 Ang^3
#
#
#
# Elastic Constant Matrix: (Units=GPa)
#
#
# Indices 1 2 3 4 5 6 
#
# 1 120.5649 -0.0138 15.5609 0.0000 5.1093 0.0000
# 2 -0.0138 35.5982 -7.2755 0.0000 -2.3673 0.0000
# 3 15.5609 -7.2755 135.8555 0.0000 -23.7668 0.0000
# 4 0.0000 0.0000 0.0000 5.6733 0.0000 6.0429
# 5 5.1093 -2.3673 -23.7668 0.0000 43.2576 0.0000
# 6 0.0000 0.0000 0.0000 6.0429 0.0000 3.2405
#
#
#
# Elastic Compliance Matrix: (Units=1/GPa)
#
#
# Indices 1 2 3 4 5 6 
#
# 1 0.008536 -0.000379 -0.001303 0.000000 -0.001745 0.000000
# 2 -0.000379 0.028695 0.002061 0.000000 0.002747 0.000000
# 3 -0.001303 0.002061 0.008482 0.000000 0.004927 0.000000
# 4 0.000000 0.000000 0.000000 -0.178711 0.000000 0.333263
# 5 -0.001745 0.002747 0.004927 0.000000 0.026181 0.000000
# 6 0.000000 0.000000 0.000000 0.333263 0.000000 -0.312879
#
#
# Mechanical properties :
#
#
# Convention : Reuss Voigt Hill
#
# Bulk Modulus (GPa) = 21.51909 34.28466 27.90187
# Shear Modulus (GPa) = -12.34686 29.35075 8.50194
#
# Velocity S-wave (km/s) = -2.38267 3.67363 1.97717
# Velocity P-wave (km/s) = 1.52481 5.81019 4.24755
#
# Compressibility (1/GPa) = 0.04647037
#
# Stress axis : x y z
#
# Youngs Moduli (GPa) = 117.14515 34.84927 117.89146
#
# Poissons Ratio (x) = 0.01321 0.15366
# Poissons Ratio (y) = 0.04441 -0.24295
# Poissons Ratio (z) = 0.15268 -0.07182
#
# Static dielectric constant tensor:
#      x y z
#    x 1.802670 0.000000 -0.006660 
#    y 0.000000 1.828040 0.000000 
#    z -0.006660 0.000000 1.816940 
# 
# From -- ./inp_files/225263.got.cif
#   From: 2010.05.17/outbox.cif.g08.bks.cpg/sg12_113_cif.got.tgz:225263.got - 2010.06.03 13:09:07.
