data_PCOD9184931
_publ_section_title
;
Structure prediction by ZEFSAII (Michael W. Deem and Ramdas Pophale) SiO2 
 PCOD9184931
Probable space group: C 2/M
;
_chemical_formula_sum "Si O2"
_cell_formula_units_Z 48
_cell_length_a 27.664223
_cell_length_b 8.990032
_cell_length_c 12.002455
_cell_angle_alpha 90.000000
_cell_angle_beta 107.021018
_cell_angle_gamma 90.000000
_cell_volume 2854.285277
_symmetry_space_group_name_H-M "C 2/M"
_symmetry_group_IT_number 12
_symmetry_cell_setting 'monoclinic'
loop_
_space_group_symop_operation_xyz
x,y,z
-x,y,-z
-x,-y,-z
x,-y,z
1/2+x,1/2+y,z
1/2-x,1/2+y,-z
1/2-x,1/2-y,-z
1/2+x,1/2-y,z
loop_
_atom_site_type_symbol
_atom_site_label
_atom_site_fract_x
_atom_site_fract_y
_atom_site_fract_z
Si Si1 0.040554 0.669261 0.390769
Si Si2 0.927930 0.324450 0.228349
Si Si3 0.694922 0.678738 0.457124
Si Si4 0.882380 0.672947 0.761225
Si Si5 0.442633 0.678526 0.998716
Si Si6 0.383334 0.324569 0.401611
O O1 0.046134 0.500000 0.438838
O O2 0.071788 0.676788 0.297122
O O3 0.067200 0.781071 0.492900
O O4 0.982638 0.697453 0.323483
O O5 0.921176 0.500000 0.205509
O O6 0.887218 0.261530 0.287995
O O7 0.930605 0.240677 0.112863
O O8 0.697260 0.500000 0.450199
O O9 0.750000 0.750000 0.500000
O O10 0.663582 0.745358 0.332112
O O11 0.663076 0.715855 0.547927
O O12 0.870170 0.500000 0.774437
O O13 0.903085 0.753528 0.884422
O O14 0.440027 0.500000 0.996063
O O15 0.500000 0.721153 0.000000
O O16 0.382181 0.500000 0.380366
#
# Coordination Sequence:
#
# PCOD9184931 Si02
#       6
#     8   8   8   8   8   8
#     4   9  18  31  48  72 104 142 180 217 257 310
#     4  11  21  33  50  73 106 147 185 218 258 314
#     4  10  21  38  60  84 108 136 175 225 278 326
#     4  10  19  34  55  79 109 143 182 224 266 315
#     4  11  22  34  51  76 110 149 187 224 262 309
#     4  10  21  34  50  76 107 137 174 221 271 320
#
# _framework density 16.81682
#
# number of rings (size 3 to 8) (size 9 to 14) (size 15 to 20)
#    0.000    1.833    1.667    3.000    0.000    6.667 
#    0.000    0.000    0.000    1.000    0.000    0.000 
#    0.000    0.000    0.000    0.000    0.000    0.000 
#
# Total GULP energy -133987.142467 kJ/mol
# GULP energy per Si atom -5582.797603 kJ/mol
# Density = 1.677854 g / cm^3
# Si number density = 16.816820 Si / 1000 Ang^3
#
#
#
# Elastic Constant Matrix: (Units=GPa)
#
#
# Indices 1 2 3 4 5 6 
#
# 1 87.7491 61.2459 70.0689 0.0000 5.2765 0.0000
# 2 61.2459 87.9633 63.3794 0.0000 -4.8056 0.0000
# 3 70.0689 63.3794 99.2410 0.0000 -11.0828 0.0000
# 4 0.0000 0.0000 0.0000 35.6799 0.0000 -2.1676
# 5 5.2765 -4.8056 -11.0828 0.0000 25.1620 0.0000
# 6 0.0000 0.0000 0.0000 -2.1676 0.0000 16.4591
#
#
#
# Elastic Compliance Matrix: (Units=1/GPa)
#
#
# Indices 1 2 3 4 5 6 
#
# 1 0.038196 -0.012324 -0.021302 0.000000 -0.019746 0.000000
# 2 -0.012324 0.025131 -0.006861 0.000000 0.004362 0.000000
# 3 -0.021302 -0.006861 0.031395 0.000000 0.016985 0.000000
# 4 0.000000 0.000000 0.000000 0.028253 0.000000 0.003721
# 5 -0.019746 0.004362 0.016985 0.000000 0.052198 0.000000
# 6 0.000000 0.000000 0.000000 0.003721 0.000000 0.061247
#
#
# Mechanical properties :
#
#
# Convention : Reuss Voigt Hill
#
# Bulk Modulus (GPa) = 72.74359 73.81574 73.27966
# Shear Modulus (GPa) = 15.52903 20.81083 18.16993
#
# Velocity S-wave (km/s) = 3.04208 3.52163 3.29060
# Velocity P-wave (km/s) = 7.46253 7.77979 7.62281
#
# Compressibility (1/GPa) = 0.01374692
#
# Stress axis : x y z
#
# Youngs Moduli (GPa) = 26.18103 39.79096 31.85173
#
# Poissons Ratio (x) = 0.49040 0.67851
# Poissons Ratio (y) = 0.32267 0.21854
# Poissons Ratio (z) = 0.55771 0.27301
#
# Static dielectric constant tensor:
#      x y z
#    x 1.563270 0.000000 -0.020220 
#    y 0.000000 1.564320 0.000000 
#    z -0.020220 0.000000 1.548040 
# 
# From -- ./inp_files/172101.got.cif
#   From: 2010.05.17/outbox.cif.g08.bks.cpg/sg12_87_cif.got.tgz:172101.got - 2010.06.03 13:09:07.
