data_PCOD9184605
_publ_section_title
;
Structure prediction by ZEFSAII (Michael W. Deem and Ramdas Pophale) SiO2 
 PCOD9184605
Probable space group: C 2/M
;
_chemical_formula_sum "Si O2"
_cell_formula_units_Z 64
_cell_length_a 32.324978
_cell_length_b 15.383930
_cell_length_c 20.792117
_cell_angle_alpha 90.000000
_cell_angle_beta 18.593084
_cell_angle_gamma 90.000000
_cell_volume 3296.732614
_symmetry_space_group_name_H-M "C 2/M"
_symmetry_group_IT_number 12
_symmetry_cell_setting 'monoclinic'
loop_
_space_group_symop_operation_xyz
x,y,z
-x,y,-z
-x,-y,-z
x,-y,z
1/2+x,1/2+y,z
1/2-x,1/2+y,-z
1/2-x,1/2-y,-z
1/2+x,1/2-y,z
loop_
_atom_site_type_symbol
_atom_site_label
_atom_site_fract_x
_atom_site_fract_y
_atom_site_fract_z
Si Si1 0.076574 0.597178 0.182946
Si Si2 0.103804 0.398970 0.292302
Si Si3 0.568822 0.405994 0.809260
Si Si4 0.310256 0.158221 0.529688
Si Si5 0.155069 0.775564 0.876285
Si Si6 0.874213 0.154478 0.414354
Si Si7 0.845468 0.787011 0.972269
Si Si8 0.874726 0.597510 0.138547
O O1 0.133666 0.500000 0.087845
O O2 0.051015 0.604304 0.297319
O O3 0.940817 0.604804 0.345444
O O4 0.151425 0.685274 0.051995
O O5 0.138068 0.500000 0.255539
O O6 0.231097 0.339494 0.107218
O O7 0.000000 0.372490 0.500000
O O8 0.507639 0.500000 0.911608
O O9 0.694818 0.393264 0.666834
O O10 0.605488 0.398816 0.680321
O O11 0.468442 0.328674 0.967413
O O12 0.268585 0.194508 0.661275
O O13 0.334696 0.246752 0.453908
O O14 0.177433 0.795956 0.917427
O O15 0.125940 0.673901 0.912084
O O16 0.757835 0.112705 0.626112
O O17 0.011479 0.169941 0.248690
O O18 0.878237 0.500000 0.107188
O O19 0.000000 0.608535 0.000000
#
# Coordination Sequence:
#
# PCOD9184605 Si02
#       8
#     8   8   8   8   8   8   8   8
#     4  10  21  36  56  83 110 138 177 220 265 323
#     4  10  21  38  61  86 109 136 174 221 272 326
#     4  11  21  32  51  77 108 146 182 223 272 318
#     4  10  19  34  53  74 107 144 178 222 271 317
#     4  10  21  35  51  77 109 142 183 224 266 322
#     4   9  20  36  53  78 107 141 186 226 264 317
#     4  10  21  37  59  81 109 145 175 220 275 319
#     4  10  20  35  55  76 106 149 190 229 269 312
#
# _framework density 19.413160000000001
#
# number of rings (size 3 to 8) (size 9 to 14) (size 15 to 20)
#    0.000    2.000    0.000    4.125    0.000    6.500 
#    0.000    1.250    0.000    0.375    0.000    0.000 
#    0.000    0.000    0.000    0.000    0.000    0.000 
#
# Total GULP energy -178568.679881 kJ/mol
# GULP energy per Si atom -5580.271246 kJ/mol
# Density = 1.936898 g / cm^3
# Si number density = 19.413160 Si / 1000 Ang^3
#
#
#
# Elastic Constant Matrix: (Units=GPa)
#
#
# Indices 1 2 3 4 5 6 
#
# 1 45.2294 18.1322 4.7422 0.0000 -6.4192 0.0000
# 2 18.1322 106.9500 32.7774 0.0000 -8.3827 0.0004
# 3 4.7422 32.7774 66.5417 -0.0002 -5.0805 0.0003
# 4 0.0000 0.0000 -0.0002 24.3449 0.0001 -1.3803
# 5 -6.4192 -8.3827 -5.0805 0.0001 19.4530 0.0000
# 6 0.0000 0.0004 0.0003 -1.3803 0.0000 62.9446
#
#
#
# Elastic Compliance Matrix: (Units=1/GPa)
#
#
# Indices 1 2 3 4 5 6 
#
# 1 0.024518 -0.003837 0.000647 0.000000 0.006606 0.000000
# 2 -0.003837 0.011838 -0.005372 0.000000 0.002432 0.000000
# 3 0.000647 -0.005372 0.017823 0.000000 0.002554 0.000000
# 4 0.000000 0.000000 0.000000 0.041127 0.000000 0.000902
# 5 0.006606 0.002432 0.002554 0.000000 0.055301 0.000000
# 6 0.000000 0.000000 0.000000 0.000902 0.000000 0.015907
#
#
# Mechanical properties :
#
#
# Convention : Reuss Voigt Hill
#
# Bulk Modulus (GPa) = 26.98726 36.66941 31.82834
# Shear Modulus (GPa) = 25.51167 32.21978 28.86573
#
# Velocity S-wave (km/s) = 3.62904 4.07835 3.86024
# Velocity P-wave (km/s) = 5.61174 6.41149 6.02490
#
# Compressibility (1/GPa) = 0.03705451
#
# Stress axis : x y z
#
# Youngs Moduli (GPa) = 40.78710 84.47589 56.10687
#
# Poissons Ratio (x) = 0.32416 -0.03632
# Poissons Ratio (y) = 0.15651 0.30140
# Poissons Ratio (z) = -0.02640 0.45380
#
# Static dielectric constant tensor:
#      x y z
#    x 1.672970 0.000000 0.027640 
#    y 0.000000 1.690530 0.000000 
#    z 0.027640 0.000000 1.683960 
# 
# From -- ./inp_files/330347.got.cif
#   From: 2010.05.17/outbox.cif.g08.bks.cpg/sg12_166_cif.got.tgz:330347.got - 2010.06.03 13:09:07.
