data_PCOD9184178
_publ_section_title
;
Structure prediction by ZEFSAII (Michael W. Deem and Ramdas Pophale) SiO2 
 PCOD9184178
Probable space group: C 2/M
;
_chemical_formula_sum "Si O2"
_cell_formula_units_Z 64
_cell_length_a 25.096900
_cell_length_b 8.376468
_cell_length_c 20.696566
_cell_angle_alpha 90.000000
_cell_angle_beta 53.816504
_cell_angle_gamma 90.000000
_cell_volume 3511.745324
_symmetry_space_group_name_H-M "C 2/M"
_symmetry_group_IT_number 12
_symmetry_cell_setting 'monoclinic'
loop_
_space_group_symop_operation_xyz
x,y,z
-x,y,-z
-x,-y,-z
x,-y,z
1/2+x,1/2+y,z
1/2-x,1/2+y,-z
1/2-x,1/2-y,-z
1/2+x,1/2-y,z
loop_
_atom_site_type_symbol
_atom_site_label
_atom_site_fract_x
_atom_site_fract_y
_atom_site_fract_z
Si Si1 0.093786 0.306166 0.732489
Si Si2 0.173430 0.686816 0.287993
Si Si3 0.443145 0.807139 0.872474
Si Si4 0.425459 0.688810 0.534961
Si Si5 0.437379 0.188861 0.386045
Si Si6 0.427464 0.805276 0.028073
Si Si7 0.180201 0.693714 0.789211
Si Si8 0.920072 0.185895 0.752083
O O1 0.095323 0.500000 0.730229
O O2 0.097122 0.253689 0.655610
O O3 0.149320 0.252725 0.742765
O O4 0.020945 0.263825 0.811171
O O5 0.172611 0.500000 0.274755
O O6 0.126916 0.723800 0.382560
O O7 0.247112 0.743428 0.249998
O O8 0.140819 0.776107 0.250553
O O9 0.408711 0.733327 0.834537
O O10 0.439141 0.000000 0.870839
O O11 0.417433 0.756458 0.960971
O O12 0.500000 0.739981 0.500000
O O13 0.420471 0.500000 0.551457
O O14 0.415937 0.723682 0.466285
O O15 0.515548 0.217750 0.318419
O O16 0.426230 0.000000 0.401657
O O17 0.370713 0.755355 0.118142
O O18 0.428430 0.000000 0.028014
O O19 0.500000 0.753774 0.000000
O O20 0.181844 0.500000 0.787760
O O21 0.936949 0.000000 0.735409
#
# Coordination Sequence:
#
# PCOD9184178 Si02
#       8
#     8   8   8   8   8   8   8   8
#     4   8  15  29  53  83 114 146 181 222 270 325
#     4  12  25  40  57  79 111 150 189 231 280 336
#     4   9  16  30  54  86 115 143 184 232 277 326
#     4  11  22  37  59  86 113 142 184 233 278 330
#     4  10  19  33  57  88 115 143 181 228 276 326
#     4   9  15  28  57  90 115 144 189 233 274 328
#     4  10  19  35  58  84 116 151 186 228 277 333
#     4  11  21  35  54  80 111 147 187 229 281 333
#
# _framework density 18.224556
#
# number of rings (size 3 to 8) (size 9 to 14) (size 15 to 20)
#    0.000    2.000    2.500    3.750    0.000    0.500 
#    0.000    5.000    0.000    0.750    0.000    0.000 
#    0.000    0.000    0.000    0.000    0.000    0.000 
#
# Total GULP energy -178612.107697 kJ/mol
# GULP energy per Si atom -5581.628366 kJ/mol
# Density = 1.818308 g / cm^3
# Si number density = 18.224556 Si / 1000 Ang^3
#
#
#
# Elastic Constant Matrix: (Units=GPa)
#
#
# Indices 1 2 3 4 5 6 
#
# 1 123.6905 -0.9847 60.3294 0.0070 16.2624 -0.0010
# 2 -0.9847 18.2075 4.5926 0.0195 -0.0232 -0.0132
# 3 60.3294 4.5926 91.5652 -0.0006 11.4352 -0.0028
# 4 0.0070 0.0195 -0.0006 6.6338 -0.0089 -2.0405
# 5 16.2624 -0.0232 11.4352 -0.0089 32.0336 0.0052
# 6 -0.0010 -0.0132 -0.0028 -2.0405 0.0052 14.6634
#
#
#
# Elastic Compliance Matrix: (Units=1/GPa)
#
#
# Indices 1 2 3 4 5 6 
#
# 1 0.012402 0.002651 -0.007869 -0.000026 -0.003485 -0.000001
# 2 0.002651 0.056229 -0.004610 -0.000160 0.000340 0.000028
# 3 -0.007869 -0.004610 0.016578 0.000021 -0.001926 0.000002
# 4 -0.000026 -0.000160 0.000021 0.157485 0.000046 0.021915
# 5 -0.003485 0.000340 -0.001926 0.000046 0.033674 -0.000006
# 6 -0.000001 0.000028 0.000002 0.021915 -0.000006 0.071247
#
#
# Mechanical properties :
#
#
# Convention : Reuss Voigt Hill
#
# Bulk Modulus (GPa) = 15.25463 40.14866 27.70165
# Shear Modulus (GPa) = 12.84948 21.96790 17.40869
#
# Velocity S-wave (km/s) = 2.65818 3.47565 3.09404
# Velocity P-wave (km/s) = 4.22017 6.17938 5.29124
#
# Compressibility (1/GPa) = 0.06555386
#
# Stress axis : x y z
#
# Youngs Moduli (GPa) = 80.63136 17.78442 60.32227
#
# Poissons Ratio (x) = -0.04715 0.47468
# Poissons Ratio (y) = -0.21377 0.27806
# Poissons Ratio (z) = 0.63450 0.08198
#
# Static dielectric constant tensor:
#      x y z
#    x 1.621510 0.000000 0.026280 
#    y 0.000000 1.618980 0.000000 
#    z 0.026280 0.000000 1.609990 
# 
# From -- ./inp_files/324137.got.cif
#   From: 2010.05.17/outbox.cif.g08.bks.cpg/sg12_163_cif.got.tgz:324137.got - 2010.06.03 13:09:07.
