data_PCOD9184784
_publ_section_title
;
Structure prediction by ZEFSAII (Michael W. Deem and Ramdas Pophale) SiO2 
 PCOD9184784
Probable space group: C 2/M
;
_chemical_formula_sum "Si O2"
_cell_formula_units_Z 56
_cell_length_a 23.802302
_cell_length_b 13.182253
_cell_length_c 25.884341
_cell_angle_alpha 90.000000
_cell_angle_beta 161.676758
_cell_angle_gamma 90.000000
_cell_volume 2553.273047
_symmetry_space_group_name_H-M "C 2/M"
_symmetry_group_IT_number 12
_symmetry_cell_setting 'monoclinic'
loop_
_space_group_symop_operation_xyz
x,y,z
-x,y,-z
-x,-y,-z
x,-y,z
1/2+x,1/2+y,z
1/2-x,1/2+y,-z
1/2-x,1/2-y,-z
1/2+x,1/2-y,z
loop_
_atom_site_type_symbol
_atom_site_label
_atom_site_fract_x
_atom_site_fract_y
_atom_site_fract_z
Si Si1 0.822891 0.700787 0.319208
Si Si2 0.009456 0.883683 0.598473
Si Si3 0.484059 0.693563 0.750439
Si Si4 0.626156 0.208878 0.242449
Si Si5 0.287712 0.887292 0.180776
Si Si6 0.758730 0.671822 0.910403
Si Si7 0.382294 0.891378 0.596872
O O1 0.888033 0.807034 0.350278
O O2 0.685357 0.728909 0.243723
O O3 0.755747 0.634113 0.213020
O O4 0.000000 0.654627 0.500000
O O5 0.114373 0.873838 0.744456
O O6 0.804713 0.844668 0.420627
O O7 0.014154 0.000000 0.585551
O O8 0.453342 0.718446 0.782837
O O9 0.673892 0.660777 0.893233
O O10 0.442419 0.798840 0.684433
O O11 0.326096 0.618875 0.595880
O O12 0.461847 0.134240 0.085441
O O13 0.224880 0.789654 0.093926
O O14 0.501279 0.885363 0.354119
O O15 0.223116 0.000000 0.109605
O O16 0.423016 0.000000 0.656832
#
# Coordination Sequence:
#
# PCOD9184784 Si02
#       7
#     8   8   8   8   8   8   8
#     4   9  19  36  57  84 116 148 188 236 281 335
#     4  10  22  40  61  86 115 148 189 236 284 336
#     4  10  19  34  54  80 115 150 186 231 280 332
#     4  11  22  37  58  83 116 152 187 230 283 337
#     4   9  18  35  58  83 113 149 189 235 284 333
#     4  10  22  39  59  84 115 150 191 236 280 333
#     4   9  17  32  57  84 110 146 189 232 281 333
#
# _framework density 21.932632999999999
#
# number of rings (size 3 to 8) (size 9 to 14) (size 15 to 20)
#    0.000    2.286    0.000    4.714    0.000    8.000 
#    0.000    3.571    0.000    6.857    0.000    0.000 
#    0.000    0.000    0.000    0.000    0.000    0.000 
#
# Total GULP energy -156259.272808 kJ/mol
# GULP energy per Si atom -5580.688315 kJ/mol
# Density = 2.188271 g / cm^3
# Si number density = 21.932633 Si / 1000 Ang^3
#
#
#
# Elastic Constant Matrix: (Units=GPa)
#
#
# Indices 1 2 3 4 5 6 
#
# 1 127.4465 -3.0719 36.4262 -0.0065 14.6582 -0.0039
# 2 -3.0719 74.1869 1.6907 -0.0667 -4.9693 0.0062
# 3 36.4262 1.6907 109.2240 -0.0633 19.7272 0.0004
# 4 -0.0065 -0.0667 -0.0633 -2.0233 0.0017 5.5632
# 5 14.6582 -4.9693 19.7272 0.0017 22.4523 0.0057
# 6 -0.0039 0.0062 0.0004 5.5632 0.0057 5.2129
#
#
#
# Elastic Compliance Matrix: (Units=1/GPa)
#
#
# Indices 1 2 3 4 5 6 
#
# 1 0.008943 0.000170 -0.002303 0.000016 -0.003778 -0.000007
# 2 0.000170 0.013761 -0.000951 -0.000121 0.003770 0.000109
# 3 -0.002303 -0.000951 0.011535 -0.000078 -0.008842 0.000091
# 4 0.000016 -0.000121 -0.000078 -0.125621 0.000006 0.134063
# 5 -0.003778 0.003770 -0.008842 0.000006 0.055609 -0.000074
# 6 -0.000007 0.000109 0.000091 0.134063 -0.000074 0.048760
#
#
# Mechanical properties :
#
#
# Convention : Reuss Voigt Hill
#
# Bulk Modulus (GPa) = 35.62327 42.32749 38.97538
# Shear Modulus (GPa) = 175.36865 23.51586 99.44226
#
# Velocity S-wave (km/s) = 8.95162 3.27798 6.74079
# Velocity P-wave (km/s) = 11.09591 5.80238 8.85401
#
# Compressibility (1/GPa) = 0.02807154
#
# Stress axis : x y z
#
# Youngs Moduli (GPa) = 111.81670 72.67140 86.69149
#
# Poissons Ratio (x) = -0.01234 0.19964
# Poissons Ratio (y) = -0.01898 0.08241
# Poissons Ratio (z) = 0.25750 0.06908
#
# Static dielectric constant tensor:
#      x y z
#    x 1.816040 0.000000 -0.006490 
#    y 0.000000 1.787090 -0.000010 
#    z -0.006490 -0.000010 1.873880 
# 
# From -- ./inp_files/368091.got.cif
#   From: 2010.05.17/outbox.cif.g08.bks.cpg/sg12_185_cif.got.tgz:368091.got - 2010.06.03 13:09:07.
