data_PCOD9184210
_publ_section_title
;
Structure prediction by ZEFSAII (Michael W. Deem and Ramdas Pophale) SiO2 
 PCOD9184210
Probable space group: C 2/M
;
_chemical_formula_sum "Si O2"
_cell_formula_units_Z 60
_cell_length_a 8.793698
_cell_length_b 17.273143
_cell_length_c 20.804016
_cell_angle_alpha 90.000000
_cell_angle_beta 63.882649
_cell_angle_gamma 90.000000
_cell_volume 2837.365685
_symmetry_space_group_name_H-M "C 2/M"
_symmetry_group_IT_number 12
_symmetry_cell_setting 'monoclinic'
loop_
_space_group_symop_operation_xyz
x,y,z
-x,y,-z
-x,-y,-z
x,-y,z
1/2+x,1/2+y,z
1/2-x,1/2+y,-z
1/2-x,1/2-y,-z
1/2+x,1/2-y,z
loop_
_atom_site_type_symbol
_atom_site_label
_atom_site_fract_x
_atom_site_fract_y
_atom_site_fract_z
Si Si1 0.500000 0.655872 0.500000
Si Si2 0.472175 0.699878 0.929645
Si Si3 0.631428 0.142923 0.922622
Si Si4 0.113539 0.120161 0.227814
Si Si5 0.200703 0.264941 0.376152
Si Si6 0.409362 0.413522 0.382012
Si Si7 0.033594 0.710779 0.280035
Si Si8 0.698614 0.411509 0.805257
O O1 0.643300 0.713456 0.446060
O O2 0.553653 0.605076 0.550812
O O3 0.526031 0.788599 0.907273
O O4 0.287436 0.679225 0.935723
O O5 0.603612 0.639940 0.875187
O O6 0.500000 0.691694 0.000000
O O7 0.729741 0.097158 0.847347
O O8 0.500000 0.107589 0.000000
O O9 0.109815 0.214104 0.229979
O O10 0.080518 0.092998 0.306732
O O11 0.938812 0.092240 0.226774
O O12 0.284652 0.345873 0.380643
O O13 0.050120 0.279146 0.354137
O O14 0.335211 0.218656 0.306944
O O15 0.340540 0.500000 0.387192
O O16 0.130699 0.633739 0.243746
O O17 0.727043 0.500000 0.818177
#
# Coordination Sequence:
#
# PCOD9184210 Si02
#       8
#     4   8   8   8   8   8   8   8
#     4  12  23  44  65  94 128 166 210 252 307 372
#     4  10  20  34  55  88 120 161 200 256 313 367
#     4  10  19  33  57  91 122 156 209 262 300 355
#     4  10  20  37  62  90 121 163 207 250 307 366
#     4  11  23  40  69  91 123 164 207 254 304 370
#     4  11  23  40  64  92 126 165 204 252 314 371
#     4  11  20  39  63  94 118 161 207 259 300 365
#     4  11  22  38  63  91 124 161 205 259 313 370
#
# _framework density 21.146377000000001
#
# number of rings (size 3 to 8) (size 9 to 14) (size 15 to 20)
#    0.000    1.333    6.667    2.600    0.000    0.267 
#    2.400    1.667    0.000   10.000    0.000    0.000 
#    0.000    0.533    0.000    0.000    0.000    0.000 
#
# Total GULP energy -167352.619655 kJ/mol
# GULP energy per Si atom -5578.420655 kJ/mol
# Density = 2.109825 g / cm^3
# Si number density = 21.146377 Si / 1000 Ang^3
#
#
#
# Elastic Constant Matrix: (Units=GPa)
#
#
# Indices 1 2 3 4 5 6 
#
# 1 47.4273 5.2826 -3.0636 0.0000 -8.3676 0.0000
# 2 5.2826 107.7383 15.6316 0.0000 -13.7123 0.0000
# 3 -3.0636 15.6316 91.7015 0.0000 -19.0566 0.0000
# 4 0.0000 0.0000 0.0000 5.7408 0.0000 -4.7749
# 5 -8.3676 -13.7123 -19.0566 0.0000 30.5486 0.0000
# 6 0.0000 0.0000 0.0000 -4.7749 0.0000 7.2411
#
#
#
# Elastic Compliance Matrix: (Units=1/GPa)
#
#
# Indices 1 2 3 4 5 6 
#
# 1 0.022612 -0.000506 0.002392 0.000000 0.007458 0.000000
# 2 -0.000506 0.009917 -0.000932 0.000000 0.003731 0.000000
# 3 0.002392 -0.000932 0.012860 0.000000 0.008259 0.000000
# 4 0.000000 0.000000 0.000000 0.385780 0.000000 0.254389
# 5 0.007458 0.003731 0.008259 0.000000 0.041604 0.000000
# 6 0.000000 0.000000 0.000000 0.254389 0.000000 0.305849
#
#
# Mechanical properties :
#
#
# Convention : Reuss Voigt Hill
#
# Bulk Modulus (GPa) = 21.14400 31.39650 26.27025
# Shear Modulus (GPa) = 6.30931 23.97384 15.14157
#
# Velocity S-wave (km/s) = 1.72919 3.37071 2.67879
# Velocity P-wave (km/s) = 3.74265 5.47982 4.69232
#
# Compressibility (1/GPa) = 0.04729475
#
# Stress axis : x y z
#
# Youngs Moduli (GPa) = 44.22503 100.84015 77.76041
#
# Poissons Ratio (x) = 0.05107 -0.18597
# Poissons Ratio (y) = 0.02240 0.07247
# Poissons Ratio (z) = -0.10577 0.09398
#
# Static dielectric constant tensor:
#      x y z
#    x 1.783640 0.000000 0.017570 
#    y 0.000000 1.754980 0.000000 
#    z 0.017570 0.000000 1.826350 
# 
# From -- ./inp_files/333343.got.cif
#   From: 2010.05.17/outbox.cif.g08.bks.cpg/sg12_167_cif.got.tgz:333343.got - 2010.06.03 13:09:07.
