data_PCOD9184256
_publ_section_title
;
Structure prediction by ZEFSAII (Michael W. Deem and Ramdas Pophale) SiO2 
 PCOD9184256
Probable space group: C 2/M
;
_chemical_formula_sum "Si O2"
_cell_formula_units_Z 64
_cell_length_a 14.641633
_cell_length_b 13.868547
_cell_length_c 25.834042
_cell_angle_alpha 90.000000
_cell_angle_beta 148.771728
_cell_angle_gamma 90.000000
_cell_volume 2719.686816
_symmetry_space_group_name_H-M "C 2/M"
_symmetry_group_IT_number 12
_symmetry_cell_setting 'monoclinic'
loop_
_space_group_symop_operation_xyz
x,y,z
-x,y,-z
-x,-y,-z
x,-y,z
1/2+x,1/2+y,z
1/2-x,1/2+y,-z
1/2-x,1/2-y,-z
1/2+x,1/2-y,z
loop_
_atom_site_type_symbol
_atom_site_label
_atom_site_fract_x
_atom_site_fract_y
_atom_site_fract_z
Si Si1 0.318593 0.155847 0.892556
Si Si2 0.378547 0.214948 0.130405
Si Si3 0.468232 0.888336 0.697182
Si Si4 0.558848 0.388494 0.474690
Si Si5 0.990428 0.812238 0.081831
Si Si6 0.008325 0.112715 0.336359
Si Si7 0.791042 0.614438 0.390730
Si Si8 0.702823 0.107745 0.719498
O O1 0.198238 0.185028 0.883099
O O2 0.395501 0.253471 0.904337
O O3 0.179926 0.114744 0.783941
O O4 0.500000 0.106094 0.000000
O O5 0.493416 0.165575 0.230524
O O6 0.462257 0.237463 0.115780
O O7 0.197947 0.157299 0.031151
O O8 0.268133 0.890021 0.581884
O O9 0.576757 0.845806 0.701278
O O10 0.524912 0.000000 0.731899
O O11 0.500000 0.340430 0.500000
O O12 0.489422 0.500000 0.442160
O O13 0.505752 0.346427 0.393435
O O14 0.109325 0.895475 0.162083
O O15 0.162511 0.154217 0.373363
O O16 0.057065 0.000000 0.367968
O O17 0.743967 0.500000 0.365325
O O18 0.765639 0.655421 0.320805
O O19 0.000000 0.620182 0.500000
O O20 0.629170 0.000000 0.674097
#
# Coordination Sequence:
#
# PCOD9184256 Si02
#       8
#     8   8   8   8   8   8   8   8
#     4  10  21  38  57  80 113 153 194 235 287 346
#     4  10  21  38  57  79 112 154 189 230 285 351
#     4  10  20  35  59  88 114 145 191 241 285 338
#     4   9  19  35  55  80 115 153 190 233 286 342
#     4  10  21  37  57  79 111 154 190 226 292 348
#     4  10  20  35  58  85 113 151 196 240 285 338
#     4   9  17  31  55  83 111 142 179 226 289 349
#     4  10  19  33  58  87 112 140 184 241 288 337
#
# _framework density 23.532122000000001
#
# number of rings (size 3 to 8) (size 9 to 14) (size 15 to 20)
#    0.000    2.250    1.250    1.500    1.750    3.750 
#    0.000    1.875    2.750    4.500    0.000    0.000 
#    0.000    0.000    0.000    0.000    0.000    0.000 
#
# Total GULP energy -178557.301631 kJ/mol
# GULP energy per Si atom -5579.915676 kJ/mol
# Density = 2.347856 g / cm^3
# Si number density = 23.532122 Si / 1000 Ang^3
#
#
#
# Elastic Constant Matrix: (Units=GPa)
#
#
# Indices 1 2 3 4 5 6 
#
# 1 149.6054 9.1280 51.4324 0.0000 -29.4598 0.0000
# 2 9.1280 44.4887 2.6285 -0.0001 -9.8312 0.0000
# 3 51.4324 2.6285 129.5007 -0.0006 -25.1263 0.0000
# 4 0.0000 -0.0001 -0.0006 28.3604 -0.0001 -4.1271
# 5 -29.4598 -9.8312 -25.1263 -0.0001 40.0994 0.0000
# 6 0.0000 0.0000 0.0000 -4.1271 0.0000 5.8852
#
#
#
# Elastic Compliance Matrix: (Units=1/GPa)
#
#
# Indices 1 2 3 4 5 6 
#
# 1 0.008460 -0.000590 -0.002471 0.000000 0.004523 0.000000
# 2 -0.000590 0.023868 0.000912 0.000000 0.005990 0.000000
# 3 -0.002471 0.000912 0.009535 0.000000 0.004383 0.000000
# 4 0.000000 0.000000 0.000000 0.039268 0.000000 0.027537
# 5 0.004523 0.005990 0.004383 0.000000 0.032476 0.000000
# 6 0.000000 0.000000 0.000000 0.027537 0.000000 0.189230
#
#
# Mechanical properties :
#
#
# Convention : Reuss Voigt Hill
#
# Bulk Modulus (GPa) = 26.61970 49.99693 38.30831
# Shear Modulus (GPa) = 15.64178 32.22937 23.93558
#
# Velocity S-wave (km/s) = 2.58097 3.70481 3.19273
# Velocity P-wave (km/s) = 4.49650 6.29231 5.46863
#
# Compressibility (1/GPa) = 0.03756617
#
# Stress axis : x y z
#
# Youngs Moduli (GPa) = 118.20042 41.89626 104.87535
#
# Poissons Ratio (x) = 0.02474 0.25910
# Poissons Ratio (y) = 0.06979 -0.09566
# Poissons Ratio (z) = 0.29202 -0.03822
#
# Static dielectric constant tensor:
#      x y z
#    x 1.908420 0.000000 -0.001290 
#    y 0.000000 1.915580 0.000000 
#    z -0.001290 0.000000 1.909680 
# 
# From -- ./inp_files/340844.got.cif
#   From: 2010.05.17/outbox.cif.g08.bks.cpg/sg12_171_cif.got.tgz:340844.got - 2010.06.03 13:09:07.
