data_PCOD9184549
_publ_section_title
;
Structure prediction by ZEFSAII (Michael W. Deem and Ramdas Pophale) SiO2 
 PCOD9184549
Probable space group: C 2/M
;
_chemical_formula_sum "Si O2"
_cell_formula_units_Z 48
_cell_length_a 32.086776
_cell_length_b 8.773643
_cell_length_c 9.918649
_cell_angle_alpha 90.000000
_cell_angle_beta 102.339534
_cell_angle_gamma 90.000000
_cell_volume 2727.771200
_symmetry_space_group_name_H-M "C 2/M"
_symmetry_group_IT_number 12
_symmetry_cell_setting 'monoclinic'
loop_
_space_group_symop_operation_xyz
x,y,z
-x,y,-z
-x,-y,-z
x,-y,z
1/2+x,1/2+y,z
1/2-x,1/2+y,-z
1/2-x,1/2-y,-z
1/2+x,1/2-y,z
loop_
_atom_site_type_symbol
_atom_site_label
_atom_site_fract_x
_atom_site_fract_y
_atom_site_fract_z
Si Si1 0.610968 0.183352 0.877380
Si Si2 0.796532 0.183019 0.556470
Si Si3 0.140864 0.683405 0.188374
Si Si4 0.486892 0.816133 0.144105
Si Si5 0.630361 0.317386 0.605463
Si Si6 0.567999 0.317103 0.329088
O O1 0.561561 0.231442 0.860609
O O2 0.629266 0.245498 0.751202
O O3 0.611182 0.000000 0.873639
O O4 0.636405 0.229606 0.029425
O O5 0.750000 0.250000 0.500000
O O6 0.818672 0.248366 0.706136
O O7 0.828672 0.225653 0.456517
O O8 0.795168 0.000000 0.562970
O O9 0.141410 0.500000 0.197022
O O10 0.099208 0.744250 0.238588
O O11 0.520823 0.742654 0.268656
O O12 0.489558 0.000000 0.155642
O O13 0.500000 0.774538 0.000000
O O14 0.630425 0.500000 0.618112
O O15 0.588886 0.274395 0.487218
O O16 0.569723 0.500000 0.318499
#
# Coordination Sequence:
#
# PCOD9184549 Si02
#       6
#     8   8   8   8   8   8
#     4  10  21  35  54  80 109 145 186 224 272 323
#     4  10  21  39  62  88 110 138 178 219 267 327
#     4  10  19  35  57  81 110 144 180 225 271 319
#     4  10  19  34  52  75 109 145 188 235 270 312
#     4   9  21  38  54  77 113 143 174 223 274 322
#     4  10  20  34  52  78 107 145 191 229 270 322
#
# _framework density 17.596785000000001
#
# number of rings (size 3 to 8) (size 9 to 14) (size 15 to 20)
#    0.000    2.167    1.667    2.500    0.000    7.000 
#    0.000    4.167    0.000    0.000    0.000    0.000 
#    0.000    0.000    0.000    0.000    0.000    0.000 
#
# Total GULP energy -133954.551766 kJ/mol
# GULP energy per Si atom -5581.439657 kJ/mol
# Density = 1.755673 g / cm^3
# Si number density = 17.596785 Si / 1000 Ang^3
#
#
#
# Elastic Constant Matrix: (Units=GPa)
#
#
# Indices 1 2 3 4 5 6 
#
# 1 122.2031 38.7031 81.2138 0.0000 27.7991 0.0000
# 2 38.7031 39.0132 45.9754 0.0000 7.5932 0.0000
# 3 81.2138 45.9754 173.0855 0.0000 13.6303 0.0000
# 4 0.0000 0.0000 0.0000 46.6032 0.0000 22.5087
# 5 27.7991 7.5932 13.6303 0.0000 22.9477 0.0000
# 6 0.0000 0.0000 0.0000 22.5087 0.0000 56.2015
#
#
#
# Elastic Compliance Matrix: (Units=1/GPa)
#
#
# Indices 1 2 3 4 5 6 
#
# 1 0.017722 -0.008999 -0.004688 0.000000 -0.015706 0.000000
# 2 -0.008999 0.042914 -0.007256 0.000000 0.001012 0.000000
# 3 -0.004688 -0.007256 0.009723 0.000000 0.002305 0.000000
# 4 0.000000 0.000000 0.000000 0.026604 0.000000 -0.010655
# 5 -0.015706 0.001012 0.002305 0.000000 0.060900 0.000000
# 6 0.000000 0.000000 0.000000 -0.010655 0.000000 0.022060
#
#
# Mechanical properties :
#
#
# Convention : Reuss Voigt Hill
#
# Bulk Modulus (GPa) = 35.12213 74.00962 54.56587
# Shear Modulus (GPa) = 21.61693 36.37777 28.99735
#
# Velocity S-wave (km/s) = 3.50874 4.55169 4.06381
# Velocity P-wave (km/s) = 6.03471 8.35307 7.28668
#
# Compressibility (1/GPa) = 0.02847208
#
# Stress axis : x y z
#
# Youngs Moduli (GPa) = 56.42829 23.30232 102.84888
#
# Poissons Ratio (x) = 0.20971 0.48215
# Poissons Ratio (y) = 0.50782 0.74628
# Poissons Ratio (z) = 0.26453 0.16908
#
# Static dielectric constant tensor:
#      x y z
#    x 1.581700 0.000000 0.010120 
#    y 0.000000 1.593700 0.000000 
#    z 0.010120 0.000000 1.592650 
# 
# From -- ./inp_files/108553.got.cif
#   From: 2010.05.17/outbox.cif.g08.bks.cpg/sg12_55_cif.got.tgz:108553.got - 2010.06.03 13:09:07.
