data_PCOD9184487
_publ_section_title
;
Structure prediction by ZEFSAII (Michael W. Deem and Ramdas Pophale) SiO2 
 PCOD9184487
Probable space group: C 2/M
;
_chemical_formula_sum "Si O2"
_cell_formula_units_Z 48
_cell_length_a 13.197434
_cell_length_b 32.472934
_cell_length_c 5.291017
_cell_angle_alpha 90.000000
_cell_angle_beta 111.646546
_cell_angle_gamma 90.000000
_cell_volume 2107.603398
_symmetry_space_group_name_H-M "C 2/M"
_symmetry_group_IT_number 12
_symmetry_cell_setting 'monoclinic'
loop_
_space_group_symop_operation_xyz
x,y,z
-x,y,-z
-x,-y,-z
x,-y,z
1/2+x,1/2+y,z
1/2-x,1/2+y,-z
1/2-x,1/2-y,-z
1/2+x,1/2-y,z
loop_
_atom_site_type_symbol
_atom_site_label
_atom_site_fract_x
_atom_site_fract_y
_atom_site_fract_z
Si Si1 0.382991 0.132343 0.122071
Si Si2 0.618657 0.955825 0.822030
Si Si3 0.767536 0.955622 0.458276
Si Si4 0.694854 0.281977 0.637631
Si Si5 0.735458 0.632489 0.485889
Si Si6 0.916604 0.279626 0.130780
O O1 0.293218 0.134427 0.265525
O O2 0.440800 0.087919 0.205236
O O3 0.326362 0.131462 0.793454
O O4 0.453838 0.173584 0.218737
O O5 0.706491 0.955408 0.131613
O O6 0.559538 0.000000 0.791622
O O7 0.680533 0.955527 0.609702
O O8 0.825638 0.911388 0.543384
O O9 0.826550 0.000000 0.531381
O O10 0.750000 0.250000 0.500000
O O11 0.670329 0.325379 0.482615
O O12 0.793194 0.288785 0.925726
O O13 0.601992 0.255587 0.683353
O O14 0.000000 0.263521 0.000000
#
# Coordination Sequence:
#
# PCOD9184487 Si02
#       6
#     8   8   8   8   8   8
#     4   9  16  28  43  64  90 123 160 200 238 282
#     4   8  13  21  36  57  83 115 153 193 233 272
#     4   8  13  21  35  59  86 114 149 191 232 276
#     4  10  19  34  51  70  98 130 165 205 250 293
#     4   9  16  27  45  64  91 124 158 195 241 287
#     4  10  21  34  50  72  98 130 168 207 248 296
#
# _framework density 22.774685000000002
#
# number of rings (size 3 to 8) (size 9 to 14) (size 15 to 20)
#    0.000    3.000    1.667    0.000    0.000    0.667 
#    0.000    0.000    0.000    0.500    0.000    0.000 
#    0.000   20.667    0.000    2.333    0.000    7.333 
#
# Total GULP energy -133697.461017 kJ/mol
# GULP energy per Si atom -5570.727542 kJ/mol
# Density = 2.272285 g / cm^3
# Si number density = 22.774685 Si / 1000 Ang^3
#
#
#
# Elastic Constant Matrix: (Units=GPa)
#
#
# Indices 1 2 3 4 5 6 
#
# 1 47.3517 42.1673 2.5614 0.0000 -18.5753 0.0000
# 2 42.1673 265.3621 -9.0803 0.0000 -27.0630 0.0000
# 3 2.5614 -9.0803 69.0430 0.0000 -8.8474 0.0000
# 4 0.0000 0.0000 0.0000 20.7218 0.0000 -27.5662
# 5 -18.5753 -27.0630 -8.8474 0.0000 25.5488 0.0000
# 6 0.0000 0.0000 0.0000 -27.5662 0.0000 -17.0360
#
#
#
# Elastic Compliance Matrix: (Units=1/GPa)
#
#
# Indices 1 2 3 4 5 6 
#
# 1 0.031606 -0.002922 0.001037 0.000000 0.020243 0.000000
# 2 -0.002922 0.004589 0.001112 0.000000 0.003122 0.000000
# 3 0.001037 0.001112 0.015528 0.000000 0.007309 0.000000
# 4 0.000000 0.000000 0.000000 0.015308 0.000000 -0.024769
# 5 0.020243 0.003122 0.007309 0.000000 0.059696 0.000000
# 6 0.000000 0.000000 0.000000 -0.024769 0.000000 -0.018619
#
#
# Mechanical properties :
#
#
# Convention : Reuss Voigt Hill
#
# Bulk Modulus (GPa) = 19.92965 50.33928 35.13447
# Shear Modulus (GPa) = 39.56347 28.92082 34.24215
#
# Velocity S-wave (km/s) = 4.17246 3.56739 3.88173
# Velocity P-wave (km/s) = 5.65529 6.25456 5.96246
#
# Compressibility (1/GPa) = 0.05017650
#
# Stress axis : x y z
#
# Youngs Moduli (GPa) = 31.63985 217.90195 64.39928
#
# Poissons Ratio (x) = 0.63679 -0.06679
# Poissons Ratio (y) = 0.09246 -0.07161
# Poissons Ratio (z) = -0.03281 -0.24230
#
# Static dielectric constant tensor:
#      x y z
#    x 1.904550 0.000000 0.112380 
#    y 0.000000 2.099770 0.000000 
#    z 0.112380 0.000000 2.015530 
# 
# From -- ./inp_files/12855.got.cif
#   From: 2010.05.17/outbox.cif.g08.bks.cpg/sg12_7_cif.got.tgz:12855.got - 2010.06.03 13:09:07.
