data_PCOD9184442
_publ_section_title
;
Structure prediction by ZEFSAII (Michael W. Deem and Ramdas Pophale) SiO2 
 PCOD9184442
Probable space group: C 2/M
;
_chemical_formula_sum "Si O2"
_cell_formula_units_Z 64
_cell_length_a 16.441442
_cell_length_b 26.028344
_cell_length_c 9.733971
_cell_angle_alpha 90.000000
_cell_angle_beta 94.932870
_cell_angle_gamma 90.000000
_cell_volume 4150.160894
_symmetry_space_group_name_H-M "C 2/M"
_symmetry_group_IT_number 12
_symmetry_cell_setting 'monoclinic'
loop_
_space_group_symop_operation_xyz
x,y,z
-x,y,-z
-x,-y,-z
x,-y,z
1/2+x,1/2+y,z
1/2-x,1/2+y,-z
1/2-x,1/2-y,-z
1/2+x,1/2-y,z
loop_
_atom_site_type_symbol
_atom_site_label
_atom_site_fract_x
_atom_site_fract_y
_atom_site_fract_z
Si Si1 0.948176 0.559857 0.854052
Si Si2 0.815107 0.205109 0.686303
Si Si3 0.092197 0.750323 0.560151
Si Si4 0.824662 0.645252 0.455942
Si Si5 0.434921 0.057902 0.368275
Si Si6 0.312425 0.281527 0.180937
Si Si7 0.409599 0.252573 0.924998
Si Si8 0.831653 0.651069 0.788884
O O1 0.926619 0.500000 0.819191
O O2 0.871310 0.597858 0.844179
O O3 0.011980 0.579548 0.749083
O O4 0.000000 0.560424 0.000000
O O5 0.848686 0.231815 0.554172
O O6 0.762977 0.157226 0.624684
O O7 0.749585 0.241194 0.755585
O O8 0.888643 0.204378 0.806620
O O9 0.113852 0.690463 0.584657
O O10 0.114062 0.782525 0.698906
O O11 0.000000 0.756255 0.500000
O O12 0.861100 0.592505 0.406996
O O13 0.823864 0.648527 0.621803
O O14 0.500000 0.055542 0.500000
O O15 0.408927 0.000000 0.328647
O O16 0.257239 0.332697 0.165376
O O17 0.347315 0.261751 0.042426
O O18 0.390881 0.197678 0.848690
O O19 0.500000 0.254112 0.000000
#
# Coordination Sequence:
#
# PCOD9184442 Si02
#       8
#     8   8   8   8   8   8   8   8
#     4  10  22  36  50  72 104 134 166 208 243 282
#     4  10  19  34  45  66  96 126 166 201 241 288
#     4  11  19  29  47  68  95 128 167 200 236 290
#     4  11  19  30  51  70  94 132 169 199 238 294
#     4  10  20  33  50  74 101 131 168 208 243 279
#     4  10  20  32  46  69  97 128 162 205 244 288
#     4  11  22  33  47  71 100 130 163 203 245 294
#     4  11  19  32  50  68  97 132 168 195 244 290
#
# _framework density 15.421087999999999
#
# number of rings (size 3 to 8) (size 9 to 14) (size 15 to 20)
#    0.000    1.500    5.000    3.750    0.000    4.000 
#    0.000    0.000    0.000    0.000    0.000    0.000 
#    0.000    6.000    0.000    0.000    0.000    0.000 
#
# Total GULP energy -178290.604186 kJ/mol
# GULP energy per Si atom -5571.581381 kJ/mol
# Density = 1.538599 g / cm^3
# Si number density = 15.421088 Si / 1000 Ang^3
#
#
#
# Elastic Constant Matrix: (Units=GPa)
#
#
# Indices 1 2 3 4 5 6 
#
# 1 65.8515 30.9712 15.6694 0.0000 16.9854 0.0000
# 2 30.9712 57.8378 10.7866 0.0000 2.1626 0.0000
# 3 15.6694 10.7866 81.5308 0.0000 4.6218 0.0000
# 4 0.0000 0.0000 0.0000 20.3439 0.0000 8.1415
# 5 16.9854 2.1626 4.6218 0.0000 36.4479 0.0000
# 6 0.0000 0.0000 0.0000 8.1415 0.0000 45.0934
#
#
#
# Elastic Compliance Matrix: (Units=1/GPa)
#
#
# Indices 1 2 3 4 5 6 
#
# 1 0.024063 -0.012047 -0.002453 0.000000 -0.010188 0.000000
# 2 -0.012047 0.023779 -0.001077 0.000000 0.004340 0.000000
# 3 -0.002453 -0.001077 0.012904 0.000000 -0.000429 0.000000
# 4 0.000000 0.000000 0.000000 0.052983 0.000000 -0.009566
# 5 -0.010188 0.004340 -0.000429 0.000000 0.031981 0.000000
# 6 0.000000 0.000000 0.000000 -0.009566 0.000000 0.023903
#
#
# Mechanical properties :
#
#
# Convention : Reuss Voigt Hill
#
# Bulk Modulus (GPa) = 33.79298 35.56384 34.67841
# Shear Modulus (GPa) = 23.73816 30.22991 26.98403
#
# Velocity S-wave (km/s) = 3.92769 4.43233 4.18762
# Velocity P-wave (km/s) = 6.52151 7.02182 6.77628
#
# Compressibility (1/GPa) = 0.02959194
#
# Stress axis : x y z
#
# Youngs Moduli (GPa) = 41.55726 42.05352 77.49784
#
# Poissons Ratio (x) = 0.50662 0.19013
# Poissons Ratio (y) = 0.50064 0.08344
# Poissons Ratio (z) = 0.10195 0.04528
#
# Static dielectric constant tensor:
#      x y z
#    x 1.541900 0.000000 0.017880 
#    y 0.000000 1.519560 0.000000 
#    z 0.017880 0.000000 1.533430 
# 
# From -- ./inp_files/78777.got.cif
#   From: 2010.05.17/outbox.cif.g08.bks.cpg/sg12_40_cif.got.tgz:78777.got - 2010.06.03 13:09:07.
