data_PCOD9184516
_publ_section_title
;
Structure prediction by ZEFSAII (Michael W. Deem and Ramdas Pophale) SiO2 
 PCOD9184516
Probable space group: C 2/M
;
_chemical_formula_sum "Si O2"
_cell_formula_units_Z 46
_cell_length_a 5.114681
_cell_length_b 13.942197
_cell_length_c 29.610846
_cell_angle_alpha 90.000000
_cell_angle_beta 111.160856
_cell_angle_gamma 90.000000
_cell_volume 1969.165972
_symmetry_space_group_name_H-M "C 2/M"
_symmetry_group_IT_number 12
_symmetry_cell_setting 'monoclinic'
loop_
_space_group_symop_operation_xyz
x,y,z
-x,y,-z
-x,-y,-z
x,-y,z
1/2+x,1/2+y,z
1/2-x,1/2+y,-z
1/2-x,1/2-y,-z
1/2+x,1/2-y,z
loop_
_atom_site_type_symbol
_atom_site_label
_atom_site_fract_x
_atom_site_fract_y
_atom_site_fract_z
Si Si1 0.819711 0.883447 0.132312
Si Si2 0.015909 0.689011 0.295879
Si Si3 0.000000 0.819878 0.500000
Si Si4 0.371696 0.157920 0.034079
Si Si5 0.356328 0.682826 0.397008
Si Si6 0.561417 0.886134 0.809251
Si Si7 0.000000 0.000000 0.000000
O O1 0.622309 0.829403 0.084296
O O2 0.695807 0.861863 0.174188
O O3 0.141780 0.853154 0.151939
O O4 0.794522 0.000000 0.122826
O O5 0.717738 0.719813 0.297690
O O6 0.975995 0.643452 0.244643
O O7 0.192805 0.633407 0.345432
O O8 0.250000 0.750000 0.500000
O O9 0.091041 0.870904 0.552229
O O10 0.500000 0.097976 0.000000
O O11 0.250000 0.250000 0.000000
O O12 0.142583 0.086120 0.039804
O O13 0.646107 0.728797 0.397153
O O14 0.581822 0.000000 0.810906
#
# Coordination Sequence:
#
# PCOD9184516 Si02
#       7
#     8   8   4   8   8   8   2
#     4  10  23  42  67  87 119 152 187 238 291 336
#     4  10  19  34  51  80 112 144 180 235 287 326
#     4   8  12  20  34  60  89 134 177 216 266 328
#     4  12  27  46  70  99 124 164 204 245 306 378
#     4   8  14  23  40  62  99 135 175 222 275 325
#     4  10  22  41  62  85 112 153 190 228 281 346
#     4  12  26  48  72  92 140 160 194 260 298 356
#
# _framework density 23.360146
#
# number of rings (size 3 to 8) (size 9 to 14) (size 15 to 20)
#    0.000    2.087    1.739    1.304    2.435    0.000 
#    9.391    0.000    0.000    0.000    0.000    0.609 
#    0.000    0.000    0.000   46.783    0.000    1.739 
#
# Total GULP energy -128102.448133 kJ/mol
# GULP energy per Si atom -5569.671658 kJ/mol
# Density = 2.330698 g / cm^3
# Si number density = 23.360146 Si / 1000 Ang^3
#
#
#
# Elastic Constant Matrix: (Units=GPa)
#
#
# Indices 1 2 3 4 5 6 
#
# 1 94.7152 -1.6924 -7.0380 0.0000 -1.2583 0.0000
# 2 -1.6924 93.5042 15.5336 0.0000 5.1478 0.0000
# 3 -7.0380 15.5336 164.1395 0.0000 -7.7117 0.0000
# 4 0.0000 0.0000 0.0000 -4.3026 0.0000 -6.7366
# 5 -1.2583 5.1478 -7.7117 0.0000 37.7697 0.0000
# 6 0.0000 0.0000 0.0000 -6.7366 0.0000 -24.0790
#
#
#
# Elastic Compliance Matrix: (Units=1/GPa)
#
#
# Indices 1 2 3 4 5 6 
#
# 1 0.010600 0.000090 0.000466 0.000000 0.000436 0.000000
# 2 0.000090 0.010976 -0.001116 0.000000 -0.001721 0.000000
# 3 0.000466 -0.001116 0.006286 0.000000 0.001451 0.000000
# 4 0.000000 0.000000 0.000000 -0.413594 0.000000 0.115712
# 5 0.000436 -0.001721 0.001451 0.000000 0.027022 0.000000
# 6 0.000000 0.000000 0.000000 0.115712 0.000000 -0.073903
#
#
# Mechanical properties :
#
#
# Convention : Reuss Voigt Hill
#
# Bulk Modulus (GPa) = 37.39052 40.66280 39.02666
# Shear Modulus (GPa) = -11.83208 24.91467 6.54130
#
# Velocity S-wave (km/s) = -2.25301 3.26934 1.67519
# Velocity P-wave (km/s) = 3.04512 5.62994 4.52598
#
# Compressibility (1/GPa) = 0.02674475
#
# Stress axis : x y z
#
# Youngs Moduli (GPa) = 94.33932 91.10423 159.07996
#
# Poissons Ratio (x) = -0.00823 -0.07420
# Poissons Ratio (y) = -0.00852 0.17749
# Poissons Ratio (z) = -0.04400 0.10165
#
# Static dielectric constant tensor:
#      x y z
#    x 2.749470 0.000000 -0.070110 
#    y 0.000000 1.905170 0.000000 
#    z -0.070110 0.000000 1.984560 
# 
# From -- ./inp_files/371467.got.cif
#   From: 2010.05.17/outbox.cif.g08.bks.cpg/sg12_186_cif.got.tgz:371467.got - 2010.06.03 13:09:07.
