data_PCOD9184503
_publ_section_title
;
Structure prediction by ZEFSAII (Michael W. Deem and Ramdas Pophale) SiO2 
 PCOD9184503
Probable space group: C 2/M
;
_chemical_formula_sum "Si O2"
_cell_formula_units_Z 54
_cell_length_a 15.332257
_cell_length_b 13.323999
_cell_length_c 13.893590
_cell_angle_alpha 90.000000
_cell_angle_beta 113.168220
_cell_angle_gamma 90.000000
_cell_volume 2609.382771
_symmetry_space_group_name_H-M "C 2/M"
_symmetry_group_IT_number 12
_symmetry_cell_setting 'monoclinic'
loop_
_space_group_symop_operation_xyz
x,y,z
-x,y,-z
-x,-y,-z
x,-y,z
1/2+x,1/2+y,z
1/2-x,1/2+y,-z
1/2-x,1/2-y,-z
1/2+x,1/2-y,z
loop_
_atom_site_type_symbol
_atom_site_label
_atom_site_fract_x
_atom_site_fract_y
_atom_site_fract_z
Si Si1 0.137827 0.329125 0.509098
Si Si2 0.164662 0.887959 0.505734
Si Si3 0.019546 0.380515 0.202813
Si Si4 0.286448 0.716986 0.910711
Si Si5 0.859549 0.383383 0.274800
Si Si6 0.229502 0.386881 0.255058
Si Si7 0.000000 0.743203 0.000000
Si Si8 0.000000 0.500000 0.500000
O O1 0.110427 0.216723 0.464230
O O2 0.234979 0.368642 0.504088
O O3 0.158342 0.328156 0.633166
O O4 0.057202 0.411587 0.464543
O O5 0.189127 0.888635 0.629911
O O6 0.128354 0.000000 0.464045
O O7 0.003134 0.500000 0.187771
O O8 0.947675 0.342752 0.252120
O O9 0.130855 0.363598 0.268239
O O10 0.998025 0.326911 0.093089
O O11 0.227924 0.626642 0.836724
O O12 0.263828 0.809374 0.828549
O O13 0.250000 0.750000 0.000000
O O14 0.399620 0.699353 0.957596
O O15 0.878522 0.500000 0.313714
O O16 0.219213 0.500000 0.211398
#
# Coordination Sequence:
#
# PCOD9184503 Si02
#       8
#     8   8   8   8   8   8   4   2
#     4  11  23  36  61  93 127 160 205 257 308 382
#     4  10  20  39  60  88 124 166 203 248 313 385
#     4   9  18  29  51  80 112 142 185 249 307 355
#     4  11  21  36  54  81 115 155 200 248 308 362
#     4  11  21  36  54  84 119 154 198 251 311 364
#     4   9  19  33  57  85 113 146 195 247 306 364
#     4  10  19  34  51  76 108 148 198 248 292 368
#     4  12  24  40  62 100 124 158 212 262 316 362
#
# _framework density 20.694548999999999
#
# number of rings (size 3 to 8) (size 9 to 14) (size 15 to 20)
#    0.000    1.778    4.444    0.222    2.074    1.185 
#    0.000    0.741    0.000    0.000    0.000    3.111 
#    0.000    0.000    0.000    0.000    0.000    0.000 
#
# Total GULP energy -150446.572325 kJ/mol
# GULP energy per Si atom -5572.095271 kJ/mol
# Density = 2.064745 g / cm^3
# Si number density = 20.694549 Si / 1000 Ang^3
#
#
#
# Elastic Constant Matrix: (Units=GPa)
#
#
# Indices 1 2 3 4 5 6 
#
# 1 64.4293 28.5655 26.4114 0.0000 -12.4834 0.0000
# 2 28.5655 134.1308 6.5231 0.0000 -4.0444 0.0000
# 3 26.4114 6.5231 76.8322 0.0000 -14.1574 0.0000
# 4 0.0000 0.0000 0.0000 18.5269 0.0000 3.4030
# 5 -12.4834 -4.0444 -14.1574 0.0000 34.2553 0.0000
# 6 0.0000 0.0000 0.0000 3.4030 0.0000 28.3696
#
#
#
# Elastic Compliance Matrix: (Units=1/GPa)
#
#
# Indices 1 2 3 4 5 6 
#
# 1 0.020582 -0.003958 -0.005892 0.000000 0.004598 0.000000
# 2 -0.003958 0.008262 0.000620 0.000000 -0.000211 0.000000
# 3 -0.005892 0.000620 0.015810 0.000000 0.004460 0.000000
# 4 0.000000 0.000000 0.000000 0.055191 0.000000 -0.006620
# 5 0.004598 -0.000211 0.004460 0.000000 0.032687 0.000000
# 6 0.000000 0.000000 0.000000 -0.006620 0.000000 0.036043
#
#
# Mechanical properties :
#
#
# Convention : Reuss Voigt Hill
#
# Bulk Modulus (GPa) = 38.17583 44.26582 41.22082
# Shear Modulus (GPa) = 25.54075 30.48984 28.01530
#
# Velocity S-wave (km/s) = 3.51690 3.84256 3.68333
# Velocity P-wave (km/s) = 5.91428 6.41276 6.16856
#
# Compressibility (1/GPa) = 0.02619459
#
# Stress axis : x y z
#
# Youngs Moduli (GPa) = 48.58642 121.03841 63.25154
#
# Poissons Ratio (x) = 0.47908 0.37266
# Poissons Ratio (y) = 0.19231 -0.03924
# Poissons Ratio (z) = 0.28626 -0.07509
#
# Static dielectric constant tensor:
#      x y z
#    x 1.691630 0.000000 -0.072470 
#    y 0.000000 1.763310 0.000000 
#    z -0.072470 0.000000 1.613050 
# 
# From -- ./inp_files/214354.got.cif
#   From: 2010.05.17/outbox.cif.g08.bks.cpg/sg12_108_cif.got.tgz:214354.got - 2010.06.03 13:09:07.
