data_PCOD9184670
_publ_section_title
;
Structure prediction by ZEFSAII (Michael W. Deem and Ramdas Pophale) SiO2 
 PCOD9184670
Probable space group: C 2/M
;
_chemical_formula_sum "Si O2"
_cell_formula_units_Z 40
_cell_length_a 12.584532
_cell_length_b 8.650961
_cell_length_c 19.904635
_cell_angle_alpha 90.000000
_cell_angle_beta 79.190619
_cell_angle_gamma 90.000000
_cell_volume 2128.533936
_symmetry_space_group_name_H-M "C 2/M"
_symmetry_group_IT_number 12
_symmetry_cell_setting 'monoclinic'
loop_
_space_group_symop_operation_xyz
x,y,z
-x,y,-z
-x,-y,-z
x,-y,z
1/2+x,1/2+y,z
1/2-x,1/2+y,-z
1/2-x,1/2-y,-z
1/2+x,1/2-y,z
loop_
_atom_site_type_symbol
_atom_site_label
_atom_site_fract_x
_atom_site_fract_y
_atom_site_fract_z
Si Si1 0.129229 0.000000 0.563964
Si Si2 0.470555 0.000000 0.127437
Si Si3 0.626389 0.500000 0.403855
Si Si4 0.279898 0.000000 0.744950
Si Si5 0.971184 0.500000 0.288545
Si Si6 0.782277 0.500000 0.906488
Si Si7 0.085051 0.825225 0.929599
Si Si8 0.203105 0.749090 0.656146
O O1 0.184485 0.854697 0.593380
O O2 0.140588 0.000000 0.482776
O O3 0.000953 0.000000 0.595638
O O4 0.469395 0.000000 0.208042
O O5 0.594647 0.000000 0.086151
O O6 0.421586 0.164834 0.109928
O O7 0.690806 0.645558 0.366662
O O8 0.220615 0.853350 0.719787
O O9 0.404134 0.000000 0.705075
O O10 0.282460 0.000000 0.824862
O O11 0.902883 0.645313 0.322303
O O12 0.709178 0.354489 0.936977
O O13 0.060873 0.000000 0.900766
O O14 0.000000 0.812269 0.000000
#
# Coordination Sequence:
#
# PCOD9184670 Si02
#       8
#     4   4   4   4   4   4   8   8
#     4  10  20  34  53  75  99 137 168 208 261 299
#     4  11  20  36  59  77 109 147 175 220 276 309
#     4  10  20  34  51  75 105 127 174 214 243 317
#     4  10  19  34  54  73 105 134 169 215 255 304
#     4  10  21  34  52  79 101 132 175 211 251 318
#     4   9  20  36  53  81 107 139 183 222 262 325
#     4   9  20  39  53  81 113 137 182 226 259 321
#     4  10  20  34  53  74 102 137 166 210 262 301
#
# _framework density 18.792276999999999
#
# number of rings (size 3 to 8) (size 9 to 14) (size 15 to 20)
#    0.600    1.600    0.000    3.300    0.000    0.800 
#    1.800    0.000    8.800    9.600    0.000    0.000 
#    0.000    0.000    0.000    0.000    0.000    0.000 
#
# Total GULP energy -111387.048202 kJ/mol
# GULP energy per Si atom -5569.352410 kJ/mol
# Density = 1.874951 g / cm^3
# Si number density = 18.792277 Si / 1000 Ang^3
#
#
#
# Elastic Constant Matrix: (Units=GPa)
#
#
# Indices 1 2 3 4 5 6 
#
# 1 51.8344 15.5304 -13.0928 0.0000 -8.8027 0.0000
# 2 15.5304 118.2152 13.3106 0.0000 9.7515 0.0000
# 3 -13.0928 13.3106 23.8439 0.0000 -5.9620 0.0000
# 4 0.0000 0.0000 0.0000 284.5809 0.0000 -158.1045
# 5 -8.8027 9.7515 -5.9620 0.0000 29.1682 0.0000
# 6 0.0000 0.0000 0.0000 -158.1045 0.0000 101.4767
#
#
#
# Elastic Compliance Matrix: (Units=1/GPa)
#
#
# Indices 1 2 3 4 5 6 
#
# 1 0.031660 -0.008640 0.026683 0.000000 0.017897 0.000000
# 2 -0.008640 0.011918 -0.013748 0.000000 -0.009402 0.000000
# 3 0.026683 -0.013748 0.071060 0.000000 0.027174 0.000000
# 4 0.000000 0.000000 0.000000 0.026145 0.000000 0.040735
# 5 0.017897 -0.009402 0.027174 0.000000 0.048383 0.000000
# 6 0.000000 0.000000 0.000000 0.040735 0.000000 0.073322
#
#
# Mechanical properties :
#
#
# Convention : Reuss Voigt Hill
#
# Bulk Modulus (GPa) = 8.11505 25.04331 16.57918
# Shear Modulus (GPa) = 16.95064 94.92151 55.93607
#
# Velocity S-wave (km/s) = 3.00659 7.11481 5.46169
# Velocity P-wave (km/s) = 4.04728 8.99163 6.97244
#
# Compressibility (1/GPa) = 0.12322784
#
# Stress axis : x y z
#
# Youngs Moduli (GPa) = 31.58556 83.90832 14.07252
#
# Poissons Ratio (x) = 0.72497 -0.37550
# Poissons Ratio (y) = 0.27290 0.19347
# Poissons Ratio (z) = -0.84280 1.15358
#
# Static dielectric constant tensor:
#      x y z
#    x 1.639620 0.000000 -0.011710 
#    y 0.000000 1.672500 0.000000 
#    z -0.011710 0.000000 1.621930 
# 
# From -- ./inp_files/303439.got.cif
#   From: 2010.05.17/outbox.cif.g08.bks.cpg/sg12_152_cif.got.tgz:303439.got - 2010.06.03 13:09:07.
