data_PCOD9184107
_publ_section_title
;
Structure prediction by ZEFSAII (Michael W. Deem and Ramdas Pophale) SiO2 
 PCOD9184107
Probable space group: C 2/M
;
_chemical_formula_sum "Si O2"
_cell_formula_units_Z 64
_cell_length_a 21.183236
_cell_length_b 8.523432
_cell_length_c 20.794731
_cell_angle_alpha 90.000000
_cell_angle_beta 66.874688
_cell_angle_gamma 90.000000
_cell_volume 3452.882354
_symmetry_space_group_name_H-M "C 2/M"
_symmetry_group_IT_number 12
_symmetry_cell_setting 'monoclinic'
loop_
_space_group_symop_operation_xyz
x,y,z
-x,y,-z
-x,-y,-z
x,-y,z
1/2+x,1/2+y,z
1/2-x,1/2+y,-z
1/2-x,1/2-y,-z
1/2+x,1/2-y,z
loop_
_atom_site_type_symbol
_atom_site_label
_atom_site_fract_x
_atom_site_fract_y
_atom_site_fract_z
Si Si1 0.578814 0.191310 0.463472
Si Si2 0.347192 0.689564 0.919644
Si Si3 0.635451 0.811785 0.302139
Si Si4 0.386152 0.810546 0.294892
Si Si5 0.959762 0.187740 0.774151
Si Si6 0.703624 0.687171 0.923096
Si Si7 0.173865 0.689912 0.543765
Si Si8 0.211553 0.312553 0.782282
O O1 0.500000 0.243310 0.500000
O O2 0.612510 0.239917 0.382629
O O3 0.623341 0.242352 0.506775
O O4 0.578382 0.000000 0.464142
O O5 0.340428 0.500000 0.918497
O O6 0.415635 0.736054 0.854576
O O7 0.281114 0.762465 0.910769
O O8 0.341965 0.733461 0.996772
O O9 0.583541 0.744379 0.270051
O O10 0.712719 0.758271 0.257030
O O11 0.632122 0.000000 0.300648
O O12 0.463968 0.754647 0.257099
O O13 0.354152 0.757732 0.375666
O O14 0.338699 0.758018 0.254533
O O15 0.386152 0.000000 0.295158
O O16 0.963093 0.000000 0.771932
O O17 0.701181 0.500000 0.917169
O O18 0.684872 0.764551 0.863217
O O19 0.174785 0.500000 0.543316
O O20 0.250000 0.750000 0.500000
O O21 0.217453 0.500000 0.776665
#
# Coordination Sequence:
#
# PCOD9184107 Si02
#       8
#     8   8   8   8   8   8   8   8
#     4   9  18  33  54  79 107 139 178 226 275 326
#     4   9  19  35  55  83 116 146 181 230 282 330
#     4  11  21  34  57  85 111 144 187 230 279 342
#     4  10  23  40  58  80 113 154 192 231 280 339
#     4  11  22  37  58  84 115 149 184 231 285 334
#     4  10  19  33  57  85 111 146 188 228 277 335
#     4  10  20  37  59  81 107 144 187 232 280 332
#     4  11  22  37  55  81 115 148 185 235 283 323
#
# _framework density 18.535238
#
# number of rings (size 3 to 8) (size 9 to 14) (size 15 to 20)
#    0.000    1.875    1.250    3.000    0.000    4.500 
#    0.000    1.250    0.000    6.375    0.000    0.000 
#    0.000    0.000    0.000    0.000    0.000    0.000 
#
# Total GULP energy -178737.482120 kJ/mol
# GULP energy per Si atom -5585.546316 kJ/mol
# Density = 1.849305 g / cm^3
# Si number density = 18.535238 Si / 1000 Ang^3
#
#
#
# Elastic Constant Matrix: (Units=GPa)
#
#
# Indices 1 2 3 4 5 6 
#
# 1 149.5362 14.3394 86.9156 0.0000 5.0125 -0.0001
# 2 14.3394 10.7604 22.4475 -0.0002 -1.4118 -0.0003
# 3 86.9156 22.4475 175.2685 0.0001 7.7423 0.0000
# 4 0.0000 -0.0002 0.0001 21.9422 0.0000 -3.2174
# 5 5.0125 -1.4118 7.7423 0.0000 25.5569 0.0000
# 6 -0.0001 -0.0003 0.0000 -3.2174 0.0000 23.6726
#
#
#
# Elastic Compliance Matrix: (Units=1/GPa)
#
#
# Indices 1 2 3 4 5 6 
#
# 1 0.009529 -0.004131 -0.004159 0.000000 -0.000837 0.000000
# 2 -0.004131 0.132402 -0.015475 0.000001 0.012812 0.000002
# 3 -0.004159 -0.015475 0.009884 0.000000 -0.003033 0.000000
# 4 0.000000 0.000001 0.000000 0.046501 0.000000 0.006320
# 5 -0.000837 0.012812 -0.003033 0.000000 0.040919 0.000000
# 6 0.000000 0.000002 0.000000 0.006320 0.000000 0.043102
#
#
# Mechanical properties :
#
#
# Convention : Reuss Voigt Hill
#
# Bulk Modulus (GPa) = 9.58915 64.77445 37.18180
# Shear Modulus (GPa) = 13.71254 28.35851 21.03552
#
# Velocity S-wave (km/s) = 2.72289 3.91574 3.37247
# Velocity P-wave (km/s) = 3.88204 7.44758 5.93872
#
# Compressibility (1/GPa) = 0.10428449
#
# Stress axis : x y z
#
# Youngs Moduli (GPa) = 104.94101 7.55275 101.17295
#
# Poissons Ratio (x) = 0.03120 0.42082
# Poissons Ratio (y) = 0.43356 1.56560
# Poissons Ratio (z) = 0.43649 0.11688
#
# Static dielectric constant tensor:
#      x y z
#    x 1.597240 0.000000 0.011340 
#    y 0.000000 1.637130 0.000000 
#    z 0.011340 0.000000 1.650010 
# 
# From -- ./inp_files/319845.got.cif
#   From: 2010.05.17/outbox.cif.g08.bks.cpg/sg12_160_cif.got.tgz:319845.got - 2010.06.03 13:09:07.
