data_PCOD9184096
_publ_section_title
;
Structure prediction by ZEFSAII (Michael W. Deem and Ramdas Pophale) SiO2 
 PCOD9184096
Probable space group: C 2/M
;
_chemical_formula_sum "Si O2"
_cell_formula_units_Z 48
_cell_length_a 20.928853
_cell_length_b 8.840130
_cell_length_c 32.384033
_cell_angle_alpha 90.000000
_cell_angle_beta 152.615132
_cell_angle_gamma 90.000000
_cell_volume 2755.878561
_symmetry_space_group_name_H-M "C 2/M"
_symmetry_group_IT_number 12
_symmetry_cell_setting 'monoclinic'
loop_
_space_group_symop_operation_xyz
x,y,z
-x,y,-z
-x,-y,-z
x,-y,z
1/2+x,1/2+y,z
1/2-x,1/2+y,-z
1/2-x,1/2-y,-z
1/2+x,1/2-y,z
loop_
_atom_site_type_symbol
_atom_site_label
_atom_site_fract_x
_atom_site_fract_y
_atom_site_fract_z
Si Si1 0.937316 0.680742 0.229215
Si Si2 0.428041 0.679837 0.773657
Si Si3 0.352281 0.182044 0.434044
Si Si4 0.714096 0.819211 0.435194
Si Si5 0.373890 0.681743 0.956840
Si Si6 0.382339 0.820189 0.052373
O O1 0.947964 0.500000 0.227162
O O2 0.778496 0.713886 0.149462
O O3 0.976068 0.767853 0.209588
O O4 0.055768 0.718783 0.330463
O O5 0.439782 0.500000 0.786252
O O6 0.272037 0.716674 0.669385
O O7 0.482489 0.764487 0.845139
O O8 0.500000 0.228765 0.500000
O O9 0.311177 0.256684 0.453996
O O10 0.354040 0.000000 0.440849
O O11 0.750000 0.750000 0.500000
O O12 0.726209 0.000000 0.443927
O O13 0.382811 0.500000 0.967860
O O14 0.500000 0.728966 0.000000
O O15 0.383499 0.759997 0.006596
O O16 0.371896 0.000000 0.047486
O O17 0.250000 0.750000 0.000000
#
# Coordination Sequence:
#
# PCOD9184096 Si02
#       6
#     8   8   8   8   8   8
#     4   9  18  34  56  79 106 143 183 226 272 323
#     4  10  19  33  57  85 109 142 184 226 273 325
#     4   9  19  37  59  83 112 144 180 227 277 326
#     4  10  20  35  56  81 109 144 186 228 272 326
#     4  10  21  38  58  81 111 145 181 225 277 328
#     4  12  23  36  57  83 112 145 185 229 270 323
#
# _framework density 17.417311999999999
#
# number of rings (size 3 to 8) (size 9 to 14) (size 15 to 20)
#    0.000    2.000    1.667    2.500    0.000    2.000 
#    3.000    0.000    0.000    0.000    0.000    0.000 
#    0.000    0.000    0.000    0.000    0.000    0.000 
#
# Total GULP energy -133954.964776 kJ/mol
# GULP energy per Si atom -5581.456866 kJ/mol
# Density = 1.737767 g / cm^3
# Si number density = 17.417312 Si / 1000 Ang^3
#
#
#
# Elastic Constant Matrix: (Units=GPa)
#
#
# Indices 1 2 3 4 5 6 
#
# 1 135.4577 57.2544 101.8011 0.0000 3.0144 0.0000
# 2 57.2544 50.7688 55.6600 0.0001 -1.6973 -0.0001
# 3 101.8011 55.6600 140.8310 0.0003 5.5092 0.0000
# 4 0.0000 0.0001 0.0003 24.4470 0.0000 -5.6268
# 5 3.0144 -1.6973 5.5092 0.0000 36.7826 0.0000
# 6 0.0000 -0.0001 0.0000 -5.6268 0.0000 30.3176
#
#
#
# Elastic Compliance Matrix: (Units=1/GPa)
#
#
# Indices 1 2 3 4 5 6 
#
# 1 0.019323 -0.011526 -0.009384 0.000000 -0.000710 0.000000
# 2 -0.011526 0.042137 -0.008484 0.000000 0.004160 0.000000
# 3 -0.009384 -0.008484 0.017324 0.000000 -0.002217 0.000000
# 4 0.000000 0.000000 0.000000 0.042730 0.000000 0.007931
# 5 -0.000710 0.004160 -0.002217 0.000000 0.027769 0.000000
# 6 0.000000 0.000000 0.000000 0.007931 0.000000 0.034456
#
#
# Mechanical properties :
#
#
# Convention : Reuss Voigt Hill
#
# Bulk Modulus (GPa) = 50.01589 84.05427 67.03508
# Shear Modulus (GPa) = 20.06474 25.79890 22.93182
#
# Velocity S-wave (km/s) = 3.39779 3.85284 3.63245
# Velocity P-wave (km/s) = 6.64619 8.25568 7.49427
#
# Compressibility (1/GPa) = 0.01999365
#
# Stress axis : x y z
#
# Youngs Moduli (GPa) = 51.75240 23.73226 57.72282
#
# Poissons Ratio (x) = 0.27355 0.54169
# Poissons Ratio (y) = 0.59652 0.48973
# Poissons Ratio (z) = 0.48566 0.20135
#
# Static dielectric constant tensor:
#      x y z
#    x 1.547760 0.000000 0.008820 
#    y 0.000000 1.583140 0.000000 
#    z 0.008820 0.000000 1.617170 
# 
# From -- ./inp_files/295335.got.cif
#   From: 2010.05.17/outbox.cif.g08.bks.cpg/sg12_148_cif.got.tgz:295335.got - 2010.06.03 13:09:07.
