data_PCOD9184630
_publ_section_title
;
Structure prediction by ZEFSAII (Michael W. Deem and Ramdas Pophale) SiO2 
 PCOD9184630
Probable space group: C 2/M
;
_chemical_formula_sum "Si O2"
_cell_formula_units_Z 56
_cell_length_a 8.530726
_cell_length_b 28.114278
_cell_length_c 14.626680
_cell_angle_alpha 90.000000
_cell_angle_beta 51.806485
_cell_angle_gamma 90.000000
_cell_volume 2757.025811
_symmetry_space_group_name_H-M "C 2/M"
_symmetry_group_IT_number 12
_symmetry_cell_setting 'monoclinic'
loop_
_space_group_symop_operation_xyz
x,y,z
-x,y,-z
-x,-y,-z
x,-y,z
1/2+x,1/2+y,z
1/2-x,1/2+y,-z
1/2-x,1/2-y,-z
1/2+x,1/2-y,z
loop_
_atom_site_type_symbol
_atom_site_label
_atom_site_fract_x
_atom_site_fract_y
_atom_site_fract_z
Si Si1 0.480769 0.626536 0.116116
Si Si2 0.805578 0.552066 0.007982
Si Si3 0.572341 0.187834 0.700718
Si Si4 0.063104 0.412740 0.233920
Si Si5 0.698527 0.553538 0.490747
Si Si6 0.836195 0.213953 0.254013
Si Si7 0.276050 0.151725 0.539866
O O1 0.653655 0.593139 0.090353
O O2 0.263660 0.603353 0.215790
O O3 0.491271 0.680995 0.143749
O O4 0.500000 0.625320 0.000000
O O5 0.710113 0.500000 0.052289
O O6 0.871777 0.558479 0.878547
O O7 0.000000 0.554016 0.000000
O O8 0.527962 0.137923 0.765479
O O9 0.370948 0.205294 0.723544
O O10 0.635817 0.230446 0.742370
O O11 0.716933 0.174135 0.564323
O O12 0.896759 0.437306 0.357061
O O13 0.500000 0.555679 0.500000
O O14 0.709555 0.500000 0.526104
O O15 0.691763 0.598429 0.561519
O O16 0.830370 0.188412 0.354865
O O17 0.500000 0.147504 0.500000
#
# Coordination Sequence:
#
# PCOD9184630 Si02
#       7
#     8   8   8   8   8   8   8
#     4   9  20  38  57  78 106 141 184 223 261 319
#     4  10  21  36  56  83 108 134 178 230 273 315
#     4   9  19  33  53  79 105 137 179 218 264 321
#     4   9  19  38  56  75 107 145 180 218 265 325
#     4  10  21  35  53  80 111 142 178 221 271 325
#     4  10  19  34  53  77 107 139 175 222 267 311
#     4   9  19  35  52  75 107 140 180 222 261 321
#
# _framework density 20.311743
#
# number of rings (size 3 to 8) (size 9 to 14) (size 15 to 20)
#    0.000    2.571    0.000    1.714    0.000    8.000 
#    0.000   10.000    0.000    0.000    0.000    0.000 
#    0.000    0.000    0.000    0.000    0.000    0.000 
#
# Total GULP energy -156171.105567 kJ/mol
# GULP energy per Si atom -5577.539485 kJ/mol
# Density = 2.026551 g / cm^3
# Si number density = 20.311743 Si / 1000 Ang^3
#
#
#
# Elastic Constant Matrix: (Units=GPa)
#
#
# Indices 1 2 3 4 5 6 
#
# 1 21.3917 13.9862 4.4092 0.0000 -2.5349 0.0000
# 2 13.9862 118.6954 -4.4670 0.0000 -1.7925 0.0000
# 3 4.4092 -4.4670 19.9884 0.0000 -11.6174 0.0000
# 4 0.0000 0.0000 0.0000 28.4335 0.0000 -0.7007
# 5 -2.5349 -1.7925 -11.6174 0.0000 16.2796 0.0000
# 6 0.0000 0.0000 0.0000 -0.7007 0.0000 33.3110
#
#
#
# Elastic Compliance Matrix: (Units=1/GPa)
#
#
# Indices 1 2 3 4 5 6 
#
# 1 0.054119 -0.007010 -0.015473 0.000000 -0.003387 0.000000
# 2 -0.007010 0.009553 0.006251 0.000000 0.004421 0.000000
# 3 -0.015473 0.006251 0.091995 0.000000 0.063928 0.000000
# 4 0.000000 0.000000 0.000000 0.035188 0.000000 0.000740
# 5 -0.003387 0.004421 0.063928 0.000000 0.107006 0.000000
# 6 0.000000 0.000000 0.000000 0.000740 0.000000 0.030036
#
#
# Mechanical properties :
#
#
# Convention : Reuss Voigt Hill
#
# Bulk Modulus (GPa) = 8.11683 20.88135 14.49909
# Shear Modulus (GPa) = 12.45552 25.34795 18.90174
#
# Velocity S-wave (km/s) = 2.47901 3.53646 3.05385
# Velocity P-wave (km/s) = 3.49268 5.19405 4.42589
#
# Compressibility (1/GPa) = 0.12320077
#
# Stress axis : x y z
#
# Youngs Moduli (GPa) = 18.47794 104.67926 10.87020
#
# Poissons Ratio (x) = 0.73384 0.16820
# Poissons Ratio (y) = 0.12954 -0.06795
# Poissons Ratio (z) = 0.28591 -0.65433
#
# Static dielectric constant tensor:
#      x y z
#    x 1.717680 0.000000 -0.016890 
#    y 0.000000 1.726240 0.000000 
#    z -0.016890 0.000000 1.745960 
# 
# From -- ./inp_files/199687.got.cif
#   From: 2010.05.17/outbox.cif.g08.bks.cpg/sg12_100_cif.got.tgz:199687.got - 2010.06.03 13:09:07.
