data_PCOD9184495
_publ_section_title
;
Structure prediction by ZEFSAII (Michael W. Deem and Ramdas Pophale) SiO2 
 PCOD9184495
Probable space group: C 2/M
;
_chemical_formula_sum "Si O2"
_cell_formula_units_Z 60
_cell_length_a 24.650397
_cell_length_b 23.829797
_cell_length_c 12.089840
_cell_angle_alpha 90.000000
_cell_angle_beta 30.591532
_cell_angle_gamma 90.000000
_cell_volume 3614.176692
_symmetry_space_group_name_H-M "C 2/M"
_symmetry_group_IT_number 12
_symmetry_cell_setting 'monoclinic'
loop_
_space_group_symop_operation_xyz
x,y,z
-x,y,-z
-x,-y,-z
x,-y,z
1/2+x,1/2+y,z
1/2-x,1/2+y,-z
1/2-x,1/2-y,-z
1/2+x,1/2-y,z
loop_
_atom_site_type_symbol
_atom_site_label
_atom_site_fract_x
_atom_site_fract_y
_atom_site_fract_z
Si Si1 0.886715 0.563717 0.136079
Si Si2 0.555456 0.842671 0.133513
Si Si3 0.500000 0.643051 0.000000
Si Si4 0.893421 0.798518 0.744316
Si Si5 0.206331 0.066418 0.637503
Si Si6 0.837890 0.669173 0.824278
Si Si7 0.816409 0.355451 0.613442
Si Si8 0.611332 0.283003 0.987772
O O1 0.874803 0.500000 0.115709
O O2 0.792271 0.574546 0.388814
O O3 0.893478 0.607879 0.026451
O O4 0.000000 0.567149 0.000000
O O5 0.588623 0.848914 0.203666
O O6 0.427211 0.843681 0.357547
O O7 0.596271 0.783684 0.012399
O O8 0.399194 0.602819 0.200305
O O9 0.465961 0.683279 0.958390
O O10 0.870159 0.734449 0.746137
O O11 0.000000 0.819530 0.500000
O O12 0.783436 0.830887 0.918346
O O13 0.910270 0.798020 0.846390
O O14 0.259666 0.091690 0.655167
O O15 0.184463 0.000000 0.685985
O O16 0.839764 0.638383 0.703419
O O17 0.731431 0.304430 0.752665
#
# Coordination Sequence:
#
# PCOD9184495 Si02
#       8
#     8   8   4   8   8   8   8   8
#     4  10  21  37  53  72  98 134 177 208 246 304
#     4  11  20  32  54  76 103 141 166 208 259 304
#     4  10  21  36  54  80 107 130 170 218 254 304
#     4   9  16  30  47  66 101 143 165 199 245 303
#     4  10  21  38  58  75  99 137 176 215 259 303
#     4   9  18  29  46  74 100 129 175 203 245 303
#     4  10  19  34  51  74 105 138 168 213 252 304
#     4   9  21  32  48  78 109 133 169 207 257 307
#
# _framework density 16.601291
#
# number of rings (size 3 to 8) (size 9 to 14) (size 15 to 20)
#    0.000    2.267    1.333    3.000    0.933    2.133 
#    0.000    3.333    0.000    1.600    0.000    0.000 
#    0.000   13.333    0.000    0.000    0.000    0.000 
#
# Total GULP energy -167220.974001 kJ/mol
# GULP energy per Si atom -5574.032467 kJ/mol
# Density = 1.656351 g / cm^3
# Si number density = 16.601291 Si / 1000 Ang^3
#
#
#
# Elastic Constant Matrix: (Units=GPa)
#
#
# Indices 1 2 3 4 5 6 
#
# 1 90.6924 55.9855 30.9913 -0.0001 -9.4353 0.0001
# 2 55.9855 87.1951 46.4744 0.0000 2.4193 0.0001
# 3 30.9913 46.4744 104.8297 0.0000 -11.1389 0.0001
# 4 -0.0001 0.0000 0.0000 15.4775 0.0000 2.5360
# 5 -9.4353 2.4193 -11.1389 0.0000 20.1695 -0.0001
# 6 0.0001 0.0001 0.0001 2.5360 -0.0001 14.4209
#
#
#
# Elastic Compliance Matrix: (Units=1/GPa)
#
#
# Indices 1 2 3 4 5 6 
#
# 1 0.020704 -0.014496 0.001614 0.000000 0.012316 0.000000
# 2 -0.014496 0.025838 -0.008731 0.000000 -0.014702 0.000000
# 3 0.001614 -0.008731 0.013943 0.000000 0.009502 0.000000
# 4 0.000000 0.000000 0.000000 0.066527 0.000000 -0.011699
# 5 0.012316 -0.014702 0.009502 0.000000 0.062352 0.000000
# 6 0.000000 0.000000 0.000000 -0.011699 0.000000 0.071401
#
#
# Mechanical properties :
#
#
# Convention : Reuss Voigt Hill
#
# Bulk Modulus (GPa) = 57.94211 61.06884 59.50547
# Shear Modulus (GPa) = 16.14239 19.96465 18.05352
#
# Velocity S-wave (km/s) = 3.12165 3.47161 3.30127
# Velocity P-wave (km/s) = 6.92610 7.27564 7.10302
#
# Compressibility (1/GPa) = 0.01725861
#
# Stress axis : x y z
#
# Youngs Moduli (GPa) = 48.29907 38.70342 71.72206
#
# Poissons Ratio (x) = 0.56103 -0.11577
# Poissons Ratio (y) = 0.70013 0.62623
# Poissons Ratio (z) = -0.07796 0.33793
#
# Static dielectric constant tensor:
#      x y z
#    x 1.566400 0.000000 -0.016150 
#    y 0.000000 1.540870 0.000000 
#    z -0.016150 0.000000 1.569350 
# 
# From -- ./inp_files/178379.got.cif
#   From: 2010.05.17/outbox.cif.g08.bks.cpg/sg12_90_cif.got.tgz:178379.got - 2010.06.03 13:09:07.
