data_PCOD9184219
_publ_section_title
;
Structure prediction by ZEFSAII (Michael W. Deem and Ramdas Pophale) SiO2 
 PCOD9184219
Probable space group: C 2/M
;
_chemical_formula_sum "Si O2"
_cell_formula_units_Z 34
_cell_length_a 10.905198
_cell_length_b 17.217650
_cell_length_c 13.767484
_cell_angle_alpha 90.000000
_cell_angle_beta 150.429785
_cell_angle_gamma 90.000000
_cell_volume 1275.675422
_symmetry_space_group_name_H-M "C 2/M"
_symmetry_group_IT_number 12
_symmetry_cell_setting 'monoclinic'
loop_
_space_group_symop_operation_xyz
x,y,z
-x,y,-z
-x,-y,-z
x,-y,z
1/2+x,1/2+y,z
1/2-x,1/2+y,-z
1/2-x,1/2-y,-z
1/2+x,1/2-y,z
loop_
_atom_site_type_symbol
_atom_site_label
_atom_site_fract_x
_atom_site_fract_y
_atom_site_fract_z
Si Si1 0.020357 0.783651 0.722951
Si Si2 0.500000 0.500000 0.000000
Si Si3 0.264104 0.912286 0.400827
Si Si4 0.268137 0.586020 0.267107
Si Si5 0.592393 0.112660 0.811519
O O1 0.750000 0.750000 0.500000
O O2 0.943964 0.847967 0.749401
O O3 0.179194 0.836156 0.758194
O O4 0.141970 0.704136 0.837997
O O5 0.317713 0.566067 0.922453
O O6 0.500000 0.889243 0.500000
O O7 0.364310 0.911112 0.580067
O O8 0.195562 0.000000 0.322210
O O9 0.500000 0.584910 0.500000
O O10 0.272288 0.500000 0.220549
O O11 0.018363 0.593322 0.158970
#
# Coordination Sequence:
#
# PCOD9184219 Si02
#       5
#     8   2   8   8   8
#     4  10  21  30  56  90 126 148 191 265 312 352
#     4  12  24  48  60  80 124 172 226 240 276 394
#     4  10  19  33  57  94 126 152 184 250 331 363
#     4  11  19  34  61  92 124 155 202 255 314 364
#     4  11  23  38  61  88 119 169 207 248 301 362
#
# _framework density 26.652547999999999
#
# number of rings (size 3 to 8) (size 9 to 14) (size 15 to 20)
#    0.000    1.412    7.059    0.706    6.588    0.000 
#    0.000    1.176    0.000    0.000    0.000    3.294 
#    0.000    0.000    0.000    0.000    0.000    0.000 
#
# Total GULP energy -94976.754084 kJ/mol
# GULP energy per Si atom -5586.867887 kJ/mol
# Density = 2.659189 g / cm^3
# Si number density = 26.652548 Si / 1000 Ang^3
#
#
#
# Elastic Constant Matrix: (Units=GPa)
#
#
# Indices 1 2 3 4 5 6 
#
# 1 68.9704 71.2688 67.9780 0.0001 47.6962 -0.0004
# 2 71.2688 302.7735 87.2388 -0.0009 59.6913 -0.0005
# 3 67.9780 87.2388 141.1472 -0.0033 30.0314 -0.0007
# 4 0.0001 -0.0009 -0.0033 47.2985 0.0001 12.3158
# 5 47.6962 59.6913 30.0314 0.0001 74.0256 -0.0002
# 6 -0.0004 -0.0005 -0.0007 12.3158 -0.0002 47.4104
#
#
#
# Elastic Compliance Matrix: (Units=1/GPa)
#
#
# Indices 1 2 3 4 5 6 
#
# 1 0.051184 -0.002068 -0.018289 -0.000001 -0.023892 0.000000
# 2 -0.002068 0.004551 -0.001444 0.000000 -0.001751 0.000000
# 3 -0.018289 -0.001444 0.015356 0.000001 0.006719 0.000000
# 4 -0.000001 0.000000 0.000001 0.022676 0.000000 -0.005891
# 5 -0.023892 -0.001751 0.006719 0.000000 0.027589 0.000000
# 6 0.000000 0.000000 0.000000 -0.005891 0.000000 0.022623
#
#
# Mechanical properties :
#
#
# Convention : Reuss Voigt Hill
#
# Bulk Modulus (GPa) = 36.37913 107.31804 71.84858
# Shear Modulus (GPa) = 25.41352 52.84062 39.12707
#
# Velocity S-wave (km/s) = 3.09125 4.45744 3.83566
# Velocity P-wave (km/s) = 5.14005 8.17586 6.82879
#
# Compressibility (1/GPa) = 0.02748829
#
# Stress axis : x y z
#
# Youngs Moduli (GPa) = 19.53718 219.73237 65.12032
#
# Poissons Ratio (x) = 0.45444 1.19101
# Poissons Ratio (y) = 0.04041 0.09404
# Poissons Ratio (z) = 0.35732 0.31733
#
# Static dielectric constant tensor:
#      x y z
#    x 2.320580 0.000000 -0.051410 
#    y 0.000000 2.014380 0.000000 
#    z -0.051410 0.000000 2.238730 
# 
# From -- ./inp_files/75593.got.cif
#   From: 2010.05.17/outbox.cif.g08.bks.cpg/sg12_38_cif.got.tgz:75593.got - 2010.06.03 13:09:07.
