data_PCOD9184951
_publ_section_title
;
Structure prediction by ZEFSAII (Michael W. Deem and Ramdas Pophale) SiO2 
 PCOD9184951
Probable space group: C 2/M
;
_chemical_formula_sum "Si O2"
_cell_formula_units_Z 48
_cell_length_a 18.032058
_cell_length_b 30.946793
_cell_length_c 10.032485
_cell_angle_alpha 90.000000
_cell_angle_beta 29.055508
_cell_angle_gamma 90.000000
_cell_volume 2718.935272
_symmetry_space_group_name_H-M "C 2/M"
_symmetry_group_IT_number 12
_symmetry_cell_setting 'monoclinic'
loop_
_space_group_symop_operation_xyz
x,y,z
-x,y,-z
-x,-y,-z
x,-y,z
1/2+x,1/2+y,z
1/2-x,1/2+y,-z
1/2-x,1/2-y,-z
1/2+x,1/2-y,z
loop_
_atom_site_type_symbol
_atom_site_label
_atom_site_fract_x
_atom_site_fract_y
_atom_site_fract_z
Si Si1 0.877940 0.451308 0.897036
Si Si2 0.145027 0.881217 0.366798
Si Si3 0.938005 0.778113 0.945533
Si Si4 0.356534 0.720206 0.628232
Si Si5 0.790780 0.451792 0.721095
Si Si6 0.552269 0.376080 0.068413
O O1 0.846040 0.500000 0.999343
O O2 0.835038 0.451789 0.807713
O O3 0.059977 0.444496 0.604708
O O4 0.781225 0.414028 0.119929
O O5 0.180658 0.830484 0.287797
O O6 0.000000 0.892026 0.500000
O O7 0.083678 0.884306 0.613687
O O8 0.798116 0.747657 0.122480
O O9 0.885418 0.827768 0.005337
O O10 0.000000 0.772081 0.000000
O O11 0.077905 0.773031 0.623532
O O12 0.500000 0.731420 0.500000
O O13 0.730840 0.500000 0.784697
O O14 0.673981 0.413464 0.890669
O O15 0.500000 0.376019 0.000000
#
# Coordination Sequence:
#
# PCOD9184951 Si02
#       6
#     8   8   8   8   8   8
#     4   9  18  33  55  81 106 135 176 219 262 314
#     4  10  19  34  55  80 107 136 178 225 260 306
#     4  10  21  38  56  77 109 147 180 216 268 327
#     4  10  21  36  55  81 110 136 181 231 266 309
#     4   9  18  34  54  79 108 137 173 218 264 314
#     4  10  21  36  53  78 110 142 175 215 264 317
#
# _framework density 17.653969
#
# number of rings (size 3 to 8) (size 9 to 14) (size 15 to 20)
#    0.000    2.333    1.667    2.000    0.000    2.667 
#    3.000    0.833    0.000    2.000    0.000    0.000 
#    0.000    0.000    0.000    0.000    0.000    0.000 
#
# Total GULP energy -133723.944941 kJ/mol
# GULP energy per Si atom -5571.831039 kJ/mol
# Density = 1.761379 g / cm^3
# Si number density = 17.653969 Si / 1000 Ang^3
#
#
#
# Elastic Constant Matrix: (Units=GPa)
#
#
# Indices 1 2 3 4 5 6 
#
# 1 21.1319 21.5293 20.0925 0.0000 8.6992 0.0000
# 2 21.5293 121.5019 73.3835 0.0000 -22.3944 0.0000
# 3 20.0925 73.3835 82.1991 0.0000 1.8027 -0.0001
# 4 0.0000 0.0000 0.0000 37.4126 0.0000 -2.3793
# 5 8.6992 -22.3944 1.8027 0.0000 30.1549 0.0001
# 6 0.0000 0.0000 -0.0001 -2.3793 0.0001 10.3713
#
#
#
# Elastic Compliance Matrix: (Units=1/GPa)
#
#
# Indices 1 2 3 4 5 6 
#
# 1 0.089709 -0.024764 0.001153 0.000000 -0.044340 0.000001
# 2 -0.024764 0.033969 -0.025015 0.000000 0.033866 0.000000
# 3 0.001153 -0.025015 0.034676 0.000000 -0.020983 0.000000
# 4 0.000000 0.000000 0.000000 0.027125 0.000000 0.006223
# 5 -0.044340 0.033866 -0.020983 0.000000 0.072359 -0.000001
# 6 0.000001 0.000000 0.000000 0.006223 -0.000001 0.097848
#
#
# Mechanical properties :
#
#
# Convention : Reuss Voigt Hill
#
# Bulk Modulus (GPa) = 16.36654 50.53816 33.45235
# Shear Modulus (GPa) = 10.56401 22.90961 16.73681
#
# Velocity S-wave (km/s) = 2.44886 3.60627 3.08238
# Velocity P-wave (km/s) = 4.15773 6.78450 5.62656
#
# Compressibility (1/GPa) = 0.06110028
#
# Stress axis : x y z
#
# Youngs Moduli (GPa) = 11.14719 29.43878 28.83815
#
# Poissons Ratio (x) = 0.72903 -0.03324
# Poissons Ratio (y) = 0.27605 0.72139
# Poissons Ratio (z) = -0.01285 0.73641
#
# Static dielectric constant tensor:
#      x y z
#    x 1.555810 0.000000 0.010590 
#    y 0.000000 1.630880 0.000000 
#    z 0.010590 0.000000 1.589920 
# 
# From -- ./inp_files/80552.got.cif
#   From: 2010.05.17/outbox.cif.g08.bks.cpg/sg12_41_cif.got.tgz:80552.got - 2010.06.03 13:09:07.
