data_PCOD9184113
_publ_section_title
;
Structure prediction by ZEFSAII (Michael W. Deem and Ramdas Pophale) SiO2 
 PCOD9184113
Probable space group: C 2/M
;
_chemical_formula_sum "Si O2"
_cell_formula_units_Z 56
_cell_length_a 20.410410
_cell_length_b 7.648237
_cell_length_c 20.122656
_cell_angle_alpha 90.000000
_cell_angle_beta 52.992477
_cell_angle_gamma 90.000000
_cell_volume 2508.441686
_symmetry_space_group_name_H-M "C 2/M"
_symmetry_group_IT_number 12
_symmetry_cell_setting 'monoclinic'
loop_
_space_group_symop_operation_xyz
x,y,z
-x,y,-z
-x,-y,-z
x,-y,z
1/2+x,1/2+y,z
1/2-x,1/2+y,-z
1/2-x,1/2-y,-z
1/2+x,1/2-y,z
loop_
_atom_site_type_symbol
_atom_site_label
_atom_site_fract_x
_atom_site_fract_y
_atom_site_fract_z
Si Si1 0.084487 0.700611 0.744927
Si Si2 0.289427 0.286168 0.791455
Si Si3 0.472886 0.297727 0.697803
Si Si4 0.813568 0.708829 0.020179
Si Si5 0.931620 0.213008 0.487096
Si Si6 0.502514 0.297339 0.073347
Si Si7 0.236577 0.785765 0.345239
O O1 0.084799 0.500000 0.723014
O O2 0.175744 0.773951 0.681019
O O3 0.016219 0.791092 0.742048
O O4 0.058212 0.708408 0.837713
O O5 0.287467 0.500000 0.794773
O O6 0.381261 0.223894 0.753466
O O7 0.225559 0.227537 0.886390
O O8 0.271276 0.233719 0.727103
O O9 0.461303 0.500000 0.685364
O O10 0.534099 0.224040 0.604509
O O11 0.822836 0.500000 0.017231
O O12 0.750000 0.750000 0.000000
O O13 0.904495 0.784042 0.956736
O O14 0.842323 0.273806 0.565125
O O15 0.000000 0.258781 0.500000
O O16 0.926288 0.000000 0.489270
O O17 0.478114 0.500000 0.084908
O O18 0.500000 0.224485 0.000000
O O19 0.237554 0.000000 0.345053
#
# Coordination Sequence:
#
# PCOD9184113 Si02
#       7
#     8   8   8   8   8   8   8
#     4  11  23  37  55  81 116 153 186 228 287 353
#     4   9  17  31  53  80 106 138 184 236 279 322
#     4  10  19  33  57  85 114 147 186 234 281 330
#     4  11  22  36  57  85 118 155 196 242 292 347
#     4   9  15  28  54  86 113 141 186 236 280 325
#     4  11  24  42  62  83 112 150 196 249 302 355
#     4   9  17  31  52  81 111 140 185 236 275 326
#
# _framework density 22.324615999999999
#
# number of rings (size 3 to 8) (size 9 to 14) (size 15 to 20)
#    0.000    2.000    1.429    3.000    0.000    4.000 
#    0.000    0.714    0.000    3.000    0.000    0.000 
#    0.000    0.000    0.000    0.000    0.000    0.000 
#
# Total GULP energy -156495.046081 kJ/mol
# GULP energy per Si atom -5589.108789 kJ/mol
# Density = 2.227380 g / cm^3
# Si number density = 22.324616 Si / 1000 Ang^3
#
#
#
# Elastic Constant Matrix: (Units=GPa)
#
#
# Indices 1 2 3 4 5 6 
#
# 1 61.7098 -7.0682 -5.4094 -0.0001 -17.2215 0.0006
# 2 -7.0682 44.7096 1.6723 0.0000 -1.4795 0.0015
# 3 -5.4094 1.6723 95.0666 0.0000 -15.4822 -0.0001
# 4 -0.0001 0.0000 0.0000 -2.4497 0.0000 3.4022
# 5 -17.2215 -1.4795 -15.4822 0.0000 41.1835 -0.0001
# 6 0.0006 0.0015 -0.0001 3.4022 -0.0001 0.8725
#
#
#
# Elastic Compliance Matrix: (Units=1/GPa)
#
#
# Indices 1 2 3 4 5 6 
#
# 1 0.019360 0.003269 0.002537 -0.000004 0.009167 -0.000002
# 2 0.003269 0.022952 0.000148 -0.000009 0.002247 -0.000006
# 3 0.002537 0.000148 0.011541 0.000000 0.005405 0.000000
# 4 -0.000004 -0.000009 0.000000 -0.063627 -0.000002 0.248117
# 5 0.009167 0.002247 0.005405 -0.000002 0.030227 -0.000001
# 6 -0.000002 -0.000006 0.000000 0.248117 -0.000001 0.178651
#
#
# Mechanical properties :
#
#
# Convention : Reuss Voigt Hill
#
# Bulk Modulus (GPa) = 15.20642 19.98615 17.59628
# Shear Modulus (GPa) = 23.91014 22.07402 22.99208
#
# Velocity S-wave (km/s) = 3.27620 3.14789 3.21268
# Velocity P-wave (km/s) = 4.59756 4.71001 4.65413
#
# Compressibility (1/GPa) = 0.06576170
#
# Stress axis : x y z
#
# Youngs Moduli (GPa) = 51.65308 43.56882 86.64840
#
# Poissons Ratio (x) = -0.14243 -0.21982
# Poissons Ratio (y) = -0.16886 -0.01285
# Poissons Ratio (z) = -0.13104 -0.00646
#
# Static dielectric constant tensor:
#      x y z
#    x 1.786350 0.000000 -0.003120 
#    y 0.000000 1.853240 0.000000 
#    z -0.003120 0.000000 1.806510 
# 
# From -- ./inp_files/319731.got.cif
#   From: 2010.05.17/outbox.cif.g08.bks.cpg/sg12_160_cif.got.tgz:319731.got - 2010.06.03 13:09:07.
