data_PCOD9184328
_publ_section_title
;
Structure prediction by ZEFSAII (Michael W. Deem and Ramdas Pophale) SiO2 
 PCOD9184328
Probable space group: C 2/M
;
_chemical_formula_sum "Si O2"
_cell_formula_units_Z 60
_cell_length_a 8.718266
_cell_length_b 21.842595
_cell_length_c 14.716121
_cell_angle_alpha 90.000000
_cell_angle_beta 110.634656
_cell_angle_gamma 90.000000
_cell_volume 2622.601722
_symmetry_space_group_name_H-M "C 2/M"
_symmetry_group_IT_number 12
_symmetry_cell_setting 'monoclinic'
loop_
_space_group_symop_operation_xyz
x,y,z
-x,y,-z
-x,-y,-z
x,-y,z
1/2+x,1/2+y,z
1/2-x,1/2+y,-z
1/2-x,1/2-y,-z
1/2+x,1/2-y,z
loop_
_atom_site_type_symbol
_atom_site_label
_atom_site_fract_x
_atom_site_fract_y
_atom_site_fract_z
Si Si1 0.917851 0.429360 0.098090
Si Si2 0.764430 0.738797 0.800030
Si Si3 0.921612 0.926113 0.621516
Si Si4 0.369382 0.429551 0.811348
Si Si5 0.236577 0.573893 0.399729
Si Si6 0.021607 0.663519 0.256906
Si Si7 0.689244 0.360991 0.924815
Si Si8 0.000000 0.221024 0.000000
O O1 0.975650 0.500000 0.104431
O O2 0.779840 0.428288 0.149855
O O3 0.031288 0.377454 0.165990
O O4 0.833659 0.405879 0.987213
O O5 0.836123 0.714734 0.720527
O O6 0.647202 0.797967 0.769666
O O7 0.682297 0.682057 0.835512
O O8 0.928308 0.747182 0.896421
O O9 0.856444 0.904553 0.705750
O O10 0.809817 0.907857 0.512888
O O11 0.113177 0.912683 0.639527
O O12 0.913318 0.000000 0.617516
O O13 0.413562 0.500000 0.808548
O O14 0.522946 0.398355 0.889300
O O15 0.204989 0.500000 0.390003
O O16 0.076943 0.613426 0.342350
O O17 0.662486 0.314432 0.002181
#
# Coordination Sequence:
#
# PCOD9184328 Si02
#       8
#     8   8   8   8   8   8   8   4
#     4  11  23  38  58  90 128 159 196 254 318 365
#     4  12  25  39  63  87 122 167 226 252 294 358
#     4   8  16  34  63  97 124 158 203 247 310 383
#     4  10  19  33  58  91 124 159 199 246 308 376
#     4   9  18  37  66  96 127 157 197 258 320 371
#     4  12  24  42  61  94 122 165 208 260 308 367
#     4  12  20  36  58  86 122 164 204 252 300 358
#     4  12  20  40  55  82 113 162 216 252 284 342
#
# _framework density 22.878045
#
# number of rings (size 3 to 8) (size 9 to 14) (size 15 to 20)
#    0.000    1.333    4.000    3.600    0.000    1.067 
#    0.000    3.333    0.000   10.400    0.000    0.000 
#    0.000    0.000    0.000    0.000    0.000    0.000 
#
# Total GULP energy -167330.974207 kJ/mol
# GULP energy per Si atom -5577.699140 kJ/mol
# Density = 2.282597 g / cm^3
# Si number density = 22.878045 Si / 1000 Ang^3
#
#
#
# Elastic Constant Matrix: (Units=GPa)
#
#
# Indices 1 2 3 4 5 6 
#
# 1 60.1348 39.7753 23.1708 0.0000 9.8115 0.0000
# 2 39.7753 113.9678 28.9223 0.0000 16.2037 0.0000
# 3 23.1708 28.9223 82.6651 0.0000 8.7017 0.0000
# 4 0.0000 0.0000 0.0000 25.5547 0.0000 12.2491
# 5 9.8115 16.2037 8.7017 0.0000 29.8428 0.0000
# 6 0.0000 0.0000 0.0000 12.2491 0.0000 35.7310
#
#
#
# Elastic Compliance Matrix: (Units=1/GPa)
#
#
# Indices 1 2 3 4 5 6 
#
# 1 0.022952 -0.006641 -0.003812 0.000000 -0.002829 0.000000
# 2 -0.006641 0.012140 -0.001983 0.000000 -0.003830 0.000000
# 3 -0.003812 -0.001983 0.014045 0.000000 -0.001765 0.000000
# 4 0.000000 0.000000 0.000000 0.046826 0.000000 -0.016053
# 5 -0.002829 -0.003830 -0.001765 0.000000 0.037033 0.000000
# 6 0.000000 0.000000 0.000000 -0.016053 0.000000 0.033490
#
#
# Mechanical properties :
#
#
# Convention : Reuss Voigt Hill
#
# Bulk Modulus (GPa) = 41.21087 48.94493 45.07790
# Shear Modulus (GPa) = 25.06934 29.21900 27.14417
#
# Velocity S-wave (km/s) = 3.31385 3.57762 3.44826
# Velocity P-wave (km/s) = 5.71791 6.20533 5.96660
#
# Compressibility (1/GPa) = 0.02426544
#
# Stress axis : x y z
#
# Youngs Moduli (GPa) = 43.56882 82.37358 71.19903
#
# Poissons Ratio (x) = 0.54703 0.27143
# Poissons Ratio (y) = 0.28933 0.14118
# Poissons Ratio (z) = 0.16609 0.16333
#
# Static dielectric constant tensor:
#      x y z
#    x 1.986170 0.000000 -0.046250 
#    y 0.000000 1.940470 0.000000 
#    z -0.046250 0.000000 1.896760 
# 
# From -- ./inp_files/198915.got.cif
#   From: 2010.05.17/outbox.cif.g08.bks.cpg/sg12_100_cif.got.tgz:198915.got - 2010.06.03 13:09:07.
