data_PCOD9184848
_publ_section_title
;
Structure prediction by ZEFSAII (Michael W. Deem and Ramdas Pophale) SiO2 
 PCOD9184848
Probable space group: C 2/M
;
_chemical_formula_sum "Si O2"
_cell_formula_units_Z 64
_cell_length_a 15.208459
_cell_length_b 7.577111
_cell_length_c 30.651984
_cell_angle_alpha 90.000000
_cell_angle_beta 61.160307
_cell_angle_gamma 90.000000
_cell_volume 3094.126277
_symmetry_space_group_name_H-M "C 2/M"
_symmetry_group_IT_number 12
_symmetry_cell_setting 'monoclinic'
loop_
_space_group_symop_operation_xyz
x,y,z
-x,y,-z
-x,-y,-z
x,-y,z
1/2+x,1/2+y,z
1/2-x,1/2+y,-z
1/2-x,1/2-y,-z
1/2+x,1/2-y,z
loop_
_atom_site_type_symbol
_atom_site_label
_atom_site_fract_x
_atom_site_fract_y
_atom_site_fract_z
Si Si1 0.619012 0.714352 0.768070
Si Si2 0.053968 0.207771 0.688938
Si Si3 0.327444 0.285792 0.423536
Si Si4 0.440422 0.297051 0.054819
Si Si5 0.960030 0.705839 0.881141
Si Si6 0.828670 0.287053 0.756056
Si Si7 0.777915 0.716597 0.866378
Si Si8 0.103341 0.290594 0.496902
O O1 0.614654 0.500000 0.769837
O O2 0.582743 0.780056 0.729700
O O3 0.546957 0.775650 0.824150
O O4 0.732520 0.768613 0.751229
O O5 0.115815 0.279113 0.633183
O O6 0.934989 0.227563 0.712347
O O7 0.077664 0.000000 0.685079
O O8 0.325153 0.500000 0.423770
O O9 0.211533 0.222276 0.453671
O O10 0.386885 0.234869 0.453321
O O11 0.418446 0.500000 0.047468
O O12 0.507543 0.295585 0.082037
O O13 0.332823 0.220509 0.094367
O O14 0.500000 0.215447 0.000000
O O15 0.946457 0.500000 0.894409
O O16 0.859313 0.773069 0.882364
O O17 0.829882 0.500000 0.756445
O O18 0.811588 0.226184 0.810037
O O19 0.777717 0.500000 0.864993
O O20 0.103574 0.500000 0.487976
O O21 0.000000 0.220325 0.500000
#
# Coordination Sequence:
#
# PCOD9184848 Si02
#       8
#     8   8   8   8   8   8   8   8
#     4  10  20  35  55  77 104 141 182 216 257 316
#     4  10  21  35  52  79 113 142 177 223 265 313
#     4   9  19  35  52  77 114 145 172 221 276 312
#     4  10  21  39  60  79 104 140 179 217 262 322
#     4  11  21  34  55  79 108 138 170 218 269 314
#     4  10  19  34  55  76 104 141 178 218 262 313
#     4   9  18  34  54  78 106 136 171 214 264 312
#     4   9  18  34  58  82 104 139 187 225 259 315
#
# _framework density 20.684353999999999
#
# number of rings (size 3 to 8) (size 9 to 14) (size 15 to 20)
#    0.000    2.250    2.500    0.375    0.000    3.000 
#    0.000    3.750    0.000    0.000    0.000    0.000 
#    0.000    0.000    0.000    0.000    0.000    0.000 
#
# Total GULP energy -178642.389853 kJ/mol
# GULP energy per Si atom -5582.574683 kJ/mol
# Density = 2.063727 g / cm^3
# Si number density = 20.684354 Si / 1000 Ang^3
#
#
#
# Elastic Constant Matrix: (Units=GPa)
#
#
# Indices 1 2 3 4 5 6 
#
# 1 69.7585 6.0220 -15.3497 -0.0001 -2.3412 -0.0001
# 2 6.0220 41.4082 3.9128 -0.0001 -2.2786 0.0000
# 3 -15.3497 3.9128 83.0528 -0.0002 -5.3903 -0.0001
# 4 -0.0001 -0.0001 -0.0002 -37.6802 -0.0001 -3.4932
# 5 -2.3412 -2.2786 -5.3903 -0.0001 19.8821 0.0000
# 6 -0.0001 0.0000 -0.0001 -3.4932 0.0000 12.6426
#
#
#
# Elastic Compliance Matrix: (Units=1/GPa)
#
#
# Indices 1 2 3 4 5 6 
#
# 1 0.015302 -0.002387 0.003094 0.000000 0.002367 0.000000
# 2 -0.002387 0.024754 -0.001467 0.000000 0.002158 0.000000
# 3 0.003094 -0.001467 0.012922 0.000000 0.003699 0.000000
# 4 0.000000 0.000000 0.000000 -0.025876 0.000000 -0.007150
# 5 0.002367 0.002158 0.003699 0.000000 0.051826 0.000000
# 6 0.000000 0.000000 0.000000 -0.007150 0.000000 0.077122
#
#
# Mechanical properties :
#
#
# Convention : Reuss Voigt Hill
#
# Bulk Modulus (GPa) = 19.43402 20.37662 19.90532
# Shear Modulus (GPa) = 28.61682 12.27787 20.44734
#
# Velocity S-wave (km/s) = 3.72358 2.43900 3.14752
# Velocity P-wave (km/s) = 5.28229 4.21951 4.78053
#
# Compressibility (1/GPa) = 0.05145617
#
# Stress axis : x y z
#
# Youngs Moduli (GPa) = 65.35292 40.39685 77.38972
#
# Poissons Ratio (x) = 0.09644 -0.23945
# Poissons Ratio (y) = 0.15602 0.11356
# Poissons Ratio (z) = -0.20221 0.05928
#
# Static dielectric constant tensor:
#      x y z
#    x 1.719550 0.000000 -0.009810 
#    y 0.000000 1.814660 0.000000 
#    z -0.009810 0.000000 1.712430 
# 
# From -- ./inp_files/375005.got.cif
#   From: 2010.05.17/outbox.cif.g08.bks.cpg/sg12_188_cif.got.tgz:375005.got - 2010.06.03 13:09:07.
