data_PCOD9184029
_publ_section_title
;
Structure prediction by ZEFSAII (Michael W. Deem and Ramdas Pophale) SiO2 
 PCOD9184029
Probable space group: C 2/M
;
_chemical_formula_sum "Si O2"
_cell_formula_units_Z 56
_cell_length_a 9.791368
_cell_length_b 17.734663
_cell_length_c 25.879839
_cell_angle_alpha 90.000000
_cell_angle_beta 42.373645
_cell_angle_gamma 90.000000
_cell_volume 3028.751952
_symmetry_space_group_name_H-M "C 2/M"
_symmetry_group_IT_number 12
_symmetry_cell_setting 'monoclinic'
loop_
_space_group_symop_operation_xyz
x,y,z
-x,y,-z
-x,-y,-z
x,-y,z
1/2+x,1/2+y,z
1/2-x,1/2+y,-z
1/2-x,1/2-y,-z
1/2+x,1/2-y,z
loop_
_atom_site_type_symbol
_atom_site_label
_atom_site_fract_x
_atom_site_fract_y
_atom_site_fract_z
Si Si1 0.992551 0.084039 0.257236
Si Si2 0.724361 0.720132 0.949748
Si Si3 0.748542 0.411648 0.868987
Si Si4 0.944926 0.234946 0.650978
Si Si5 0.835016 0.662174 0.587232
Si Si6 0.108256 0.187855 0.810855
Si Si7 0.730106 0.085648 0.726026
O O1 0.804353 0.097746 0.348546
O O2 0.959887 0.137554 0.218396
O O3 0.191285 0.095971 0.236800
O O4 0.994693 0.000000 0.236717
O O5 0.721295 0.633420 0.930691
O O6 0.923938 0.753988 0.867406
O O7 0.500000 0.750195 0.000000
O O8 0.750000 0.750000 0.000000
O O9 0.685241 0.500000 0.887899
O O10 0.642939 0.361802 0.853013
O O11 0.989033 0.410697 0.789836
O O12 0.935313 0.291611 0.605958
O O13 0.813782 0.270677 0.734811
O O14 0.836099 0.155263 0.667547
O O15 0.170523 0.216458 0.605902
O O16 0.000000 0.636428 0.500000
O O17 0.793359 0.000000 0.693273
#
# Coordination Sequence:
#
# PCOD9184029 Si02
#       7
#     8   8   8   8   8   8   8
#     4   9  20  36  57  85 115 150 194 244 292 345
#     4  12  26  42  61  89 120 156 194 244 300 358
#     4  11  23  40  63  88 118 152 192 245 296 350
#     4  10  19  33  57  80 112 149 197 239 285 341
#     4  10  20  32  52  82 115 151 188 237 291 347
#     4  11  22  38  63  86 115 151 202 244 290 348
#     4   9  18  33  56  83 110 145 193 244 290 338
#
# _framework density 18.489463000000001
#
# number of rings (size 3 to 8) (size 9 to 14) (size 15 to 20)
#    0.000    1.714    2.857    1.714    6.000    0.571 
#    0.000    0.000    0.000    2.571    0.000    0.000 
#    0.000    0.000    0.000    0.000    0.000    0.000 
#
# Total GULP energy -156016.107237 kJ/mol
# GULP energy per Si atom -5572.003830 kJ/mol
# Density = 1.844738 g / cm^3
# Si number density = 18.489463 Si / 1000 Ang^3
#
#
#
# Elastic Constant Matrix: (Units=GPa)
#
#
# Indices 1 2 3 4 5 6 
#
# 1 56.9905 15.8259 13.9484 -0.0003 -10.0102 -0.0001
# 2 15.8259 85.0160 5.9077 0.0003 8.7862 -0.0005
# 3 13.9484 5.9077 48.8183 -0.0008 0.5488 -0.0002
# 4 -0.0003 0.0003 -0.0008 5.0692 0.0002 -8.4067
# 5 -10.0102 8.7862 0.5488 0.0002 25.9038 0.0003
# 6 -0.0001 -0.0005 -0.0002 -8.4067 0.0003 16.3606
#
#
#
# Elastic Compliance Matrix: (Units=1/GPa)
#
#
# Indices 1 2 3 4 5 6 
#
# 1 0.022112 -0.004773 -0.005856 -0.000002 0.010288 -0.000001
# 2 -0.004773 0.013320 -0.000177 -0.000001 -0.006359 0.000000
# 3 -0.005856 -0.000177 0.022209 0.000026 -0.002674 0.000013
# 4 -0.000002 -0.000001 0.000026 1.334157 -0.000016 0.685539
# 5 0.010288 -0.006359 -0.002674 -0.000016 0.044793 -0.000009
# 6 -0.000001 0.000000 0.000013 0.685539 -0.000009 0.413378
#
#
# Mechanical properties :
#
#
# Convention : Reuss Voigt Hill
#
# Bulk Modulus (GPa) = 27.75422 29.13209 28.44316
# Shear Modulus (GPa) = 2.65450 19.80959 11.23204
#
# Velocity S-wave (km/s) = 1.19950 3.27677 2.46739
# Velocity P-wave (km/s) = 4.11847 5.48695 4.85121
#
# Compressibility (1/GPa) = 0.03603055
#
# Stress axis : x y z
#
# Youngs Moduli (GPa) = 45.22339 75.07306 45.02725
#
# Poissons Ratio (x) = 0.35829 0.26368
# Poissons Ratio (y) = 0.21583 0.00796
# Poissons Ratio (z) = 0.26483 0.01328
#
# Static dielectric constant tensor:
#      x y z
#    x 1.621940 0.000000 0.013530 
#    y 0.000000 1.662470 0.000000 
#    z 0.013530 0.000000 1.651150 
# 
# From -- ./inp_files/356651.got.cif
#   From: 2010.05.17/outbox.cif.g08.bks.cpg/sg12_179_cif.got.tgz:356651.got - 2010.06.03 13:09:07.
