data_PCOD9184455
_publ_section_title
;
Structure prediction by ZEFSAII (Michael W. Deem and Ramdas Pophale) SiO2 
 PCOD9184455
Probable space group: C 2/M
;
_chemical_formula_sum "Si O2"
_cell_formula_units_Z 44
_cell_length_a 30.629570
_cell_length_b 9.567456
_cell_length_c 6.897209
_cell_angle_alpha 90.000000
_cell_angle_beta 113.662479
_cell_angle_gamma 90.000000
_cell_volume 1851.275127
_symmetry_space_group_name_H-M "C 2/M"
_symmetry_group_IT_number 12
_symmetry_cell_setting 'monoclinic'
loop_
_space_group_symop_operation_xyz
x,y,z
-x,y,-z
-x,-y,-z
x,-y,z
1/2+x,1/2+y,z
1/2-x,1/2+y,-z
1/2-x,1/2-y,-z
1/2+x,1/2-y,z
loop_
_atom_site_type_symbol
_atom_site_label
_atom_site_fract_x
_atom_site_fract_y
_atom_site_fract_z
Si Si1 0.012277 0.839470 0.753241
Si Si2 0.182537 0.719177 0.442038
Si Si3 0.795943 0.655686 0.083216
Si Si4 0.755946 0.000000 0.409642
Si Si5 0.398576 0.162355 0.172362
Si Si6 0.423149 0.160923 0.677083
O O1 0.060917 0.752136 0.856512
O O2 0.000000 0.839749 0.500000
O O3 0.967835 0.763543 0.775556
O O4 0.018265 0.000000 0.821811
O O5 0.190575 0.648888 0.667286
O O6 0.214905 0.625196 0.360501
O O7 0.125961 0.706678 0.307854
O O8 0.202458 0.875630 0.496878
O O9 0.780889 0.500000 0.986886
O O10 0.843644 0.711807 0.066965
O O11 0.750000 0.750000 0.000000
O O12 0.411680 0.163072 0.425057
O O13 0.399024 0.000000 0.113428
O O14 0.435049 0.000000 0.747272
#
# Coordination Sequence:
#
# PCOD9184455 Si02
#       6
#     8   8   8   4   8   8
#     4   9  16  23  36  61  88 116 150 187 226 279
#     4  10  19  34  48  72  96 130 161 201 239 283
#     4  10  20  33  49  71 100 130 164 196 234 288
#     4  10  20  32  52  66  96 128 164 204 242 278
#     4   8  15  28  41  57  87 125 154 182 225 281
#     4   9  15  26  42  60  89 122 152 184 231 287
#
# _framework density 23.767403999999999
#
# number of rings (size 3 to 8) (size 9 to 14) (size 15 to 20)
#    0.000    2.727    1.818    1.636    2.545    2.909 
#    3.273    0.000    0.000    0.000    0.000    0.000 
#    0.000    8.727    0.000    0.000    0.000    0.000 
#
# Total GULP energy -122620.862585 kJ/mol
# GULP energy per Si atom -5573.675572 kJ/mol
# Density = 2.371331 g / cm^3
# Si number density = 23.767404 Si / 1000 Ang^3
#
#
#
# Elastic Constant Matrix: (Units=GPa)
#
#
# Indices 1 2 3 4 5 6 
#
# 1 240.0192 100.7444 20.7728 0.0000 47.5615 0.0000
# 2 100.7444 261.7420 69.7658 0.0000 59.9074 0.0000
# 3 20.7728 69.7658 117.9406 0.0000 27.1536 0.0000
# 4 0.0000 0.0000 0.0000 48.3558 0.0000 -1.5703
# 5 47.5615 59.9074 27.1536 0.0000 63.7592 0.0000
# 6 0.0000 0.0000 0.0000 -1.5703 0.0000 41.8346
#
#
#
# Elastic Compliance Matrix: (Units=1/GPa)
#
#
# Indices 1 2 3 4 5 6 
#
# 1 0.005323 -0.001589 0.000635 0.000000 -0.002748 0.000000
# 2 -0.001589 0.005821 -0.002414 0.000000 -0.003256 0.000000
# 3 0.000635 -0.002414 0.010402 0.000000 -0.002636 0.000000
# 4 0.000000 0.000000 0.000000 0.020705 0.000000 0.000777
# 5 -0.002748 -0.003256 -0.002636 0.000000 0.021916 0.000000
# 6 0.000000 0.000000 0.000000 0.000777 0.000000 0.023933
#
#
# Mechanical properties :
#
#
# Convention : Reuss Voigt Hill
#
# Bulk Modulus (GPa) = 67.52209 111.36308 89.44259
# Shear Modulus (GPa) = 50.11488 59.35117 54.73303
#
# Velocity S-wave (km/s) = 4.59688 5.00259 4.80402
# Velocity P-wave (km/s) = 7.52637 8.96242 8.27560
#
# Compressibility (1/GPa) = 0.01480997
#
# Stress axis : x y z
#
# Youngs Moduli (GPa) = 187.86707 171.79947 96.13923
#
# Poissons Ratio (x) = 0.27301 -0.06107
# Poissons Ratio (y) = 0.29854 0.23205
# Poissons Ratio (z) = -0.11933 0.41467
#
# Static dielectric constant tensor:
#      x y z
#    x 1.886570 0.000000 -0.099890 
#    y 0.000000 1.796880 0.000000 
#    z -0.099890 0.000000 2.107920 
# 
# From -- ./inp_files/107947.got.cif
#   From: 2010.05.17/outbox.cif.g08.bks.cpg/sg12_54_cif.got.tgz:107947.got - 2010.06.03 13:09:07.
