data_PCOD9184852
_publ_section_title
;
Structure prediction by ZEFSAII (Michael W. Deem and Ramdas Pophale) SiO2 
 PCOD9184852
Probable space group: C 2/M
;
_chemical_formula_sum "Si O2"
_cell_formula_units_Z 40
_cell_length_a 14.190813
_cell_length_b 14.138007
_cell_length_c 16.654026
_cell_angle_alpha 90.000000
_cell_angle_beta 32.088858
_cell_angle_gamma 90.000000
_cell_volume 1775.008493
_symmetry_space_group_name_H-M "C 2/M"
_symmetry_group_IT_number 12
_symmetry_cell_setting 'monoclinic'
loop_
_space_group_symop_operation_xyz
x,y,z
-x,y,-z
-x,-y,-z
x,-y,z
1/2+x,1/2+y,z
1/2-x,1/2+y,-z
1/2-x,1/2-y,-z
1/2+x,1/2-y,z
loop_
_atom_site_type_symbol
_atom_site_label
_atom_site_fract_x
_atom_site_fract_y
_atom_site_fract_z
Si Si1 0.058887 0.799596 0.642788
Si Si2 0.877677 0.395213 0.912444
Si Si3 0.457320 0.691149 0.901553
Si Si4 0.222536 0.100550 0.392377
Si Si5 0.339322 0.789687 0.667787
O O1 0.250000 0.750000 0.500000
O O2 0.094465 0.889888 0.560812
O O3 0.009140 0.818007 0.769549
O O4 0.918274 0.736476 0.696475
O O5 0.854003 0.500000 0.966846
O O6 0.896794 0.301653 0.955326
O O7 0.070780 0.396586 0.731685
O O8 0.714788 0.374624 0.970561
O O9 0.640729 0.668457 0.814416
O O10 0.191739 0.190680 0.358241
O O11 0.198066 0.000000 0.368169
O O12 0.500000 0.837628 0.500000
#
# Coordination Sequence:
#
# PCOD9184852 Si02
#       5
#     8   8   8   8   8
#     4  11  18  31  53  79 101 132 176 214 260 313
#     4   9  18  34  54  74 103 142 173 209 264 315
#     4  10  19  34  55  76 105 137 173 217 261 308
#     4   9  18  33  53  78 107 135 168 219 271 316
#     4   9  17  30  51  77 103 134 169 215 260 316
#
# _framework density 22.535102999999999
#
# number of rings (size 3 to 8) (size 9 to 14) (size 15 to 20)
#    0.000    2.400    6.000    0.000    0.000    4.400 
#    0.000    9.000    0.000   10.200    0.000    0.000 
#    0.000    0.000    0.000    0.000    0.000    0.000 
#
# Total GULP energy -111411.067398 kJ/mol
# GULP energy per Si atom -5570.553370 kJ/mol
# Density = 2.248381 g / cm^3
# Si number density = 22.535103 Si / 1000 Ang^3
#
#
#
# Elastic Constant Matrix: (Units=GPa)
#
#
# Indices 1 2 3 4 5 6 
#
# 1 101.7972 -8.6756 45.3250 -0.0002 -36.1923 0.0001
# 2 -8.6756 43.8244 6.3322 -0.0008 1.6588 0.0003
# 3 45.3250 6.3322 126.8499 -0.0007 -47.0597 0.0003
# 4 -0.0002 -0.0008 -0.0007 19.9449 0.0004 -3.9170
# 5 -36.1923 1.6588 -47.0597 0.0004 59.4455 -0.0002
# 6 0.0001 0.0003 0.0003 -3.9170 -0.0002 8.1445
#
#
#
# Elastic Compliance Matrix: (Units=1/GPa)
#
#
# Indices 1 2 3 4 5 6 
#
# 1 0.013379 0.002820 -0.002730 0.000000 0.005905 0.000000
# 2 0.002820 0.023782 -0.002554 0.000001 -0.000969 0.000000
# 3 -0.002730 -0.002554 0.011887 0.000000 0.007819 0.000000
# 4 0.000000 0.000001 0.000000 0.055368 0.000000 0.026628
# 5 0.005905 -0.000969 0.007819 0.000000 0.026635 0.000000
# 6 0.000000 0.000000 0.000000 0.026628 0.000000 0.135588
#
#
# Mechanical properties :
#
#
# Convention : Reuss Voigt Hill
#
# Bulk Modulus (GPa) = 22.66616 39.82608 31.24612
# Shear Modulus (GPa) = 17.46571 32.80632 25.13601
#
# Velocity S-wave (km/s) = 2.78698 3.81962 3.34341
# Velocity P-wave (km/s) = 4.52066 6.09622 5.36658
#
# Compressibility (1/GPa) = 0.04411863
#
# Stress axis : x y z
#
# Youngs Moduli (GPa) = 74.74393 42.04820 84.12291
#
# Poissons Ratio (x) = -0.11856 0.22969
# Poissons Ratio (y) = -0.21074 0.21486
# Poissons Ratio (z) = 0.20408 0.10740
#
# Static dielectric constant tensor:
#      x y z
#    x 1.876380 0.000000 -0.024080 
#    y 0.000000 1.909050 0.000000 
#    z -0.024080 0.000000 1.929970 
# 
# From -- ./inp_files/311164.got.cif
#   From: 2010.05.17/outbox.cif.g08.bks.cpg/sg12_156_cif.got.tgz:311164.got - 2010.06.03 13:09:07.
