data_PCOD9184116
_publ_section_title
;
Structure prediction by ZEFSAII (Michael W. Deem and Ramdas Pophale) SiO2 
 PCOD9184116
Probable space group: C 2/M
;
_chemical_formula_sum "Si O2"
_cell_formula_units_Z 40
_cell_length_a 21.708306
_cell_length_b 18.211271
_cell_length_c 13.486470
_cell_angle_alpha 90.000000
_cell_angle_beta 156.374974
_cell_angle_gamma 90.000000
_cell_volume 2136.668756
_symmetry_space_group_name_H-M "C 2/M"
_symmetry_group_IT_number 12
_symmetry_cell_setting 'monoclinic'
loop_
_space_group_symop_operation_xyz
x,y,z
-x,y,-z
-x,-y,-z
x,-y,z
1/2+x,1/2+y,z
1/2-x,1/2+y,-z
1/2-x,1/2-y,-z
1/2+x,1/2-y,z
loop_
_atom_site_type_symbol
_atom_site_label
_atom_site_fract_x
_atom_site_fract_y
_atom_site_fract_z
Si Si1 0.457279 0.778526 0.633029
Si Si2 0.406825 0.083133 0.262312
Si Si3 0.387458 0.226373 0.925285
Si Si4 0.215526 0.915504 0.722752
Si Si5 0.898595 0.138955 0.228974
O O1 0.507072 0.861601 0.684606
O O2 0.277855 0.765228 0.341746
O O3 0.553791 0.723734 0.703729
O O4 0.520400 0.757223 0.836106
O O5 0.500000 0.079959 0.500000
O O6 0.387559 0.000000 0.195532
O O7 0.243104 0.118534 0.048029
O O8 0.338689 0.140605 0.861679
O O9 0.500000 0.240035 0.000000
O O10 0.166373 0.886770 0.760000
O O11 0.052002 0.904780 0.426715
O O12 0.259995 0.000000 0.788720
#
# Coordination Sequence:
#
# PCOD9184116 Si02
#       5
#     8   8   8   8   8
#     4  11  23  38  61  84 116 150 198 240 286 343
#     4  11  22  33  53  86 123 150 178 228 294 357
#     4  11  24  40  59  82 113 159 201 239 279 330
#     4  10  20  34  58  88 115 143 181 237 293 345
#     4  10  19  33  57  85 115 146 178 231 294 350
#
# _framework density 18.72073
#
# number of rings (size 3 to 8) (size 9 to 14) (size 15 to 20)
#    0.000    1.400    2.000    4.800    5.600    0.400 
#    0.000    0.000    0.000    0.600    0.000    0.000 
#    0.000    0.000    0.000    0.000    0.000    0.000 
#
# Total GULP energy -111497.817170 kJ/mol
# GULP energy per Si atom -5574.890858 kJ/mol
# Density = 1.867812 g / cm^3
# Si number density = 18.720730 Si / 1000 Ang^3
#
#
#
# Elastic Constant Matrix: (Units=GPa)
#
#
# Indices 1 2 3 4 5 6 
#
# 1 41.5447 24.9379 28.8692 0.0000 -7.3408 0.0000
# 2 24.9379 102.5387 20.6839 0.0000 15.0519 0.0000
# 3 28.8692 20.6839 129.1422 0.0000 -6.3959 0.0000
# 4 0.0000 0.0000 0.0000 15.6515 0.0000 -6.3087
# 5 -7.3408 15.0519 -6.3959 0.0000 23.3466 0.0000
# 6 0.0000 0.0000 0.0000 -6.3087 0.0000 5.3993
#
#
#
# Elastic Compliance Matrix: (Units=1/GPa)
#
#
# Indices 1 2 3 4 5 6 
#
# 1 0.037333 -0.010368 -0.005852 0.000000 0.016820 0.000000
# 2 -0.010368 0.014243 -0.000588 0.000000 -0.012603 0.000000
# 3 -0.005852 -0.000588 0.009198 0.000000 0.001059 0.000000
# 4 0.000000 0.000000 0.000000 0.120770 0.000000 0.141112
# 5 0.016820 -0.012603 0.001059 0.000000 0.056537 0.000000
# 6 0.000000 0.000000 0.000000 0.141112 0.000000 0.350090
#
#
# Mechanical properties :
#
#
# Convention : Reuss Voigt Hill
#
# Bulk Modulus (GPa) = 36.82142 46.91197 41.86670
# Shear Modulus (GPa) = 7.92596 22.12847 15.02722
#
# Velocity S-wave (km/s) = 2.05985 3.44180 2.83628
# Velocity P-wave (km/s) = 5.03675 6.39592 5.75659
#
# Compressibility (1/GPa) = 0.02715810
#
# Stress axis : x y z
#
# Youngs Moduli (GPa) = 26.78626 70.21202 108.71778
#
# Poissons Ratio (x) = 0.72796 0.63621
# Poissons Ratio (y) = 0.27772 0.06388
# Poissons Ratio (z) = 0.15675 0.04126
#
# Static dielectric constant tensor:
#      x y z
#    x 1.641070 0.000000 -0.075230 
#    y 0.000000 1.674650 0.000000 
#    z -0.075230 0.000000 1.764130 
# 
# From -- ./inp_files/130543.got.cif
#   From: 2010.05.17/outbox.cif.g08.bks.cpg/sg12_66_cif.got.tgz:130543.got - 2010.06.03 13:09:07.
