data_PCOD9184416
_publ_section_title
;
Structure prediction by ZEFSAII (Michael W. Deem and Ramdas Pophale) SiO2 
 PCOD9184416
Probable space group: C 2/M
;
_chemical_formula_sum "Si O2"
_cell_formula_units_Z 64
_cell_length_a 23.115227
_cell_length_b 27.694134
_cell_length_c 15.904299
_cell_angle_alpha 90.000000
_cell_angle_beta 162.767809
_cell_angle_gamma 90.000000
_cell_volume 3016.137223
_symmetry_space_group_name_H-M "C 2/M"
_symmetry_group_IT_number 12
_symmetry_cell_setting 'monoclinic'
loop_
_space_group_symop_operation_xyz
x,y,z
-x,y,-z
-x,-y,-z
x,-y,z
1/2+x,1/2+y,z
1/2-x,1/2+y,-z
1/2-x,1/2-y,-z
1/2+x,1/2-y,z
loop_
_atom_site_type_symbol
_atom_site_label
_atom_site_fract_x
_atom_site_fract_y
_atom_site_fract_z
Si Si1 0.897143 0.854778 0.123489
Si Si2 0.674623 0.447213 0.364283
Si Si3 0.859368 0.186637 0.883515
Si Si4 0.008702 0.555326 0.334179
Si Si5 0.248961 0.054708 0.168309
Si Si6 0.319647 0.872904 0.701657
Si Si7 0.543686 0.778798 0.202521
Si Si8 0.563061 0.164054 0.777713
O O1 0.114085 0.861072 0.461653
O O2 0.912796 0.833953 0.050052
O O3 0.800212 0.906939 0.971659
O O4 0.748852 0.825234 0.976104
O O5 0.709999 0.500000 0.452335
O O6 0.790319 0.445907 0.439101
O O7 0.757524 0.406566 0.539092
O O8 0.443776 0.441262 0.040033
O O9 0.640351 0.171381 0.555535
O O10 0.000000 0.172365 0.000000
O O11 0.893380 0.243472 0.946848
O O12 0.925573 0.500000 0.207302
O O13 0.071758 0.561521 0.519155
O O14 0.916572 0.606178 0.174381
O O15 0.250778 0.000000 0.139534
O O16 0.404570 0.823903 0.782656
O O17 0.500000 0.896592 0.000000
O O18 0.750000 0.750000 0.500000
O O19 0.461697 0.801273 0.175850
#
# Coordination Sequence:
#
# PCOD9184416 Si02
#       8
#     8   8   8   8   8   8   8   8
#     4  11  24  41  63  97 135 167 210 271 329 379
#     4   9  18  34  58  92 126 163 213 268 313 374
#     4  12  24  41  68  91 124 173 217 261 319 393
#     4  10  19  33  60  97 134 172 205 249 322 399
#     4   9  18  31  56  94 136 171 205 247 316 398
#     4  11  23  42  67  90 120 164 224 271 316 388
#     4  12  24  44  65  89 121 173 222 263 317 380
#     4  12  25  42  66  99 137 170 211 269 326 386
#
# _framework density 21.219194000000002
#
# number of rings (size 3 to 8) (size 9 to 14) (size 15 to 20)
#    0.000    1.250    5.000    1.125    1.750    2.750 
#    0.000    3.125    0.000    0.000    0.000    1.750 
#    0.000    0.000    0.000    0.000    0.000    0.000 
#
# Total GULP energy -178568.688070 kJ/mol
# GULP energy per Si atom -5580.271502 kJ/mol
# Density = 2.117090 g / cm^3
# Si number density = 21.219194 Si / 1000 Ang^3
#
#
#
# Elastic Constant Matrix: (Units=GPa)
#
#
# Indices 1 2 3 4 5 6 
#
# 1 109.1414 19.9366 35.9594 0.0000 29.4420 0.0000
# 2 19.9366 113.1562 14.2292 0.0000 -1.2168 0.0000
# 3 35.9594 14.2292 100.9839 0.0000 14.7475 0.0000
# 4 0.0000 0.0000 0.0000 24.1188 0.0000 3.4012
# 5 29.4420 -1.2168 14.7475 0.0000 29.5699 0.0000
# 6 0.0000 0.0000 0.0000 3.4012 0.0000 28.7246
#
#
#
# Elastic Compliance Matrix: (Units=1/GPa)
#
#
# Indices 1 2 3 4 5 6 
#
# 1 0.013862 -0.002225 -0.002797 0.000000 -0.012499 0.000000
# 2 -0.002225 0.009386 -0.000982 0.000000 0.003091 0.000000
# 3 -0.002797 -0.000982 0.011472 0.000000 -0.002976 0.000000
# 4 0.000000 0.000000 0.000000 0.042166 0.000000 -0.004993
# 5 -0.012499 0.003091 -0.002976 0.000000 0.047874 0.000000
# 6 0.000000 0.000000 0.000000 -0.004993 0.000000 0.035405
#
#
# Mechanical properties :
#
#
# Convention : Reuss Voigt Hill
#
# Bulk Modulus (GPa) = 44.02995 51.50354 47.76675
# Shear Modulus (GPa) = 27.81747 33.35974 30.58860
#
# Velocity S-wave (km/s) = 3.62464 3.96934 3.80090
# Velocity P-wave (km/s) = 6.18971 6.73293 6.46703
#
# Compressibility (1/GPa) = 0.02271181
#
# Stress axis : x y z
#
# Youngs Moduli (GPa) = 72.13884 106.54131 87.17115
#
# Poissons Ratio (x) = 0.23705 0.24385
# Poissons Ratio (y) = 0.16051 0.08558
# Poissons Ratio (z) = 0.20180 0.10459
#
# Static dielectric constant tensor:
#      x y z
#    x 1.816690 0.000000 0.042820 
#    y 0.000000 1.846450 0.000000 
#    z 0.042820 0.000000 1.815920 
# 
# From -- ./inp_files/236027.got.cif
#   From: 2010.05.17/outbox.cif.g08.bks.cpg/sg12_119_cif.got.tgz:236027.got - 2010.06.03 13:09:07.
