data_PCOD9184146
_publ_section_title
;
Structure prediction by ZEFSAII (Michael W. Deem and Ramdas Pophale) SiO2 
 PCOD9184146
Probable space group: C 2/M
;
_chemical_formula_sum "Si O2"
_cell_formula_units_Z 56
_cell_length_a 29.560281
_cell_length_b 8.964930
_cell_length_c 12.139348
_cell_angle_alpha 90.000000
_cell_angle_beta 69.138573
_cell_angle_gamma 90.000000
_cell_volume 3006.106075
_symmetry_space_group_name_H-M "C 2/M"
_symmetry_group_IT_number 12
_symmetry_cell_setting 'monoclinic'
loop_
_space_group_symop_operation_xyz
x,y,z
-x,y,-z
-x,-y,-z
x,-y,z
1/2+x,1/2+y,z
1/2-x,1/2+y,-z
1/2-x,1/2-y,-z
1/2+x,1/2-y,z
loop_
_atom_site_type_symbol
_atom_site_label
_atom_site_fract_x
_atom_site_fract_y
_atom_site_fract_z
Si Si1 0.820021 0.676209 0.361008
Si Si2 0.092998 0.678387 0.100129
Si Si3 0.451387 0.181378 0.479145
Si Si4 0.790143 0.824027 0.613357
Si Si5 0.900575 0.822890 0.137534
Si Si6 0.021321 0.321366 0.787811
Si Si7 0.360785 0.820044 0.707625
O O1 0.830621 0.500000 0.358863
O O2 0.814794 0.742364 0.487852
O O3 0.767427 0.697223 0.350262
O O4 0.860615 0.756859 0.254829
O O5 0.097830 0.500000 0.079375
O O6 0.123028 0.719214 0.182993
O O7 0.035911 0.707844 0.169520
O O8 0.108525 0.762538 0.976994
O O9 0.500000 0.230368 0.500000
O O10 0.454394 0.225704 0.349124
O O11 0.404183 0.227454 0.587475
O O12 0.451934 0.000000 0.479550
O O13 0.812466 0.754990 0.704124
O O14 0.799875 0.000000 0.599046
O O15 0.951871 0.760401 0.136532
O O16 0.900175 0.000000 0.140286
O O17 0.027566 0.500000 0.795594
O O18 0.356784 0.000000 0.705288
#
# Coordination Sequence:
#
# PCOD9184146 Si02
#       7
#     8   8   8   8   8   8   8
#     4  10  21  40  63  85 111 146 187 229 275 334
#     4  10  21  37  56  80 112 154 201 235 267 330
#     4   9  15  28  52  82 110 137 178 226 265 310
#     4  10  21  37  61  91 119 143 174 225 286 342
#     4  12  25  38  55  80 112 148 190 241 292 334
#     4  10  19  34  58  83 111 149 192 234 276 333
#     4  10  19  33  57  86 116 152 190 229 274 330
#
# _framework density 18.62875
#
# number of rings (size 3 to 8) (size 9 to 14) (size 15 to 20)
#    0.000    1.857    1.429    3.429    0.000    5.714 
#    0.000    0.714    0.000    0.857    0.000    0.000 
#    0.000    0.000    0.000    0.000    0.000    0.000 
#
# Total GULP energy -156447.131253 kJ/mol
# GULP energy per Si atom -5587.397545 kJ/mol
# Density = 1.858635 g / cm^3
# Si number density = 18.628750 Si / 1000 Ang^3
#
#
#
# Elastic Constant Matrix: (Units=GPa)
#
#
# Indices 1 2 3 4 5 6 
#
# 1 98.6536 54.3604 44.1422 0.0000 33.0897 0.0000
# 2 54.3604 60.0189 45.1650 0.0000 14.1158 0.0000
# 3 44.1422 45.1650 80.5211 0.0000 19.8059 0.0000
# 4 0.0000 0.0000 0.0000 22.0732 0.0000 1.3752
# 5 33.0897 14.1158 19.8059 0.0000 25.7885 0.0000
# 6 0.0000 0.0000 0.0000 1.3752 0.0000 18.7727
#
#
#
# Elastic Compliance Matrix: (Units=1/GPa)
#
#
# Indices 1 2 3 4 5 6 
#
# 1 0.032819 -0.025300 0.003885 0.000000 -0.031246 0.000000
# 2 -0.025300 0.048697 -0.018338 0.000000 0.019891 0.000000
# 3 0.003885 -0.018338 0.023835 0.000000 -0.013253 0.000000
# 4 0.000000 0.000000 0.000000 0.045512 0.000000 -0.003334
# 5 -0.031246 0.019891 -0.013253 0.000000 0.078160 0.000000
# 6 0.000000 0.000000 0.000000 -0.003334 0.000000 0.053513
#
#
# Mechanical properties :
#
#
# Convention : Reuss Voigt Hill
#
# Bulk Modulus (GPa) = 38.69045 58.50320 48.59683
# Shear Modulus (GPa) = 13.48954 19.69529 16.59241
#
# Velocity S-wave (km/s) = 2.69388 3.25507 2.98768
# Velocity P-wave (km/s) = 5.52180 6.75280 6.16808
#
# Compressibility (1/GPa) = 0.02584617
#
# Stress axis : x y z
#
# Youngs Moduli (GPa) = 30.46978 20.53509 41.95498
#
# Poissons Ratio (x) = 0.51953 -0.16298
# Poissons Ratio (y) = 0.77088 0.76936
# Poissons Ratio (z) = -0.11837 0.37657
#
# Static dielectric constant tensor:
#      x y z
#    x 1.651230 0.000000 0.002030 
#    y 0.000000 1.616970 0.000000 
#    z 0.002030 0.000000 1.627990 
# 
# From -- ./inp_files/186453.got.cif
#   From: 2010.05.17/outbox.cif.g08.bks.cpg/sg12_94_cif.got.tgz:186453.got - 2010.06.03 13:09:07.
