data_PCOD9184596
_publ_section_title
;
Structure prediction by ZEFSAII (Michael W. Deem and Ramdas Pophale) SiO2 
 PCOD9184596
Probable space group: C 2/M
;
_chemical_formula_sum "Si O2"
_cell_formula_units_Z 56
_cell_length_a 23.772148
_cell_length_b 8.452305
_cell_length_c 19.248749
_cell_angle_alpha 90.000000
_cell_angle_beta 52.674003
_cell_angle_gamma 90.000000
_cell_volume 3075.541669
_symmetry_space_group_name_H-M "C 2/M"
_symmetry_group_IT_number 12
_symmetry_cell_setting 'monoclinic'
loop_
_space_group_symop_operation_xyz
x,y,z
-x,y,-z
-x,-y,-z
x,-y,z
1/2+x,1/2+y,z
1/2-x,1/2+y,-z
1/2-x,1/2-y,-z
1/2+x,1/2-y,z
loop_
_atom_site_type_symbol
_atom_site_label
_atom_site_fract_x
_atom_site_fract_y
_atom_site_fract_z
Si Si1 0.385075 0.816805 0.332165
Si Si2 0.239571 0.185874 0.666900
Si Si3 0.967679 0.183597 0.788394
Si Si4 0.809885 0.192178 0.744963
Si Si5 0.811612 0.808858 0.904303
Si Si6 0.034752 0.815970 0.378534
Si Si7 0.620320 0.688124 0.510324
O O1 0.323763 0.774279 0.324502
O O2 0.462691 0.778890 0.243720
O O3 0.376531 0.715486 0.409054
O O4 0.380938 0.000000 0.355187
O O5 0.251757 0.242300 0.736471
O O6 0.312768 0.228294 0.573272
O O7 0.226537 0.000000 0.673378
O O8 0.890424 0.243793 0.868461
O O9 0.965038 0.185965 0.705975
O O10 0.976151 0.000000 0.802773
O O11 0.800121 0.239392 0.832517
O O12 0.888058 0.249839 0.661242
O O13 0.810689 0.000000 0.741462
O O14 0.813502 0.000000 0.903168
O O15 0.750000 0.750000 0.000000
O O16 0.957428 0.751952 0.456573
O O17 0.035010 0.000000 0.399669
O O18 0.624246 0.500000 0.493306
#
# Coordination Sequence:
#
# PCOD9184596 Si02
#       7
#     8   8   8   8   8   8   8
#     4  11  21  34  52  74  99 133 175 218 255 295
#     4  12  24  35  47  69 101 138 175 216 258 298
#     4   8  15  31  52  76 103 134 166 201 246 298
#     4   9  18  35  53  73 101 136 171 203 247 306
#     4   9  18  33  58  86 111 134 161 198 247 304
#     4   7  13  28  51  71  93 128 168 204 245 294
#     4  10  19  34  53  73  98 133 175 217 255 298
#
# _framework density 18.208175000000001
#
# number of rings (size 3 to 8) (size 9 to 14) (size 15 to 20)
#    0.000    2.571    0.000    6.000    0.000    1.714 
#    0.000    9.286    0.000    0.857    0.000    6.000 
#    0.000    0.000    0.000    0.000    0.000    0.000 
#
# Total GULP energy -156164.881337 kJ/mol
# GULP energy per Si atom -5577.317191 kJ/mol
# Density = 1.816673 g / cm^3
# Si number density = 18.208175 Si / 1000 Ang^3
#
#
#
# Elastic Constant Matrix: (Units=GPa)
#
#
# Indices 1 2 3 4 5 6 
#
# 1 99.4192 -3.4927 34.2381 0.0001 -8.7999 0.0000
# 2 -3.4927 19.2514 0.4379 0.0004 -4.9589 -0.0001
# 3 34.2381 0.4379 93.2729 0.0002 -18.8857 -0.0001
# 4 0.0001 0.0004 0.0002 25.1373 -0.0001 -3.7132
# 5 -8.7999 -4.9589 -18.8857 -0.0001 20.1693 0.0000
# 6 0.0000 -0.0001 -0.0001 -3.7132 0.0000 22.8544
#
#
#
# Elastic Compliance Matrix: (Units=1/GPa)
#
#
# Indices 1 2 3 4 5 6 
#
# 1 0.011676 0.002762 -0.003862 0.000000 0.002157 0.000000
# 2 0.002762 0.056839 0.002212 -0.000001 0.017251 0.000000
# 3 -0.003862 0.002212 0.014681 0.000000 0.012605 0.000000
# 4 0.000000 -0.000001 0.000000 0.040760 0.000000 0.006622
# 5 0.002157 0.017251 0.012605 0.000000 0.066566 0.000000
# 6 0.000000 0.000000 0.000000 0.006622 0.000000 0.044831
#
#
# Mechanical properties :
#
#
# Convention : Reuss Voigt Hill
#
# Bulk Modulus (GPa) = 11.70693 30.47890 21.09292
# Shear Modulus (GPa) = 19.11298 25.68289 22.39793
#
# Velocity S-wave (km/s) = 3.24341 3.75976 3.51109
# Velocity P-wave (km/s) = 4.52435 5.96851 5.29589
#
# Compressibility (1/GPa) = 0.08541951
#
# Stress axis : x y z
#
# Youngs Moduli (GPa) = 85.64219 17.59370 68.11553
#
# Poissons Ratio (x) = -0.04859 0.26309
# Poissons Ratio (y) = -0.23653 -0.15069
# Poissons Ratio (z) = 0.33078 -0.03892
#
# Static dielectric constant tensor:
#      x y z
#    x 1.647240 0.000000 -0.008770 
#    y 0.000000 1.621590 0.000000 
#    z -0.008770 0.000000 1.634920 
# 
# From -- ./inp_files/288267.got.cif
#   From: 2010.05.17/outbox.cif.g08.bks.cpg/sg12_145_cif.got.tgz:288267.got - 2010.06.03 13:09:07.
