data_PCOD9184529
_publ_section_title
;
Structure prediction by ZEFSAII (Michael W. Deem and Ramdas Pophale) SiO2 
 PCOD9184529
Probable space group: C 2/M
;
_chemical_formula_sum "Si O2"
_cell_formula_units_Z 52
_cell_length_a 19.800777
_cell_length_b 14.791503
_cell_length_c 17.377941
_cell_angle_alpha 90.000000
_cell_angle_beta 157.020395
_cell_angle_gamma 90.000000
_cell_volume 1987.039470
_symmetry_space_group_name_H-M "C 2/M"
_symmetry_group_IT_number 12
_symmetry_cell_setting 'monoclinic'
loop_
_space_group_symop_operation_xyz
x,y,z
-x,y,-z
-x,-y,-z
x,-y,z
1/2+x,1/2+y,z
1/2-x,1/2+y,-z
1/2-x,1/2-y,-z
1/2+x,1/2-y,z
loop_
_atom_site_type_symbol
_atom_site_label
_atom_site_fract_x
_atom_site_fract_y
_atom_site_fract_z
Si Si1 0.500000 0.633168 0.000000
Si Si2 0.044244 0.893955 0.882407
Si Si3 0.620335 0.390441 0.797505
Si Si4 0.192697 0.839560 0.711588
Si Si5 0.866786 0.395979 0.583219
Si Si6 0.780955 0.607032 0.649361
Si Si7 0.634893 0.139524 0.585090
O O1 0.552920 0.666176 0.968739
O O2 0.318961 0.591634 0.783817
O O3 0.152991 0.865320 0.921020
O O4 0.842881 0.895763 0.645229
O O5 0.089316 0.000000 0.948102
O O6 0.631620 0.500000 0.806358
O O7 0.728458 0.352598 0.839000
O O8 0.419535 0.363942 0.571126
O O9 0.319078 0.877798 0.778751
O O10 0.171722 0.737862 0.659243
O O11 0.000000 0.884028 0.500000
O O12 0.929444 0.500000 0.646386
O O13 0.891234 0.353777 0.693602
O O14 0.929183 0.352453 0.569394
O O15 0.785991 0.500000 0.641235
O O16 0.500000 0.095829 0.500000
#
# Coordination Sequence:
#
# PCOD9184529 Si02
#       7
#     4   8   8   8   8   8   8
#     4  10  19  34  52  70  97 132 164 198 244 292
#     4   8  14  26  47  71  93 123 162 202 245 291
#     4   8  13  23  42  70 100 127 159 202 246 286
#     4   9  16  26  42  68 102 131 162 202 240 290
#     4   8  15  28  45  68  97 126 162 205 243 285
#     4   8  13  23  43  70  97 128 163 199 244 292
#     4  10  21  34  49  73 100 129 165 201 241 289
#
# _framework density 26.169588000000001
#
# number of rings (size 3 to 8) (size 9 to 14) (size 15 to 20)
#    0.000    3.385    0.000    2.538    0.000    3.385 
#    0.000    2.308    0.000    0.000    0.000    4.308 
#    0.000    0.000    0.000    0.000    0.000    0.000 
#
# Total GULP energy -144757.313209 kJ/mol
# GULP energy per Si atom -5567.588970 kJ/mol
# Density = 2.611002 g / cm^3
# Si number density = 26.169588 Si / 1000 Ang^3
#
#
#
# Elastic Constant Matrix: (Units=GPa)
#
#
# Indices 1 2 3 4 5 6 
#
# 1 355.9049 44.8047 34.5702 -0.0021 -32.6437 -0.0034
# 2 44.8047 71.4611 -0.4922 -0.0008 -1.8745 -0.0013
# 3 34.5702 -0.4922 80.0402 -0.0011 -8.2563 -0.0024
# 4 -0.0021 -0.0008 -0.0011 0.6326 0.0004 28.0292
# 5 -32.6437 -1.8745 -8.2563 0.0004 18.8138 0.0013
# 6 -0.0034 -0.0013 -0.0024 28.0292 0.0013 -17.7027
#
#
#
# Elastic Compliance Matrix: (Units=1/GPa)
#
#
# Indices 1 2 3 4 5 6 
#
# 1 0.003714 -0.002184 -0.001021 0.000000 0.005778 0.000000
# 2 -0.002184 0.015319 0.000842 0.000001 -0.001894 0.000000
# 3 -0.001021 0.000842 0.013371 0.000001 0.004179 0.000000
# 4 0.000000 0.000001 0.000001 0.022216 -0.000002 0.035176
# 5 0.005778 -0.001894 0.004179 -0.000002 0.064823 0.000000
# 6 0.000000 0.000000 0.000000 0.035176 0.000000 -0.000794
#
#
# Mechanical properties :
#
#
# Convention : Reuss Voigt Hill
#
# Bulk Modulus (GPa) = 36.13039 73.90798 55.01918
# Shear Modulus (GPa) = 37.70668 28.91696 33.31182
#
# Velocity S-wave (km/s) = 3.79998 3.32774 3.57167
# Velocity P-wave (km/s) = 5.75234 6.56265 6.17081
#
# Compressibility (1/GPa) = 0.02767753
#
# Stress axis : x y z
#
# Youngs Moduli (GPa) = 269.26128 65.27809 74.78765
#
# Poissons Ratio (x) = 0.14257 0.07639
# Poissons Ratio (y) = 0.58806 -0.06298
# Poissons Ratio (z) = 0.27504 -0.05498
#
# Static dielectric constant tensor:
#      x y z
#    x 2.282000 0.000000 0.061390 
#    y 0.000000 2.120520 -0.000010 
#    z 0.061390 -0.000010 2.104680 
# 
# From -- ./inp_files/75307.got.cif
#   From: 2010.05.17/outbox.cif.g08.bks.cpg/sg12_38_cif.got.tgz:75307.got - 2010.06.03 13:09:07.
