data_PCOD9184483
_publ_section_title
;
Structure prediction by ZEFSAII (Michael W. Deem and Ramdas Pophale) SiO2 
 PCOD9184483
Probable space group: C 2/M
;
_chemical_formula_sum "Si O2"
_cell_formula_units_Z 56
_cell_length_a 24.605192
_cell_length_b 7.497023
_cell_length_c 15.055832
_cell_angle_alpha 90.000000
_cell_angle_beta 68.890850
_cell_angle_gamma 90.000000
_cell_volume 2590.917638
_symmetry_space_group_name_H-M "C 2/M"
_symmetry_group_IT_number 12
_symmetry_cell_setting 'monoclinic'
loop_
_space_group_symop_operation_xyz
x,y,z
-x,y,-z
-x,-y,-z
x,-y,z
1/2+x,1/2+y,z
1/2-x,1/2+y,-z
1/2-x,1/2-y,-z
1/2+x,1/2-y,z
loop_
_atom_site_type_symbol
_atom_site_label
_atom_site_fract_x
_atom_site_fract_y
_atom_site_fract_z
Si Si1 0.571753 0.217409 0.865371
Si Si2 0.802600 0.796765 0.694152
Si Si3 0.400852 0.289528 0.761234
Si Si4 0.682777 0.780682 0.687718
Si Si5 0.059839 0.285363 0.073277
Si Si6 0.647247 0.794175 0.519947
Si Si7 0.014710 0.215398 0.593081
O O1 0.624111 0.275866 0.772191
O O2 0.507171 0.275814 0.874178
O O3 0.571590 0.000000 0.864023
O O4 0.579392 0.272561 0.963682
O O5 0.844896 0.713696 0.742935
O O6 0.740072 0.718134 0.705623
O O7 0.838424 0.799900 0.580754
O O8 0.790165 0.000000 0.730092
O O9 0.401368 0.500000 0.739273
O O10 0.401680 0.269566 0.866119
O O11 0.461845 0.219052 0.685741
O O12 0.680567 0.722603 0.586590
O O13 0.683456 0.000000 0.685092
O O14 0.058770 0.500000 0.072370
O O15 0.578374 0.784748 0.580084
O O16 0.663463 0.000000 0.497209
O O17 0.000000 0.263538 0.500000
O O18 0.018008 0.000000 0.595998
#
# Coordination Sequence:
#
# PCOD9184483 Si02
#       7
#     8   8   8   8   8   8   8
#     4   8  15  31  53  78 101 126 163 205 251 304
#     4  10  20  36  52  67  98 144 176 200 242 304
#     4  10  20  33  50  72 100 134 170 202 241 297
#     4   9  18  32  52  74  98 131 175 213 245 295
#     4   9  17  31  55  79 102 128 157 204 260 303
#     4  11  21  32  51  80 103 125 166 220 259 287
#     4  10  19  34  51  69  99 137 170 197 237 303
#
# _framework density 21.613965
#
# number of rings (size 3 to 8) (size 9 to 14) (size 15 to 20)
#    0.000    2.429    1.429    2.571    0.000    2.571 
#    0.000    2.857    0.000    3.429    0.000    0.000 
#    0.000    0.000    0.000    0.000    0.000    0.000 
#
# Total GULP energy -156398.267679 kJ/mol
# GULP energy per Si atom -5585.652417 kJ/mol
# Density = 2.156477 g / cm^3
# Si number density = 21.613965 Si / 1000 Ang^3
#
#
#
# Elastic Constant Matrix: (Units=GPa)
#
#
# Indices 1 2 3 4 5 6 
#
# 1 116.4714 -3.3802 52.0500 0.0000 23.8446 0.0000
# 2 -3.3802 59.8035 -2.1116 0.0000 -1.6998 0.0000
# 3 52.0500 -2.1116 72.2641 0.0000 32.2918 0.0000
# 4 0.0000 0.0000 0.0000 8.9764 0.0000 3.7460
# 5 23.8446 -1.6998 32.2918 0.0000 27.5090 0.0000
# 6 0.0000 0.0000 0.0000 3.7460 0.0000 7.1068
#
#
#
# Elastic Compliance Matrix: (Units=1/GPa)
#
#
# Indices 1 2 3 4 5 6 
#
# 1 0.012674 0.000388 -0.008874 0.000000 -0.000545 0.000000
# 2 0.000388 0.016763 -0.000215 0.000000 0.000952 0.000000
# 3 -0.008874 -0.000215 0.035319 0.000000 -0.033781 0.000000
# 4 0.000000 0.000000 0.000000 0.142819 0.000000 -0.075280
# 5 -0.000545 0.000952 -0.033781 0.000000 0.076537 0.000000
# 6 0.000000 0.000000 0.000000 -0.075280 0.000000 0.180391
#
#
# Mechanical properties :
#
#
# Convention : Reuss Voigt Hill
#
# Bulk Modulus (GPa) = 21.11780 37.96172 29.53976
# Shear Modulus (GPa) = 10.04642 22.18383 16.11512
#
# Velocity S-wave (km/s) = 2.15829 3.20717 2.73351
# Velocity P-wave (km/s) = 4.00032 5.59609 4.86409
#
# Compressibility (1/GPa) = 0.04735341
#
# Stress axis : x y z
#
# Youngs Moduli (GPa) = 78.89903 59.65588 28.31355
#
# Poissons Ratio (x) = -0.02312 0.25126
# Poissons Ratio (y) = -0.03058 0.00608
# Poissons Ratio (z) = 0.70016 0.01281
#
# Static dielectric constant tensor:
#      x y z
#    x 1.787630 0.000000 0.008210 
#    y 0.000000 1.827580 0.000000 
#    z 0.008210 0.000000 1.745350 
# 
# From -- ./inp_files/237438.got.cif
#   From: 2010.05.17/outbox.cif.g08.bks.cpg/sg12_119_cif.got.tgz:237438.got - 2010.06.03 13:09:07.
