data_PCOD9184568
_publ_section_title
;
Structure prediction by ZEFSAII (Michael W. Deem and Ramdas Pophale) SiO2 
 PCOD9184568
Probable space group: C 2/M
;
_chemical_formula_sum "Si O2"
_cell_formula_units_Z 44
_cell_length_a 9.037896
_cell_length_b 13.838346
_cell_length_c 22.541386
_cell_angle_alpha 90.000000
_cell_angle_beta 132.694193
_cell_angle_gamma 90.000000
_cell_volume 2072.094824
_symmetry_space_group_name_H-M "C 2/M"
_symmetry_group_IT_number 12
_symmetry_cell_setting 'monoclinic'
loop_
_space_group_symop_operation_xyz
x,y,z
-x,y,-z
-x,-y,-z
x,-y,z
1/2+x,1/2+y,z
1/2-x,1/2+y,-z
1/2-x,1/2-y,-z
1/2+x,1/2-y,z
loop_
_atom_site_type_symbol
_atom_site_label
_atom_site_fract_x
_atom_site_fract_y
_atom_site_fract_z
Si Si1 0.189218 0.790491 0.234436
Si Si2 0.762048 0.500000 0.952866
Si Si3 0.479466 0.335195 0.929710
Si Si4 0.367973 0.000000 0.279760
Si Si5 0.269107 0.000000 0.819912
Si Si6 0.656904 0.000000 0.595526
Si Si7 0.147299 0.500000 0.852199
Si Si8 0.008318 0.837055 0.300780
O O1 0.400586 0.742139 0.311511
O O2 0.082846 0.767882 0.142683
O O3 0.045815 0.777259 0.250854
O O4 0.232898 0.904422 0.242094
O O5 0.664812 0.405005 0.958625
O O6 0.687175 0.500000 0.864143
O O7 0.000000 0.500000 0.000000
O O8 0.294652 0.408720 0.891429
O O9 0.500000 0.285812 0.000000
O O10 0.474127 0.000000 0.244018
O O11 0.453356 0.000000 0.369904
O O12 0.504492 0.000000 0.870028
O O13 0.173824 0.091005 0.761587
O O14 0.500000 0.000000 0.500000
O O15 0.802873 0.904888 0.632258
#
# Coordination Sequence:
#
# PCOD9184568 Si02
#       8
#     8   4   8   4   4   4   4   8
#     4  10  20  38  57  85 119 155 209 245 299 353
#     4  11  19  33  54  81 115 155 214 263 305 355
#     4  10  19  34  52  79 116 160 204 257 316 341
#     4   8  18  35  60  84 119 159 189 236 295 344
#     4  11  20  36  56  84 113 153 220 247 297 352
#     4   9  19  42  69  95 123 155 191 233 296 361
#     4   9  18  30  57  81 110 156 206 249 290 354
#     4  10  22  37  61  89 118 158 197 249 290 362
#
# _framework density 21.234548
#
# number of rings (size 3 to 8) (size 9 to 14) (size 15 to 20)
#    0.000    2.182    1.818    3.273    7.636    0.000 
#    0.000    5.455    0.000    2.182    0.000    0.000 
#    0.000    0.000    0.000    0.000    0.000    0.000 
#
# Total GULP energy -122491.734253 kJ/mol
# GULP energy per Si atom -5567.806102 kJ/mol
# Density = 2.118622 g / cm^3
# Si number density = 21.234548 Si / 1000 Ang^3
#
#
#
# Elastic Constant Matrix: (Units=GPa)
#
#
# Indices 1 2 3 4 5 6 
#
# 1 123.3924 16.3044 34.4457 0.0000 2.9931 0.0000
# 2 16.3044 41.4931 17.3469 0.0000 13.5977 0.0000
# 3 34.4457 17.3469 103.2704 0.0000 -5.4992 0.0000
# 4 0.0000 0.0000 0.0000 13.7568 0.0000 9.5469
# 5 2.9931 13.5977 -5.4992 0.0000 28.0741 0.0000
# 6 0.0000 0.0000 0.0000 9.5469 0.0000 15.4505
#
#
#
# Elastic Compliance Matrix: (Units=1/GPa)
#
#
# Indices 1 2 3 4 5 6 
#
# 1 0.009174 -0.002367 -0.002681 0.000000 -0.000357 0.000000
# 2 -0.002367 0.032880 -0.005627 0.000000 -0.016775 0.000000
# 3 -0.002681 -0.005627 0.011806 0.000000 0.005324 0.000000
# 4 0.000000 0.000000 0.000000 0.127264 0.000000 -0.078637
# 5 -0.000357 -0.016775 0.005324 0.000000 0.044826 0.000000
# 6 0.000000 0.000000 0.000000 -0.078637 0.000000 0.113313
#
#
# Mechanical properties :
#
#
# Convention : Reuss Voigt Hill
#
# Bulk Modulus (GPa) = 30.75946 44.92775 37.84360
# Shear Modulus (GPa) = 13.46073 24.79354 19.12714
#
# Velocity S-wave (km/s) = 2.52048 3.42073 3.00452
# Velocity P-wave (km/s) = 4.79452 6.06677 5.46777
#
# Compressibility (1/GPa) = 0.03251033
#
# Stress axis : x y z
#
# Youngs Moduli (GPa) = 109.00157 30.41334 84.69989
#
# Poissons Ratio (x) = 0.07199 0.22712
# Poissons Ratio (y) = 0.25800 0.47660
# Poissons Ratio (z) = 0.29228 0.17113
#
# Static dielectric constant tensor:
#      x y z
#    x 1.782480 0.000000 -0.064720 
#    y 0.000000 1.933420 0.000000 
#    z -0.064720 0.000000 1.847850 
# 
# From -- ./inp_files/255436.got.cif
#   From: 2010.05.17/outbox.cif.g08.bks.cpg/sg12_128_cif.got.tgz:255436.got - 2010.06.03 13:09:07.
