data_PCOD9184694
_publ_section_title
;
Structure prediction by ZEFSAII (Michael W. Deem and Ramdas Pophale) SiO2 
 PCOD9184694
Probable space group: C 2/M
;
_chemical_formula_sum "Si O2"
_cell_formula_units_Z 64
_cell_length_a 14.216001
_cell_length_b 13.855242
_cell_length_c 22.783839
_cell_angle_alpha 90.000000
_cell_angle_beta 39.517477
_cell_angle_gamma 90.000000
_cell_volume 2855.549169
_symmetry_space_group_name_H-M "C 2/M"
_symmetry_group_IT_number 12
_symmetry_cell_setting 'monoclinic'
loop_
_space_group_symop_operation_xyz
x,y,z
-x,y,-z
-x,-y,-z
x,-y,z
1/2+x,1/2+y,z
1/2-x,1/2+y,-z
1/2-x,1/2-y,-z
1/2+x,1/2-y,z
loop_
_atom_site_type_symbol
_atom_site_label
_atom_site_fract_x
_atom_site_fract_y
_atom_site_fract_z
Si Si1 0.214417 0.229562 0.887240
Si Si2 0.486432 0.290780 0.205635
Si Si3 0.426015 0.103168 0.966338
Si Si4 0.001779 0.754816 0.401601
Si Si5 0.795975 0.388726 0.613822
Si Si6 0.347617 0.607217 0.980053
Si Si7 0.298042 0.820648 0.220241
Si Si8 0.221062 0.614167 0.521126
O O1 0.384529 0.258531 0.813748
O O2 0.187711 0.229390 0.831266
O O3 0.129641 0.313918 0.963985
O O4 0.160233 0.138068 0.949022
O O5 0.370873 0.369880 0.283631
O O6 0.569086 0.325714 0.106661
O O7 0.382133 0.201549 0.239402
O O8 0.596086 0.106407 0.864867
O O9 0.386728 0.000000 0.011670
O O10 0.322989 0.112106 0.958901
O O11 0.927968 0.675189 0.393662
O O12 0.860849 0.826564 0.480826
O O13 0.095460 0.688719 0.404527
O O14 0.125844 0.826648 0.315370
O O15 0.841724 0.500000 0.604568
O O16 0.783907 0.378213 0.548640
O O17 0.404893 0.500000 0.945054
O O18 0.221076 0.500000 0.535682
#
# Coordination Sequence:
#
# PCOD9184694 Si02
#       8
#     8   8   8   8   8   8   8   8
#     4  11  20  35  54  76 115 153 195 229 274 330
#     4  10  19  35  52  81 116 146 185 238 278 322
#     4  10  20  35  56  79 111 150 191 237 283 327
#     4  10  22  37  60  91 119 149 186 242 301 347
#     4  10  20  36  64  94 118 149 195 245 293 350
#     4  10  19  34  54  75 107 157 195 228 273 324
#     4  11  21  34  54  82 113 147 184 232 284 334
#     4  10  21  41  65  89 117 152 192 238 297 364
#
# _framework density 22.412502
#
# number of rings (size 3 to 8) (size 9 to 14) (size 15 to 20)
#    0.000    1.750    2.500    3.000    0.000    3.000 
#    0.000    4.375    0.000    6.750    0.000    0.000 
#    0.000    0.000    0.000    0.000    0.000    0.000 
#
# Total GULP energy -178165.587823 kJ/mol
# GULP energy per Si atom -5567.674619 kJ/mol
# Density = 2.236149 g / cm^3
# Si number density = 22.412502 Si / 1000 Ang^3
#
#
#
# Elastic Constant Matrix: (Units=GPa)
#
#
# Indices 1 2 3 4 5 6 
#
# 1 106.8334 17.2163 22.2173 0.0000 -28.4630 0.0000
# 2 17.2163 84.2414 1.3713 0.0000 -18.9631 0.0000
# 3 22.2173 1.3713 84.0136 -0.0002 -37.6877 0.0001
# 4 0.0000 0.0000 -0.0002 -0.0427 0.0001 -40.5990
# 5 -28.4630 -18.9631 -37.6877 0.0001 36.2332 0.0000
# 6 0.0000 0.0000 0.0001 -40.5990 0.0000 -47.3959
#
#
#
# Elastic Compliance Matrix: (Units=1/GPa)
#
#
# Indices 1 2 3 4 5 6 
#
# 1 0.012012 0.000127 0.002032 0.000000 0.011617 0.000000
# 2 0.000127 0.014971 0.006152 0.000000 0.014335 0.000000
# 3 0.002032 0.006152 0.025170 0.000000 0.030997 0.000000
# 4 0.000000 0.000000 0.000000 0.028790 0.000000 -0.024661
# 5 0.011617 0.014335 0.030997 0.000000 0.076467 0.000000
# 6 0.000000 0.000000 0.000000 -0.024661 0.000000 0.000026
#
#
# Mechanical properties :
#
#
# Convention : Reuss Voigt Hill
#
# Bulk Modulus (GPa) = 14.53981 39.63311 27.08646
# Shear Modulus (GPa) = 30.53647 13.37783 21.95715
#
# Velocity S-wave (km/s) = 3.69518 2.44579 3.13338
# Velocity P-wave (km/s) = 4.97064 5.06929 5.02021
#
# Compressibility (1/GPa) = 0.06877670
#
# Stress axis : x y z
#
# Youngs Moduli (GPa) = 83.24875 66.79440 39.73033
#
# Poissons Ratio (x) = -0.00848 -0.08075
# Poissons Ratio (y) = -0.01057 -0.24444
# Poissons Ratio (z) = -0.16920 -0.41094
#
# Static dielectric constant tensor:
#      x y z
#    x 1.883380 0.000000 -0.016790 
#    y 0.000000 1.845730 0.000000 
#    z -0.016790 0.000000 1.880850 
# 
# From -- ./inp_files/340164.got.cif
#   From: 2010.05.17/outbox.cif.g08.bks.cpg/sg12_171_cif.got.tgz:340164.got - 2010.06.03 13:09:07.
