data_PCOD9184666
_publ_section_title
;
Structure prediction by ZEFSAII (Michael W. Deem and Ramdas Pophale) SiO2 
 PCOD9184666
Probable space group: C 2/M
;
_chemical_formula_sum "Si O2"
_cell_formula_units_Z 64
_cell_length_a 10.121322
_cell_length_b 25.727501
_cell_length_c 20.935012
_cell_angle_alpha 90.000000
_cell_angle_beta 53.591877
_cell_angle_gamma 90.000000
_cell_volume 4387.339471
_symmetry_space_group_name_H-M "C 2/M"
_symmetry_group_IT_number 12
_symmetry_cell_setting 'monoclinic'
loop_
_space_group_symop_operation_xyz
x,y,z
-x,y,-z
-x,-y,-z
x,-y,z
1/2+x,1/2+y,z
1/2-x,1/2+y,-z
1/2-x,1/2-y,-z
1/2+x,1/2-y,z
loop_
_atom_site_type_symbol
_atom_site_label
_atom_site_fract_x
_atom_site_fract_y
_atom_site_fract_z
Si Si1 0.849805 0.200825 0.497168
Si Si2 0.195932 0.441084 0.936511
Si Si3 0.418267 0.148993 0.836973
Si Si4 0.378373 0.194531 0.329378
Si Si5 0.774634 0.656655 0.155678
Si Si6 0.809299 0.243024 0.055550
Si Si7 0.689612 0.439253 0.951090
Si Si8 0.925411 0.205196 0.676399
O O1 0.750000 0.250000 0.500000
O O2 0.722206 0.172128 0.580847
O O3 0.000000 0.217608 0.500000
O O4 0.941594 0.177934 0.408825
O O5 0.230465 0.500000 0.904518
O O6 0.257881 0.396673 0.871811
O O7 0.265752 0.434382 0.987262
O O8 0.000000 0.435430 0.000000
O O9 0.511729 0.155080 0.742912
O O10 0.556551 0.151006 0.852714
O O11 0.301547 0.198891 0.880192
O O12 0.309064 0.097922 0.877265
O O13 0.237906 0.214818 0.319977
O O14 0.491628 0.241874 0.321672
O O15 0.793015 0.703442 0.099721
O O16 0.634751 0.671817 0.246493
O O17 0.750000 0.250000 0.000000
O O18 0.000000 0.227670 0.000000
O O19 0.706955 0.500000 0.927965
O O20 0.500000 0.423993 0.000000
#
# Coordination Sequence:
#
# PCOD9184666 Si02
#       8
#     8   8   8   8   8   8   8   8
#     4   8  14  26  44  62  84 119 150 178 223 261
#     4  10  19  34  54  67  84 117 158 197 229 263
#     4  11  20  32  47  68  92 122 154 187 229 270
#     4   9  17  29  44  65  92 118 152 185 218 272
#     4  11  20  32  46  68  95 117 156 193 221 271
#     4  12  22  31  42  59  92 125 149 182 224 273
#     4  10  21  37  52  68  89 116 156 201 235 265
#     4   9  17  29  44  64  92 121 148 187 221 267
#
# _framework density 14.587427
#
# number of rings (size 3 to 8) (size 9 to 14) (size 15 to 20)
#    0.000    2.000    3.750    1.500    0.000    0.000 
#    2.250    0.000    0.000    0.000    0.000    0.875 
#    0.000    5.000    0.000    4.500    0.000    1.000 
#
# Total GULP energy -178215.908745 kJ/mol
# GULP energy per Si atom -5569.247148 kJ/mol
# Density = 1.455423 g / cm^3
# Si number density = 14.587427 Si / 1000 Ang^3
#
#
#
# Elastic Constant Matrix: (Units=GPa)
#
#
# Indices 1 2 3 4 5 6 
#
# 1 59.7332 16.2073 36.2786 0.0000 -7.9457 0.0000
# 2 16.2073 65.6565 53.7285 0.0000 -3.0269 0.0000
# 3 36.2786 53.7285 132.0232 0.0000 -3.9535 0.0000
# 4 0.0000 0.0000 0.0000 14.7394 0.0000 -1.1400
# 5 -7.9457 -3.0269 -3.9535 0.0000 19.4954 0.0000
# 6 0.0000 0.0000 0.0000 -1.1400 0.0000 19.5189
#
#
#
# Elastic Compliance Matrix: (Units=1/GPa)
#
#
# Indices 1 2 3 4 5 6 
#
# 1 0.021135 -0.000455 -0.005399 0.000000 0.007448 0.000000
# 2 -0.000455 0.022900 -0.009149 0.000000 0.001515 0.000000
# 3 -0.005399 -0.009149 0.012750 0.000000 -0.001035 0.000000
# 4 0.000000 0.000000 0.000000 0.068153 0.000000 0.003981
# 5 0.007448 0.001515 -0.001035 0.000000 0.054355 0.000000
# 6 0.000000 0.000000 0.000000 0.003981 0.000000 0.051465
#
#
# Mechanical properties :
#
#
# Convention : Reuss Voigt Hill
#
# Bulk Modulus (GPa) = 37.34441 52.20464 44.77453
# Shear Modulus (GPa) = 18.53976 20.83064 19.68520
#
# Velocity S-wave (km/s) = 3.56889 3.78297 3.67749
# Velocity P-wave (km/s) = 6.52983 7.41257 6.98516
#
# Compressibility (1/GPa) = 0.02677777
#
# Stress axis : x y z
#
# Youngs Moduli (GPa) = 47.31582 43.66855 78.42947
#
# Poissons Ratio (x) = 0.01989 0.42346
# Poissons Ratio (y) = 0.02155 0.71754
# Poissons Ratio (z) = 0.25547 0.39952
#
# Static dielectric constant tensor:
#      x y z
#    x 1.487850 0.000000 -0.001080 
#    y 0.000000 1.458220 0.000000 
#    z -0.001080 0.000000 1.508060 
# 
# From -- ./inp_files/302565.got.cif
#   From: 2010.05.17/outbox.cif.g08.bks.cpg/sg12_152_cif.got.tgz:302565.got - 2010.06.03 13:09:07.
