data_PCOD9184486
_publ_section_title
;
Structure prediction by ZEFSAII (Michael W. Deem and Ramdas Pophale) SiO2 
 PCOD9184486
Probable space group: C 2/M
;
_chemical_formula_sum "Si O2"
_cell_formula_units_Z 56
_cell_length_a 18.091727
_cell_length_b 21.121039
_cell_length_c 24.509632
_cell_angle_alpha 90.000000
_cell_angle_beta 21.727981
_cell_angle_gamma 90.000000
_cell_volume 3467.121448
_symmetry_space_group_name_H-M "C 2/M"
_symmetry_group_IT_number 12
_symmetry_cell_setting 'monoclinic'
loop_
_space_group_symop_operation_xyz
x,y,z
-x,y,-z
-x,-y,-z
x,-y,z
1/2+x,1/2+y,z
1/2-x,1/2+y,-z
1/2-x,1/2-y,-z
1/2+x,1/2-y,z
loop_
_atom_site_type_symbol
_atom_site_label
_atom_site_fract_x
_atom_site_fract_y
_atom_site_fract_z
Si Si1 0.078018 0.869890 0.816129
Si Si2 0.149630 0.627138 0.168477
Si Si3 0.340307 0.250753 0.656276
Si Si4 0.989260 0.249958 0.341225
Si Si5 0.507362 0.179323 0.825195
Si Si6 0.597509 0.686555 0.161946
Si Si7 0.746554 0.500000 0.838460
Si Si8 0.312919 0.000000 0.670109
O O1 0.209940 0.813016 0.749235
O O2 0.179608 0.937190 0.754239
O O3 0.044498 0.859833 0.774448
O O4 0.864497 0.861538 0.992169
O O5 0.183022 0.562095 0.177350
O O6 0.083283 0.683661 0.254636
O O7 0.996981 0.629236 0.221447
O O8 0.500000 0.238193 0.500000
O O9 0.442390 0.262428 0.644149
O O10 0.201705 0.306894 0.727584
O O11 0.750000 0.250000 0.500000
O O12 0.065051 0.196162 0.247657
O O13 0.456087 0.245311 0.828768
O O14 0.322638 0.168930 0.992377
O O15 0.856457 0.500000 0.704757
O O16 0.500000 0.500000 0.000000
O O17 0.500000 0.000000 0.500000
#
# Coordination Sequence:
#
# PCOD9184486 Si02
#       8
#     8   8   8   8   8   8   4   4
#     4  10  19  34  51  70 105 144 178 214 269 330
#     4  10  20  35  54  74 107 141 179 228 258 329
#     4  11  20  30  47  70 101 135 173 219 273 329
#     4  11  21  31  49  76 104 136 177 226 284 329
#     4   8  16  31  48  69  93 129 169 211 267 310
#     4   8  16  30  47  67  94 127 169 213 258 321
#     4  12  22  36  56  84 108 144 193 214 261 333
#     4  12  24  34  48  78 113 146 188 227 268 320
#
# _framework density 16.151727000000001
#
# number of rings (size 3 to 8) (size 9 to 14) (size 15 to 20)
#    0.000    2.000    1.429    6.429    0.000    2.857 
#    0.000    0.000    0.000    0.000    0.000    5.500 
#    0.000    4.571    0.000    0.000    0.000    0.429 
#
# Total GULP energy -155975.892319 kJ/mol
# GULP energy per Si atom -5570.567583 kJ/mol
# Density = 1.611497 g / cm^3
# Si number density = 16.151727 Si / 1000 Ang^3
#
#
#
# Elastic Constant Matrix: (Units=GPa)
#
#
# Indices 1 2 3 4 5 6 
#
# 1 154.5689 51.0153 49.6874 -0.0444 6.8613 0.0152
# 2 51.0153 66.8675 22.9741 0.0315 -3.2709 0.0039
# 3 49.6874 22.9741 70.6583 0.0351 5.0792 0.0362
# 4 -0.0444 0.0315 0.0351 13.3699 0.0076 0.3905
# 5 6.8613 -3.2709 5.0792 0.0076 30.1885 -0.0052
# 6 0.0152 0.0039 0.0362 0.3905 -0.0052 27.0719
#
#
#
# Elastic Compliance Matrix: (Units=1/GPa)
#
#
# Indices 1 2 3 4 5 6 
#
# 1 0.010218 -0.006174 -0.005023 0.000063 -0.002146 0.000001
# 2 -0.006174 0.020800 -0.002717 -0.000065 0.004114 0.000006
# 3 -0.005023 -0.002717 0.018734 -0.000057 -0.002305 -0.000021
# 4 0.000063 -0.000065 -0.000057 0.074827 -0.000031 -0.001079
# 5 -0.002146 0.004114 -0.002305 -0.000031 0.034447 0.000011
# 6 0.000001 0.000006 -0.000021 -0.001079 0.000011 0.036954
#
#
# Mechanical properties :
#
#
# Convention : Reuss Voigt Hill
#
# Bulk Modulus (GPa) = 45.61451 59.93871 52.77661
# Shear Modulus (GPa) = 21.63412 25.35390 23.49401
#
# Velocity S-wave (km/s) = 3.66379 3.96628 3.81804
# Velocity P-wave (km/s) = 6.79709 7.62663 7.22378
#
# Compressibility (1/GPa) = 0.02192285
#
# Stress axis : x y z
#
# Youngs Moduli (GPa) = 97.87127 48.07606 53.37865
#
# Poissons Ratio (x) = 0.29684 0.26813
# Poissons Ratio (y) = 0.60430 0.14503
# Poissons Ratio (z) = 0.49163 0.13062
#
# Static dielectric constant tensor:
#      x y z
#    x 1.572590 -0.000020 0.001710 
#    y -0.000020 1.513410 0.000100 
#    z 0.001710 0.000100 1.571900 
# 
# From -- ./inp_files/344773.got.cif
#   From: 2010.05.17/outbox.cif.g08.bks.cpg/sg12_173_cif.got.tgz:344773.got - 2010.06.03 13:09:07.
