data_PCOD9184645
_publ_section_title
;
Structure prediction by ZEFSAII (Michael W. Deem and Ramdas Pophale) SiO2 
 PCOD9184645
Probable space group: C 2/M
;
_chemical_formula_sum "Si O2"
_cell_formula_units_Z 64
_cell_length_a 19.339308
_cell_length_b 14.962028
_cell_length_c 26.197678
_cell_angle_alpha 90.000000
_cell_angle_beta 19.309387
_cell_angle_gamma 90.000000
_cell_volume 2506.615350
_symmetry_space_group_name_H-M "C 2/M"
_symmetry_group_IT_number 12
_symmetry_cell_setting 'monoclinic'
loop_
_space_group_symop_operation_xyz
x,y,z
-x,y,-z
-x,-y,-z
x,-y,z
1/2+x,1/2+y,z
1/2-x,1/2+y,-z
1/2-x,1/2-y,-z
1/2+x,1/2-y,z
loop_
_atom_site_type_symbol
_atom_site_label
_atom_site_fract_x
_atom_site_fract_y
_atom_site_fract_z
Si Si1 0.805264 0.796048 0.094737
Si Si2 0.854050 0.895048 0.445832
Si Si3 0.245871 0.292979 0.312410
Si Si4 0.482849 0.895393 0.774014
Si Si5 0.752707 0.097649 0.689423
Si Si6 0.220820 0.597757 0.872116
Si Si7 0.834060 0.898641 0.344052
Si Si8 0.144041 0.598400 0.293397
O O1 0.728915 0.846276 0.096406
O O2 0.795896 0.691990 0.088131
O O3 0.631054 0.832782 0.256190
O O4 0.000000 0.811446 0.000000
O O5 0.679335 0.856598 0.603799
O O6 0.885746 0.866711 0.365182
O O7 0.091034 0.890652 0.300234
O O8 0.798080 0.000000 0.480278
O O9 0.283497 0.195642 0.262533
O O10 0.372781 0.325917 0.273444
O O11 0.283302 0.364755 0.242155
O O12 0.000000 0.291985 0.500000
O O13 0.588055 0.896512 0.756684
O O14 0.446778 0.000000 0.787059
O O15 0.000000 0.095895 0.500000
O O16 0.714545 0.000000 0.740576
O O17 0.260294 0.500000 0.869792
O O18 0.000000 0.590481 0.000000
O O19 0.583973 0.908279 0.523187
O O20 0.912172 0.000000 0.278164
O O21 0.210187 0.500000 0.229403
#
# Coordination Sequence:
#
# PCOD9184645 Si02
#       8
#     8   8   8   8   8   8   8   8
#     4  11  23  37  58  88 119 157 196 234 292 357
#     4   9  17  30  52  83 114 145 186 237 292 340
#     4   9  18  30  49  76 108 148 190 225 284 339
#     4  10  20  35  56  88 122 151 190 244 295 344
#     4   9  19  35  53  76 112 153 196 242 287 338
#     4   9  20  37  52  74 112 153 191 232 281 337
#     4   9  16  28  48  80 115 145 180 226 284 346
#     4  10  19  34  53  79 118 148 181 234 286 346
#
# _framework density 25.532437999999999
#
# number of rings (size 3 to 8) (size 9 to 14) (size 15 to 20)
#    0.000    2.500    1.250    0.750    1.750    6.000 
#    0.000    1.875    0.000    0.750    3.250    0.000 
#    0.000    0.000    0.000    0.000    0.000    0.000 
#
# Total GULP energy -178216.699132 kJ/mol
# GULP energy per Si atom -5569.271848 kJ/mol
# Density = 2.547433 g / cm^3
# Si number density = 25.532438 Si / 1000 Ang^3
#
#
#
# Elastic Constant Matrix: (Units=GPa)
#
#
# Indices 1 2 3 4 5 6 
#
# 1 75.3166 36.3098 10.3375 -0.0205 -20.5625 -0.0423
# 2 36.3098 155.0444 12.6879 -0.0296 -9.4365 0.0570
# 3 10.3375 12.6879 65.4355 -0.1362 -21.6513 -0.0842
# 4 -0.0205 -0.0296 -0.1362 6.4579 -0.0085 -10.1826
# 5 -20.5625 -9.4365 -21.6513 -0.0085 41.0127 0.0767
# 6 -0.0423 0.0570 -0.0842 -10.1826 0.0767 -46.6879
#
#
#
# Elastic Compliance Matrix: (Units=1/GPa)
#
#
# Indices 1 2 3 4 5 6 
#
# 1 0.017123 -0.003571 0.000674 0.000038 0.008119 -0.000016
# 2 -0.003571 0.007333 -0.001081 0.000014 -0.000674 0.000010
# 3 0.000674 -0.001081 0.018678 0.000278 0.009950 -0.000080
# 4 0.000038 0.000014 0.000278 0.115228 0.000240 -0.025131
# 5 0.008119 -0.000674 0.009950 0.000240 0.033551 -0.000023
# 6 -0.000016 0.000010 -0.000080 -0.025131 -0.000023 -0.015938
#
#
# Mechanical properties :
#
#
# Convention : Reuss Voigt Hill
#
# Bulk Modulus (GPa) = 28.42621 46.05189 37.23905
# Shear Modulus (GPa) = 25.55475 15.92065 20.73770
#
# Velocity S-wave (km/s) = 3.16709 2.49980 2.85302
# Velocity P-wave (km/s) = 4.95293 5.13885 5.04674
#
# Compressibility (1/GPa) = 0.03517880
#
# Stress axis : x y z
#
# Youngs Moduli (GPa) = 58.40110 136.36064 53.53894
#
# Poissons Ratio (x) = 0.48694 -0.03608
# Poissons Ratio (y) = 0.20855 0.05786
# Poissons Ratio (z) = -0.03935 0.14736
#
# Static dielectric constant tensor:
#      x y z
#    x 2.103850 0.000010 -0.053380 
#    y 0.000010 2.045720 0.000140 
#    z -0.053380 0.000140 2.132580 
# 
# From -- ./inp_files/381475.got.cif
#   From: 2010.05.17/outbox.cif.g08.bks.cpg/sg12_191_cif.got.tgz:381475.got - 2010.06.03 13:09:07.
