data_PCOD9184086
_publ_section_title
;
Structure prediction by ZEFSAII (Michael W. Deem and Ramdas Pophale) SiO2 
 PCOD9184086
Probable space group: C 2/M
;
_chemical_formula_sum "Si O2"
_cell_formula_units_Z 64
_cell_length_a 20.677710
_cell_length_b 9.008953
_cell_length_c 20.038972
_cell_angle_alpha 90.000000
_cell_angle_beta 82.347583
_cell_angle_gamma 90.000000
_cell_volume 3699.705065
_symmetry_space_group_name_H-M "C 2/M"
_symmetry_group_IT_number 12
_symmetry_cell_setting 'monoclinic'
loop_
_space_group_symop_operation_xyz
x,y,z
-x,y,-z
-x,-y,-z
x,-y,z
1/2+x,1/2+y,z
1/2-x,1/2+y,-z
1/2-x,1/2-y,-z
1/2+x,1/2-y,z
loop_
_atom_site_type_symbol
_atom_site_label
_atom_site_fract_x
_atom_site_fract_y
_atom_site_fract_z
Si Si1 0.400370 0.176995 0.673796
Si Si2 0.392391 0.177537 0.827720
Si Si3 0.831582 0.823182 0.421883
Si Si4 0.305385 0.323575 0.580840
Si Si5 0.448150 0.177911 0.324681
Si Si6 0.928424 0.176837 0.039844
Si Si7 0.532311 0.322649 0.818307
Si Si8 0.816663 0.323425 0.967922
O O1 0.376765 0.209221 0.752672
O O2 0.357855 0.263048 0.625884
O O3 0.477652 0.214148 0.662415
O O4 0.394285 0.000000 0.663346
O O5 0.458219 0.264999 0.836473
O O6 0.337191 0.214034 0.889019
O O7 0.406093 0.000000 0.830007
O O8 0.764346 0.756813 0.402043
O O9 0.829186 0.794115 0.501759
O O10 0.893840 0.747315 0.379733
O O11 0.833452 0.000000 0.411252
O O12 0.296803 0.500000 0.589250
O O13 0.440653 0.243494 0.251308
O O14 0.442777 0.000000 0.323576
O O15 0.930189 0.211418 0.118315
O O16 0.916839 0.000000 0.033567
O O17 0.874597 0.266049 0.007058
O O18 0.000000 0.208142 0.000000
O O19 0.532187 0.500000 0.809145
O O20 0.811198 0.500000 0.973146
O O21 0.750000 0.250000 0.000000
#
# Coordination Sequence:
#
# PCOD9184086 Si02
#       8
#     8   8   8   8   8   8   8   8
#     4   9  19  36  57  81 110 146 184 224 275 331
#     4   9  19  36  56  79 109 147 185 227 276 329
#     4  10  21  38  59  82 112 148 184 225 277 327
#     4  10  21  37  58  84 112 145 186 229 271 326
#     4  10  21  37  57  83 116 147 183 229 273 323
#     4  10  20  36  58  84 111 143 185 229 276 333
#     4  10  19  33  57  84 111 145 182 227 278 329
#     4  11  23  38  57  80 111 148 188 235 282 329
#
# _framework density 17.298676
#
# number of rings (size 3 to 8) (size 9 to 14) (size 15 to 20)
#    0.000    2.125    1.250    2.625    0.000    6.250 
#    2.250    2.500    0.000    0.000    0.000    0.000 
#    0.000    0.000    0.000    0.000    0.000    0.000 
#
# Total GULP energy -178616.271886 kJ/mol
# GULP energy per Si atom -5581.758496 kJ/mol
# Density = 1.725930 g / cm^3
# Si number density = 17.298676 Si / 1000 Ang^3
#
#
#
# Elastic Constant Matrix: (Units=GPa)
#
#
# Indices 1 2 3 4 5 6 
#
# 1 109.3119 63.5725 92.1480 0.0000 -10.4579 0.0000
# 2 63.5725 64.4460 69.5623 0.0000 -4.4959 0.0000
# 3 92.1480 69.5623 120.7975 0.0000 -5.7991 0.0000
# 4 0.0000 0.0000 0.0000 30.8066 0.0000 0.1311
# 5 -10.4579 -4.4959 -5.7991 0.0000 26.8053 0.0000
# 6 0.0000 0.0000 0.0000 0.1311 0.0000 36.3524
#
#
#
# Elastic Compliance Matrix: (Units=1/GPa)
#
#
# Indices 1 2 3 4 5 6 
#
# 1 0.030000 -0.012629 -0.015311 0.000000 0.006274 0.000000
# 2 -0.012629 0.046405 -0.017130 0.000000 -0.000850 0.000000
# 3 -0.015311 -0.017130 0.029707 0.000000 -0.002420 0.000000
# 4 0.000000 0.000000 0.000000 0.032461 0.000000 -0.000117
# 5 0.006274 -0.000850 -0.002420 0.000000 0.039088 0.000000
# 6 0.000000 0.000000 0.000000 -0.000117 0.000000 0.027509
#
#
# Mechanical properties :
#
#
# Convention : Reuss Voigt Hill
#
# Bulk Modulus (GPa) = 62.61164 82.79122 72.70143
# Shear Modulus (GPa) = 16.63153 23.41104 20.02128
#
# Velocity S-wave (km/s) = 3.10406 3.68277 3.40573
# Velocity P-wave (km/s) = 7.00857 8.12696 7.58840
#
# Compressibility (1/GPa) = 0.01597147
#
# Stress axis : x y z
#
# Youngs Moduli (GPa) = 33.33318 21.54928 33.66260
#
# Poissons Ratio (x) = 0.27214 0.51542
# Poissons Ratio (y) = 0.42096 0.57664
# Poissons Ratio (z) = 0.51038 0.36914
#
# Static dielectric constant tensor:
#      x y z
#    x 1.551100 0.000000 -0.005440 
#    y 0.000000 1.574530 0.000000 
#    z -0.005440 0.000000 1.588590 
# 
# From -- ./inp_files/319095.got.cif
#   From: 2010.05.17/outbox.cif.g08.bks.cpg/sg12_160_cif.got.tgz:319095.got - 2010.06.03 13:09:07.
