data_PCOD9184555
_publ_section_title
;
Structure prediction by ZEFSAII (Michael W. Deem and Ramdas Pophale) SiO2 
 PCOD9184555
Probable space group: C 2/M
;
_chemical_formula_sum "Si O2"
_cell_formula_units_Z 48
_cell_length_a 28.523602
_cell_length_b 13.722071
_cell_length_c 7.513117
_cell_angle_alpha 90.000000
_cell_angle_beta 73.567669
_cell_angle_gamma 90.000000
_cell_volume 2820.543172
_symmetry_space_group_name_H-M "C 2/M"
_symmetry_group_IT_number 12
_symmetry_cell_setting 'monoclinic'
loop_
_space_group_symop_operation_xyz
x,y,z
-x,y,-z
-x,-y,-z
x,-y,z
1/2+x,1/2+y,z
1/2-x,1/2+y,-z
1/2-x,1/2-y,-z
1/2+x,1/2-y,z
loop_
_atom_site_type_symbol
_atom_site_label
_atom_site_fract_x
_atom_site_fract_y
_atom_site_fract_z
Si Si1 0.889328 0.114246 0.369580
Si Si2 0.943686 0.244402 0.595084
Si Si3 0.368820 0.886434 0.125389
Si Si4 0.144341 0.386076 0.278113
Si Si5 0.693929 0.771204 0.522064
Si Si6 0.943413 0.218405 0.008704
O O1 0.838473 0.172838 0.438989
O O2 0.913815 0.138637 0.153069
O O3 0.924993 0.163731 0.476693
O O4 0.883829 0.000000 0.402528
O O5 0.907572 0.336763 0.615194
O O6 0.000000 0.269229 0.500000
O O7 0.938585 0.207055 0.802516
O O8 0.329899 0.841038 0.302573
O O9 0.417665 0.821072 0.087168
O O10 0.377663 0.000000 0.152259
O O11 0.350958 0.876915 0.940073
O O12 0.145590 0.500000 0.322759
O O13 0.184192 0.325483 0.345453
O O14 0.750000 0.750000 0.500000
O O15 0.000000 0.217617 0.000000
#
# Coordination Sequence:
#
# PCOD9184555 Si02
#       6
#     8   8   8   8   8   8
#     4  10  22  37  52  75 106 142 183 222 259 309
#     4  10  19  34  52  76 109 141 177 215 258 311
#     4   9  19  35  55  80 109 138 171 214 266 323
#     4   9  19  35  55  80 109 138 171 214 266 323
#     4  10  21  37  58  79 105 138 177 226 272 313
#     4  10  19  34  52  76 109 141 177 215 258 311
#
# _framework density 17.017997000000001
#
# number of rings (size 3 to 8) (size 9 to 14) (size 15 to 20)
#    0.000    2.333    1.667    0.500    0.000    4.000 
#    0.000    0.000    0.000    0.000    0.000    0.000 
#    0.000    0.000    0.000    0.000    0.000    0.000 
#
# Total GULP energy -133875.437563 kJ/mol
# GULP energy per Si atom -5578.143232 kJ/mol
# Density = 1.697926 g / cm^3
# Si number density = 17.017997 Si / 1000 Ang^3
#
#
#
# Elastic Constant Matrix: (Units=GPa)
#
#
# Indices 1 2 3 4 5 6 
#
# 1 85.8461 4.2254 -17.6637 0.0000 -2.7687 0.0000
# 2 4.2254 74.7305 -10.3087 0.0000 3.6668 0.0000
# 3 -17.6637 -10.3087 22.8533 0.0000 3.6858 0.0000
# 4 0.0000 0.0000 0.0000 11.3941 0.0000 5.5122
# 5 -2.7687 3.6668 3.6858 0.0000 17.0453 0.0000
# 6 0.0000 0.0000 0.0000 5.5122 0.0000 9.6209
#
#
#
# Elastic Compliance Matrix: (Units=1/GPa)
#
#
# Indices 1 2 3 4 5 6 
#
# 1 0.013892 0.000766 0.011134 0.000000 -0.000316 0.000000
# 2 0.000766 0.014672 0.007977 0.000000 -0.004757 0.000000
# 3 0.011134 0.007977 0.057968 0.000000 -0.012442 0.000000
# 4 0.000000 0.000000 0.000000 0.121420 0.000000 -0.069567
# 5 -0.000316 -0.004757 -0.012442 0.000000 0.062330 0.000000
# 6 0.000000 0.000000 0.000000 -0.069567 0.000000 0.143799
#
#
# Mechanical properties :
#
#
# Convention : Reuss Voigt Hill
#
# Bulk Modulus (GPa) = 7.91860 15.10399 11.51130
# Shear Modulus (GPa) = 12.00708 21.42385 16.71546
#
# Velocity S-wave (km/s) = 2.65910 3.55194 3.13744
# Velocity P-wave (km/s) = 3.75379 5.07112 4.46135
#
# Compressibility (1/GPa) = 0.12628493
#
# Stress axis : x y z
#
# Youngs Moduli (GPa) = 71.98538 68.15725 17.25096
#
# Poissons Ratio (x) = -0.05220 -0.19206
# Poissons Ratio (y) = -0.05513 -0.13762
# Poissons Ratio (z) = -0.80145 -0.54372
#
# Static dielectric constant tensor:
#      x y z
#    x 1.549240 0.000000 0.021260 
#    y 0.000000 1.549460 0.000000 
#    z 0.021260 0.000000 1.591030 
# 
# From -- ./inp_files/94891.got.cif
#   From: 2010.05.17/outbox.cif.g08.bks.cpg/sg12_48_cif.got.tgz:94891.got - 2010.06.03 13:09:07.
