data_PCOD9184938
_publ_section_title
;
Structure prediction by ZEFSAII (Michael W. Deem and Ramdas Pophale) SiO2 
 PCOD9184938
Probable space group: C 2/M
;
_chemical_formula_sum "Si O2"
_cell_formula_units_Z 64
_cell_length_a 31.343915
_cell_length_b 7.524181
_cell_length_c 14.966469
_cell_angle_alpha 90.000000
_cell_angle_beta 130.994688
_cell_angle_gamma 90.000000
_cell_volume 2664.076469
_symmetry_space_group_name_H-M "C 2/M"
_symmetry_group_IT_number 12
_symmetry_cell_setting 'monoclinic'
loop_
_space_group_symop_operation_xyz
x,y,z
-x,y,-z
-x,-y,-z
x,-y,z
1/2+x,1/2+y,z
1/2-x,1/2+y,-z
1/2-x,1/2-y,-z
1/2+x,1/2-y,z
loop_
_atom_site_type_symbol
_atom_site_label
_atom_site_fract_x
_atom_site_fract_y
_atom_site_fract_z
Si Si1 0.793545 0.704140 0.431794
Si Si2 0.945945 0.217877 0.869129
Si Si3 0.302648 0.208659 0.957339
Si Si4 0.325752 0.715495 0.782371
Si Si5 0.316668 0.714390 0.257746
Si Si6 0.018328 0.797961 0.431745
Si Si7 0.914931 0.793125 0.636916
Si Si8 0.101002 0.708362 0.780487
O O1 0.791712 0.500000 0.456913
O O2 0.729925 0.779477 0.348138
O O3 0.809021 0.716749 0.347428
O O4 0.847300 0.787148 0.554367
O O5 0.886113 0.273241 0.828765
O O6 0.945240 0.280418 0.765846
O O7 0.946060 0.000000 0.868703
O O8 0.000000 0.275220 0.000000
O O9 0.319345 0.229062 0.876579
O O10 0.238518 0.278592 0.873632
O O11 0.299393 0.000000 0.974398
O O12 0.351346 0.284005 0.087311
O O13 0.323630 0.500000 0.777144
O O14 0.315659 0.500000 0.261847
O O15 0.372127 0.770561 0.281115
O O16 0.959330 0.800331 0.296968
O O17 0.000000 0.710794 0.500000
O O18 0.064030 0.714585 0.428106
O O19 0.037453 0.000000 0.480454
O O20 0.930877 0.000000 0.653018
O O21 0.092272 0.500000 0.787203
#
# Coordination Sequence:
#
# PCOD9184938 Si02
#       8
#     8   8   8   8   8   8   8   8
#     4  10  20  35  56  84 116 147 183 233 290 343
#     4   9  19  36  59  86 115 147 191 243 285 332
#     4   9  20  35  52  79 114 149 185 229 283 342
#     4   9  19  35  58  85 112 146 190 236 282 336
#     4  10  19  34  55  79 111 151 191 231 277 332
#     4  10  22  38  55  79 109 144 193 240 279 335
#     4  10  21  37  59  85 112 150 196 239 286 339
#     4  11  22  34  52  79 112 147 185 233 288 343
#
# _framework density 24.023336
#
# number of rings (size 3 to 8) (size 9 to 14) (size 15 to 20)
#    0.000    2.250    0.000    2.250    1.750    4.250 
#    0.000    0.625    0.000    0.750    0.000    0.000 
#    0.000    0.000    0.000    0.000    0.000    0.000 
#
# Total GULP energy -178859.182341 kJ/mol
# GULP energy per Si atom -5589.349448 kJ/mol
# Density = 2.396866 g / cm^3
# Si number density = 24.023336 Si / 1000 Ang^3
#
#
#
# Elastic Constant Matrix: (Units=GPa)
#
#
# Indices 1 2 3 4 5 6 
#
# 1 125.3425 -2.5545 47.0076 0.0000 19.7166 0.0000
# 2 -2.5545 74.1056 -0.0931 0.0000 2.3680 0.0000
# 3 47.0076 -0.0931 140.5204 0.0000 19.9736 0.0000
# 4 0.0000 0.0000 0.0000 17.0911 0.0000 7.2305
# 5 19.7166 2.3680 19.9736 0.0000 38.0439 0.0000
# 6 0.0000 0.0000 0.0000 7.2305 0.0000 3.3396
#
#
#
# Elastic Compliance Matrix: (Units=1/GPa)
#
#
# Indices 1 2 3 4 5 6 
#
# 1 0.009557 0.000440 -0.002690 0.000000 -0.003568 0.000000
# 2 0.000440 0.013544 0.000015 0.000000 -0.001079 0.000000
# 3 -0.002690 0.000015 0.008449 0.000000 -0.003043 0.000000
# 4 0.000000 0.000000 0.000000 0.696183 0.000000 -1.507303
# 5 -0.003568 -0.001079 -0.003043 0.000000 0.029799 0.000000
# 6 0.000000 0.000000 0.000000 -1.507303 0.000000 3.562895
#
#
# Mechanical properties :
#
#
# Convention : Reuss Voigt Hill
#
# Bulk Modulus (GPa) = 36.92635 47.63207 42.27921
# Shear Modulus (GPa) = 1.15369 31.40213 16.27791
#
# Velocity S-wave (km/s) = 0.69374 3.61938 2.60587
# Velocity P-wave (km/s) = 4.00576 6.11040 5.16639
#
# Compressibility (1/GPa) = 0.02708093
#
# Stress axis : x y z
#
# Youngs Moduli (GPa) = 104.63414 73.83382 118.36232
#
# Poissons Ratio (x) = -0.03249 0.31835
# Poissons Ratio (y) = -0.04605 -0.00179
# Poissons Ratio (z) = 0.28142 -0.00112
#
# Static dielectric constant tensor:
#      x y z
#    x 1.907690 0.000000 -0.007530 
#    y 0.000000 1.893570 0.000000 
#    z -0.007530 0.000000 1.944990 
# 
# From -- ./inp_files/250029.got.cif
#   From: 2010.05.17/outbox.cif.g08.bks.cpg/sg12_126_cif.got.tgz:250029.got - 2010.06.03 13:09:07.
