data_PCOD9184989
_publ_section_title
;
Structure prediction by ZEFSAII (Michael W. Deem and Ramdas Pophale) SiO2 
 PCOD9184989
Probable space group: C 2/M
;
_chemical_formula_sum "Si O2"
_cell_formula_units_Z 52
_cell_length_a 14.222830
_cell_length_b 23.677118
_cell_length_c 11.120113
_cell_angle_alpha 90.000000
_cell_angle_beta 132.756742
_cell_angle_gamma 90.000000
_cell_volume 2749.562867
_symmetry_space_group_name_H-M "C 2/M"
_symmetry_group_IT_number 12
_symmetry_cell_setting 'monoclinic'
loop_
_space_group_symop_operation_xyz
x,y,z
-x,y,-z
-x,-y,-z
x,-y,z
1/2+x,1/2+y,z
1/2-x,1/2+y,-z
1/2-x,1/2-y,-z
1/2+x,1/2-y,z
loop_
_atom_site_type_symbol
_atom_site_label
_atom_site_fract_x
_atom_site_fract_y
_atom_site_fract_z
Si Si1 0.871306 0.223671 0.670403
Si Si2 0.914206 0.000000 0.732623
Si Si3 0.120917 0.110703 0.449183
Si Si4 0.169620 0.147055 0.741763
Si Si5 0.765716 0.125752 0.934348
Si Si6 0.693804 0.500000 0.092275
Si Si7 0.410965 0.227343 0.309774
Si Si8 0.000000 0.819119 0.000000
O O1 0.750000 0.250000 0.500000
O O2 0.846799 0.158468 0.617787
O O3 0.907358 0.220489 0.840822
O O4 0.995391 0.251100 0.714806
O O5 0.877815 0.947376 0.618542
O O6 0.845053 0.000000 0.801308
O O7 0.064944 0.000000 0.897860
O O8 0.202648 0.118675 0.642462
O O9 0.974907 0.125815 0.357801
O O10 0.165134 0.214950 0.722878
O O11 0.240459 0.131875 0.926368
O O12 0.740280 0.060531 0.877357
O O13 0.672712 0.173806 0.800188
O O14 0.907683 0.142794 0.005263
O O15 0.500000 0.212980 0.500000
#
# Coordination Sequence:
#
# PCOD9184989 Si02
#       8
#     8   4   8   8   8   4   8   4
#     4  11  22  36  56  85 116 147 196 242 294 356
#     4  11  20  36  55  82 126 155 186 250 304 342
#     4  10  19  34  55  80 115 150 184 233 299 347
#     4  10  19  35  55  84 115 147 191 237 296 360
#     4  12  23  37  59  84 120 160 200 240 304 347
#     4  11  22  35  53  83 119 155 203 242 284 363
#     4  11  21  39  59  82 118 157 187 251 296 347
#     4  12  22  33  56  88 112 157 194 234 306 362
#
# _framework density 18.912098
#
# number of rings (size 3 to 8) (size 9 to 14) (size 15 to 20)
#    0.000    1.077    7.692    3.231    0.000    1.846 
#    0.000    0.385    0.000    0.923    0.000    0.000 
#    0.000    4.923    0.000    0.000    0.000    0.000 
#
# Total GULP energy -144947.601018 kJ/mol
# GULP energy per Si atom -5574.907731 kJ/mol
# Density = 1.886905 g / cm^3
# Si number density = 18.912098 Si / 1000 Ang^3
#
#
#
# Elastic Constant Matrix: (Units=GPa)
#
#
# Indices 1 2 3 4 5 6 
#
# 1 32.5012 36.5652 36.8363 0.0000 -9.9585 0.0000
# 2 36.5652 188.2302 86.4829 0.0000 -6.2783 0.0000
# 3 36.8363 86.4829 115.3492 0.0000 -43.6769 0.0000
# 4 0.0000 0.0000 0.0000 31.6129 0.0000 -2.0870
# 5 -9.9585 -6.2783 -43.6769 0.0000 25.5579 0.0000
# 6 0.0000 0.0000 0.0000 -2.0870 0.0000 16.8353
#
#
#
# Elastic Compliance Matrix: (Units=1/GPa)
#
#
# Indices 1 2 3 4 5 6 
#
# 1 0.053174 0.003211 -0.031861 0.000000 -0.032941 0.000000
# 2 0.003211 0.022067 -0.042628 0.000000 -0.066178 0.000000
# 3 -0.031861 -0.042628 0.119404 0.000000 0.181168 0.000000
# 4 0.000000 0.000000 0.000000 0.031894 0.000000 0.003954
# 5 -0.032941 -0.066178 0.181168 0.000000 0.319640 0.000000
# 6 0.000000 0.000000 0.000000 0.003954 0.000000 0.059889
#
#
# Mechanical properties :
#
#
# Convention : Reuss Voigt Hill
#
# Bulk Modulus (GPa) = 19.19869 72.87217 46.03543
# Shear Modulus (GPa) = 6.52752 26.54763 16.53758
#
# Velocity S-wave (km/s) = 1.85984 3.75071 2.96031
# Velocity P-wave (km/s) = 3.84520 7.57449 6.00660
#
# Compressibility (1/GPa) = 0.05208690
#
# Stress axis : x y z
#
# Youngs Moduli (GPa) = 18.80627 45.31581 8.37495
#
# Poissons Ratio (x) = -0.14549 0.26684
# Poissons Ratio (y) = -0.06038 0.35701
# Poissons Ratio (z) = 0.59919 1.93174
#
# Static dielectric constant tensor:
#      x y z
#    x 1.712830 0.000000 -0.016410 
#    y 0.000000 1.669830 0.000000 
#    z -0.016410 0.000000 1.705590 
# 
# From -- ./inp_files/159647.got.cif
#   From: 2010.05.17/outbox.cif.g08.bks.cpg/sg12_80_cif.got.tgz:159647.got - 2010.06.03 13:09:07.
