data_PCOD9184751
_publ_section_title
;
Structure prediction by ZEFSAII (Michael W. Deem and Ramdas Pophale) SiO2 
 PCOD9184751
Probable space group: C 2/M
;
_chemical_formula_sum "Si O2"
_cell_formula_units_Z 60
_cell_length_a 29.010913
_cell_length_b 15.658684
_cell_length_c 15.175662
_cell_angle_alpha 90.000000
_cell_angle_beta 26.771107
_cell_angle_gamma 90.000000
_cell_volume 3105.196414
_symmetry_space_group_name_H-M "C 2/M"
_symmetry_group_IT_number 12
_symmetry_cell_setting 'monoclinic'
loop_
_space_group_symop_operation_xyz
x,y,z
-x,y,-z
-x,-y,-z
x,-y,z
1/2+x,1/2+y,z
1/2-x,1/2+y,-z
1/2-x,1/2-y,-z
1/2+x,1/2-y,z
loop_
_atom_site_type_symbol
_atom_site_label
_atom_site_fract_x
_atom_site_fract_y
_atom_site_fract_z
Si Si1 0.588471 0.279876 0.238279
Si Si2 0.500000 0.714576 0.000000
Si Si3 0.657409 0.223454 0.596156
Si Si4 0.811167 0.099961 0.245710
Si Si5 0.880252 0.408386 0.772241
Si Si6 0.327266 0.593086 0.764813
Si Si7 0.623505 0.688652 0.476815
Si Si8 0.262598 0.842178 0.812541
O O1 0.566121 0.181534 0.299989
O O2 0.611720 0.334189 0.286210
O O3 0.495452 0.317715 0.342070
O O4 0.687639 0.291785 0.007336
O O5 0.555252 0.772509 0.830435
O O6 0.591124 0.655347 0.886023
O O7 0.750000 0.250000 0.500000
O O8 0.705161 0.138671 0.468541
O O9 0.643350 0.295277 0.544784
O O10 0.798703 0.112050 0.161333
O O11 0.823110 0.000000 0.246513
O O12 0.933783 0.500000 0.692012
O O13 0.830157 0.401178 0.760819
O O14 0.785177 0.407729 0.002013
O O15 0.373251 0.500000 0.703226
O O16 0.324388 0.612715 0.666242
O O17 0.667234 0.772959 0.354884
#
# Coordination Sequence:
#
# PCOD9184751 Si02
#       8
#     8   4   8   8   8   8   8   8
#     4  11  20  34  53  81 117 155 190 230 276 327
#     4  10  19  40  61  86 112 150 184 238 305 366
#     4   9  21  39  60  84 114 148 188 236 302 360
#     4  10  20  35  60  89 115 145 194 247 289 344
#     4  10  19  34  54  78 112 157 194 225 270 325
#     4  10  20  35  55  80 118 154 189 233 281 335
#     4  11  20  34  57  81 109 149 189 231 282 342
#     4  10  19  35  52  78 114 151 188 229 276 326
#
# _framework density 19.322448999999999
#
# number of rings (size 3 to 8) (size 9 to 14) (size 15 to 20)
#    0.000    1.867    2.667    2.600    0.000    1.600 
#    0.000    9.000    0.000    0.000    0.000    0.000 
#    0.000    0.000    0.000    0.000    0.000    0.000 
#
# Total GULP energy -167200.100196 kJ/mol
# GULP energy per Si atom -5573.336673 kJ/mol
# Density = 1.927847 g / cm^3
# Si number density = 19.322449 Si / 1000 Ang^3
#
#
#
# Elastic Constant Matrix: (Units=GPa)
#
#
# Indices 1 2 3 4 5 6 
#
# 1 88.7974 8.0271 24.3654 0.0000 17.9696 0.0000
# 2 8.0271 97.6697 23.4158 0.0000 7.2280 0.0000
# 3 24.3654 23.4158 110.3076 0.0000 13.4324 0.0000
# 4 0.0000 0.0000 0.0000 3.9068 0.0000 -0.7236
# 5 17.9696 7.2280 13.4324 0.0000 27.8576 0.0000
# 6 0.0000 0.0000 0.0000 -0.7236 0.0000 9.6022
#
#
#
# Elastic Compliance Matrix: (Units=1/GPa)
#
#
# Indices 1 2 3 4 5 6 
#
# 1 0.013364 -0.000051 -0.002011 0.000000 -0.007637 0.000000
# 2 -0.000051 0.010873 -0.002079 0.000000 -0.001786 0.000000
# 3 -0.002011 -0.002079 0.010334 0.000000 -0.003146 0.000000
# 4 0.000000 0.000000 0.000000 0.259585 0.000000 0.019561
# 5 -0.007637 -0.001786 -0.003146 0.000000 0.042804 0.000000
# 6 0.000000 0.000000 0.000000 0.019561 0.000000 0.105617
#
#
# Mechanical properties :
#
#
# Convention : Reuss Voigt Hill
#
# Bulk Modulus (GPa) = 38.03956 45.37681 41.70818
# Shear Modulus (GPa) = 10.87848 24.33774 17.60811
#
# Velocity S-wave (km/s) = 2.37533 3.55288 3.02201
# Velocity P-wave (km/s) = 5.22038 6.35339 5.81455
#
# Compressibility (1/GPa) = 0.02628842
#
# Stress axis : x y z
#
# Youngs Moduli (GPa) = 74.83047 91.96697 96.76506
#
# Poissons Ratio (x) = 0.00469 0.19459
# Poissons Ratio (y) = 0.00381 0.20122
# Poissons Ratio (z) = 0.15048 0.19124
#
# Static dielectric constant tensor:
#      x y z
#    x 1.669010 0.000000 0.019550 
#    y 0.000000 1.699870 0.000000 
#    z 0.019550 0.000000 1.716830 
# 
# From -- ./inp_files/251309.got.cif
#   From: 2010.05.17/outbox.cif.g08.bks.cpg/sg12_126_cif.got.tgz:251309.got - 2010.06.03 13:09:07.
