data_PCOD9184168
_publ_section_title
;
Structure prediction by ZEFSAII (Michael W. Deem and Ramdas Pophale) SiO2 
 PCOD9184168
Probable space group: C 2/M
;
_chemical_formula_sum "Si O2"
_cell_formula_units_Z 48
_cell_length_a 25.540884
_cell_length_b 8.736594
_cell_length_c 12.869740
_cell_angle_alpha 90.000000
_cell_angle_beta 109.389890
_cell_angle_gamma 90.000000
_cell_volume 2708.875564
_symmetry_space_group_name_H-M "C 2/M"
_symmetry_group_IT_number 12
_symmetry_cell_setting 'monoclinic'
loop_
_space_group_symop_operation_xyz
x,y,z
-x,y,-z
-x,-y,-z
x,-y,z
1/2+x,1/2+y,z
1/2-x,1/2+y,-z
1/2-x,1/2-y,-z
1/2+x,1/2-y,z
loop_
_atom_site_type_symbol
_atom_site_label
_atom_site_fract_x
_atom_site_fract_y
_atom_site_fract_z
Si Si1 0.435222 0.684044 0.630579
Si Si2 0.631472 0.684406 0.619992
Si Si3 0.560798 0.315379 0.769051
Si Si4 0.060428 0.684578 0.997056
Si Si5 0.640586 0.816661 0.236901
Si Si6 0.246039 0.682219 0.613721
O O1 0.431001 0.500000 0.642138
O O2 0.412286 0.718620 0.500942
O O3 0.498996 0.728893 0.690276
O O4 0.396597 0.764634 0.689919
O O5 0.638849 0.500000 0.626278
O O6 0.605576 0.733384 0.712635
O O7 0.689461 0.760752 0.628970
O O8 0.561968 0.500000 0.774194
O O9 0.570291 0.250142 0.889561
O O10 0.059404 0.500000 0.990685
O O11 0.107244 0.728936 0.111204
O O12 0.000000 0.734834 0.000000
O O13 0.700457 0.740809 0.288458
O O14 0.646290 0.000000 0.242010
O O15 0.246744 0.500000 0.607028
O O16 0.250000 0.750000 0.500000
#
# Coordination Sequence:
#
# PCOD9184168 Si02
#       6
#     8   8   8   8   8   8
#     4  10  19  33  57  87 120 153 186 233 290 345
#     4  10  21  38  58  85 121 156 192 236 288 343
#     4  10  21  36  58  88 120 155 194 236 286 347
#     4  10  21  38  58  83 117 154 192 240 290 339
#     4  11  22  37  59  86 116 150 194 240 286 337
#     4  12  24  39  60  86 116 151 193 238 286 341
#
# _framework density 17.719529000000001
#
# number of rings (size 3 to 8) (size 9 to 14) (size 15 to 20)
#    0.000    1.500    3.333    2.500    0.000    4.333 
#    0.000    0.833    0.000    3.000    0.000    0.000 
#    0.000    0.000    0.000    0.000    0.000    0.000 
#
# Total GULP energy -134098.491618 kJ/mol
# GULP energy per Si atom -5587.437151 kJ/mol
# Density = 1.767920 g / cm^3
# Si number density = 17.719529 Si / 1000 Ang^3
#
#
#
# Elastic Constant Matrix: (Units=GPa)
#
#
# Indices 1 2 3 4 5 6 
#
# 1 106.0686 36.6932 85.5286 0.0000 -8.6925 0.0000
# 2 36.6932 40.3043 49.8638 0.0000 -0.7776 0.0000
# 3 85.5286 49.8638 165.2646 0.0000 -6.1221 0.0000
# 4 0.0000 0.0000 0.0000 18.6090 0.0000 -4.6075
# 5 -8.6925 -0.7776 -6.1221 0.0000 34.7133 0.0000
# 6 0.0000 0.0000 0.0000 -4.6075 0.0000 29.6398
#
#
#
# Elastic Compliance Matrix: (Units=1/GPa)
#
#
# Indices 1 2 3 4 5 6 
#
# 1 0.017834 -0.007818 -0.006756 0.000000 0.003099 0.000000
# 2 -0.007818 0.043069 -0.009045 0.000000 -0.002588 0.000000
# 3 -0.006756 -0.009045 0.012286 0.000000 0.000273 0.000000
# 4 0.000000 0.000000 0.000000 0.055889 0.000000 0.008688
# 5 0.003099 -0.002588 0.000273 0.000000 0.029574 0.000000
# 6 0.000000 0.000000 0.000000 0.008688 0.000000 0.035089
#
#
# Mechanical properties :
#
#
# Convention : Reuss Voigt Hill
#
# Bulk Modulus (GPa) = 38.53274 72.86764 55.70019
# Shear Modulus (GPa) = 20.02982 25.89588 22.96285
#
# Velocity S-wave (km/s) = 3.36576 3.82701 3.60378
# Velocity P-wave (km/s) = 6.07434 7.79359 6.98705
#
# Compressibility (1/GPa) = 0.02595196
#
# Stress axis : x y z
#
# Youngs Moduli (GPa) = 56.07252 23.21869 81.39181
#
# Poissons Ratio (x) = 0.18153 0.54987
# Poissons Ratio (y) = 0.43838 0.73615
# Poissons Ratio (z) = 0.37882 0.21000
#
# Static dielectric constant tensor:
#      x y z
#    x 1.581900 0.000000 0.010400 
#    y 0.000000 1.600880 0.000000 
#    z 0.010400 0.000000 1.584600 
# 
# From -- ./inp_files/172446.got.cif
#   From: 2010.05.17/outbox.cif.g08.bks.cpg/sg12_87_cif.got.tgz:172446.got - 2010.06.03 13:09:07.
