data_PCOD9184037
_publ_section_title
;
Structure prediction by ZEFSAII (Michael W. Deem and Ramdas Pophale) SiO2 
 PCOD9184037
Probable space group: C 2/M
;
_chemical_formula_sum "Si O2"
_cell_formula_units_Z 64
_cell_length_a 19.158015
_cell_length_b 9.079073
_cell_length_c 21.329488
_cell_angle_alpha 90.000000
_cell_angle_beta 91.435898
_cell_angle_gamma 90.000000
_cell_volume 3708.822522
_symmetry_space_group_name_H-M "C 2/M"
_symmetry_group_IT_number 12
_symmetry_cell_setting 'monoclinic'
loop_
_space_group_symop_operation_xyz
x,y,z
-x,y,-z
-x,-y,-z
x,-y,z
1/2+x,1/2+y,z
1/2-x,1/2+y,-z
1/2-x,1/2-y,-z
1/2+x,1/2-y,z
loop_
_atom_site_type_symbol
_atom_site_label
_atom_site_fract_x
_atom_site_fract_y
_atom_site_fract_z
Si Si1 0.460837 0.168183 0.066637
Si Si2 0.113084 0.175119 0.264925
Si Si3 0.590256 0.325077 0.119888
Si Si4 0.103565 0.173353 0.458363
Si Si5 0.126331 0.174943 0.604379
Si Si6 0.507901 0.825260 0.355962
Si Si7 0.674437 0.177900 0.008581
Si Si8 0.770027 0.827496 0.634064
O O1 0.510306 0.270797 0.109178
O O2 0.381647 0.213303 0.048210
O O3 0.460993 0.000000 0.090632
O O4 0.500000 0.165797 0.000000
O O5 0.114089 0.204849 0.191317
O O6 0.052917 0.263486 0.299249
O O7 0.185052 0.207532 0.302881
O O8 0.100107 0.000000 0.273924
O O9 0.594271 0.500000 0.108019
O O10 0.638664 0.240634 0.070927
O O11 0.112646 0.212544 0.530906
O O12 0.047043 0.267027 0.419428
O O13 0.176248 0.191290 0.422608
O O14 0.083978 0.000000 0.453514
O O15 0.203131 0.227584 0.624036
O O16 0.068785 0.257063 0.644152
O O17 0.119142 0.000000 0.610643
O O18 0.506091 0.000000 0.355196
O O19 0.679065 0.000000 0.011867
O O20 0.750000 0.250000 0.000000
O O21 0.749867 0.000000 0.635480
#
# Coordination Sequence:
#
# PCOD9184037 Si02
#       8
#     8   8   8   8   8   8   8   8
#     4   8  16  31  50  75 107 139 168 203 247 291
#     4   9  20  39  57  74 101 136 172 211 257 307
#     4  10  19  33  57  82 103 135 176 212 250 302
#     4   9  19  35  53  73 101 135 165 204 262 318
#     4  11  21  33  51  75 103 133 166 208 262 315
#     4  11  22  34  52  76 100 130 171 216 256 301
#     4  10  20  34  53  80 114 144 171 208 254 299
#     4   9  18  34  53  73 101 134 169 210 255 305
#
# _framework density 17.256150999999999
#
# number of rings (size 3 to 8) (size 9 to 14) (size 15 to 20)
#    0.000    2.375    0.000    4.500    0.000    8.250 
#    0.000    1.250    0.000    1.500    0.000    0.000 
#    0.000    0.000    0.000    0.000    0.000    0.000 
#
# Total GULP energy -178530.868689 kJ/mol
# GULP energy per Si atom -5579.089647 kJ/mol
# Density = 1.721688 g / cm^3
# Si number density = 17.256151 Si / 1000 Ang^3
#
#
#
# Elastic Constant Matrix: (Units=GPa)
#
#
# Indices 1 2 3 4 5 6 
#
# 1 106.5149 52.9139 34.4240 0.0000 -4.1637 0.0000
# 2 52.9139 67.9739 42.9227 0.0000 -2.9316 0.0000
# 3 34.4240 42.9227 72.3254 0.0000 0.5412 0.0000
# 4 0.0000 0.0000 0.0000 18.4175 0.0000 6.6770
# 5 -4.1637 -2.9316 0.5412 0.0000 3.0407 0.0000
# 6 0.0000 0.0000 0.0000 6.6770 0.0000 31.3096
#
#
#
# Elastic Compliance Matrix: (Units=1/GPa)
#
#
# Indices 1 2 3 4 5 6 
#
# 1 0.015635 -0.011120 -0.000924 0.000000 0.010853 0.000000
# 2 -0.011120 0.033539 -0.014759 0.000000 0.019736 0.000000
# 3 -0.000924 -0.014759 0.023172 0.000000 -0.019619 0.000000
# 4 0.000000 0.000000 0.000000 0.058846 0.000000 -0.012549
# 5 0.010853 0.019736 -0.019619 0.000000 0.366257 0.000000
# 6 0.000000 0.000000 0.000000 -0.012549 0.000000 0.034615
#
#
# Mechanical properties :
#
#
# Convention : Reuss Voigt Hill
#
# Bulk Modulus (GPa) = 53.36057 56.37062 54.86560
# Shear Modulus (GPa) = 8.44715 18.32379 13.38547
#
# Velocity S-wave (km/s) = 2.21490 3.26217 2.78815
# Velocity P-wave (km/s) = 6.12624 6.85032 6.49837
#
# Compressibility (1/GPa) = 0.01874043
#
# Stress axis : x y z
#
# Youngs Moduli (GPa) = 63.95847 29.81642 43.15572
#
# Poissons Ratio (x) = 0.33155 0.03986
# Poissons Ratio (y) = 0.71120 0.63694
# Poissons Ratio (z) = 0.05908 0.44006
#
# Static dielectric constant tensor:
#      x y z
#    x 1.583930 0.000000 0.008510 
#    y 0.000000 1.576120 0.000000 
#    z 0.008510 0.000000 1.572080 
# 
# From -- ./inp_files/313972.got.cif
#   From: 2010.05.17/outbox.cif.g08.bks.cpg/sg12_157_cif.got.tgz:313972.got - 2010.06.03 13:09:07.
