data_PCOD9184972
_publ_section_title
;
Structure prediction by ZEFSAII (Michael W. Deem and Ramdas Pophale) SiO2 
 PCOD9184972
Probable space group: C 2/M
;
_chemical_formula_sum "Si O2"
_cell_formula_units_Z 48
_cell_length_a 25.368248
_cell_length_b 7.463866
_cell_length_c 20.412601
_cell_angle_alpha 90.000000
_cell_angle_beta 147.119773
_cell_angle_gamma 90.000000
_cell_volume 2098.264469
_symmetry_space_group_name_H-M "C 2/M"
_symmetry_group_IT_number 12
_symmetry_cell_setting 'monoclinic'
loop_
_space_group_symop_operation_xyz
x,y,z
-x,y,-z
-x,-y,-z
x,-y,z
1/2+x,1/2+y,z
1/2-x,1/2+y,-z
1/2-x,1/2-y,-z
1/2+x,1/2-y,z
loop_
_atom_site_type_symbol
_atom_site_label
_atom_site_fract_x
_atom_site_fract_y
_atom_site_fract_z
Si Si1 0.918249 0.786943 0.365580
Si Si2 0.802696 0.215346 0.849048
Si Si3 0.288426 0.287170 0.467115
Si Si4 0.437049 0.719112 0.102075
Si Si5 0.611308 0.294801 0.192634
Si Si6 0.987618 0.219109 0.299089
O O1 0.809586 0.759562 0.276997
O O2 0.932020 0.719084 0.305907
O O3 0.000000 0.714191 0.500000
O O4 0.934273 0.000000 0.378553
O O5 0.868211 0.285319 0.857340
O O6 0.809929 0.000000 0.854907
O O7 0.844472 0.274737 0.962643
O O8 0.287358 0.500000 0.454992
O O9 0.250000 0.250000 0.500000
O O10 0.213476 0.206038 0.337418
O O11 0.399519 0.226278 0.577679
O O12 0.439063 0.500000 0.106599
O O13 0.530708 0.780550 0.157684
O O14 0.444599 0.780027 0.184736
O O15 0.580026 0.500000 0.148953
O O16 0.986829 0.000000 0.296753
#
# Coordination Sequence:
#
# PCOD9184972 Si02
#       6
#     8   8   8   8   8   8
#     4  10  21  38  57  76 104 144 183 220 269 329
#     4  10  21  35  56  82 107 140 182 227 272 315
#     4  11  20  33  55  83 111 141 178 222 270 319
#     4   9  17  33  55  79 107 141 182 222 267 327
#     4  10  19  34  55  80 110 144 180 222 269 324
#     4   9  18  33  55  78 104 142 183 218 261 325
#
# _framework density 22.876049999999999
#
# number of rings (size 3 to 8) (size 9 to 14) (size 15 to 20)
#    0.000    2.167    1.667    2.000    0.000    5.000 
#    0.000    2.500    0.000    2.000    0.000    0.000 
#    0.000    0.000    0.000    0.000    0.000    0.000 
#
# Total GULP energy -134133.477000 kJ/mol
# GULP energy per Si atom -5588.894875 kJ/mol
# Density = 2.282398 g / cm^3
# Si number density = 22.876050 Si / 1000 Ang^3
#
#
#
# Elastic Constant Matrix: (Units=GPa)
#
#
# Indices 1 2 3 4 5 6 
#
# 1 128.0843 3.5836 37.8821 0.0000 -21.4418 0.0000
# 2 3.5836 68.6326 -0.0052 0.0000 -5.4336 0.0000
# 3 37.8821 -0.0052 126.6716 0.0000 -24.9392 0.0000
# 4 0.0000 0.0000 0.0000 9.7390 0.0000 3.6630
# 5 -21.4418 -5.4336 -24.9392 0.0000 33.4416 0.0000
# 6 0.0000 0.0000 0.0000 3.6630 0.0000 2.6210
#
#
#
# Elastic Compliance Matrix: (Units=1/GPa)
#
#
# Indices 1 2 3 4 5 6 
#
# 1 0.009100 -0.000124 -0.001848 0.000000 0.004436 0.000000
# 2 -0.000124 0.014795 0.000581 0.000000 0.002757 0.000000
# 3 -0.001848 0.000581 0.009649 0.000000 0.006105 0.000000
# 4 0.000000 0.000000 0.000000 0.216461 0.000000 -0.302514
# 5 0.004436 0.002757 0.006105 0.000000 0.037748 0.000000
# 6 0.000000 0.000000 0.000000 -0.302514 0.000000 0.804307
#
#
# Mechanical properties :
#
#
# Convention : Reuss Voigt Hill
#
# Bulk Modulus (GPa) = 32.50835 45.14552 38.82694
# Shear Modulus (GPa) = 4.52449 27.95552 16.24000
#
# Velocity S-wave (km/s) = 1.40788 3.49957 2.66731
# Velocity P-wave (km/s) = 4.10905 6.00891 5.14739
#
# Compressibility (1/GPa) = 0.03076133
#
# Stress axis : x y z
#
# Youngs Moduli (GPa) = 109.88936 67.58971 103.63626
#
# Poissons Ratio (x) = 0.00839 0.19152
# Poissons Ratio (y) = 0.01363 -0.06017
# Poissons Ratio (z) = 0.20308 -0.03924
#
# Static dielectric constant tensor:
#      x y z
#    x 1.824220 0.000000 -0.016400 
#    y 0.000000 1.881470 0.000000 
#    z -0.016400 0.000000 1.817830 
# 
# From -- ./inp_files/165192.got.cif
#   From: 2010.05.17/outbox.cif.g08.bks.cpg/sg12_83_cif.got.tgz:165192.got - 2010.06.03 13:09:07.
