data_PCOD9184114
_publ_section_title
;
Structure prediction by ZEFSAII (Michael W. Deem and Ramdas Pophale) SiO2 
 PCOD9184114
Probable space group: C 2/M
;
_chemical_formula_sum "Si O2"
_cell_formula_units_Z 56
_cell_length_a 23.562497
_cell_length_b 8.927675
_cell_length_c 15.329777
_cell_angle_alpha 90.000000
_cell_angle_beta 65.386164
_cell_angle_gamma 90.000000
_cell_volume 2931.731312
_symmetry_space_group_name_H-M "C 2/M"
_symmetry_group_IT_number 12
_symmetry_cell_setting 'monoclinic'
loop_
_space_group_symop_operation_xyz
x,y,z
-x,y,-z
-x,-y,-z
x,-y,z
1/2+x,1/2+y,z
1/2-x,1/2+y,-z
1/2-x,1/2-y,-z
1/2+x,1/2-y,z
loop_
_atom_site_type_symbol
_atom_site_label
_atom_site_fract_x
_atom_site_fract_y
_atom_site_fract_z
Si Si1 0.467023 0.677062 0.114170
Si Si2 0.987404 0.817450 0.409432
Si Si3 0.930987 0.819886 0.802987
Si Si4 0.741171 0.321172 0.643855
Si Si5 0.346334 0.319628 0.463730
Si Si6 0.162250 0.322006 0.838664
Si Si7 0.817164 0.320869 0.973531
O O1 0.451834 0.500000 0.130153
O O2 0.515655 0.712697 0.159228
O O3 0.403313 0.768026 0.158862
O O4 0.500000 0.703639 0.000000
O O5 0.918361 0.772034 0.421842
O O6 0.000000 0.768093 0.500000
O O7 0.040924 0.770979 0.307632
O O8 0.987649 0.000000 0.408649
O O9 0.867926 0.742115 0.873886
O O10 0.921706 0.000000 0.808179
O O11 0.745567 0.500000 0.645210
O O12 0.688624 0.281388 0.604287
O O13 0.805285 0.252279 0.566848
O O14 0.717777 0.255263 0.749803
O O15 0.344228 0.500000 0.473647
O O16 0.168420 0.500000 0.827654
O O17 0.162716 0.280436 0.940472
O O18 0.814048 0.500000 0.969496
O O19 0.750000 0.250000 0.000000
#
# Coordination Sequence:
#
# PCOD9184114 Si02
#       7
#     8   8   8   8   8   8   8
#     4  10  19  33  57  85 114 149 186 230 284 340
#     4   9  18  33  56  83 110 144 185 228 273 328
#     4  10  20  37  60  86 116 150 189 232 282 339
#     4  10  20  34  56  83 113 148 187 233 288 344
#     4   9  18  35  56  81 114 147 187 235 283 336
#     4  11  23  37  56  84 116 149 189 236 287 344
#     4  11  25  42  59  81 112 150 191 235 284 340
#
# _framework density 19.101341000000001
#
# number of rings (size 3 to 8) (size 9 to 14) (size 15 to 20)
#    0.000    2.000    1.429    2.143    0.000    6.571 
#    0.000    3.571    0.000    0.857    0.000    0.000 
#    0.000    0.000    0.000    0.000    0.000    0.000 
#
# Total GULP energy -156415.919727 kJ/mol
# GULP energy per Si atom -5586.282847 kJ/mol
# Density = 1.905787 g / cm^3
# Si number density = 19.101341 Si / 1000 Ang^3
#
#
#
# Elastic Constant Matrix: (Units=GPa)
#
#
# Indices 1 2 3 4 5 6 
#
# 1 75.7687 25.8558 62.1596 0.0000 -24.7287 0.0000
# 2 25.8558 17.9327 42.3833 0.0000 -10.4443 0.0000
# 3 62.1596 42.3833 162.1535 0.0000 -19.0145 0.0000
# 4 0.0000 0.0000 0.0000 28.3178 0.0000 -11.3868
# 5 -24.7287 -10.4443 -19.0145 0.0000 27.6332 0.0000
# 6 0.0000 0.0000 0.0000 -11.3868 0.0000 23.6608
#
#
#
# Elastic Compliance Matrix: (Units=1/GPa)
#
#
# Indices 1 2 3 4 5 6 
#
# 1 0.029467 -0.030378 -0.001751 0.000000 0.013683 0.000000
# 2 -0.030378 0.207531 -0.039800 0.000000 0.023867 0.000000
# 3 -0.001751 -0.039800 0.016636 0.000000 -0.005163 0.000000
# 4 0.000000 0.000000 0.000000 0.043787 0.000000 0.021073
# 5 0.013683 0.023867 -0.005163 0.000000 0.053901 0.000000
# 6 0.000000 0.000000 0.000000 0.021073 0.000000 0.052405
#
#
# Mechanical properties :
#
#
# Convention : Reuss Voigt Hill
#
# Bulk Modulus (GPa) = 9.10957 57.40580 33.25769
# Shear Modulus (GPa) = 8.55905 24.28611 16.42258
#
# Velocity S-wave (km/s) = 2.11910 3.56959 2.93535
# Velocity P-wave (km/s) = 3.28129 6.86351 5.37934
#
# Compressibility (1/GPa) = 0.10977463
#
# Stress axis : x y z
#
# Youngs Moduli (GPa) = 33.93659 4.81855 60.11168
#
# Poissons Ratio (x) = 0.14638 0.10526
# Poissons Ratio (y) = 1.03094 2.39245
# Poissons Ratio (z) = 0.05942 0.19178
#
# Static dielectric constant tensor:
#      x y z
#    x 1.648410 0.000000 0.014510 
#    y 0.000000 1.637200 0.000000 
#    z 0.014510 0.000000 1.662730 
# 
# From -- ./inp_files/238241.got.cif
#   From: 2010.05.17/outbox.cif.g08.bks.cpg/sg12_120_cif.got.tgz:238241.got - 2010.06.03 13:09:07.
