data_PCOD9184064
_publ_section_title
;
Structure prediction by ZEFSAII (Michael W. Deem and Ramdas Pophale) SiO2 
 PCOD9184064
Probable space group: C 2/M
;
_chemical_formula_sum "Si O2"
_cell_formula_units_Z 58
_cell_length_a 15.193314
_cell_length_b 13.651590
_cell_length_c 24.621747
_cell_angle_alpha 90.000000
_cell_angle_beta 148.253729
_cell_angle_gamma 90.000000
_cell_volume 2687.022297
_symmetry_space_group_name_H-M "C 2/M"
_symmetry_group_IT_number 12
_symmetry_cell_setting 'monoclinic'
loop_
_space_group_symop_operation_xyz
x,y,z
-x,y,-z
-x,-y,-z
x,-y,z
1/2+x,1/2+y,z
1/2-x,1/2+y,-z
1/2-x,1/2-y,-z
1/2+x,1/2-y,z
loop_
_atom_site_type_symbol
_atom_site_label
_atom_site_fract_x
_atom_site_fract_y
_atom_site_fract_z
Si Si1 0.574287 0.612396 0.208960
Si Si2 0.121402 0.107168 0.488600
Si Si3 0.961184 0.606751 0.593962
Si Si4 0.000000 0.500000 0.000000
Si Si5 0.412280 0.610389 0.011822
Si Si6 0.230959 0.675497 0.086762
Si Si7 0.067055 0.203214 0.703174
Si Si8 0.728855 0.797097 0.598563
O O1 0.605839 0.500000 0.241170
O O2 0.546355 0.620384 0.130432
O O3 0.395332 0.642809 0.140232
O O4 0.718290 0.674960 0.313468
O O5 0.288538 0.107269 0.538457
O O6 0.157295 0.189222 0.551806
O O7 0.972097 0.134440 0.368850
O O8 0.100614 0.000000 0.500282
O O9 0.038327 0.500000 0.636308
O O10 0.900214 0.634414 0.501698
O O11 0.070263 0.688858 0.679896
O O12 0.095679 0.588424 0.014422
O O13 0.331301 0.500000 0.977884
O O14 0.500000 0.605477 0.000000
O O15 0.313476 0.714339 0.956978
O O16 0.282427 0.680614 0.177765
O O17 0.901590 0.196734 0.654557
#
# Coordination Sequence:
#
# PCOD9184064 Si02
#       8
#     8   8   8   2   8   8   8   8
#     4  10  19  33  57  83 109 148 188 230 281 337
#     4   8  13  22  38  63 103 144 175 214 266 317
#     4   8  12  21  37  65 103 138 172 218 266 312
#     4  12  24  36  58  80 114 150 184 254 282 316
#     4  10  22  40  59  78 107 144 184 236 293 345
#     4  11  21  37  55  82 112 145 194 238 282 327
#     4   8  16  24  41  68 100 142 181 218 261 319
#     4   8  14  24  40  70 105 139 177 219 262 317
#
# _framework density 21.585232000000001
#
# number of rings (size 3 to 8) (size 9 to 14) (size 15 to 20)
#    0.000    2.897    1.379    2.483    0.966    2.207 
#    0.000    2.069    1.517    0.000    0.000    3.862 
#    0.000   19.862    0.000    2.207    0.000    1.103 
#
# Total GULP energy -161506.661042 kJ/mol
# GULP energy per Si atom -5569.195208 kJ/mol
# Density = 2.153610 g / cm^3
# Si number density = 21.585232 Si / 1000 Ang^3
#
#
#
# Elastic Constant Matrix: (Units=GPa)
#
#
# Indices 1 2 3 4 5 6 
#
# 1 78.8111 29.2247 36.7907 0.0000 -10.9080 0.0000
# 2 29.2247 143.8162 46.1296 0.0000 -10.1262 0.0000
# 3 36.7907 46.1296 86.3147 0.0001 -22.9969 0.0000
# 4 0.0000 0.0000 0.0001 1.2838 0.0000 -5.5941
# 5 -10.9080 -10.1262 -22.9969 0.0000 37.0684 0.0000
# 6 0.0000 0.0000 0.0000 -5.5941 0.0000 -4.7899
#
#
#
# Elastic Compliance Matrix: (Units=1/GPa)
#
#
# Indices 1 2 3 4 5 6 
#
# 1 0.016049 -0.001300 -0.005969 0.000000 0.000665 0.000000
# 2 -0.001300 0.008508 -0.004164 0.000000 -0.000642 0.000000
# 3 -0.005969 -0.004164 0.018670 0.000000 0.008689 0.000000
# 4 0.000000 0.000000 0.000000 0.127924 0.000000 -0.149402
# 5 0.000665 -0.000642 0.008689 0.000000 0.032388 0.000000
# 6 0.000000 0.000000 0.000000 -0.149402 0.000000 -0.034288
#
#
# Mechanical properties :
#
#
# Convention : Reuss Voigt Hill
#
# Bulk Modulus (GPa) = 49.11222 59.24799 54.18010
# Shear Modulus (GPa) = 25.13782 19.83228 22.48505
#
# Velocity S-wave (km/s) = 3.41630 3.03444 3.23102
# Velocity P-wave (km/s) = 6.19383 6.30754 6.25095
#
# Compressibility (1/GPa) = 0.02036153
#
# Stress axis : x y z
#
# Youngs Moduli (GPa) = 62.30913 117.53869 53.56218
#
# Poissons Ratio (x) = 0.15279 0.31971
# Poissons Ratio (y) = 0.08100 0.22302
# Poissons Ratio (z) = 0.37192 0.48940
#
# Static dielectric constant tensor:
#      x y z
#    x 1.837530 0.000000 0.030470 
#    y 0.000000 1.813600 0.000000 
#    z 0.030470 0.000000 1.769210 
# 
# From -- ./inp_files/364015.got.cif
#   From: 2010.05.17/outbox.cif.g08.bks.cpg/sg12_183_cif.got.tgz:364015.got - 2010.06.03 13:09:07.
