data_PCOD9184081
_publ_section_title
;
Structure prediction by ZEFSAII (Michael W. Deem and Ramdas Pophale) SiO2 
 PCOD9184081
Probable space group: C 2/M
;
_chemical_formula_sum "Si O2"
_cell_formula_units_Z 48
_cell_length_a 20.777694
_cell_length_b 8.820291
_cell_length_c 23.626057
_cell_angle_alpha 90.000000
_cell_angle_beta 39.468148
_cell_angle_gamma 90.000000
_cell_volume 2752.256991
_symmetry_space_group_name_H-M "C 2/M"
_symmetry_group_IT_number 12
_symmetry_cell_setting 'monoclinic'
loop_
_space_group_symop_operation_xyz
x,y,z
-x,y,-z
-x,-y,-z
x,-y,z
1/2+x,1/2+y,z
1/2-x,1/2+y,-z
1/2-x,1/2-y,-z
1/2+x,1/2-y,z
loop_
_atom_site_type_symbol
_atom_site_label
_atom_site_fract_x
_atom_site_fract_y
_atom_site_fract_z
Si Si1 0.360497 0.681690 0.932045
Si Si2 0.857338 0.319593 0.446047
Si Si3 0.822630 0.681189 0.266616
Si Si4 0.393808 0.318265 0.543675
Si Si5 0.540754 0.318183 0.727594
Si Si6 0.483987 0.683276 0.076053
O O1 0.351973 0.500000 0.939953
O O2 0.433882 0.720055 0.829523
O O3 0.422482 0.729151 0.946460
O O4 0.250000 0.750000 0.000000
O O5 0.852080 0.500000 0.445981
O O6 0.750000 0.250000 0.500000
O O7 0.880197 0.265907 0.493716
O O8 0.939722 0.255671 0.346110
O O9 0.835984 0.500000 0.259950
O O10 0.703407 0.715126 0.350987
O O11 0.874836 0.755232 0.286350
O O12 0.883273 0.746796 0.172072
O O13 0.500000 0.278178 0.500000
O O14 0.393065 0.500000 0.533632
O O15 0.549701 0.500000 0.718066
O O16 0.476363 0.500000 0.084272
O O17 0.500000 0.726612 0.000000
#
# Coordination Sequence:
#
# PCOD9184081 Si02
#       6
#     8   8   8   8   8   8
#     4   9  19  35  56  81 110 144 177 222 280 325
#     4  12  23  36  59  87 113 146 190 235 277 334
#     4  10  19  33  57  84 109 144 187 230 278 331
#     4  10  22  40  58  80 117 154 184 229 286 334
#     4  10  20  36  58  83 112 148 187 229 278 331
#     4   9  19  37  58  78 106 145 186 228 276 328
#
# _framework density 17.440232000000002
#
# number of rings (size 3 to 8) (size 9 to 14) (size 15 to 20)
#    0.000    2.000    1.667    3.500    0.000    4.667 
#    3.000    0.000    0.000    0.000    0.000    0.000 
#    0.000    0.000    0.000    0.000    0.000    0.000 
#
# Total GULP energy -133961.826384 kJ/mol
# GULP energy per Si atom -5581.742766 kJ/mol
# Density = 1.740054 g / cm^3
# Si number density = 17.440232 Si / 1000 Ang^3
#
#
#
# Elastic Constant Matrix: (Units=GPa)
#
#
# Indices 1 2 3 4 5 6 
#
# 1 106.1144 55.3119 100.3572 0.0000 -4.2572 0.0000
# 2 55.3119 57.7068 64.2089 -0.0002 -0.6877 0.0003
# 3 100.3572 64.2089 170.6378 0.0000 -2.4067 0.0000
# 4 0.0000 -0.0002 0.0000 31.5052 0.0000 2.5828
# 5 -4.2572 -0.6877 -2.4067 0.0000 37.4458 0.0000
# 6 0.0000 0.0003 0.0000 2.5828 0.0000 24.5643
#
#
#
# Elastic Compliance Matrix: (Units=1/GPa)
#
#
# Indices 1 2 3 4 5 6 
#
# 1 0.026541 -0.013898 -0.010350 0.000000 0.002097 0.000000
# 2 -0.013898 0.037089 -0.005800 0.000000 -0.001272 0.000000
# 3 -0.010350 -0.005800 0.014125 0.000000 -0.000375 0.000000
# 4 0.000000 0.000000 0.000000 0.032017 0.000000 -0.003366
# 5 0.002097 -0.001272 -0.000375 0.000000 0.026896 0.000000
# 6 0.000000 0.000000 0.000000 -0.003366 0.000000 0.041064
#
#
# Mechanical properties :
#
#
# Convention : Reuss Voigt Hill
#
# Bulk Modulus (GPa) = 56.63250 86.02391 71.32820
# Shear Modulus (GPa) = 20.51588 26.34179 23.42883
#
# Velocity S-wave (km/s) = 3.43352 3.89061 3.66919
# Velocity P-wave (km/s) = 6.94706 8.34353 7.67711
#
# Compressibility (1/GPa) = 0.01765771
#
# Stress axis : x y z
#
# Youngs Moduli (GPa) = 37.67764 26.96242 70.79681
#
# Poissons Ratio (x) = 0.37472 0.73277
# Poissons Ratio (y) = 0.52364 0.41063
# Poissons Ratio (z) = 0.38998 0.15639
#
# Static dielectric constant tensor:
#      x y z
#    x 1.567190 0.000000 0.000820 
#    y 0.000000 1.585650 0.000000 
#    z 0.000820 0.000000 1.600040 
# 
# From -- ./inp_files/345385.got.cif
#   From: 2010.05.17/outbox.cif.g08.bks.cpg/sg12_173_cif.got.tgz:345385.got - 2010.06.03 13:09:07.
