data_PCOD9184869
_publ_section_title
;
Structure prediction by ZEFSAII (Michael W. Deem and Ramdas Pophale) SiO2 
 PCOD9184869
Probable space group: C 2/M
;
_chemical_formula_sum "Si O2"
_cell_formula_units_Z 56
_cell_length_a 24.585026
_cell_length_b 14.973047
_cell_length_c 16.371289
_cell_angle_alpha 90.000000
_cell_angle_beta 31.063253
_cell_angle_gamma 90.000000
_cell_volume 3109.567670
_symmetry_space_group_name_H-M "C 2/M"
_symmetry_group_IT_number 12
_symmetry_cell_setting 'monoclinic'
loop_
_space_group_symop_operation_xyz
x,y,z
-x,y,-z
-x,-y,-z
x,-y,z
1/2+x,1/2+y,z
1/2-x,1/2+y,-z
1/2-x,1/2-y,-z
1/2+x,1/2-y,z
loop_
_atom_site_type_symbol
_atom_site_label
_atom_site_fract_x
_atom_site_fract_y
_atom_site_fract_z
Si Si1 0.905262 0.772571 0.173737
Si Si2 0.306850 0.692761 0.611610
Si Si3 0.804167 0.896963 0.438826
Si Si4 0.665232 0.604170 0.248870
Si Si5 0.877201 0.398012 0.871698
Si Si6 0.523424 0.767131 0.380159
Si Si7 0.437902 0.898961 0.233785
O O1 0.800517 0.749538 0.256877
O O2 0.869641 0.833423 0.295300
O O3 0.947375 0.678612 0.155454
O O4 0.000000 0.813697 0.000000
O O5 0.312191 0.634143 0.522478
O O6 0.308797 0.634787 0.692008
O O7 0.411496 0.752947 0.480618
O O8 0.679674 0.888707 0.578176
O O9 0.835201 0.000000 0.390633
O O10 0.634622 0.500000 0.286867
O O11 0.576597 0.670605 0.328122
O O12 0.768858 0.615865 0.059843
O O13 0.877585 0.500000 0.839945
O O14 0.899669 0.328007 0.771654
O O15 0.972137 0.390066 0.814618
O O16 0.500000 0.806177 0.500000
O O17 0.443543 0.000000 0.192039
#
# Coordination Sequence:
#
# PCOD9184869 Si02
#       7
#     8   8   8   8   8   8   8
#     4  11  21  33  52  78 108 136 166 208 254 304
#     4  10  20  35  55  75 101 135 172 212 257 300
#     4  10  20  34  53  76 104 139 174 205 243 302
#     4  10  21  35  54  80 104 129 167 215 263 302
#     4  10  19  34  55  77 105 136 166 209 258 301
#     4  10  21  35  53  75 103 138 174 210 248 300
#     4   9  18  33  54  78 102 131 169 212 256 299
#
# _framework density 18.008935000000001
#
# number of rings (size 3 to 8) (size 9 to 14) (size 15 to 20)
#    0.000    2.000    0.000    5.143    0.000    4.571 
#    0.000    0.000    0.000    0.857    0.000    0.000 
#    0.000    0.000    0.000    0.000    0.000    0.000 
#
# Total GULP energy -156289.352044 kJ/mol
# GULP energy per Si atom -5581.762573 kJ/mol
# Density = 1.796795 g / cm^3
# Si number density = 18.008935 Si / 1000 Ang^3
#
#
#
# Elastic Constant Matrix: (Units=GPa)
#
#
# Indices 1 2 3 4 5 6 
#
# 1 65.3518 31.4751 32.8153 0.0000 -9.1498 0.0000
# 2 31.4751 67.1742 48.3675 0.0000 4.3967 0.0000
# 3 32.8153 48.3675 98.7093 0.0000 7.0065 0.0000
# 4 0.0000 0.0000 0.0000 13.8859 0.0000 1.6635
# 5 -9.1498 4.3967 7.0065 0.0000 17.7440 0.0000
# 6 0.0000 0.0000 0.0000 1.6635 0.0000 16.6186
#
#
#
# Elastic Compliance Matrix: (Units=1/GPa)
#
#
# Indices 1 2 3 4 5 6 
#
# 1 0.024462 -0.009035 -0.004897 0.000000 0.016786 0.000000
# 2 -0.009035 0.026368 -0.009385 0.000000 -0.007487 0.000000
# 3 -0.004897 -0.009385 0.016844 0.000000 -0.006850 0.000000
# 4 0.000000 0.000000 0.000000 0.072890 0.000000 -0.007296
# 5 0.016786 -0.007487 -0.006850 0.000000 0.069573 0.000000
# 6 0.000000 0.000000 0.000000 -0.007296 0.000000 0.060904
#
#
# Mechanical properties :
#
#
# Convention : Reuss Voigt Hill
#
# Bulk Modulus (GPa) = 47.52860 50.72790 49.12825
# Shear Modulus (GPa) = 15.39942 17.55485 16.47713
#
# Velocity S-wave (km/s) = 2.92738 3.12554 3.02808
# Velocity P-wave (km/s) = 6.15427 6.42298 6.29006
#
# Compressibility (1/GPa) = 0.02103996
#
# Stress axis : x y z
#
# Youngs Moduli (GPa) = 40.87916 37.92517 59.36973
#
# Poissons Ratio (x) = 0.34265 0.29072
# Poissons Ratio (y) = 0.36934 0.55719
# Poissons Ratio (z) = 0.20017 0.35593
#
# Static dielectric constant tensor:
#      x y z
#    x 1.606310 0.000000 -0.001070 
#    y 0.000000 1.615340 0.000000 
#    z -0.001070 0.000000 1.627810 
# 
# From -- ./inp_files/225388.got.cif
#   From: 2010.05.17/outbox.cif.g08.bks.cpg/sg12_113_cif.got.tgz:225388.got - 2010.06.03 13:09:07.
