data_PCOD9184898
_publ_section_title
;
Structure prediction by ZEFSAII (Michael W. Deem and Ramdas Pophale) SiO2 
 PCOD9184898
Probable space group: C 2/M
;
_chemical_formula_sum "Si O2"
_cell_formula_units_Z 56
_cell_length_a 13.412784
_cell_length_b 28.254442
_cell_length_c 8.347725
_cell_angle_alpha 90.000000
_cell_angle_beta 59.518657
_cell_angle_gamma 90.000000
_cell_volume 2726.323945
_symmetry_space_group_name_H-M "C 2/M"
_symmetry_group_IT_number 12
_symmetry_cell_setting 'monoclinic'
loop_
_space_group_symop_operation_xyz
x,y,z
-x,y,-z
-x,-y,-z
x,-y,z
1/2+x,1/2+y,z
1/2-x,1/2+y,-z
1/2-x,1/2-y,-z
1/2+x,1/2-y,z
loop_
_atom_site_type_symbol
_atom_site_label
_atom_site_fract_x
_atom_site_fract_y
_atom_site_fract_z
Si Si1 0.882200 0.641046 0.990178
Si Si2 0.976512 0.078785 0.832283
Si Si3 0.526117 0.678294 0.668145
Si Si4 0.281130 0.847666 0.392379
Si Si5 0.999549 0.284824 0.309307
Si Si6 0.731937 0.446638 0.567714
Si Si7 0.225380 0.552205 0.083945
O O1 0.853772 0.593649 0.918347
O O2 0.900936 0.683880 0.852260
O O3 0.781619 0.651959 0.199526
O O4 0.000000 0.636264 0.000000
O O5 0.968469 0.134777 0.806928
O O6 0.093328 0.060410 0.651663
O O7 0.852360 0.056357 0.898707
O O8 0.000000 0.069554 0.000000
O O9 0.500000 0.674352 0.500000
O O10 0.663645 0.670290 0.567001
O O11 0.495757 0.730664 0.751173
O O12 0.382590 0.812272 0.358324
O O13 0.295831 0.902411 0.433749
O O14 0.000000 0.284086 0.500000
O O15 0.764593 0.500000 0.491305
O O16 0.755022 0.442687 0.740303
O O17 0.177529 0.500000 0.092985
#
# Coordination Sequence:
#
# PCOD9184898 Si02
#       7
#     8   8   8   8   8   8   8
#     4  10  22  37  54  77 107 138 176 220 259 304
#     4   9  18  32  53  82 111 137 171 214 259 314
#     4  10  20  35  55  80 108 138 172 213 265 317
#     4  10  20  36  56  78 108 139 173 217 262 311
#     4  10  21  38  56  76 104 140 180 218 257 305
#     4   9  18  33  55  81 107 138 174 214 262 314
#     4  10  19  34  55  78 107 142 177 214 259 309
#
# _framework density 20.540478
#
# number of rings (size 3 to 8) (size 9 to 14) (size 15 to 20)
#    0.000    2.286    0.000    2.571    0.000    4.286 
#    0.000   10.000    0.000   12.429    0.000    0.000 
#    0.000    0.000    0.000    0.000    0.000    0.000 
#
# Total GULP energy -156273.429715 kJ/mol
# GULP energy per Si atom -5581.193918 kJ/mol
# Density = 2.049373 g / cm^3
# Si number density = 20.540478 Si / 1000 Ang^3
#
#
#
# Elastic Constant Matrix: (Units=GPa)
#
#
# Indices 1 2 3 4 5 6 
#
# 1 23.0187 8.1212 -14.1351 0.0000 4.6106 0.0000
# 2 8.1212 139.5567 17.1701 0.0000 4.7497 0.0000
# 3 -14.1351 17.1701 40.1578 0.0000 -1.2411 0.0000
# 4 0.0000 0.0000 0.0000 20.3818 0.0000 -1.3220
# 5 4.6106 4.7497 -1.2411 0.0000 10.4972 0.0000
# 6 0.0000 0.0000 0.0000 -1.3220 0.0000 20.2951
#
#
#
# Elastic Compliance Matrix: (Units=1/GPa)
#
#
# Indices 1 2 3 4 5 6 
#
# 1 0.065550 -0.006101 0.024968 0.000000 -0.023079 0.000000
# 2 -0.006101 0.008287 -0.005745 0.000000 -0.001749 0.000000
# 3 0.024968 -0.005745 0.036020 0.000000 -0.004109 0.000000
# 4 0.000000 0.000000 0.000000 0.049271 0.000000 0.003210
# 5 -0.023079 -0.001749 -0.004109 0.000000 0.105706 0.000000
# 6 0.000000 0.000000 0.000000 0.003210 0.000000 0.049482
#
#
# Mechanical properties :
#
#
# Convention : Reuss Voigt Hill
#
# Bulk Modulus (GPa) = 7.34742 25.00506 16.17624
# Shear Modulus (GPa) = 14.99526 23.00661 19.00094
#
# Velocity S-wave (km/s) = 2.70485 3.35036 3.04476
# Velocity P-wave (km/s) = 3.65236 5.21216 4.50035
#
# Compressibility (1/GPa) = 0.13610211
#
# Stress axis : x y z
#
# Youngs Moduli (GPa) = 15.25543 120.67234 27.76267
#
# Poissons Ratio (x) = 0.73623 -0.69319
# Poissons Ratio (y) = 0.09307 0.15949
# Poissons Ratio (z) = -0.38090 0.69323
#
# Static dielectric constant tensor:
#      x y z
#    x 1.749580 0.000000 -0.013720 
#    y 0.000000 1.714810 0.000000 
#    z -0.013720 0.000000 1.749120 
# 
# From -- ./inp_files/65761.got.cif
#   From: 2010.05.17/outbox.cif.g08.bks.cpg/sg12_33_cif.got.tgz:65761.got - 2010.06.03 13:09:07.
