data_PCOD9184265
_publ_section_title
;
Structure prediction by ZEFSAII (Michael W. Deem and Ramdas Pophale) SiO2 
 PCOD9184265
Probable space group: C 2/M
;
_chemical_formula_sum "Si O2"
_cell_formula_units_Z 56
_cell_length_a 14.836817
_cell_length_b 8.829264
_cell_length_c 22.141867
_cell_angle_alpha 90.000000
_cell_angle_beta 59.923769
_cell_angle_gamma 90.000000
_cell_volume 2510.013136
_symmetry_space_group_name_H-M "C 2/M"
_symmetry_group_IT_number 12
_symmetry_cell_setting 'monoclinic'
loop_
_space_group_symop_operation_xyz
x,y,z
-x,y,-z
-x,-y,-z
x,-y,z
1/2+x,1/2+y,z
1/2-x,1/2+y,-z
1/2-x,1/2-y,-z
1/2+x,1/2-y,z
loop_
_atom_site_type_symbol
_atom_site_label
_atom_site_fract_x
_atom_site_fract_y
_atom_site_fract_z
Si Si1 0.184173 0.319389 0.266019
Si Si2 0.409612 0.681694 0.483926
Si Si3 0.613653 0.324423 0.102813
Si Si4 0.672503 0.325392 0.941314
Si Si5 0.253995 0.818981 0.623702
Si Si6 0.529897 0.681792 0.673361
Si Si7 0.400159 0.178836 0.148887
O O1 0.191890 0.500000 0.257344
O O2 0.181160 0.279996 0.338499
O O3 0.289378 0.243079 0.207698
O O4 0.077815 0.259082 0.273027
O O5 0.500000 0.730226 0.500000
O O6 0.402459 0.500000 0.487467
O O7 0.304649 0.747790 0.547549
O O8 0.439790 0.724233 0.405908
O O9 0.707754 0.230977 0.100980
O O10 0.498414 0.257783 0.147827
O O11 0.835646 0.000000 0.075891
O O12 0.637836 0.318217 0.022601
O O13 0.617930 0.500000 0.120609
O O14 0.602908 0.223734 0.920934
O O15 0.133933 0.774126 0.674275
O O16 0.254593 0.000000 0.615860
O O17 0.516192 0.500000 0.681085
O O18 0.406493 0.000000 0.154579
#
# Coordination Sequence:
#
# PCOD9184265 Si02
#       7
#     8   8   8   8   8   8   8
#     4  11  24  41  58  81 113 152 198 247 295 350
#     4  10  19  33  58  87 116 148 183 234 292 350
#     4  10  21  39  64  94 127 160 197 245 297 353
#     4  10  21  39  64  94 126 159 198 246 298 353
#     4  10  22  38  59  84 112 148 190 239 291 348
#     4  10  21  39  59  83 115 150 190 236 294 357
#     4  12  25  40  61  87 120 163 205 249 302 357
#
# _framework density 22.310639999999999
#
# number of rings (size 3 to 8) (size 9 to 14) (size 15 to 20)
#    0.000    1.571    1.429    3.429    0.000    6.571 
#    0.000    4.286    0.000    0.000    0.000    0.000 
#    0.000    0.000    0.000    0.000    0.000    0.000 
#
# Total GULP energy -156661.638392 kJ/mol
# GULP energy per Si atom -5595.058514 kJ/mol
# Density = 2.225986 g / cm^3
# Si number density = 22.310640 Si / 1000 Ang^3
#
#
#
# Elastic Constant Matrix: (Units=GPa)
#
#
# Indices 1 2 3 4 5 6 
#
# 1 103.7012 16.8124 10.8574 0.0000 -33.9348 0.0000
# 2 16.8124 53.9544 14.7365 0.0000 -20.6444 0.0000
# 3 10.8574 14.7365 71.9752 0.0000 -25.5661 0.0000
# 4 0.0000 0.0000 0.0000 28.9831 0.0000 -8.8772
# 5 -33.9348 -20.6444 -25.5661 0.0000 44.0074 0.0000
# 6 0.0000 0.0000 0.0000 -8.8772 0.0000 31.3972
#
#
#
# Elastic Compliance Matrix: (Units=1/GPa)
#
#
# Indices 1 2 3 4 5 6 
#
# 1 0.013137 -0.000392 0.002056 0.000000 0.011140 0.000000
# 2 -0.000392 0.022668 -0.001149 0.000000 0.009663 0.000000
# 3 0.002056 -0.001149 0.017880 0.000000 0.011433 0.000000
# 4 0.000000 0.000000 0.000000 0.037774 0.000000 0.010680
# 5 0.011140 0.009663 0.011433 0.000000 0.042489 0.000000
# 6 0.000000 0.000000 0.000000 0.010680 0.000000 0.034870
#
#
# Mechanical properties :
#
#
# Convention : Reuss Voigt Hill
#
# Bulk Modulus (GPa) = 18.27725 34.93817 26.60771
# Shear Modulus (GPa) = 26.87768 33.35917 30.11843
#
# Velocity S-wave (km/s) = 3.47465 3.87099 3.67816
# Velocity P-wave (km/s) = 4.93027 5.97272 5.47635
#
# Compressibility (1/GPa) = 0.05471282
#
# Stress axis : x y z
#
# Youngs Moduli (GPa) = 76.12087 44.11535 55.92795
#
# Poissons Ratio (x) = 0.01731 -0.11497
# Poissons Ratio (y) = 0.02987 0.06428
# Poissons Ratio (z) = -0.15649 0.05071
#
# Static dielectric constant tensor:
#      x y z
#    x 1.821150 0.000000 0.027730 
#    y 0.000000 1.740280 0.000000 
#    z 0.027730 0.000000 1.872380 
# 
# From -- ./inp_files/308955.got.cif
#   From: 2010.05.17/outbox.cif.g08.bks.cpg/sg12_155_cif.got.tgz:308955.got - 2010.06.03 13:09:07.
