data_PCOD9184344
_publ_section_title
;
Structure prediction by ZEFSAII (Michael W. Deem and Ramdas Pophale) SiO2 
 PCOD9184344
Probable space group: C 2/M
;
_chemical_formula_sum "Si O2"
_cell_formula_units_Z 56
_cell_length_a 11.772282
_cell_length_b 29.890987
_cell_length_c 7.242772
_cell_angle_alpha 90.000000
_cell_angle_beta 115.059194
_cell_angle_gamma 90.000000
_cell_volume 2308.723543
_symmetry_space_group_name_H-M "C 2/M"
_symmetry_group_IT_number 12
_symmetry_cell_setting 'monoclinic'
loop_
_space_group_symop_operation_xyz
x,y,z
-x,y,-z
-x,-y,-z
x,-y,z
1/2+x,1/2+y,z
1/2-x,1/2+y,-z
1/2-x,1/2-y,-z
1/2+x,1/2-y,z
loop_
_atom_site_type_symbol
_atom_site_label
_atom_site_fract_x
_atom_site_fract_y
_atom_site_fract_z
Si Si1 0.158838 0.191607 0.583195
Si Si2 0.284812 0.697629 0.998286
Si Si3 0.206296 0.095274 0.451577
Si Si4 0.544217 0.550900 0.814744
Si Si5 0.466258 0.051804 0.697346
Si Si6 0.786424 0.397357 0.075488
Si Si7 0.894887 0.247996 0.776919
O O1 0.119337 0.187238 0.770562
O O2 0.166067 0.143319 0.500410
O O3 0.094301 0.231619 0.425029
O O4 0.300517 0.210628 0.700857
O O5 0.250000 0.750000 0.000000
O O6 0.193161 0.655700 0.940814
O O7 0.340021 0.702486 0.832680
O O8 0.332887 0.076160 0.631557
O O9 0.245663 0.098125 0.262439
O O10 0.082018 0.064885 0.378784
O O11 0.581261 0.500000 0.798090
O O12 0.500000 0.552252 0.000000
O O13 0.665361 0.583098 0.883958
O O14 0.500000 0.052718 0.500000
O O15 0.586193 0.075763 0.870531
O O16 0.456718 0.000000 0.744707
O O17 0.000000 0.259911 0.000000
#
# Coordination Sequence:
#
# PCOD9184344 Si02
#       7
#     8   8   8   8   8   8   8
#     4  10  22  39  60  90 122 165 209 262 317 373
#     4  10  22  39  60  89 125 164 213 257 314 380
#     4  10  19  33  59  86 124 159 206 259 319 376
#     4   9  18  32  56  88 119 158 205 256 316 378
#     4   9  18  33  57  88 121 163 213 262 316 382
#     4  10  19  34  58  86 123 161 210 264 312 371
#     4  10  22  40  62  85 124 166 216 260 312 377
#
# _framework density 24.255827
#
# number of rings (size 3 to 8) (size 9 to 14) (size 15 to 20)
#    0.000    2.286    1.429    0.857    2.000    6.286 
#    0.000    0.000    0.000    5.143    0.000    0.000 
#    0.000    0.000    0.000    0.000    0.000    0.000 
#
# Total GULP energy -156212.426193 kJ/mol
# GULP energy per Si atom -5579.015221 kJ/mol
# Density = 2.420062 g / cm^3
# Si number density = 24.255827 Si / 1000 Ang^3
#
#
#
# Elastic Constant Matrix: (Units=GPa)
#
#
# Indices 1 2 3 4 5 6 
#
# 1 74.5218 50.8893 35.7733 0.0000 22.7447 0.0000
# 2 50.8893 150.6731 30.8522 0.0000 32.6754 0.0000
# 3 35.7733 30.8522 90.4802 0.0000 22.9947 0.0000
# 4 0.0000 0.0000 0.0000 38.3049 0.0000 1.4442
# 5 22.7447 32.6754 22.9947 0.0000 58.1570 0.0000
# 6 0.0000 0.0000 0.0000 1.4442 0.0000 5.2617
#
#
#
# Elastic Compliance Matrix: (Units=1/GPa)
#
#
# Indices 1 2 3 4 5 6 
#
# 1 0.020520 -0.005149 -0.005618 0.000000 -0.002911 0.000000
# 2 -0.005149 0.009082 -0.000307 0.000000 -0.002968 0.000000
# 3 -0.005618 -0.000307 0.014203 0.000000 -0.003246 0.000000
# 4 0.000000 0.000000 0.000000 0.026379 0.000000 -0.007240
# 5 -0.002911 -0.002968 -0.003246 0.000000 0.021284 0.000000
# 6 0.000000 0.000000 0.000000 -0.007240 0.000000 0.192039
#
#
# Mechanical properties :
#
#
# Convention : Reuss Voigt Hill
#
# Bulk Modulus (GPa) = 46.17134 61.18944 53.68039
# Shear Modulus (GPa) = 15.98085 33.55541 24.76813
#
# Velocity S-wave (km/s) = 2.56958 3.72344 3.19896
# Velocity P-wave (km/s) = 5.28017 6.61565 5.98527
#
# Compressibility (1/GPa) = 0.02165846
#
# Stress axis : x y z
#
# Youngs Moduli (GPa) = 48.73244 110.10283 70.40861
#
# Poissons Ratio (x) = 0.56693 0.39552
# Poissons Ratio (y) = 0.25093 0.02161
# Poissons Ratio (z) = 0.27376 0.03379
#
# Static dielectric constant tensor:
#      x y z
#    x 2.130130 0.000000 -0.040380 
#    y 0.000000 1.846390 0.000000 
#    z -0.040380 0.000000 1.944210 
# 
# From -- ./inp_files/68308.got.cif
#   From: 2010.05.17/outbox.cif.g08.bks.cpg/sg12_35_cif.got.tgz:68308.got - 2010.06.03 13:09:07.
