data_PCOD9184215
_publ_section_title
;
Structure prediction by ZEFSAII (Michael W. Deem and Ramdas Pophale) SiO2 
 PCOD9184215
Probable space group: C 2/M
;
_chemical_formula_sum "Si O2"
_cell_formula_units_Z 56
_cell_length_a 16.937063
_cell_length_b 27.880293
_cell_length_c 11.322180
_cell_angle_alpha 90.000000
_cell_angle_beta 23.487079
_cell_angle_gamma 90.000000
_cell_volume 2130.786118
_symmetry_space_group_name_H-M "C 2/M"
_symmetry_group_IT_number 12
_symmetry_cell_setting 'monoclinic'
loop_
_space_group_symop_operation_xyz
x,y,z
-x,y,-z
-x,-y,-z
x,-y,z
1/2+x,1/2+y,z
1/2-x,1/2+y,-z
1/2-x,1/2-y,-z
1/2+x,1/2-y,z
loop_
_atom_site_type_symbol
_atom_site_label
_atom_site_fract_x
_atom_site_fract_y
_atom_site_fract_z
Si Si1 0.314446 0.807282 0.177365
Si Si2 0.812914 0.719904 0.797335
Si Si3 0.690757 0.055195 0.804547
Si Si4 0.544086 0.946446 0.271503
Si Si5 0.427511 0.842951 0.390805
Si Si6 0.565308 0.655298 0.734581
Si Si7 0.551602 0.445429 0.151786
O O1 0.181514 0.837322 0.450635
O O2 0.500000 0.788743 0.000000
O O3 0.191843 0.763922 0.290563
O O4 0.410672 0.837138 0.937071
O O5 0.635378 0.684259 0.006277
O O6 0.750000 0.750000 0.000000
O O7 0.994737 0.689555 0.609541
O O8 0.913744 0.065058 0.456562
O O9 0.680610 0.000000 0.780146
O O10 0.500000 0.079245 0.000000
O O11 0.651480 0.055823 0.996633
O O12 0.417186 0.898208 0.445169
O O13 0.451920 0.000000 0.406192
O O14 0.719028 0.942733 0.127064
O O15 0.219834 0.826742 0.620517
O O16 0.516231 0.599976 0.830443
O O17 0.513801 0.500000 0.161008
#
# Coordination Sequence:
#
# PCOD9184215 Si02
#       7
#     8   8   8   8   8   8   8
#     4  10  26  45  72 104 138 176 225 280 347 415
#     4  12  29  45  70  99 133 182 232 285 343 399
#     4   9  16  25  43  77 121 166 208 251 315 394
#     4  10  19  33  57  91 131 174 222 272 329 404
#     4  11  24  44  69 103 138 179 228 276 342 407
#     4  11  25  45  69 103 142 175 226 284 332 413
#     4  10  19  34  59  92 132 177 218 267 334 404
#
# _framework density 26.281379999999999
#
# number of rings (size 3 to 8) (size 9 to 14) (size 15 to 20)
#    0.000    1.571    1.429    2.571    6.000    5.714 
#    0.000    0.000    0.000    1.714    0.000    2.000 
#    0.000    0.000    0.000    0.000    0.000    0.000 
#
# Total GULP energy -156565.549772 kJ/mol
# GULP energy per Si atom -5591.626778 kJ/mol
# Density = 2.622156 g / cm^3
# Si number density = 26.281380 Si / 1000 Ang^3
#
#
#
# Elastic Constant Matrix: (Units=GPa)
#
#
# Indices 1 2 3 4 5 6 
#
# 1 145.7123 75.5982 51.0143 0.0047 -17.2041 -0.0015
# 2 75.5982 192.9242 59.3506 0.0011 -32.3796 0.0018
# 3 51.0143 59.3506 133.2200 0.0239 -21.0133 0.0051
# 4 0.0047 0.0011 0.0239 29.5904 -0.0045 -8.6064
# 5 -17.2041 -32.3796 -21.0133 -0.0045 43.3601 0.0030
# 6 -0.0015 0.0018 0.0051 -8.6064 0.0030 26.0414
#
#
#
# Elastic Compliance Matrix: (Units=1/GPa)
#
#
# Indices 1 2 3 4 5 6 
#
# 1 0.009150 -0.002842 -0.002165 0.000001 0.000459 0.000001
# 2 -0.002842 0.007408 -0.001643 0.000002 0.003608 0.000000
# 3 -0.002165 -0.001643 0.009462 -0.000008 0.002499 -0.000005
# 4 0.000001 0.000002 -0.000008 0.037389 0.000001 0.012356
# 5 0.000459 0.003608 0.002499 0.000001 0.027150 -0.000004
# 6 0.000001 0.000000 -0.000005 0.012356 -0.000004 0.042484
#
#
# Mechanical properties :
#
#
# Convention : Reuss Voigt Hill
#
# Bulk Modulus (GPa) = 78.62311 93.75363 86.18837
# Shear Modulus (GPa) = 33.20438 38.85794 36.03116
#
# Velocity S-wave (km/s) = 3.55832 3.84934 3.70669
# Velocity P-wave (km/s) = 6.84566 7.45031 7.15437
#
# Compressibility (1/GPa) = 0.01271891
#
# Stress axis : x y z
#
# Youngs Moduli (GPa) = 109.29417 134.98672 105.69027
#
# Poissons Ratio (x) = 0.38367 0.22883
# Poissons Ratio (y) = 0.31065 0.17363
# Poissons Ratio (z) = 0.23663 0.22176
#
# Static dielectric constant tensor:
#      x y z
#    x 2.165030 -0.000030 0.342120 
#    y -0.000030 1.446850 -0.000040 
#    z 0.342120 -0.000040 2.619350 
# 
# From -- ./inp_files/150436.got.cif
#   From: 2010.05.17/outbox.cif.g08.bks.cpg/sg12_76_cif.got.tgz:150436.got - 2010.06.03 13:09:07.
