data_PCOD9184735
_publ_section_title
;
Structure prediction by ZEFSAII (Michael W. Deem and Ramdas Pophale) SiO2 
 PCOD9184735
Probable space group: C 2/M
;
_chemical_formula_sum "Si O2"
_cell_formula_units_Z 64
_cell_length_a 29.385686
_cell_length_b 14.055979
_cell_length_c 14.514701
_cell_angle_alpha 90.000000
_cell_angle_beta 144.667146
_cell_angle_gamma 90.000000
_cell_volume 3467.187894
_symmetry_space_group_name_H-M "C 2/M"
_symmetry_group_IT_number 12
_symmetry_cell_setting 'monoclinic'
loop_
_space_group_symop_operation_xyz
x,y,z
-x,y,-z
-x,-y,-z
x,-y,z
1/2+x,1/2+y,z
1/2-x,1/2+y,-z
1/2-x,1/2-y,-z
1/2+x,1/2-y,z
loop_
_atom_site_type_symbol
_atom_site_label
_atom_site_fract_x
_atom_site_fract_y
_atom_site_fract_z
Si Si1 0.808099 0.609051 0.836932
Si Si2 0.547850 0.252183 0.244491
Si Si3 0.678228 0.391409 0.766482
Si Si4 0.553799 0.605928 0.396156
Si Si5 0.563850 0.269368 0.688228
Si Si6 0.929670 0.892227 0.958626
Si Si7 0.040820 0.392266 0.788944
Si Si8 0.823497 0.251557 0.691003
O O1 0.783687 0.500000 0.774069
O O2 0.752933 0.641042 0.830713
O O3 0.806824 0.675287 0.745964
O O4 0.894386 0.606166 0.023478
O O5 0.592009 0.331549 0.378744
O O6 0.530926 0.164539 0.283491
O O7 0.598813 0.222671 0.241078
O O8 0.467463 0.309792 0.085885
O O9 0.691147 0.500000 0.823503
O O10 0.610372 0.398352 0.577063
O O11 0.643314 0.317195 0.781667
O O12 0.538326 0.500000 0.337269
O O13 0.476003 0.657404 0.305483
O O14 0.500000 0.258418 0.500000
O O15 0.571551 0.170265 0.754313
O O16 0.851364 0.848352 0.783072
O O17 0.916808 0.000000 0.973111
O O18 0.000000 0.900067 0.000000
O O19 0.022724 0.500000 0.732191
O O20 0.750000 0.250000 0.500000
#
# Coordination Sequence:
#
# PCOD9184735 Si02
#       8
#     8   8   8   8   8   8   8   8
#     4  10  21  36  53  75 104 141 184 222 260 309
#     4  10  19  34  54  78 106 143 183 220 267 321
#     4   9  17  31  52  79 109 136 168 216 272 324
#     4   9  16  28  51  82 109 132 167 215 268 325
#     4   9  18  32  53  80 105 133 170 217 271 325
#     4   9  18  33  53  76 103 136 175 221 270 321
#     4  10  21  36  54  76 102 138 184 226 261 312
#     4  11  22  35  54  80 111 144 180 222 270 320
#
# _framework density 18.458763000000001
#
# number of rings (size 3 to 8) (size 9 to 14) (size 15 to 20)
#    0.000    2.375    1.250    1.500    0.000    3.750 
#    0.000    1.250    0.000    0.750    0.000    0.000 
#    0.000    0.000    0.000    0.000    0.000    0.000 
#
# Total GULP energy -178187.590141 kJ/mol
# GULP energy per Si atom -5568.362192 kJ/mol
# Density = 1.841675 g / cm^3
# Si number density = 18.458763 Si / 1000 Ang^3
#
#
#
# Elastic Constant Matrix: (Units=GPa)
#
#
# Indices 1 2 3 4 5 6 
#
# 1 81.0440 45.9396 -0.7307 0.0000 -4.1200 0.0000
# 2 45.9396 117.9924 14.3379 0.0000 0.2909 0.0000
# 3 -0.7307 14.3379 51.7882 0.0000 -2.0939 0.0000
# 4 0.0000 0.0000 0.0000 12.7880 0.0000 -0.3202
# 5 -4.1200 0.2909 -2.0939 0.0000 18.9362 0.0000
# 6 0.0000 0.0000 0.0000 -0.3202 0.0000 20.3854
#
#
#
# Elastic Compliance Matrix: (Units=1/GPa)
#
#
# Indices 1 2 3 4 5 6 
#
# 1 0.016317 -0.006633 0.002224 0.000000 0.003898 0.000000
# 2 -0.006633 0.011469 -0.003349 0.000000 -0.001990 0.000000
# 3 0.002224 -0.003349 0.020381 0.000000 0.002789 0.000000
# 4 0.000000 0.000000 0.000000 0.078229 0.000000 0.001229
# 5 0.003898 -0.001990 0.002789 0.000000 0.053996 0.000000
# 6 0.000000 0.000000 0.000000 0.001229 0.000000 0.049074
#
#
# Mechanical properties :
#
#
# Convention : Reuss Voigt Hill
#
# Bulk Modulus (GPa) = 30.62675 41.10202 35.86438
# Shear Modulus (GPa) = 19.54148 23.17379 21.35763
#
# Velocity S-wave (km/s) = 3.25723 3.54706 3.40523
# Velocity P-wave (km/s) = 5.54744 6.25226 5.91036
#
# Compressibility (1/GPa) = 0.03265120
#
# Stress axis : x y z
#
# Youngs Moduli (GPa) = 61.28592 87.18805 49.06557
#
# Poissons Ratio (x) = 0.57830 -0.10913
# Poissons Ratio (y) = 0.40650 0.16434
# Poissons Ratio (z) = -0.13631 0.29203
#
# Static dielectric constant tensor:
#      x y z
#    x 1.658500 0.000000 -0.000700 
#    y 0.000000 1.664210 0.000000 
#    z -0.000700 0.000000 1.680160 
# 
# From -- ./inp_files/250864.got.cif
#   From: 2010.05.17/outbox.cif.g08.bks.cpg/sg12_126_cif.got.tgz:250864.got - 2010.06.03 13:09:07.
