data_PCOD9184526
_publ_section_title
;
Structure prediction by ZEFSAII (Michael W. Deem and Ramdas Pophale) SiO2 
 PCOD9184526
Probable space group: C 2/M
;
_chemical_formula_sum "Si O2"
_cell_formula_units_Z 64
_cell_length_a 24.073466
_cell_length_b 9.148782
_cell_length_c 21.787555
_cell_angle_alpha 90.000000
_cell_angle_beta 50.431016
_cell_angle_gamma 90.000000
_cell_volume 3699.004740
_symmetry_space_group_name_H-M "C 2/M"
_symmetry_group_IT_number 12
_symmetry_cell_setting 'monoclinic'
loop_
_space_group_symop_operation_xyz
x,y,z
-x,y,-z
-x,-y,-z
x,-y,z
1/2+x,1/2+y,z
1/2-x,1/2+y,-z
1/2-x,1/2-y,-z
1/2+x,1/2-y,z
loop_
_atom_site_type_symbol
_atom_site_label
_atom_site_fract_x
_atom_site_fract_y
_atom_site_fract_z
Si Si1 0.968673 0.673675 0.088889
Si Si2 0.021875 0.167368 0.164396
Si Si3 0.085478 0.674100 0.589338
Si Si4 0.359194 0.668393 0.335196
Si Si5 0.320382 0.674984 0.231220
Si Si6 0.920792 0.828998 0.531374
Si Si7 0.316184 0.329662 0.721657
Si Si8 0.436356 0.324173 0.734570
O O1 0.958818 0.500000 0.100728
O O2 0.892851 0.753368 0.153921
O O3 0.020809 0.729700 0.106484
O O4 0.000000 0.708303 0.000000
O O5 0.070769 0.208439 0.188116
O O6 0.940947 0.170087 0.250294
O O7 0.036400 0.000000 0.135830
O O8 0.084110 0.500000 0.591717
O O9 0.137733 0.735412 0.605972
O O10 0.103611 0.734736 0.509370
O O11 0.005946 0.739664 0.660007
O O12 0.341679 0.500000 0.362792
O O13 0.313129 0.718317 0.308694
O O14 0.327402 0.500000 0.225565
O O15 0.252693 0.730302 0.240726
O O16 0.866717 0.818073 0.626177
O O17 0.000000 0.784424 0.500000
O O18 0.926267 0.000000 0.508749
O O19 0.294504 0.500000 0.743122
O O20 0.366324 0.290170 0.744013
O O21 0.450158 0.500000 0.719254
#
# Coordination Sequence:
#
# PCOD9184526 Si02
#       8
#     8   8   8   8   8   8   8   8
#     4  10  20  34  55  82 109 135 165 203 245 296
#     4   8  15  28  50  77 103 130 165 210 250 292
#     4  11  20  28  46  75 101 126 166 224 267 291
#     4   8  16  32  50  67  94 133 169 203 252 309
#     4  10  21  36  54  77 105 134 166 209 254 302
#     4  10  19  34  52  69  96 137 178 211 255 312
#     4  10  20  34  54  74  98 137 175 209 251 307
#     4   9  17  32  50  71 100 136 174 206 249 306
#
# _framework density 17.301950999999999
#
# number of rings (size 3 to 8) (size 9 to 14) (size 15 to 20)
#    0.000    2.500    1.250    3.375    0.000    7.250 
#    0.000    0.625    0.000    0.750    0.000    0.000 
#    0.000    0.000    0.000    0.000    0.000    0.000 
#
# Total GULP energy -178440.342497 kJ/mol
# GULP energy per Si atom -5576.260703 kJ/mol
# Density = 1.726257 g / cm^3
# Si number density = 17.301951 Si / 1000 Ang^3
#
#
#
# Elastic Constant Matrix: (Units=GPa)
#
#
# Indices 1 2 3 4 5 6 
#
# 1 102.1929 41.1684 36.3504 0.0000 26.7923 0.0005
# 2 41.1684 58.2884 33.9337 -0.0002 16.5640 -0.0009
# 3 36.3504 33.9337 51.4155 0.0000 23.4210 -0.0001
# 4 0.0000 -0.0002 0.0000 16.1036 0.0000 -15.0413
# 5 26.7923 16.5640 23.4210 0.0000 25.3246 0.0003
# 6 0.0005 -0.0009 -0.0001 -15.0413 0.0003 -62.3343
#
#
#
# Elastic Compliance Matrix: (Units=1/GPa)
#
#
# Indices 1 2 3 4 5 6 
#
# 1 0.016173 -0.007409 -0.001655 0.000000 -0.010734 0.000000
# 2 -0.007409 0.031320 -0.016713 0.000000 0.002809 0.000000
# 3 -0.001655 -0.016713 0.044707 0.000000 -0.028665 0.000000
# 4 0.000000 0.000000 0.000000 0.050676 0.000000 -0.012228
# 5 -0.010734 0.002809 -0.028665 0.000000 0.075516 0.000000
# 6 0.000000 0.000000 0.000000 -0.012228 0.000000 -0.013092
#
#
# Mechanical properties :
#
#
# Convention : Reuss Voigt Hill
#
# Bulk Modulus (GPa) = 24.60187 48.31131 36.45659
# Shear Modulus (GPa) = 18.49096 2.51505 10.50301
#
# Velocity S-wave (km/s) = 3.27268 1.20697 2.46649
# Velocity P-wave (km/s) = 5.34140 5.47042 5.40629
#
# Compressibility (1/GPa) = 0.04064732
#
# Stress axis : x y z
#
# Youngs Moduli (GPa) = 61.83178 31.92819 22.36798
#
# Poissons Ratio (x) = 0.23656 0.03701
# Poissons Ratio (y) = 0.45813 0.37383
# Poissons Ratio (z) = 0.10230 0.53360
#
# Static dielectric constant tensor:
#      x y z
#    x 1.614170 0.000000 0.021660 
#    y 0.000000 1.576430 0.000000 
#    z 0.021660 0.000000 1.573130 
# 
# From -- ./inp_files/323645.got.cif
#   From: 2010.05.17/outbox.cif.g08.bks.cpg/sg12_162_cif.got.tgz:323645.got - 2010.06.03 13:09:07.
