data_PCOD9184110
_publ_section_title
;
Structure prediction by ZEFSAII (Michael W. Deem and Ramdas Pophale) SiO2 
 PCOD9184110
Probable space group: C 2/M
;
_chemical_formula_sum "Si O2"
_cell_formula_units_Z 48
_cell_length_a 16.638355
_cell_length_b 20.327713
_cell_length_c 8.213245
_cell_angle_alpha 90.000000
_cell_angle_beta 52.751826
_cell_angle_gamma 90.000000
_cell_volume 2211.252666
_symmetry_space_group_name_H-M "C 2/M"
_symmetry_group_IT_number 12
_symmetry_cell_setting 'monoclinic'
loop_
_space_group_symop_operation_xyz
x,y,z
-x,y,-z
-x,-y,-z
x,-y,z
1/2+x,1/2+y,z
1/2-x,1/2+y,-z
1/2-x,1/2-y,-z
1/2+x,1/2-y,z
loop_
_atom_site_type_symbol
_atom_site_label
_atom_site_fract_x
_atom_site_fract_y
_atom_site_fract_z
Si Si1 0.935612 0.322063 0.413898
Si Si2 0.385577 0.574267 0.505774
Si Si3 0.745259 0.074650 0.355356
Si Si4 0.317889 0.289560 0.698535
Si Si5 0.934301 0.892896 0.931238
Si Si6 0.104320 0.741477 0.047726
O O1 0.846528 0.374708 0.517193
O O2 0.882383 0.250358 0.488373
O O3 0.000000 0.334210 0.500000
O O4 0.017642 0.312855 0.171377
O O5 0.372444 0.500000 0.583578
O O6 0.316131 0.581200 0.427983
O O7 0.348516 0.634672 0.660771
O O8 0.501025 0.584862 0.304040
O O9 0.707807 0.000000 0.393409
O O10 0.818830 0.087231 0.109669
O O11 0.351305 0.254080 0.824537
O O12 0.198837 0.279965 0.823666
O O13 0.933981 0.814023 0.945682
O O14 0.000000 0.921038 0.000000
#
# Coordination Sequence:
#
# PCOD9184110 Si02
#       6
#     8   8   8   8   8   8
#     4  10  20  35  58  82 108 146 188 229 277 329
#     4  10  21  37  57  83 115 149 185 228 280 336
#     4  10  21  37  56  82 116 149 185 231 278 328
#     4  10  20  36  58  78 115 149 184 232 279 328
#     4  10  19  33  57  85 113 143 182 232 279 327
#     4  10  20  35  56  84 112 141 186 235 277 324
#
# _framework density 21.707153000000002
#
# number of rings (size 3 to 8) (size 9 to 14) (size 15 to 20)
#    0.000    2.000    3.333    0.500    0.000    4.333 
#    0.000    3.333    0.000    2.000    0.000    0.000 
#    0.000    0.000    0.000    0.000    0.000    0.000 
#
# Total GULP energy -134033.464996 kJ/mol
# GULP energy per Si atom -5584.727708 kJ/mol
# Density = 2.165775 g / cm^3
# Si number density = 21.707153 Si / 1000 Ang^3
#
#
#
# Elastic Constant Matrix: (Units=GPa)
#
#
# Indices 1 2 3 4 5 6 
#
# 1 73.1495 37.6956 33.8247 0.0000 -31.4936 0.0000
# 2 37.6956 128.2084 22.6245 0.0000 -32.7818 0.0000
# 3 33.8247 22.6245 64.8638 0.0000 -29.0737 0.0000
# 4 0.0000 0.0000 0.0000 28.0781 0.0000 -4.0321
# 5 -31.4936 -32.7818 -29.0737 0.0000 30.0320 0.0000
# 6 0.0000 0.0000 0.0000 -4.0321 0.0000 43.0021
#
#
#
# Elastic Compliance Matrix: (Units=1/GPa)
#
#
# Indices 1 2 3 4 5 6 
#
# 1 0.025234 -0.001160 -0.002581 0.000000 0.022697 0.000000
# 2 -0.001160 0.011144 0.002871 0.000000 0.013727 0.000000
# 3 -0.002581 0.002871 0.028182 0.000000 0.027710 0.000000
# 4 0.000000 0.000000 0.000000 0.036101 0.000000 0.003385
# 5 0.022697 0.013727 0.027710 0.000000 0.098909 0.000000
# 6 0.000000 0.000000 0.000000 0.003385 0.000000 0.023572
#
#
# Mechanical properties :
#
#
# Convention : Reuss Voigt Hill
#
# Bulk Modulus (GPa) = 15.91868 50.50128 33.20998
# Shear Modulus (GPa) = 20.33994 31.69424 26.01709
#
# Velocity S-wave (km/s) = 3.06439 3.82525 3.46576
# Velocity P-wave (km/s) = 4.45757 6.54411 5.59890
#
# Compressibility (1/GPa) = 0.06281928
#
# Stress axis : x y z
#
# Youngs Moduli (GPa) = 39.62946 89.73231 35.48413
#
# Poissons Ratio (x) = 0.10412 0.09157
# Poissons Ratio (y) = 0.04599 -0.10187
# Poissons Ratio (z) = 0.10227 -0.25761
#
# Static dielectric constant tensor:
#      x y z
#    x 1.884260 0.000000 0.059250 
#    y 0.000000 1.737840 0.000000 
#    z 0.059250 0.000000 1.824600 
# 
# From -- ./inp_files/77289.got.cif
#   From: 2010.05.17/outbox.cif.g08.bks.cpg/sg12_39_cif.got.tgz:77289.got - 2010.06.03 13:09:07.
