data_PCOD9184718
_publ_section_title
;
Structure prediction by ZEFSAII (Michael W. Deem and Ramdas Pophale) SiO2 
 PCOD9184718
Probable space group: C 2/M
;
_chemical_formula_sum "Si O2"
_cell_formula_units_Z 64
_cell_length_a 31.787825
_cell_length_b 7.919896
_cell_length_c 16.854793
_cell_angle_alpha 90.000000
_cell_angle_beta 133.584481
_cell_angle_gamma 90.000000
_cell_volume 3073.670792
_symmetry_space_group_name_H-M "C 2/M"
_symmetry_group_IT_number 12
_symmetry_cell_setting 'monoclinic'
loop_
_space_group_symop_operation_xyz
x,y,z
-x,y,-z
-x,-y,-z
x,-y,z
1/2+x,1/2+y,z
1/2-x,1/2+y,-z
1/2-x,1/2-y,-z
1/2+x,1/2-y,z
loop_
_atom_site_type_symbol
_atom_site_label
_atom_site_fract_x
_atom_site_fract_y
_atom_site_fract_z
Si Si1 0.633540 0.206085 0.079318
Si Si2 0.070382 0.703519 0.840722
Si Si3 0.562356 0.194059 0.555149
Si Si4 0.154652 0.690945 0.816923
Si Si5 0.059192 0.199736 0.307427
Si Si6 0.647732 0.691155 0.541896
Si Si7 0.442308 0.204178 0.877897
Si Si8 0.737137 0.297375 0.787947
O O1 0.611614 0.258969 0.137277
O O2 0.697414 0.264112 0.137512
O O3 0.634395 0.000000 0.080242
O O4 0.587537 0.256152 0.951972
O O5 0.073723 0.500000 0.839778
O O6 0.121075 0.770801 0.848116
O O7 0.003202 0.746046 0.737861
O O8 0.500000 0.255992 0.500000
O O9 0.603760 0.186965 0.685060
O O10 0.593315 0.308207 0.531238
O O11 0.556486 0.000000 0.517374
O O12 0.171471 0.500000 0.861382
O O13 0.208506 0.762327 0.836557
O O14 0.117165 0.272765 0.425468
O O15 0.059113 0.238112 0.214149
O O16 0.062668 0.000000 0.323174
O O17 0.666832 0.500000 0.547317
O O18 0.697527 0.770275 0.663034
O O19 0.443574 0.000000 0.877698
O O20 0.500000 0.259470 0.000000
O O21 0.736791 0.500000 0.779920
#
# Coordination Sequence:
#
# PCOD9184718 Si02
#       8
#     8   8   8   8   8   8   8   8
#     4   9  18  34  57  79  97 130 177 215 249 304
#     4  10  19  34  54  77 105 137 174 214 257 304
#     4   9  16  27  44  68  96 130 173 214 251 291
#     4   9  18  30  47  73 105 137 171 214 256 295
#     4  11  22  34  51  79 110 134 165 211 263 310
#     4   9  19  33  48  69 100 138 170 202 248 302
#     4  10  19  36  59  80 102 130 168 209 256 312
#     4   9  18  35  55  72 100 141 179 210 245 297
#
# _framework density 20.822009000000001
#
# number of rings (size 3 to 8) (size 9 to 14) (size 15 to 20)
#    0.000    2.500    1.250    1.125    0.000    3.500 
#    0.000    4.375    0.000    0.000    0.000    0.000 
#    0.000    0.000    0.000    0.000    0.000    0.000 
#
# Total GULP energy -178322.595946 kJ/mol
# GULP energy per Si atom -5572.581123 kJ/mol
# Density = 2.077462 g / cm^3
# Si number density = 20.822009 Si / 1000 Ang^3
#
#
#
# Elastic Constant Matrix: (Units=GPa)
#
#
# Indices 1 2 3 4 5 6 
#
# 1 97.9169 6.4072 10.6461 0.0000 -5.6254 0.0000
# 2 6.4072 21.7974 5.6465 0.0000 0.0773 0.0000
# 3 10.6461 5.6465 52.5616 0.0000 -14.4372 0.0000
# 4 0.0000 0.0000 0.0000 -2.7886 0.0000 -15.7711
# 5 -5.6254 0.0773 -14.4372 0.0000 30.8308 0.0000
# 6 0.0000 0.0000 0.0000 -15.7711 0.0000 12.2382
#
#
#
# Elastic Compliance Matrix: (Units=1/GPa)
#
#
# Indices 1 2 3 4 5 6 
#
# 1 0.010628 -0.002735 -0.001520 0.000000 0.001234 0.000000
# 2 -0.002735 0.048115 -0.005491 0.000000 -0.003191 0.000000
# 3 -0.001520 -0.005491 0.022781 0.000000 0.010404 0.000000
# 4 0.000000 0.000000 0.000000 -0.043267 0.000000 -0.055757
# 5 0.001234 -0.003191 0.010404 0.000000 0.037540 0.000000
# 6 0.000000 0.000000 0.000000 -0.055757 0.000000 0.009859
#
#
# Mechanical properties :
#
#
# Convention : Reuss Voigt Hill
#
# Bulk Modulus (GPa) = 16.12082 24.18616 20.15349
# Shear Modulus (GPa) = 39.73793 18.02781 28.88287
#
# Velocity S-wave (km/s) = 4.37333 2.94565 3.72846
# Velocity P-wave (km/s) = 5.76718 4.81768 5.31368
#
# Compressibility (1/GPa) = 0.06203160
#
# Stress axis : x y z
#
# Youngs Moduli (GPa) = 94.09248 20.78368 43.89675
#
# Poissons Ratio (x) = 0.05684 0.06672
# Poissons Ratio (y) = 0.25731 0.24105
# Poissons Ratio (z) = 0.14300 0.11413
#
# Static dielectric constant tensor:
#      x y z
#    x 1.738280 0.000000 0.000400 
#    y 0.000000 1.788370 0.000000 
#    z 0.000400 0.000000 1.791700 
# 
# From -- ./inp_files/244258.got.cif
#   From: 2010.05.17/outbox.cif.g08.bks.cpg/sg12_123_cif.got.tgz:244258.got - 2010.06.03 13:09:07.
