data_PCOD9184299
_publ_section_title
;
Structure prediction by ZEFSAII (Michael W. Deem and Ramdas Pophale) SiO2 
 PCOD9184299
Probable space group: C 2/M
;
_chemical_formula_sum "Si O2"
_cell_formula_units_Z 40
_cell_length_a 17.279505
_cell_length_b 13.624300
_cell_length_c 15.013799
_cell_angle_alpha 90.000000
_cell_angle_beta 147.325727
_cell_angle_gamma 90.000000
_cell_volume 1908.179307
_symmetry_space_group_name_H-M "C 2/M"
_symmetry_group_IT_number 12
_symmetry_cell_setting 'monoclinic'
loop_
_space_group_symop_operation_xyz
x,y,z
-x,y,-z
-x,-y,-z
x,-y,z
1/2+x,1/2+y,z
1/2-x,1/2+y,-z
1/2-x,1/2-y,-z
1/2+x,1/2-y,z
loop_
_atom_site_type_symbol
_atom_site_label
_atom_site_fract_x
_atom_site_fract_y
_atom_site_fract_z
Si Si1 0.646688 0.113470 0.547664
Si Si2 0.086113 0.776960 0.857684
Si Si3 0.548763 0.680766 0.449320
Si Si4 0.164320 0.384862 0.364965
Si Si5 0.852527 0.105320 0.907769
O O1 0.532068 0.200271 0.434388
O O2 0.722552 0.120149 0.524044
O O3 0.744696 0.139534 0.726542
O O4 0.598471 0.000000 0.508643
O O5 0.036116 0.842423 0.724097
O O6 0.973690 0.686958 0.765384
O O7 0.250000 0.750000 0.000000
O O8 0.102469 0.832129 0.965682
O O9 0.500000 0.644306 0.500000
O O10 0.712713 0.651594 0.583773
O O11 0.130043 0.500000 0.314939
O O12 0.795010 0.000000 0.883870
O O13 0.000000 0.092860 0.000000
#
# Coordination Sequence:
#
# PCOD9184299 Si02
#       5
#     8   8   8   8   8
#     4   9  18  35  61  89 116 150 195 250 308 360
#     4  11  23  38  61  92 125 159 197 251 313 368
#     4  11  22  38  61  89 123 166 210 248 295 362
#     4  10  22  42  64  87 120 164 211 252 297 360
#     4  10  19  33  58  89 118 147 185 244 308 356
#
# _framework density 20.962389999999999
#
# number of rings (size 3 to 8) (size 9 to 14) (size 15 to 20)
#    0.000    1.800    0.000    6.000    0.000    4.000 
#    0.000    4.000    0.000   13.800    0.000    0.000 
#    0.000    0.000    0.000    0.000    0.000    0.000 
#
# Total GULP energy -111369.876996 kJ/mol
# GULP energy per Si atom -5568.493850 kJ/mol
# Density = 2.091468 g / cm^3
# Si number density = 20.962390 Si / 1000 Ang^3
#
#
#
# Elastic Constant Matrix: (Units=GPa)
#
#
# Indices 1 2 3 4 5 6 
#
# 1 190.8436 55.1017 62.5436 0.0000 -8.1505 0.0000
# 2 55.1017 68.0514 44.1686 0.0000 -24.6229 0.0000
# 3 62.5436 44.1686 106.9489 0.0000 -12.5657 0.0000
# 4 0.0000 0.0000 0.0000 41.1248 0.0000 -34.2269
# 5 -8.1505 -24.6229 -12.5657 0.0000 39.2303 0.0000
# 6 0.0000 0.0000 0.0000 -34.2269 0.0000 32.3477
#
#
#
# Elastic Compliance Matrix: (Units=1/GPa)
#
#
# Indices 1 2 3 4 5 6 
#
# 1 0.007500 -0.005437 -0.002451 0.000000 -0.002640 0.000000
# 2 -0.005437 0.029063 -0.007079 0.000000 0.014844 0.000000
# 3 -0.002451 -0.007079 0.013638 0.000000 -0.000584 0.000000
# 4 0.000000 0.000000 0.000000 0.203686 0.000000 0.215519
# 5 -0.002640 0.014844 -0.000584 0.000000 0.034072 0.000000
# 6 0.000000 0.000000 0.000000 0.215519 0.000000 0.258953
#
#
# Mechanical properties :
#
#
# Convention : Reuss Voigt Hill
#
# Bulk Modulus (GPa) = 49.33922 76.60795 62.97359
# Shear Modulus (GPa) = 8.56747 36.14256 22.35502
#
# Velocity S-wave (km/s) = 2.02384 4.15681 3.26917
# Velocity P-wave (km/s) = 5.38975 7.72422 6.66006
#
# Compressibility (1/GPa) = 0.02026785
#
# Stress axis : x y z
#
# Youngs Moduli (GPa) = 133.32903 34.40782 73.32314
#
# Poissons Ratio (x) = 0.18709 0.17969
# Poissons Ratio (y) = 0.72497 0.51904
# Poissons Ratio (z) = 0.32674 0.24357
#
# Static dielectric constant tensor:
#      x y z
#    x 1.768460 0.000000 0.004230 
#    y 0.000000 1.672200 0.000000 
#    z 0.004230 0.000000 1.817530 
# 
# From -- ./inp_files/111856.got.cif
#   From: 2010.05.17/outbox.cif.g08.bks.cpg/sg12_56_cif.got.tgz:111856.got - 2010.06.03 13:09:07.
