data_PCOD9184853
_publ_section_title
;
Structure prediction by ZEFSAII (Michael W. Deem and Ramdas Pophale) SiO2 
 PCOD9184853
Probable space group: C 2/M
;
_chemical_formula_sum "Si O2"
_cell_formula_units_Z 48
_cell_length_a 16.531743
_cell_length_b 7.635890
_cell_length_c 17.365411
_cell_angle_alpha 90.000000
_cell_angle_beta 90.872359
_cell_angle_gamma 90.000000
_cell_volume 2191.861129
_symmetry_space_group_name_H-M "C 2/M"
_symmetry_group_IT_number 12
_symmetry_cell_setting 'monoclinic'
loop_
_space_group_symop_operation_xyz
x,y,z
-x,y,-z
-x,-y,-z
x,-y,z
1/2+x,1/2+y,z
1/2-x,1/2+y,-z
1/2-x,1/2-y,-z
1/2+x,1/2-y,z
loop_
_atom_site_type_symbol
_atom_site_label
_atom_site_fract_x
_atom_site_fract_y
_atom_site_fract_z
Si Si1 0.748224 0.210507 0.590003
Si Si2 0.088555 0.290028 0.676354
Si Si3 0.840495 0.285992 0.165030
Si Si4 0.657065 0.710744 0.162941
Si Si5 0.408906 0.289869 0.680202
Si Si6 0.590392 0.208728 0.995050
O O1 0.750000 0.250000 0.500000
O O2 0.664554 0.275787 0.627261
O O3 0.830741 0.275561 0.631880
O O4 0.748131 0.000000 0.599785
O O5 0.094707 0.500000 0.677296
O O6 0.102363 0.227683 0.764493
O O7 0.997606 0.249796 0.649086
O O8 0.841390 0.500000 0.164174
O O9 0.748730 0.233504 0.181383
O O10 0.865899 0.223043 0.080842
O O11 0.655305 0.500000 0.163930
O O12 0.600202 0.774688 0.231470
O O13 0.633882 0.763295 0.076641
O O14 0.402751 0.500000 0.681787
O O15 0.584373 0.000000 0.983891
O O16 0.500000 0.281447 0.000000
#
# Coordination Sequence:
#
# PCOD9184853 Si02
#       6
#     8   8   8   8   8   8
#     4  10  22  41  63  86 116 150 185 228 283 343
#     4  10  20  38  63  86 111 151 195 230 274 338
#     4   9  17  33  55  76 106 148 189 229 276 328
#     4  10  19  34  55  76 105 148 190 228 276 332
#     4  10  21  38  59  85 116 150 187 232 285 335
#     4  10  20  32  48  76 110 143 185 235 279 322
#
# _framework density 21.899197000000001
#
# number of rings (size 3 to 8) (size 9 to 14) (size 15 to 20)
#    0.000    2.167    1.667    1.500    0.000    4.333 
#    0.000    5.000    0.000    0.000    0.000    0.000 
#    0.000    0.000    0.000    0.000    0.000    0.000 
#
# Total GULP energy -134018.258195 kJ/mol
# GULP energy per Si atom -5584.094091 kJ/mol
# Density = 2.184935 g / cm^3
# Si number density = 21.899197 Si / 1000 Ang^3
#
#
#
# Elastic Constant Matrix: (Units=GPa)
#
#
# Indices 1 2 3 4 5 6 
#
# 1 177.0447 4.0156 74.1184 0.0000 -13.0735 0.0000
# 2 4.0156 38.8812 -0.2920 0.0000 -3.5502 0.0000
# 3 74.1184 -0.2920 138.1993 0.0000 -10.4517 0.0000
# 4 0.0000 0.0000 0.0000 22.2445 0.0000 3.2930
# 5 -13.0735 -3.5502 -10.4517 0.0000 16.4528 0.0000
# 6 0.0000 0.0000 0.0000 3.2930 0.0000 11.1499
#
#
#
# Elastic Compliance Matrix: (Units=1/GPa)
#
#
# Indices 1 2 3 4 5 6 
#
# 1 0.007487 -0.000486 -0.003755 0.000000 0.003459 0.000000
# 2 -0.000486 0.026302 0.000752 0.000000 0.005767 0.000000
# 3 -0.003755 0.000752 0.009494 0.000000 0.003210 0.000000
# 4 0.000000 0.000000 0.000000 0.047010 0.000000 -0.013884
# 5 0.003459 0.005767 0.003210 0.000000 0.066812 0.000000
# 6 0.000000 0.000000 0.000000 -0.013884 0.000000 0.093787
#
#
# Mechanical properties :
#
#
# Convention : Reuss Voigt Hill
#
# Bulk Modulus (GPa) = 27.54342 56.64545 42.09444
# Shear Modulus (GPa) = 18.52055 28.38832 23.45443
#
# Velocity S-wave (km/s) = 2.91128 3.60435 3.27619
# Velocity P-wave (km/s) = 4.88931 6.57604 5.79438
#
# Compressibility (1/GPa) = 0.03630631
#
# Stress axis : x y z
#
# Youngs Moduli (GPa) = 133.57287 38.02021 105.33067
#
# Poissons Ratio (x) = 0.01846 0.39547
# Poissons Ratio (y) = 0.06486 -0.07923
# Poissons Ratio (z) = 0.50151 -0.02860
#
# Static dielectric constant tensor:
#      x y z
#    x 1.803670 0.000000 -0.008400 
#    y 0.000000 1.829210 0.000000 
#    z -0.008400 0.000000 1.789220 
# 
# From -- ./inp_files/212626.got.cif
#   From: 2010.05.17/outbox.cif.g08.bks.cpg/sg12_107_cif.got.tgz:212626.got - 2010.06.03 13:09:07.
