data_PCOD9184662
_publ_section_title
;
Structure prediction by ZEFSAII (Michael W. Deem and Ramdas Pophale) SiO2 
 PCOD9184662
Probable space group: C 2/M
;
_chemical_formula_sum "Si O2"
_cell_formula_units_Z 56
_cell_length_a 7.603259
_cell_length_b 26.896206
_cell_length_c 11.831199
_cell_angle_alpha 90.000000
_cell_angle_beta 83.016209
_cell_angle_gamma 90.000000
_cell_volume 2401.515224
_symmetry_space_group_name_H-M "C 2/M"
_symmetry_group_IT_number 12
_symmetry_cell_setting 'monoclinic'
loop_
_space_group_symop_operation_xyz
x,y,z
-x,y,-z
-x,-y,-z
x,-y,z
1/2+x,1/2+y,z
1/2-x,1/2+y,-z
1/2-x,1/2-y,-z
1/2+x,1/2-y,z
loop_
_atom_site_type_symbol
_atom_site_label
_atom_site_fract_x
_atom_site_fract_y
_atom_site_fract_z
Si Si1 0.725583 0.401992 0.725283
Si Si2 0.652560 0.306332 0.396525
Si Si3 0.351760 0.791999 0.741694
Si Si4 0.697990 0.097749 0.522565
Si Si5 0.372542 0.631944 0.829999
Si Si6 0.107002 0.556629 0.761806
Si Si7 0.353507 0.217117 0.106416
O O1 0.792076 0.345456 0.709998
O O2 0.685299 0.415827 0.596821
O O3 0.554923 0.399107 0.821014
O O4 0.898697 0.430941 0.757917
O O5 0.500000 0.305863 0.500000
O O6 0.668508 0.249274 0.354561
O O7 0.792772 0.344001 0.442500
O O8 0.598889 0.336932 0.288698
O O9 0.544066 0.797604 0.784775
O O10 0.230677 0.769222 0.851081
O O11 0.500000 0.086987 0.500000
O O12 0.714266 0.066380 0.635868
O O13 0.206262 0.594722 0.836674
O O14 0.300159 0.677430 0.911467
O O15 0.124652 0.500000 0.795813
O O16 0.500000 0.219195 0.000000
#
# Coordination Sequence:
#
# PCOD9184662 Si02
#       7
#     8   8   8   8   8   8   8
#     4  11  21  38  59  85 129 160 209 259 299 364
#     4  10  19  34  53  83 125 169 204 240 297 358
#     4  11  23  36  56  93 123 166 213 249 303 382
#     4   9  20  34  54  81 123 169 212 250 294 354
#     4  10  21  41  60  89 120 164 210 256 310 375
#     4  10  22  40  62  88 125 166 213 261 313 367
#     4  11  23  42  63  89 127 165 210 265 319 373
#
# _framework density 23.318611000000001
#
# number of rings (size 3 to 8) (size 9 to 14) (size 15 to 20)
#    0.000    1.714    2.857    2.143    2.000    5.429 
#    0.000    0.714    0.000    0.429    0.000    1.000 
#    0.000    0.000    0.000    0.000    0.000    0.000 
#
# Total GULP energy -156241.819396 kJ/mol
# GULP energy per Si atom -5580.064978 kJ/mol
# Density = 2.326554 g / cm^3
# Si number density = 23.318611 Si / 1000 Ang^3
#
#
#
# Elastic Constant Matrix: (Units=GPa)
#
#
# Indices 1 2 3 4 5 6 
#
# 1 57.9496 -13.8894 10.9412 0.0000 -15.6466 0.0000
# 2 -13.8894 79.3139 8.5411 0.0000 -5.0033 0.0000
# 3 10.9412 8.5411 50.7920 0.0000 -28.2492 0.0000
# 4 0.0000 0.0000 0.0000 7.3128 0.0000 -5.6303
# 5 -15.6466 -5.0033 -28.2492 0.0000 34.8625 0.0000
# 6 0.0000 0.0000 0.0000 -5.6303 0.0000 25.2725
#
#
#
# Elastic Compliance Matrix: (Units=1/GPa)
#
#
# Indices 1 2 3 4 5 6 
#
# 1 0.021012 0.004278 0.000620 0.000000 0.010547 0.000000
# 2 0.004278 0.013712 -0.001939 0.000000 0.002317 0.000000
# 3 0.000620 -0.001939 0.036191 0.000000 0.029326 0.000000
# 4 0.000000 0.000000 0.000000 0.165059 0.000000 0.036773
# 5 0.010547 0.002317 0.029326 0.000000 0.057513 0.000000
# 6 0.000000 0.000000 0.000000 0.036773 0.000000 0.047761
#
#
# Mechanical properties :
#
#
# Convention : Reuss Voigt Hill
#
# Bulk Modulus (GPa) = 13.01487 22.13790 17.57639
# Shear Modulus (GPa) = 13.85271 25.65374 19.75322
#
# Velocity S-wave (km/s) = 2.43998 3.32043 2.91366
# Velocity P-wave (km/s) = 3.67851 4.92084 4.34431
#
# Compressibility (1/GPa) = 0.07683517
#
# Stress axis : x y z
#
# Youngs Moduli (GPa) = 47.59077 72.92731 27.63148
#
# Poissons Ratio (x) = -0.31200 -0.01714
# Poissons Ratio (y) = -0.20360 0.05357
# Poissons Ratio (z) = -0.02952 0.14139
#
# Static dielectric constant tensor:
#      x y z
#    x 2.003600 0.000000 0.025430 
#    y 0.000000 1.824970 0.000000 
#    z 0.025430 0.000000 2.018060 
# 
# From -- ./inp_files/198379.got.cif
#   From: 2010.05.17/outbox.cif.g08.bks.cpg/sg12_100_cif.got.tgz:198379.got - 2010.06.03 13:09:07.
