data_PCOD9184918
_publ_section_title
;
Structure prediction by ZEFSAII (Michael W. Deem and Ramdas Pophale) SiO2 
 PCOD9184918
Probable space group: C 2/M
;
_chemical_formula_sum "Si O2"
_cell_formula_units_Z 40
_cell_length_a 8.908625
_cell_length_b 18.738382
_cell_length_c 26.714900
_cell_angle_alpha 90.000000
_cell_angle_beta 26.023340
_cell_angle_gamma 90.000000
_cell_volume 1956.594467
_symmetry_space_group_name_H-M "C 2/M"
_symmetry_group_IT_number 12
_symmetry_cell_setting 'monoclinic'
loop_
_space_group_symop_operation_xyz
x,y,z
-x,y,-z
-x,-y,-z
x,-y,z
1/2+x,1/2+y,z
1/2-x,1/2+y,-z
1/2-x,1/2-y,-z
1/2+x,1/2-y,z
loop_
_atom_site_type_symbol
_atom_site_label
_atom_site_fract_x
_atom_site_fract_y
_atom_site_fract_z
Si Si1 0.986661 0.212586 0.676461
Si Si2 0.586667 0.151410 0.357956
Si Si3 0.716377 0.915096 0.884862
Si Si4 0.166446 0.693569 0.068493
Si Si5 0.827998 0.921906 0.438944
O O1 0.092040 0.285466 0.618635
O O2 0.612354 0.226421 0.810738
O O3 0.230725 0.189504 0.648827
O O4 0.969234 0.146053 0.643202
O O5 0.323422 0.096058 0.461269
O O6 0.895278 0.114424 0.234707
O O7 0.511248 0.875340 0.902436
O O8 0.725357 0.000000 0.875462
O O9 0.500000 0.899054 0.000000
O O10 0.500000 0.675962 0.000000
O O11 0.250000 0.750000 0.000000
O O12 0.500000 0.925910 0.500000
O O13 0.997674 0.000000 0.386528
#
# Coordination Sequence:
#
# PCOD9184918 Si02
#       5
#     8   8   8   8   8
#     4  10  20  32  54  79 103 135 175 218 257 314
#     4  10  19  34  55  79 106 138 174 218 266 315
#     4  10  21  36  55  80 109 142 181 222 267 321
#     4  11  21  35  55  80 110 143 177 220 267 316
#     4   9  18  33  53  77 104 136 175 217 262 311
#
# _framework density 20.443684999999999
#
# number of rings (size 3 to 8) (size 9 to 14) (size 15 to 20)
#    0.000    2.000    0.000    5.400    0.000    5.200 
#    0.000    0.000    0.000    3.600    0.000    0.000 
#    0.000    0.000    0.000    0.000    0.000    0.000 
#
# Total GULP energy -111671.876299 kJ/mol
# GULP energy per Si atom -5583.593815 kJ/mol
# Density = 2.039715 g / cm^3
# Si number density = 20.443685 Si / 1000 Ang^3
#
#
#
# Elastic Constant Matrix: (Units=GPa)
#
#
# Indices 1 2 3 4 5 6 
#
# 1 24.4296 19.5923 17.8572 0.1632 4.7911 -0.1034
# 2 19.5923 115.7415 43.6693 -0.0237 20.7868 -0.0821
# 3 17.8572 43.6693 103.0662 0.2017 23.2130 -0.2127
# 4 0.1632 -0.0237 0.2017 30.6655 -0.1493 6.9446
# 5 4.7911 20.7868 23.2130 -0.1493 26.8573 0.1104
# 6 -0.1034 -0.0821 -0.2127 6.9446 0.1104 18.2831
#
#
#
# Elastic Compliance Matrix: (Units=1/GPa)
#
#
# Indices 1 2 3 4 5 6 
#
# 1 0.050428 -0.006400 -0.006349 -0.000289 0.001442 0.000283
# 2 -0.006400 0.011718 -0.002571 0.000030 -0.005705 0.000010
# 3 -0.006349 -0.002571 0.013895 -0.000154 -0.008888 0.000226
# 4 -0.000289 0.000030 -0.000154 0.035685 0.000416 -0.013560
# 5 0.001442 -0.005705 -0.008888 0.000416 0.049079 -0.000575
# 6 0.000283 0.000010 0.000226 -0.013560 -0.000575 0.059854
#
#
# Mechanical properties :
#
#
# Convention : Reuss Voigt Hill
#
# Bulk Modulus (GPa) = 22.02625 45.05279 33.53952
# Shear Modulus (GPa) = 18.76649 25.96908 22.36778
#
# Velocity S-wave (km/s) = 3.03307 3.56796 3.31133
# Velocity P-wave (km/s) = 4.80245 6.24973 5.57327
#
# Compressibility (1/GPa) = 0.04540037
#
# Stress axis : x y z
#
# Youngs Moduli (GPa) = 19.83035 85.33857 71.97016
#
# Poissons Ratio (x) = 0.54613 0.45696
# Poissons Ratio (y) = 0.12690 0.18505
# Poissons Ratio (z) = 0.12591 0.21942
#
# Static dielectric constant tensor:
#      x y z
#    x 1.731660 -0.000230 0.013090 
#    y -0.000230 1.720430 0.000420 
#    z 0.013090 0.000420 1.783200 
# 
# From -- ./inp_files/120037.got.cif
#   From: 2010.05.17/outbox.cif.g08.bks.cpg/sg12_61_cif.got.tgz:120037.got - 2010.06.03 13:09:07.
