data_PCOD9184927
_publ_section_title
;
Structure prediction by ZEFSAII (Michael W. Deem and Ramdas Pophale) SiO2 
 PCOD9184927
Probable space group: C 2/M
;
_chemical_formula_sum "Si O2"
_cell_formula_units_Z 56
_cell_length_a 29.339790
_cell_length_b 7.359315
_cell_length_c 21.620894
_cell_angle_alpha 90.000000
_cell_angle_beta 148.522795
_cell_angle_gamma 90.000000
_cell_volume 2437.648378
_symmetry_space_group_name_H-M "C 2/M"
_symmetry_group_IT_number 12
_symmetry_cell_setting 'monoclinic'
loop_
_space_group_symop_operation_xyz
x,y,z
-x,y,-z
-x,-y,-z
x,-y,z
1/2+x,1/2+y,z
1/2-x,1/2+y,-z
1/2-x,1/2-y,-z
1/2+x,1/2-y,z
loop_
_atom_site_type_symbol
_atom_site_label
_atom_site_fract_x
_atom_site_fract_y
_atom_site_fract_z
Si Si1 0.017665 0.208920 0.210016
Si Si2 0.728680 0.291767 0.246485
Si Si3 0.684694 0.284384 0.868374
Si Si4 0.081250 0.290264 0.553362
Si Si5 0.931449 0.776862 0.867112
Si Si6 0.489371 0.721588 0.663145
Si Si7 0.330417 0.218816 0.950977
O O1 0.043432 0.284176 0.307196
O O2 0.045267 0.286124 0.175312
O O3 0.046986 0.000000 0.243451
O O4 0.912036 0.213999 0.085052
O O5 0.748498 0.500000 0.286385
O O6 0.820998 0.207901 0.332291
O O7 0.666435 0.216651 0.227774
O O8 0.665965 0.287653 0.114271
O O9 0.674915 0.500000 0.849156
O O10 0.588957 0.213092 0.769666
O O11 0.738578 0.215586 0.872260
O O12 0.750000 0.250000 0.000000
O O13 0.088478 0.500000 0.582841
O O14 0.000000 0.212714 0.500000
O O15 0.058181 0.281284 0.454082
O O16 0.933252 0.000000 0.869523
O O17 0.000000 0.719477 0.000000
O O18 0.488062 0.500000 0.662831
O O19 0.333020 0.000000 0.954547
#
# Coordination Sequence:
#
# PCOD9184927 Si02
#       7
#     8   8   8   8   8   8   8
#     4  10  19  34  55  79 108 142 182 220 265 328
#     4  10  20  36  57  78 104 142 187 227 267 321
#     4  10  20  32  48  75 107 139 175 213 262 322
#     4  10  22  39  58  80 106 142 185 227 270 320
#     4   9  16  30  56  83 104 138 185 227 264 314
#     4  10  21  36  55  78 108 145 180 222 272 321
#     4  11  21  31  49  81 114 140 172 221 276 322
#
# _framework density 22.97296
#
# number of rings (size 3 to 8) (size 9 to 14) (size 15 to 20)
#    0.000    2.000    2.857    1.286    0.000    2.571 
#    0.000    2.143    0.000    0.000    0.000    0.000 
#    0.000    0.000    0.000    0.000    0.000    0.000 
#
# Total GULP energy -156252.945100 kJ/mol
# GULP energy per Si atom -5580.462325 kJ/mol
# Density = 2.292067 g / cm^3
# Si number density = 22.972960 Si / 1000 Ang^3
#
#
#
# Elastic Constant Matrix: (Units=GPa)
#
#
# Indices 1 2 3 4 5 6 
#
# 1 170.8070 4.2970 33.5412 0.0000 -5.3509 0.0000
# 2 4.2970 91.3192 -12.3921 0.0000 5.9671 0.0000
# 3 33.5412 -12.3921 77.5791 0.0000 -8.1712 0.0000
# 4 0.0000 0.0000 0.0000 9.1290 0.0000 -6.7769
# 5 -5.3509 5.9671 -8.1712 0.0000 43.2195 0.0000
# 6 0.0000 0.0000 0.0000 -6.7769 0.0000 0.1472
#
#
#
# Elastic Compliance Matrix: (Units=1/GPa)
#
#
# Indices 1 2 3 4 5 6 
#
# 1 0.006446 -0.000715 -0.002864 0.000000 0.000355 0.000000
# 2 -0.000715 0.011337 0.001985 0.000000 -0.001278 0.000000
# 3 -0.002864 0.001985 0.014671 0.000000 0.002145 0.000000
# 4 0.000000 0.000000 0.000000 -0.003302 0.000000 -0.152009
# 5 0.000355 -0.001278 0.002145 0.000000 0.023764 0.000000
# 6 0.000000 0.000000 0.000000 -0.152009 0.000000 -0.204768
#
#
# Mechanical properties :
#
#
# Convention : Reuss Voigt Hill
#
# Bulk Modulus (GPa) = 34.16732 43.39974 38.78353
# Shear Modulus (GPa) = -35.99472 31.44976 -2.27248
#
# Velocity S-wave (km/s) = -3.96261 3.70400 -0.99566
# Velocity P-wave (km/s) = 2.45587 6.10127 3.94932
#
# Compressibility (1/GPa) = 0.02926773
#
# Stress axis : x y z
#
# Youngs Moduli (GPa) = 155.13410 88.20511 68.16035
#
# Poissons Ratio (x) = 0.06308 0.19519
# Poissons Ratio (y) = 0.11094 -0.13533
# Poissons Ratio (z) = 0.44426 -0.17513
#
# Static dielectric constant tensor:
#      x y z
#    x 1.918340 0.000000 0.015160 
#    y 0.000000 1.854570 0.000000 
#    z 0.015160 0.000000 1.822710 
# 
# From -- ./inp_files/237371.got.cif
#   From: 2010.05.17/outbox.cif.g08.bks.cpg/sg12_119_cif.got.tgz:237371.got - 2010.06.03 13:09:07.
