data_PCOD9184245
_publ_section_title
;
Structure prediction by ZEFSAII (Michael W. Deem and Ramdas Pophale) SiO2 
 PCOD9184245
Probable space group: C 2/M
;
_chemical_formula_sum "Si O2"
_cell_formula_units_Z 56
_cell_length_a 9.029344
_cell_length_b 21.812482
_cell_length_c 14.756191
_cell_angle_alpha 90.000000
_cell_angle_beta 118.772997
_cell_angle_gamma 90.000000
_cell_volume 2547.441009
_symmetry_space_group_name_H-M "C 2/M"
_symmetry_group_IT_number 12
_symmetry_cell_setting 'monoclinic'
loop_
_space_group_symop_operation_xyz
x,y,z
-x,y,-z
-x,-y,-z
x,-y,z
1/2+x,1/2+y,z
1/2-x,1/2+y,-z
1/2-x,1/2-y,-z
1/2+x,1/2-y,z
loop_
_atom_site_type_symbol
_atom_site_label
_atom_site_fract_x
_atom_site_fract_y
_atom_site_fract_z
Si Si1 0.297145 0.651182 0.463590
Si Si2 0.608321 0.247701 0.293363
Si Si3 0.179233 0.357161 0.090091
Si Si4 0.242385 0.722859 0.844405
Si Si5 0.238852 0.068734 0.711665
Si Si6 0.030996 0.894997 0.104420
Si Si7 0.103733 0.886733 0.322487
O O1 0.500000 0.661597 0.500000
O O2 0.188992 0.710108 0.399206
O O3 0.239160 0.596806 0.380424
O O4 0.267737 0.628727 0.557991
O O5 0.750307 0.261333 0.260723
O O6 0.455226 0.212743 0.198115
O O7 0.537599 0.316228 0.290511
O O8 0.196145 0.283740 0.087948
O O9 0.189382 0.384569 0.193592
O O10 0.342840 0.383190 0.086622
O O11 0.000000 0.376902 0.000000
O O12 0.363457 0.665567 0.893835
O O13 0.038532 0.071385 0.674228
O O14 0.302727 0.000000 0.740488
O O15 0.130632 0.912279 0.228184
O O16 0.000000 0.929708 0.000000
#
# Coordination Sequence:
#
# PCOD9184245 Si02
#       7
#     8   8   8   8   8   8   8
#     4  10  19  33  58  85 119 156 193 243 300 353
#     4  11  19  34  56  84 124 157 192 243 296 360
#     4  11  22  37  57  82 118 155 196 250 298 353
#     4  11  19  34  54  83 120 158 199 233 299 359
#     4  10  20  37  58  88 122 154 198 251 301 351
#     4  10  22  35  52  81 119 157 197 239 295 364
#     4   9  19  35  50  81 113 152 195 232 291 352
#
# _framework density 21.982845000000001
#
# number of rings (size 3 to 8) (size 9 to 14) (size 15 to 20)
#    0.000    1.714    5.714    1.714    2.000    4.000 
#    0.000    2.143    0.000    6.857    0.000   13.000 
#    0.000   52.000    0.000    0.000    0.000    0.000 
#
# Total GULP energy -155936.408032 kJ/mol
# GULP energy per Si atom -5569.157430 kJ/mol
# Density = 2.193281 g / cm^3
# Si number density = 21.982845 Si / 1000 Ang^3
#
#
#
# Elastic Constant Matrix: (Units=GPa)
#
#
# Indices 1 2 3 4 5 6 
#
# 1 38.9862 18.7482 17.4929 0.0000 1.8895 0.0000
# 2 18.7482 69.6180 13.5149 0.0000 1.8071 0.0000
# 3 17.4929 13.5149 136.1096 0.0000 -21.9501 0.0000
# 4 0.0000 0.0000 0.0000 -2.9346 0.0000 1.5968
# 5 1.8895 1.8071 -21.9501 0.0000 42.5638 0.0000
# 6 0.0000 0.0000 0.0000 1.5968 0.0000 7.4149
#
#
#
# Elastic Compliance Matrix: (Units=1/GPa)
#
#
# Indices 1 2 3 4 5 6 
#
# 1 0.031111 -0.007577 -0.003727 0.000000 -0.002981 0.000000
# 2 -0.007577 0.016580 -0.000798 0.000000 -0.000779 0.000000
# 3 -0.003727 -0.000798 0.008657 0.000000 0.004664 0.000000
# 4 0.000000 0.000000 0.000000 -0.305025 0.000000 0.065687
# 5 -0.002981 -0.000779 0.004664 0.000000 0.026065 0.000000
# 6 0.000000 0.000000 0.000000 0.065687 0.000000 0.120719
#
#
# Mechanical properties :
#
#
# Convention : Reuss Voigt Hill
#
# Bulk Modulus (GPa) = 31.11042 38.24732 34.67887
# Shear Modulus (GPa) = -74.65453 22.40601 -26.12426
#
# Velocity S-wave (km/s) = -5.83387 3.19603 -3.45105
# Velocity P-wave (km/s) = 5.58533 5.57279 0.26452
#
# Compressibility (1/GPa) = 0.03214357
#
# Stress axis : x y z
#
# Youngs Moduli (GPa) = 32.14342 60.31429 115.50851
#
# Poissons Ratio (x) = 0.45702 0.43047
# Poissons Ratio (y) = 0.24356 0.09219
# Poissons Ratio (z) = 0.11979 0.04814
#
# Static dielectric constant tensor:
#      x y z
#    x 1.797480 0.000000 -0.037650 
#    y 0.000000 1.809370 0.000000 
#    z -0.037650 0.000000 1.909550 
# 
# From -- ./inp_files/198987.got.cif
#   From: 2010.05.17/outbox.cif.g08.bks.cpg/sg12_100_cif.got.tgz:198987.got - 2010.06.03 13:09:07.
