data_PCOD9184876
_publ_section_title
;
Structure prediction by ZEFSAII (Michael W. Deem and Ramdas Pophale) SiO2 
 PCOD9184876
Probable space group: C 2/M
;
_chemical_formula_sum "Si O2"
_cell_formula_units_Z 48
_cell_length_a 19.706972
_cell_length_b 8.984948
_cell_length_c 22.623014
_cell_angle_alpha 90.000000
_cell_angle_beta 43.506009
_cell_angle_gamma 90.000000
_cell_volume 2757.694338
_symmetry_space_group_name_H-M "C 2/M"
_symmetry_group_IT_number 12
_symmetry_cell_setting 'monoclinic'
loop_
_space_group_symop_operation_xyz
x,y,z
-x,y,-z
-x,-y,-z
x,-y,z
1/2+x,1/2+y,z
1/2-x,1/2+y,-z
1/2-x,1/2-y,-z
1/2+x,1/2-y,z
loop_
_atom_site_type_symbol
_atom_site_label
_atom_site_fract_x
_atom_site_fract_y
_atom_site_fract_z
Si Si1 0.319665 0.320912 0.772539
Si Si2 0.903888 0.822878 0.521930
Si Si3 0.789298 0.676868 0.276577
Si Si4 0.816750 0.822299 0.908066
Si Si5 0.534662 0.177376 0.634431
Si Si6 0.954793 0.177821 0.247616
O O1 0.338269 0.500000 0.758011
O O2 0.242949 0.284188 0.769621
O O3 0.285682 0.284389 0.860405
O O4 0.423395 0.239607 0.696357
O O5 0.806493 0.796625 0.621912
O O6 0.904803 0.735570 0.459981
O O7 0.000000 0.781501 0.500000
O O8 0.911354 0.000000 0.505092
O O9 0.810779 0.500000 0.265139
O O10 0.880053 0.767191 0.245219
O O11 0.932257 0.780291 0.839104
O O12 0.810772 0.000000 0.917796
O O13 0.750000 0.750000 0.000000
O O14 0.570566 0.245363 0.673854
O O15 0.534847 0.000000 0.637142
O O16 0.951281 0.000000 0.257104
#
# Coordination Sequence:
#
# PCOD9184876 Si02
#       6
#     8   8   8   8   8   8
#     4   9  18  36  57  79 109 145 180 218 270 325
#     4  10  19  34  55  77 107 148 186 225 270 314
#     4  10  20  35  57  81 107 143 185 224 268 317
#     4   9  19  36  60  83 105 137 176 218 267 325
#     4  11  21  33  53  80 108 143 189 231 264 312
#     4  10  22  39  56  77 111 146 177 220 277 325
#
# _framework density 17.405844999999999
#
# number of rings (size 3 to 8) (size 9 to 14) (size 15 to 20)
#    0.000    2.167    1.667    3.000    0.000    5.667 
#    0.000    0.833    0.000    5.000    0.000    0.000 
#    0.000    0.000    0.000    0.000    0.000    0.000 
#
# Total GULP energy -133966.427935 kJ/mol
# GULP energy per Si atom -5581.934497 kJ/mol
# Density = 1.736623 g / cm^3
# Si number density = 17.405845 Si / 1000 Ang^3
#
#
#
# Elastic Constant Matrix: (Units=GPa)
#
#
# Indices 1 2 3 4 5 6 
#
# 1 136.4536 53.4736 57.3768 0.0000 18.1151 0.0000
# 2 53.4736 51.3614 46.7570 0.0000 9.7931 0.0000
# 3 57.3768 46.7570 102.0838 0.0000 22.2980 0.0000
# 4 0.0000 0.0000 0.0000 30.1485 0.0000 1.2282
# 5 18.1151 9.7931 22.2980 0.0000 18.1471 0.0000
# 6 0.0000 0.0000 0.0000 1.2282 0.0000 30.6709
#
#
#
# Elastic Compliance Matrix: (Units=1/GPa)
#
#
# Indices 1 2 3 4 5 6 
#
# 1 0.013016 -0.011902 -0.000587 0.000000 -0.005849 0.000000
# 2 -0.011902 0.044292 -0.014996 0.000000 0.006405 0.000000
# 3 -0.000587 -0.014996 0.020638 0.000000 -0.016680 0.000000
# 4 0.000000 0.000000 0.000000 0.033223 0.000000 -0.001330
# 5 -0.005849 0.006405 -0.016680 0.000000 0.077983 0.000000
# 6 0.000000 0.000000 0.000000 -0.001330 0.000000 0.032657
#
#
# Mechanical properties :
#
#
# Convention : Reuss Voigt Hill
#
# Bulk Modulus (GPa) = 43.52441 67.23486 55.37963
# Shear Modulus (GPa) = 17.57860 24.61274 21.09567
#
# Velocity S-wave (km/s) = 3.18138 3.76447 3.48514
# Velocity P-wave (km/s) = 6.20925 7.58990 6.93402
#
# Compressibility (1/GPa) = 0.02297562
#
# Stress axis : x y z
#
# Youngs Moduli (GPa) = 76.83010 22.57758 48.45487
#
# Poissons Ratio (x) = 0.26871 0.02843
# Poissons Ratio (y) = 0.91440 0.72665
# Poissons Ratio (z) = 0.04507 0.33858
#
# Static dielectric constant tensor:
#      x y z
#    x 1.591670 0.000000 0.010220 
#    y 0.000000 1.582010 0.000000 
#    z 0.010220 0.000000 1.572300 
# 
# From -- ./inp_files/230368.got.cif
#   From: 2010.05.17/outbox.cif.g08.bks.cpg/sg12_116_cif.got.tgz:230368.got - 2010.06.03 13:09:07.
