data_PCOD9184540
_publ_section_title
;
Structure prediction by ZEFSAII (Michael W. Deem and Ramdas Pophale) SiO2 
 PCOD9184540
Probable space group: C 2/M
;
_chemical_formula_sum "Si O2"
_cell_formula_units_Z 56
_cell_length_a 23.006544
_cell_length_b 17.323768
_cell_length_c 22.347259
_cell_angle_alpha 90.000000
_cell_angle_beta 18.402957
_cell_angle_gamma 90.000000
_cell_volume 2811.835093
_symmetry_space_group_name_H-M "C 2/M"
_symmetry_group_IT_number 12
_symmetry_cell_setting 'monoclinic'
loop_
_space_group_symop_operation_xyz
x,y,z
-x,y,-z
-x,-y,-z
x,-y,z
1/2+x,1/2+y,z
1/2-x,1/2+y,-z
1/2-x,1/2-y,-z
1/2+x,1/2-y,z
loop_
_atom_site_type_symbol
_atom_site_label
_atom_site_fract_x
_atom_site_fract_y
_atom_site_fract_z
Si Si1 0.708907 0.406979 0.298430
Si Si2 0.417175 0.590546 0.867508
Si Si3 0.136171 0.659544 0.232141
Si Si4 0.532143 0.906509 0.069950
Si Si5 0.280637 0.087824 0.730228
Si Si6 0.234292 0.906290 0.645708
Si Si7 0.768642 0.193085 0.923413
O O1 0.500000 0.376138 0.500000
O O2 0.698141 0.500000 0.314593
O O3 0.818638 0.393670 0.129228
O O4 0.837943 0.383291 0.228565
O O5 0.434094 0.500000 0.845394
O O6 0.583214 0.619995 0.746237
O O7 0.406977 0.629076 0.813028
O O8 0.234186 0.611649 0.083499
O O9 0.238797 0.639973 0.193390
O O10 0.152708 0.749283 0.202367
O O11 0.928668 0.630990 0.440692
O O12 0.596333 0.853769 0.063335
O O13 0.530569 0.000000 0.084768
O O14 0.500000 0.086359 0.500000
O O15 0.184138 0.112272 0.763344
O O16 0.227977 0.000000 0.797375
O O17 0.251694 0.000000 0.626963
O O18 0.750000 0.250000 0.000000
#
# Coordination Sequence:
#
# PCOD9184540 Si02
#       7
#     8   8   8   8   8   8   8
#     4   8  15  31  59  90 108 124 165 222 275 326
#     4  10  20  35  55  75  99 138 183 220 257 308
#     4  10  19  34  52  73 107 139 168 216 272 315
#     4   9  17  34  58  80 109 143 173 219 274 316
#     4   8  14  28  52  79 103 127 161 209 263 319
#     4   9  18  33  55  81 104 131 174 222 266 316
#     4  10  22  37  51  74 108 147 186 220 253 307
#
# _framework density 19.915818999999999
#
# number of rings (size 3 to 8) (size 9 to 14) (size 15 to 20)
#    0.000    2.857    0.000    3.429    0.000    1.143 
#    0.000   15.714    0.000    8.571    0.000    0.000 
#    0.000    0.000    0.000    0.000    0.000    0.571 
#
# Total GULP energy -156030.325053 kJ/mol
# GULP energy per Si atom -5572.511609 kJ/mol
# Density = 1.987049 g / cm^3
# Si number density = 19.915819 Si / 1000 Ang^3
#
#
#
# Elastic Constant Matrix: (Units=GPa)
#
#
# Indices 1 2 3 4 5 6 
#
# 1 156.9589 61.7888 22.4199 0.0209 -13.2871 -0.0039
# 2 61.7888 43.8056 16.7031 -0.0740 -2.7500 0.0412
# 3 22.4199 16.7031 89.2996 -0.0947 -37.9786 0.0543
# 4 0.0209 -0.0740 -0.0947 -0.1419 0.0561 8.9875
# 5 -13.2871 -2.7500 -37.9786 0.0561 42.0831 -0.0135
# 6 -0.0039 0.0412 0.0543 8.9875 -0.0135 39.3826
#
#
#
# Elastic Compliance Matrix: (Units=1/GPa)
#
#
# Indices 1 2 3 4 5 6 
#
# 1 0.015166 -0.022102 0.002839 0.001012 0.005905 -0.000208
# 2 -0.022102 0.057239 -0.010607 -0.002225 -0.012807 0.000456
# 3 0.002839 -0.010607 0.020377 -0.000062 0.018593 0.000004
# 4 0.001012 -0.002225 -0.000062 -0.455887 0.000760 0.104041
# 5 0.005905 -0.012807 0.018593 0.000760 0.041568 -0.000171
# 6 -0.000208 0.000456 0.000004 0.104041 -0.000171 0.001648
#
#
# Mechanical properties :
#
#
# Convention : Reuss Voigt Hill
#
# Bulk Modulus (GPa) = 30.26398 54.65417 42.45908
# Shear Modulus (GPa) = -20.06947 28.87492 4.40273
#
# Velocity S-wave (km/s) = -3.17790 3.81182 1.48844
# Velocity P-wave (km/s) = 1.32800 6.84656 4.93148
#
# Compressibility (1/GPa) = 0.03304258
#
# Stress axis : x y z
#
# Youngs Moduli (GPa) = 65.93713 17.47046 49.07556
#
# Poissons Ratio (x) = 0.38613 -0.13932
# Poissons Ratio (y) = 1.45733 0.52054
# Poissons Ratio (z) = -0.18719 0.18531
#
# Static dielectric constant tensor:
#      x y z
#    x 1.764040 -0.000030 -0.015500 
#    y -0.000030 1.691760 0.000030 
#    z -0.015500 0.000030 1.713930 
# 
# From -- ./inp_files/322659.got.cif
#   From: 2010.05.17/outbox.cif.g08.bks.cpg/sg12_162_cif.got.tgz:322659.got - 2010.06.03 13:09:07.
