data_PCOD9184126
_publ_section_title
;
Structure prediction by ZEFSAII (Michael W. Deem and Ramdas Pophale) SiO2 
 PCOD9184126
Probable space group: C 2/M
;
_chemical_formula_sum "Si O2"
_cell_formula_units_Z 48
_cell_length_a 11.524340
_cell_length_b 15.054447
_cell_length_c 13.457197
_cell_angle_alpha 90.000000
_cell_angle_beta 124.026303
_cell_angle_gamma 90.000000
_cell_volume 1934.974062
_symmetry_space_group_name_H-M "C 2/M"
_symmetry_group_IT_number 12
_symmetry_cell_setting 'monoclinic'
loop_
_space_group_symop_operation_xyz
x,y,z
-x,y,-z
-x,-y,-z
x,-y,z
1/2+x,1/2+y,z
1/2-x,1/2+y,-z
1/2-x,1/2-y,-z
1/2+x,1/2-y,z
loop_
_atom_site_type_symbol
_atom_site_label
_atom_site_fract_x
_atom_site_fract_y
_atom_site_fract_z
Si Si1 0.044869 0.400053 0.907577
Si Si2 0.017116 0.603963 0.397987
Si Si3 0.283256 0.327704 0.404964
Si Si4 0.414441 0.287355 0.788336
Si Si5 0.025946 0.105362 0.664801
Si Si6 0.734871 0.600684 0.131623
O O1 0.006904 0.500000 0.848812
O O2 0.207974 0.389725 0.953220
O O3 0.977146 0.309522 0.836466
O O4 0.000000 0.403476 0.000000
O O5 0.043930 0.500000 0.424007
O O6 0.149957 0.638723 0.402297
O O7 0.000000 0.643099 0.500000
O O8 0.876854 0.612684 0.265344
O O9 0.229764 0.232724 0.340575
O O10 0.329858 0.379252 0.326369
O O11 0.411552 0.344097 0.541285
O O12 0.510685 0.348451 0.764326
O O13 0.374038 0.332866 0.872247
O O14 0.996233 0.000000 0.655113
O O15 0.684719 0.500000 0.121754
#
# Coordination Sequence:
#
# PCOD9184126 Si02
#       6
#     8   8   8   8   8   8
#     4  10  23  44  68  93 121 158 208 264 319 371
#     4  10  19  33  57  85 117 161 209 251 297 355
#     4  11  22  37  60  85 128 171 218 255 298 359
#     4  12  23  40  64  92 125 161 208 258 316 374
#     4  11  24  40  59  89 130 173 210 253 309 369
#     4  10  21  39  62  91 125 163 205 256 312 370
#
# _framework density 24.806536000000001
#
# number of rings (size 3 to 8) (size 9 to 14) (size 15 to 20)
#    0.000    1.333    1.667    5.000    0.000    3.333 
#    0.000    0.000    0.000    2.000    0.000    0.000 
#    0.000    0.000    0.000    0.000    0.000    0.000 
#
# Total GULP energy -134147.384566 kJ/mol
# GULP energy per Si atom -5589.474357 kJ/mol
# Density = 2.475007 g / cm^3
# Si number density = 24.806536 Si / 1000 Ang^3
#
#
#
# Elastic Constant Matrix: (Units=GPa)
#
#
# Indices 1 2 3 4 5 6 
#
# 1 176.3130 99.2596 50.8942 0.0000 -47.2176 0.0000
# 2 99.2596 141.1003 42.3244 0.0000 -14.6130 0.0000
# 3 50.8942 42.3244 56.4483 0.0000 -13.8566 0.0000
# 4 0.0000 0.0000 0.0000 2.6794 0.0000 -13.5124
# 5 -47.2176 -14.6130 -13.8566 0.0000 43.1375 0.0000
# 6 0.0000 0.0000 0.0000 -13.5124 0.0000 46.4900
#
#
#
# Elastic Compliance Matrix: (Units=1/GPa)
#
#
# Indices 1 2 3 4 5 6 
#
# 1 0.014322 -0.007549 -0.004377 0.000000 0.011713 0.000000
# 2 -0.007549 0.013160 -0.004337 0.000000 -0.005198 0.000000
# 3 -0.004377 -0.004337 0.025378 0.000000 0.001891 0.000000
# 4 0.000000 0.000000 0.000000 -0.801247 0.000000 -0.232884
# 5 0.011713 -0.005198 0.001891 0.000000 0.034850 0.000000
# 6 0.000000 0.000000 0.000000 -0.232884 0.000000 -0.046178
#
#
# Mechanical properties :
#
#
# Convention : Reuss Voigt Hill
#
# Bulk Modulus (GPa) = 49.18010 84.31309 66.74660
# Shear Modulus (GPa) = -6.94050 30.55361 11.80656
#
# Velocity S-wave (km/s) = -1.67449 3.51333 2.18398
# Velocity P-wave (km/s) = 4.01621 7.10774 5.77278
#
# Compressibility (1/GPa) = 0.02033343
#
# Stress axis : x y z
#
# Youngs Moduli (GPa) = 69.82208 75.98613 39.40374
#
# Poissons Ratio (x) = 0.57362 0.17249
# Poissons Ratio (y) = 0.52709 0.17090
# Poissons Ratio (z) = 0.30564 0.32957
#
# Static dielectric constant tensor:
#      x y z
#    x 1.962360 0.000000 0.006700 
#    y 0.000000 1.926470 0.000000 
#    z 0.006700 0.000000 2.098110 
# 
# From -- ./inp_files/205115.got.cif
#   From: 2010.05.17/outbox.cif.g08.bks.cpg/sg12_103_cif.got.tgz:205115.got - 2010.06.03 13:09:07.
