data_PCOD9184161
_publ_section_title
;
Structure prediction by ZEFSAII (Michael W. Deem and Ramdas Pophale) SiO2 
 PCOD9184161
Probable space group: C 2/M
;
_chemical_formula_sum "Si O2"
_cell_formula_units_Z 64
_cell_length_a 9.940014
_cell_length_b 15.572213
_cell_length_c 31.992152
_cell_angle_alpha 90.000000
_cell_angle_beta 143.719406
_cell_angle_gamma 90.000000
_cell_volume 2930.298374
_symmetry_space_group_name_H-M "C 2/M"
_symmetry_group_IT_number 12
_symmetry_cell_setting 'monoclinic'
loop_
_space_group_symop_operation_xyz
x,y,z
-x,y,-z
-x,-y,-z
x,-y,z
1/2+x,1/2+y,z
1/2-x,1/2+y,-z
1/2-x,1/2-y,-z
1/2+x,1/2-y,z
loop_
_atom_site_type_symbol
_atom_site_label
_atom_site_fract_x
_atom_site_fract_y
_atom_site_fract_z
Si Si1 0.033164 0.895565 0.711795
Si Si2 0.216749 0.826387 0.084776
Si Si3 0.537498 0.895340 0.556857
Si Si4 0.794962 0.604596 0.691496
Si Si5 0.445258 0.605217 0.532684
Si Si6 0.330316 0.172165 0.858178
Si Si7 0.710876 0.402440 0.167806
Si Si8 0.772004 0.403848 0.925186
O O1 0.775285 0.870278 0.636515
O O2 0.184303 0.876439 0.708647
O O3 0.132232 0.843353 0.775325
O O4 0.043361 0.000000 0.721323
O O5 0.436764 0.825431 0.109892
O O6 0.199839 0.749252 0.115381
O O7 0.225244 0.902348 0.121112
O O8 0.000000 0.831337 0.000000
O O9 0.500000 0.867553 0.500000
O O10 0.310922 0.867004 0.522967
O O11 0.542622 0.000000 0.557743
O O12 0.802616 0.500000 0.690945
O O13 0.628215 0.634345 0.612890
O O14 0.055245 0.636347 0.755789
O O15 0.500000 0.632548 0.500000
O O16 0.447943 0.500000 0.535079
O O17 0.310450 0.093944 0.885629
O O18 0.706358 0.500000 0.182592
O O19 0.470117 0.364009 0.122567
O O20 0.766586 0.500000 0.942205
O O21 0.000000 0.360503 0.000000
#
# Coordination Sequence:
#
# PCOD9184161 Si02
#       8
#     8   8   8   8   8   8   8   8
#     4  10  19  33  57  87 116 152 195 241 290 341
#     4  12  25  41  62  85 114 152 195 244 296 355
#     4   9  15  26  47  76 113 150 184 227 279 339
#     4   9  16  30  51  79 118 153 183 231 290 343
#     4   9  16  25  42  74 116 154 184 221 277 340
#     4  12  24  40  59  83 114 152 198 243 289 350
#     4  10  21  38  61  89 118 151 190 240 302 356
#     4  10  21  38  59  84 117 152 189 241 297 349
#
# _framework density 21.840779000000001
#
# number of rings (size 3 to 8) (size 9 to 14) (size 15 to 20)
#    0.000    1.875    2.500    2.625    0.000    1.750 
#    0.000    3.750    0.000    0.000    0.000    4.375 
#    0.000    0.000    0.000    0.000    0.000    0.000 
#
# Total GULP energy -178478.585479 kJ/mol
# GULP energy per Si atom -5577.455796 kJ/mol
# Density = 2.179107 g / cm^3
# Si number density = 21.840779 Si / 1000 Ang^3
#
#
#
# Elastic Constant Matrix: (Units=GPa)
#
#
# Indices 1 2 3 4 5 6 
#
# 1 188.4703 6.2173 102.1122 0.0000 24.7687 0.0000
# 2 6.2173 36.8319 9.0734 0.0000 3.8325 0.0000
# 3 102.1122 9.0734 243.3185 -0.0001 21.3524 -0.0001
# 4 0.0000 0.0000 -0.0001 8.6165 -0.0001 -12.5707
# 5 24.7687 3.8325 21.3524 -0.0001 46.5543 0.0000
# 6 0.0000 0.0000 -0.0001 -12.5707 0.0000 15.8763
#
#
#
# Elastic Compliance Matrix: (Units=1/GPa)
#
#
# Indices 1 2 3 4 5 6 
#
# 1 0.007144 -0.000263 -0.002768 0.000000 -0.002510 0.000000
# 2 -0.000263 0.027568 -0.000761 0.000000 -0.001780 0.000000
# 3 -0.002768 -0.000761 0.005382 -0.000001 -0.000933 -0.000001
# 4 0.000000 0.000000 -0.000001 -0.748017 -0.000001 -0.592273
# 5 -0.002510 -0.001780 -0.000933 -0.000001 0.023390 -0.000001
# 6 0.000000 0.000000 -0.000001 -0.592273 -0.000001 -0.405969
#
#
# Mechanical properties :
#
#
# Convention : Reuss Voigt Hill
#
# Bulk Modulus (GPa) = 30.76106 78.15852 54.45979
# Shear Modulus (GPa) = -4.66382 37.62394 16.48006
#
# Velocity S-wave (km/s) = -1.46288 4.15498 2.74990
# Velocity P-wave (km/s) = 3.35581 7.67345 5.92213
#
# Compressibility (1/GPa) = 0.03250863
#
# Stress axis : x y z
#
# Youngs Moduli (GPa) = 139.97550 36.27448 185.81222
#
# Poissons Ratio (x) = 0.00954 0.51435
# Poissons Ratio (y) = 0.03680 0.14149
# Poissons Ratio (z) = 0.38746 0.02762
#
# Static dielectric constant tensor:
#      x y z
#    x 1.728810 0.000000 0.004190 
#    y 0.000000 1.921060 0.000000 
#    z 0.004190 0.000000 1.770630 
# 
# From -- ./inp_files/372974.got.cif
#   From: 2010.05.17/outbox.cif.g08.bks.cpg/sg12_187_cif.got.tgz:372974.got - 2010.06.03 13:09:07.
