data_PCOD9184174
_publ_section_title
;
Structure prediction by ZEFSAII (Michael W. Deem and Ramdas Pophale) SiO2 
 PCOD9184174
Probable space group: C 2/M
;
_chemical_formula_sum "Si O2"
_cell_formula_units_Z 56
_cell_length_a 9.210372
_cell_length_b 23.294830
_cell_length_c 15.045817
_cell_angle_alpha 90.000000
_cell_angle_beta 123.617597
_cell_angle_gamma 90.000000
_cell_volume 2688.238400
_symmetry_space_group_name_H-M "C 2/M"
_symmetry_group_IT_number 12
_symmetry_cell_setting 'monoclinic'
loop_
_space_group_symop_operation_xyz
x,y,z
-x,y,-z
-x,-y,-z
x,-y,z
1/2+x,1/2+y,z
1/2-x,1/2+y,-z
1/2-x,1/2-y,-z
1/2+x,1/2-y,z
loop_
_atom_site_type_symbol
_atom_site_label
_atom_site_fract_x
_atom_site_fract_y
_atom_site_fract_z
Si Si1 0.537616 0.566118 0.611755
Si Si2 0.816310 0.352125 0.689238
Si Si3 0.885547 0.064295 0.743308
Si Si4 0.999735 0.814515 0.802106
Si Si5 0.514114 0.066307 0.398689
Si Si6 0.604862 0.789253 0.122175
Si Si7 0.807147 0.734607 0.421739
O O1 0.500000 0.588450 0.500000
O O2 0.582117 0.500000 0.616920
O O3 0.700999 0.601292 0.700661
O O4 0.391784 0.570476 0.637163
O O5 0.889083 0.385096 0.627098
O O6 0.945097 0.325929 0.806366
O O7 0.695935 0.296973 0.626413
O O8 0.991335 0.117714 0.817150
O O9 0.684910 0.067006 0.702783
O O10 0.953378 0.000000 0.784920
O O11 0.948981 0.775184 0.868592
O O12 0.840079 0.802032 0.678370
O O13 0.188140 0.795533 0.828032
O O14 0.500000 0.075803 0.500000
O O15 0.583166 0.000000 0.409684
O O16 0.500000 0.807459 0.000000
O O17 0.750000 0.750000 0.500000
O O18 0.000000 0.709695 0.500000
#
# Coordination Sequence:
#
# PCOD9184174 Si02
#       7
#     8   8   8   8   8   8   8
#     4  10  19  33  57  87 122 172 217 259 316 391
#     4  11  22  37  62  88 131 169 220 277 329 387
#     4  10  22  38  61  88 127 172 215 263 322 391
#     4  11  24  43  67  95 133 170 218 277 338 401
#     4  10  22  37  58  94 135 183 226 263 320 401
#     4  11  25  46  70 100 123 171 232 285 345 393
#     4  11  25  36  54  90 128 169 205 251 323 399
#
# _framework density 20.831486000000002
#
# number of rings (size 3 to 8) (size 9 to 14) (size 15 to 20)
#    0.000    1.429    1.429    3.857   10.000    2.286 
#    0.000    0.000    0.000    4.286    0.000    0.000 
#    0.000    0.000    0.000    0.000    0.000    0.000 
#
# Total GULP energy -156210.392290 kJ/mol
# GULP energy per Si atom -5578.942582 kJ/mol
# Density = 2.078407 g / cm^3
# Si number density = 20.831486 Si / 1000 Ang^3
#
#
#
# Elastic Constant Matrix: (Units=GPa)
#
#
# Indices 1 2 3 4 5 6 
#
# 1 95.1463 37.2769 14.2961 0.0000 15.4168 0.0000
# 2 37.2769 140.3518 22.2467 0.0000 -1.0941 0.0000
# 3 14.2961 22.2467 79.8323 0.0000 -1.6460 0.0000
# 4 0.0000 0.0000 0.0000 13.3087 0.0000 -5.6243
# 5 15.4168 -1.0941 -1.6460 0.0000 14.9014 0.0000
# 6 0.0000 0.0000 0.0000 -5.6243 0.0000 23.4487
#
#
#
# Elastic Compliance Matrix: (Units=1/GPa)
#
#
# Indices 1 2 3 4 5 6 
#
# 1 0.014841 -0.003758 -0.001937 0.000000 -0.015844 0.000000
# 2 -0.003758 0.008407 -0.001581 0.000000 0.004331 0.000000
# 3 -0.001937 -0.001581 0.013383 0.000000 0.003366 0.000000
# 4 0.000000 0.000000 0.000000 0.083614 0.000000 0.020055
# 5 -0.015844 0.004331 0.003366 0.000000 0.084190 0.000000
# 6 0.000000 0.000000 0.000000 0.020055 0.000000 0.047457
#
#
# Mechanical properties :
#
#
# Convention : Reuss Voigt Hill
#
# Bulk Modulus (GPa) = 45.29053 51.44110 48.36582
# Shear Modulus (GPa) = 18.26130 26.43248 22.34689
#
# Velocity S-wave (km/s) = 2.96399 3.56599 3.27883
# Velocity P-wave (km/s) = 5.78811 6.45775 6.13208
#
# Compressibility (1/GPa) = 0.02207967
#
# Stress axis : x y z
#
# Youngs Moduli (GPa) = 67.38175 118.94303 74.72164
#
# Poissons Ratio (x) = 0.44700 0.14474
# Poissons Ratio (y) = 0.25323 0.11810
# Poissons Ratio (z) = 0.13052 0.18800
#
# Static dielectric constant tensor:
#      x y z
#    x 1.813530 0.000000 0.008130 
#    y 0.000000 1.797070 0.000000 
#    z 0.008130 0.000000 1.771060 
# 
# From -- ./inp_files/198966.got.cif
#   From: 2010.05.17/outbox.cif.g08.bks.cpg/sg12_100_cif.got.tgz:198966.got - 2010.06.03 13:09:07.
