data_PCOD9184661
_publ_section_title
;
Structure prediction by ZEFSAII (Michael W. Deem and Ramdas Pophale) SiO2 
 PCOD9184661
Probable space group: C 2/M
;
_chemical_formula_sum "Si O2"
_cell_formula_units_Z 48
_cell_length_a 17.511592
_cell_length_b 23.036512
_cell_length_c 5.521468
_cell_angle_alpha 90.000000
_cell_angle_beta 107.001023
_cell_angle_gamma 90.000000
_cell_volume 2130.055194
_symmetry_space_group_name_H-M "C 2/M"
_symmetry_group_IT_number 12
_symmetry_cell_setting 'monoclinic'
loop_
_space_group_symop_operation_xyz
x,y,z
-x,y,-z
-x,-y,-z
x,-y,z
1/2+x,1/2+y,z
1/2-x,1/2+y,-z
1/2-x,1/2-y,-z
1/2+x,1/2-y,z
loop_
_atom_site_type_symbol
_atom_site_label
_atom_site_fract_x
_atom_site_fract_y
_atom_site_fract_z
Si Si1 0.449263 0.675734 0.199347
Si Si2 0.787099 0.627680 0.024774
Si Si3 0.847338 0.500000 0.063532
Si Si4 0.268142 0.390429 0.528660
Si Si5 0.352198 0.000000 0.567367
Si Si6 0.550670 0.194136 0.797478
Si Si7 0.094245 0.063501 0.636437
O O1 0.500000 0.676243 0.500000
O O2 0.413687 0.740243 0.161714
O O3 0.397664 0.617402 0.175109
O O4 0.500000 0.670580 0.000000
O O5 0.792081 0.557309 0.013498
O O6 0.742105 0.643490 0.231018
O O7 0.877236 0.649447 0.134758
O O8 0.753888 0.646265 0.732037
O O9 0.896807 0.500000 0.355689
O O10 0.896462 0.500000 0.862185
O O11 0.204362 0.443198 0.483862
O O12 0.354062 0.418496 0.549549
O O13 0.500000 0.188302 0.500000
O O14 0.500000 0.187254 0.000000
O O15 0.000000 0.059174 0.500000
O O16 0.120513 0.000000 0.747037
#
# Coordination Sequence:
#
# PCOD9184661 Si02
#       7
#     8   8   4   8   4   8   8
#     4   9  20  38  58  82 116 154 188 234 295 347
#     4  10  20  35  57  83 114 155 191 232 289 347
#     4   8  16  28  48  71 103 140 177 216 271 334
#     4  10  19  34  53  82 116 152 190 229 287 345
#     4   8  14  28  45  67 102 142 177 206 267 336
#     4  10  20  38  62  85 113 153 198 238 286 344
#     4  10  21  38  61  90 119 151 196 243 285 340
#
# _framework density 22.534624999999998
#
# number of rings (size 3 to 8) (size 9 to 14) (size 15 to 20)
#    0.000    2.500    0.833    1.000    0.000    3.000 
#    0.000    5.833    0.000    0.000    0.000    0.000 
#    0.000    0.000    0.000    0.000    0.000    0.000 
#
# Total GULP energy -133703.711525 kJ/mol
# GULP energy per Si atom -5570.987980 kJ/mol
# Density = 2.248334 g / cm^3
# Si number density = 22.534625 Si / 1000 Ang^3
#
#
#
# Elastic Constant Matrix: (Units=GPa)
#
#
# Indices 1 2 3 4 5 6 
#
# 1 83.3787 37.9982 58.5623 0.0000 -6.5264 0.0000
# 2 37.9982 62.3034 16.2680 0.0000 -3.6424 0.0000
# 3 58.5623 16.2680 197.3620 0.0000 -41.5620 0.0000
# 4 0.0000 0.0000 0.0000 32.3216 0.0000 -3.5106
# 5 -6.5264 -3.6424 -41.5620 0.0000 34.8518 0.0000
# 6 0.0000 0.0000 0.0000 -3.5106 0.0000 10.6216
#
#
#
# Elastic Compliance Matrix: (Units=1/GPa)
#
#
# Indices 1 2 3 4 5 6 
#
# 1 0.021456 -0.011692 -0.006428 0.000000 -0.004870 0.000000
# 2 -0.011692 0.022775 0.002179 0.000000 0.002790 0.000000
# 3 -0.006428 0.002179 0.008799 0.000000 0.009517 0.000000
# 4 0.000000 0.000000 0.000000 0.032091 0.000000 0.010607
# 5 -0.004870 0.002790 0.009517 0.000000 0.039422 0.000000
# 6 0.000000 0.000000 0.000000 0.010607 0.000000 0.097653
#
#
# Mechanical properties :
#
#
# Convention : Reuss Voigt Hill
#
# Bulk Modulus (GPa) = 47.28491 63.18900 55.23695
# Shear Modulus (GPa) = 19.14784 30.90671 25.02728
#
# Velocity S-wave (km/s) = 2.91814 3.70742 3.33620
# Velocity P-wave (km/s) = 5.69059 6.81384 6.27739
#
# Compressibility (1/GPa) = 0.02114840
#
# Stress axis : x y z
#
# Youngs Moduli (GPa) = 46.60803 43.90741 113.65283
#
# Poissons Ratio (x) = 0.51335 0.73059
# Poissons Ratio (y) = 0.54493 -0.24770
# Poissons Ratio (z) = 0.29961 -0.09569
#
# Static dielectric constant tensor:
#      x y z
#    x 1.835710 0.000000 0.015890 
#    y 0.000000 1.846180 0.000000 
#    z 0.015890 0.000000 1.994220 
# 
# From -- ./inp_files/16976.got.cif
#   From: 2010.05.17/outbox.cif.g08.bks.cpg/sg12_9_cif.got.tgz:16976.got - 2010.06.03 13:09:07.
