data_PCOD9184911
_publ_section_title
;
Structure prediction by ZEFSAII (Michael W. Deem and Ramdas Pophale) SiO2 
 PCOD9184911
Probable space group: C 2/M
;
_chemical_formula_sum "Si O2"
_cell_formula_units_Z 56
_cell_length_a 30.471189
_cell_length_b 7.549506
_cell_length_c 15.889988
_cell_angle_alpha 90.000000
_cell_angle_beta 46.674253
_cell_angle_gamma 90.000000
_cell_volume 2659.152891
_symmetry_space_group_name_H-M "C 2/M"
_symmetry_group_IT_number 12
_symmetry_cell_setting 'monoclinic'
loop_
_space_group_symop_operation_xyz
x,y,z
-x,y,-z
-x,-y,-z
x,-y,z
1/2+x,1/2+y,z
1/2-x,1/2+y,-z
1/2-x,1/2-y,-z
1/2+x,1/2-y,z
loop_
_atom_site_type_symbol
_atom_site_label
_atom_site_fract_x
_atom_site_fract_y
_atom_site_fract_z
Si Si1 0.403630 0.783365 0.609045
Si Si2 0.277718 0.203268 0.716673
Si Si3 0.647016 0.705990 0.868162
Si Si4 0.538581 0.207146 0.127887
Si Si5 0.805137 0.211173 0.490840
Si Si6 0.090570 0.214603 0.768820
Si Si7 0.489124 0.215993 0.649118
O O1 0.335790 0.717305 0.686647
O O2 0.447117 0.727497 0.474861
O O3 0.437476 0.732830 0.650310
O O4 0.402549 0.000000 0.608594
O O5 0.211141 0.285065 0.811327
O O6 0.293427 0.205214 0.596739
O O7 0.273803 0.000000 0.752086
O O8 0.660213 0.500000 0.831322
O O9 0.619924 0.780798 0.817109
O O10 0.595736 0.712682 0.005793
O O11 0.477911 0.228195 0.153505
O O12 0.524083 0.279800 0.239806
O O13 0.551960 0.000000 0.119000
O O14 0.750000 0.250000 0.500000
O O15 0.866593 0.271648 0.364550
O O16 0.808324 0.000000 0.498528
O O17 0.090466 0.000000 0.770388
O O18 0.490534 0.000000 0.649345
#
# Coordination Sequence:
#
# PCOD9184911 Si02
#       7
#     8   8   8   8   8   8   8
#     4   8  14  28  54  79 102 132 165 206 261 319
#     4  10  19  34  55  79 104 138 180 213 253 310
#     4  10  21  37  51  68 103 144 178 211 256 315
#     4  11  22  34  52  78 103 131 177 226 261 298
#     4  11  21  34  53  78 108 138 169 210 258 306
#     4  10  21  37  53  72 102 140 175 210 258 312
#     4   8  15  29  49  79 108 127 159 216 269 302
#
# _framework density 21.059339999999999
#
# number of rings (size 3 to 8) (size 9 to 14) (size 15 to 20)
#    0.000    2.286    1.429    3.000    0.000    5.143 
#    0.000    0.714    0.000    1.714    0.000    7.000 
#    0.000    0.000    0.000    0.000    0.000    0.000 
#
# Total GULP energy -156385.543310 kJ/mol
# GULP energy per Si atom -5585.197975 kJ/mol
# Density = 2.101141 g / cm^3
# Si number density = 21.059340 Si / 1000 Ang^3
#
#
#
# Elastic Constant Matrix: (Units=GPa)
#
#
# Indices 1 2 3 4 5 6 
#
# 1 139.6015 -5.4186 64.3877 -0.0001 -37.6068 -0.0007
# 2 -5.4186 53.4498 -0.4503 -0.0002 0.7481 -0.0012
# 3 64.3877 -0.4503 105.7127 0.0000 -29.7076 -0.0002
# 4 -0.0001 -0.0002 0.0000 18.1819 0.0000 -0.0128
# 5 -37.6068 0.7481 -29.7076 0.0000 31.0727 0.0001
# 6 -0.0007 -0.0012 -0.0002 -0.0128 0.0001 3.9676
#
#
#
# Elastic Compliance Matrix: (Units=1/GPa)
#
#
# Indices 1 2 3 4 5 6 
#
# 1 0.012015 0.001037 -0.004422 0.000000 0.010288 0.000002
# 2 0.001037 0.018805 -0.000446 0.000000 0.000376 0.000006
# 3 -0.004422 -0.000446 0.014563 0.000000 0.008582 0.000000
# 4 0.000000 0.000000 0.000000 0.055000 0.000000 0.000178
# 5 0.010288 0.000376 0.008582 0.000000 0.052830 0.000001
# 6 0.000002 0.000006 0.000000 0.000178 0.000001 0.252043
#
#
# Mechanical properties :
#
#
# Convention : Reuss Voigt Hill
#
# Bulk Modulus (GPa) = 26.51094 46.20014 36.35554
# Shear Modulus (GPa) = 11.75112 26.66077 19.20595
#
# Velocity S-wave (km/s) = 2.36477 3.56193 3.02320
# Velocity P-wave (km/s) = 4.48020 6.23716 5.43021
#
# Compressibility (1/GPa) = 0.03772027
#
# Stress axis : x y z
#
# Youngs Moduli (GPa) = 83.23162 53.17664 68.66784
#
# Poissons Ratio (x) = -0.05513 0.30367
# Poissons Ratio (y) = -0.08629 0.03061
# Poissons Ratio (z) = 0.36807 0.02370
#
# Static dielectric constant tensor:
#      x y z
#    x 1.755540 0.000000 -0.012790 
#    y 0.000000 1.813700 0.000000 
#    z -0.012790 0.000000 1.727030 
# 
# From -- ./inp_files/248910.got.cif
#   From: 2010.05.17/outbox.cif.g08.bks.cpg/sg12_125_cif.got.tgz:248910.got - 2010.06.03 13:09:07.
