data_PCOD9184830
_publ_section_title
;
Structure prediction by ZEFSAII (Michael W. Deem and Ramdas Pophale) SiO2 
 PCOD9184830
Probable space group: C 2/M
;
_chemical_formula_sum "Si O2"
_cell_formula_units_Z 56
_cell_length_a 10.854649
_cell_length_b 27.254741
_cell_length_c 11.338515
_cell_angle_alpha 90.000000
_cell_angle_beta 37.419257
_cell_angle_gamma 90.000000
_cell_volume 2038.273151
_symmetry_space_group_name_H-M "C 2/M"
_symmetry_group_IT_number 12
_symmetry_cell_setting 'monoclinic'
loop_
_space_group_symop_operation_xyz
x,y,z
-x,y,-z
-x,-y,-z
x,-y,z
1/2+x,1/2+y,z
1/2-x,1/2+y,-z
1/2-x,1/2-y,-z
1/2+x,1/2-y,z
loop_
_atom_site_type_symbol
_atom_site_label
_atom_site_fract_x
_atom_site_fract_y
_atom_site_fract_z
Si Si1 0.664986 0.447163 0.634748
Si Si2 0.803978 0.659367 0.925401
Si Si3 0.163570 0.839812 0.641386
Si Si4 0.762471 0.766173 0.216504
Si Si5 0.721525 0.160659 0.721032
Si Si6 0.702836 0.052687 0.070710
Si Si7 0.216002 0.553346 0.731544
O O1 0.746233 0.500000 0.616203
O O2 0.739188 0.394261 0.622596
O O3 0.701071 0.446823 0.466658
O O4 0.427217 0.447303 0.847445
O O5 0.842249 0.703849 0.807966
O O6 0.821944 0.605629 0.850437
O O7 0.977493 0.661869 0.891293
O O8 0.576289 0.662275 0.146643
O O9 0.258496 0.796484 0.646723
O O10 0.206031 0.836885 0.470525
O O11 0.703931 0.710064 0.275743
O O12 0.000000 0.767357 0.000000
O O13 0.778415 0.107117 0.729284
O O14 0.527307 0.053179 0.104824
O O15 0.677879 0.000000 0.152835
O O16 0.276003 0.500000 0.735940
#
# Coordination Sequence:
#
# PCOD9184830 Si02
#       7
#     8   8   8   8   8   8   8
#     4   8  13  23  41  65  94 126 159 198 242 288
#     4   9  19  34  51  74 105 135 165 210 256 292
#     4   9  18  32  49  72 100 131 172 209 243 303
#     4  10  21  35  50  73 103 132 173 215 246 298
#     4  10  19  34  55  73  99 138 168 205 259 300
#     4   8  13  24  44  69  97 129 161 193 239 299
#     4   8  14  25  45  72  95 120 160 203 246 300
#
# _framework density 27.474238
#
# number of rings (size 3 to 8) (size 9 to 14) (size 15 to 20)
#    0.000    3.143    0.000    0.429    0.000    2.857 
#    0.000    3.571    0.000    4.714    0.000   10.000 
#    0.000    2.286    0.000   58.000    0.000    0.000 
#
# Total GULP energy -156800.968717 kJ/mol
# GULP energy per Si atom -5600.034597 kJ/mol
# Density = 2.741171 g / cm^3
# Si number density = 27.474238 Si / 1000 Ang^3
#
#
#
# Elastic Constant Matrix: (Units=GPa)
#
#
# Indices 1 2 3 4 5 6 
#
# 1 60.0762 69.7047 17.4153 0.0000 12.9320 0.0000
# 2 69.7047 336.0323 24.5238 0.0000 34.4779 0.0000
# 3 17.4153 24.5238 115.8952 0.0000 -7.3175 0.0000
# 4 0.0000 0.0000 0.0000 45.0318 0.0000 52.6585
# 5 12.9320 34.4779 -7.3175 0.0000 31.4106 0.0000
# 6 0.0000 0.0000 0.0000 52.6585 0.0000 149.6383
#
#
#
# Elastic Compliance Matrix: (Units=1/GPa)
#
#
# Indices 1 2 3 4 5 6 
#
# 1 0.023500 -0.004042 -0.003052 0.000000 -0.005950 0.000000
# 2 -0.004042 0.004156 -0.000462 0.000000 -0.003006 0.000000
# 3 -0.003052 -0.000462 0.009435 0.000000 0.003962 0.000000
# 4 0.000000 0.000000 0.000000 0.037734 0.000000 -0.013279
# 5 -0.005950 -0.003006 0.003962 0.000000 0.038508 0.000000
# 6 0.000000 0.000000 0.000000 -0.013279 0.000000 0.011356
#
#
# Mechanical properties :
#
#
# Convention : Reuss Voigt Hill
#
# Bulk Modulus (GPa) = 45.49393 81.69903 63.59648
# Shear Modulus (GPa) = 33.98403 71.90679 52.94541
#
# Velocity S-wave (km/s) = 3.52083 5.12145 4.39463
# Velocity P-wave (km/s) = 5.75526 8.04820 6.99630
#
# Compressibility (1/GPa) = 0.02198095
#
# Stress axis : x y z
#
# Youngs Moduli (GPa) = 42.55266 240.59283 105.98879
#
# Poissons Ratio (x) = 0.97237 0.32346
# Poissons Ratio (y) = 0.17198 0.04897
# Poissons Ratio (z) = 0.12986 0.11115
#
# Static dielectric constant tensor:
#      x y z
#    x 2.053330 0.000000 0.019890 
#    y 0.000000 2.100150 0.000000 
#    z 0.019890 0.000000 2.204000 
# 
# From -- ./inp_files/219099.got.cif
#   From: 2010.05.17/outbox.cif.g08.bks.cpg/sg12_110_cif.got.tgz:219099.got - 2010.06.03 13:09:07.
