data_PCOD9184091
_publ_section_title
;
Structure prediction by ZEFSAII (Michael W. Deem and Ramdas Pophale) SiO2 
 PCOD9184091
Probable space group: C 2/M
;
_chemical_formula_sum "Si O2"
_cell_formula_units_Z 64
_cell_length_a 28.852042
_cell_length_b 8.941556
_cell_length_c 14.359071
_cell_angle_alpha 90.000000
_cell_angle_beta 92.199354
_cell_angle_gamma 90.000000
_cell_volume 3701.655160
_symmetry_space_group_name_H-M "C 2/M"
_symmetry_group_IT_number 12
_symmetry_cell_setting 'monoclinic'
loop_
_space_group_symop_operation_xyz
x,y,z
-x,y,-z
-x,-y,-z
x,-y,z
1/2+x,1/2+y,z
1/2-x,1/2+y,-z
1/2-x,1/2-y,-z
1/2+x,1/2-y,z
loop_
_atom_site_type_symbol
_atom_site_label
_atom_site_fract_x
_atom_site_fract_y
_atom_site_fract_z
Si Si1 0.430686 0.678973 0.715862
Si Si2 0.524949 0.323371 0.821211
Si Si3 0.446272 0.178741 0.517269
Si Si4 0.259161 0.821684 0.899532
Si Si5 0.094639 0.324835 0.960883
Si Si6 0.856892 0.822649 0.862771
Si Si7 0.600514 0.323373 0.663064
Si Si8 0.171352 0.676021 0.803116
O O1 0.435520 0.500000 0.700807
O O2 0.473978 0.724074 0.784963
O O3 0.433796 0.761592 0.618247
O O4 0.383632 0.706190 0.768609
O O5 0.524384 0.500000 0.844409
O O6 0.548320 0.233979 0.907151
O O7 0.558399 0.303702 0.733924
O O8 0.500000 0.217334 0.500000
O O9 0.415082 0.253764 0.435402
O O10 0.441687 0.000000 0.512673
O O11 0.308890 0.764816 0.868573
O O12 0.217957 0.764129 0.830459
O O13 0.258694 0.000000 0.907405
O O14 0.250000 0.750000 0.000000
O O15 0.091049 0.500000 0.983310
O O16 0.135976 0.306802 0.887851
O O17 0.109598 0.230627 0.051282
O O18 0.848534 0.000000 0.871098
O O19 0.609044 0.500000 0.655013
O O20 0.644314 0.241758 0.712615
O O21 0.180689 0.500000 0.793042
#
# Coordination Sequence:
#
# PCOD9184091 Si02
#       8
#     8   8   8   8   8   8   8   8
#     4  10  22  39  57  80 110 151 194 233 278 333
#     4   9  18  33  53  77 109 148 190 230 272 324
#     4  11  22  35  56  85 115 148 187 235 285 331
#     4  12  23  37  59  85 113 146 188 232 281 333
#     4  10  20  33  52  78 112 150 187 227 276 331
#     4  11  23  38  57  80 112 150 191 234 280 333
#     4  10  19  33  57  84 113 147 186 231 280 332
#     4  10  20  35  56  84 116 145 183 231 281 333
#
# _framework density 17.289563000000001
#
# number of rings (size 3 to 8) (size 9 to 14) (size 15 to 20)
#    0.000    1.625    2.500    3.000    0.000    4.000 
#    0.000    2.500    0.000    0.750    0.000    0.000 
#    0.000    0.000    0.000    0.000    0.000    0.000 
#
# Total GULP energy -178805.096988 kJ/mol
# GULP energy per Si atom -5587.659281 kJ/mol
# Density = 1.725021 g / cm^3
# Si number density = 17.289563 Si / 1000 Ang^3
#
#
#
# Elastic Constant Matrix: (Units=GPa)
#
#
# Indices 1 2 3 4 5 6 
#
# 1 91.5522 63.7417 55.7685 0.0000 11.5447 0.0000
# 2 63.7417 105.8168 66.8554 0.0000 0.9994 0.0000
# 3 55.7685 66.8554 96.8906 0.0000 13.0375 0.0000
# 4 0.0000 0.0000 0.0000 29.0124 0.0000 5.5098
# 5 11.5447 0.9994 13.0375 0.0000 21.7977 0.0000
# 6 0.0000 0.0000 0.0000 5.5098 0.0000 25.8651
#
#
#
# Elastic Compliance Matrix: (Units=1/GPa)
#
#
# Indices 1 2 3 4 5 6 
#
# 1 0.021808 -0.010373 -0.004246 0.000000 -0.008535 0.000000
# 2 -0.010373 0.022635 -0.011144 0.000000 0.011121 0.000000
# 3 -0.004246 -0.011144 0.021841 0.000000 -0.010303 0.000000
# 4 0.000000 0.000000 0.000000 0.035921 0.000000 -0.007652
# 5 -0.008535 0.011121 -0.010303 0.000000 0.056049 0.000000
# 6 0.000000 0.000000 0.000000 -0.007652 0.000000 0.040292
#
#
# Mechanical properties :
#
#
# Convention : Reuss Voigt Hill
#
# Bulk Modulus (GPa) = 67.76651 74.11007 70.93829
# Shear Modulus (GPa) = 19.60858 22.52799 21.06828
#
# Velocity S-wave (km/s) = 3.37134 3.61360 3.49457
# Velocity P-wave (km/s) = 7.37799 7.76968 7.57636
#
# Compressibility (1/GPa) = 0.01475655
#
# Stress axis : x y z
#
# Youngs Moduli (GPa) = 45.85578 44.18025 45.78591
#
# Poissons Ratio (x) = 0.45828 0.19441
# Poissons Ratio (y) = 0.47566 0.51024
# Poissons Ratio (z) = 0.19471 0.49234
#
# Static dielectric constant tensor:
#      x y z
#    x 1.581560 0.000000 -0.001650 
#    y 0.000000 1.574010 0.000000 
#    z -0.001650 0.000000 1.559710 
# 
# From -- ./inp_files/248466.got.cif
#   From: 2010.05.17/outbox.cif.g08.bks.cpg/sg12_125_cif.got.tgz:248466.got - 2010.06.03 13:09:07.
