data_PCOD9184524
_publ_section_title
;
Structure prediction by ZEFSAII (Michael W. Deem and Ramdas Pophale) SiO2 
 PCOD9184524
Probable space group: C 2/M
;
_chemical_formula_sum "Si O2"
_cell_formula_units_Z 56
_cell_length_a 23.941389
_cell_length_b 8.107969
_cell_length_c 19.502011
_cell_angle_alpha 90.000000
_cell_angle_beta 128.103887
_cell_angle_gamma 90.000000
_cell_volume 2978.904565
_symmetry_space_group_name_H-M "C 2/M"
_symmetry_group_IT_number 12
_symmetry_cell_setting 'monoclinic'
loop_
_space_group_symop_operation_xyz
x,y,z
-x,y,-z
-x,-y,-z
x,-y,z
1/2+x,1/2+y,z
1/2-x,1/2+y,-z
1/2-x,1/2-y,-z
1/2+x,1/2-y,z
loop_
_atom_site_type_symbol
_atom_site_label
_atom_site_fract_x
_atom_site_fract_y
_atom_site_fract_z
Si Si1 0.590191 0.310169 0.330846
Si Si2 0.407470 0.309332 0.378250
Si Si3 0.259054 0.190491 0.792125
Si Si4 0.783373 0.305059 0.665113
Si Si5 0.716468 0.300338 0.903047
Si Si6 0.558927 0.297629 0.743511
Si Si7 0.129904 0.687679 0.505069
O O1 0.591731 0.500000 0.309718
O O2 0.649568 0.217719 0.332622
O O3 0.509756 0.245088 0.266194
O O4 0.608633 0.300678 0.425488
O O5 0.427844 0.500000 0.403147
O O6 0.324349 0.308259 0.292498
O O7 0.445736 0.240747 0.339535
O O8 0.410272 0.223859 0.453895
O O9 0.296761 0.259176 0.752924
O O10 0.259534 0.263657 0.868746
O O11 0.282263 0.000000 0.816163
O O12 0.765662 0.500000 0.656408
O O13 0.713537 0.216566 0.583050
O O14 0.715997 0.500000 0.898369
O O15 0.634458 0.246894 0.831864
O O16 0.750000 0.250000 0.000000
O O17 0.558305 0.500000 0.740197
O O18 0.118002 0.500000 0.475132
#
# Coordination Sequence:
#
# PCOD9184524 Si02
#       7
#     8   8   8   8   8   8   8
#     4  11  21  33  48  68  94 130 168 204 239 280
#     4   8  14  30  51  68  88 124 166 201 233 279
#     4   7  13  27  49  70  92 120 153 189 231 277
#     4  10  19  34  52  69  91 127 169 207 238 276
#     4   9  16  31  54  80 100 119 148 188 235 288
#     4   8  17  33  52  70  96 131 163 190 235 296
#     4  11  21  32  46  69  97 127 163 208 248 281
#
# _framework density 18.798857000000002
#
# number of rings (size 3 to 8) (size 9 to 14) (size 15 to 20)
#    0.000    2.857    0.000    5.143    0.000    0.571 
#    0.000   12.857    0.000    0.857    0.000    6.000 
#    0.000    0.000    0.000    0.000    0.000    0.000 
#
# Total GULP energy -156064.093099 kJ/mol
# GULP energy per Si atom -5573.717611 kJ/mol
# Density = 1.875607 g / cm^3
# Si number density = 18.798857 Si / 1000 Ang^3
#
#
#
# Elastic Constant Matrix: (Units=GPa)
#
#
# Indices 1 2 3 4 5 6 
#
# 1 80.3599 -5.4095 35.3651 0.0000 -2.4939 0.0000
# 2 -5.4095 24.8673 -7.0807 0.0000 2.4675 0.0000
# 3 35.3651 -7.0807 97.0931 0.0000 -12.5910 0.0000
# 4 0.0000 0.0000 0.0000 18.6746 0.0000 -5.6310
# 5 -2.4939 2.4675 -12.5910 0.0000 17.4232 0.0000
# 6 0.0000 0.0000 0.0000 -5.6310 0.0000 14.2525
#
#
#
# Elastic Compliance Matrix: (Units=1/GPa)
#
#
# Indices 1 2 3 4 5 6 
#
# 1 0.014965 0.001877 -0.005595 0.000000 -0.002167 0.000000
# 2 0.001877 0.041560 0.001786 0.000000 -0.004326 0.000000
# 3 -0.005595 0.001786 0.013606 0.000000 0.008779 0.000000
# 4 0.000000 0.000000 0.000000 0.060791 0.000000 0.024018
# 5 -0.002167 -0.004326 0.008779 0.000000 0.064041 0.000000
# 6 0.000000 0.000000 0.000000 0.024018 0.000000 0.079652
#
#
# Mechanical properties :
#
#
# Convention : Reuss Voigt Hill
#
# Bulk Modulus (GPa) = 15.09032 27.56336 21.32684
# Shear Modulus (GPa) = 16.63515 22.03307 19.33411
#
# Velocity S-wave (km/s) = 2.97796 3.42723 3.21046
# Velocity P-wave (km/s) = 4.45746 5.50956 5.01120
#
# Compressibility (1/GPa) = 0.06626764
#
# Stress axis : x y z
#
# Youngs Moduli (GPa) = 66.82052 24.06176 73.49693
#
# Poissons Ratio (x) = -0.04517 0.41122
# Poissons Ratio (y) = -0.12545 -0.13126
# Poissons Ratio (z) = 0.37387 -0.04297
#
# Static dielectric constant tensor:
#      x y z
#    x 1.690150 0.000000 -0.018070 
#    y 0.000000 1.661820 0.000000 
#    z -0.018070 0.000000 1.645950 
# 
# From -- ./inp_files/287316.got.cif
#   From: 2010.05.17/outbox.cif.g08.bks.cpg/sg12_144_cif.got.tgz:287316.got - 2010.06.03 13:09:07.
