data_PCOD9184847
_publ_section_title
;
Structure prediction by ZEFSAII (Michael W. Deem and Ramdas Pophale) SiO2 
 PCOD9184847
Probable space group: C 2/M
;
_chemical_formula_sum "Si O2"
_cell_formula_units_Z 60
_cell_length_a 27.287183
_cell_length_b 9.470715
_cell_length_c 27.489135
_cell_angle_alpha 90.000000
_cell_angle_beta 150.527975
_cell_angle_gamma 90.000000
_cell_volume 3495.154385
_symmetry_space_group_name_H-M "C 2/M"
_symmetry_group_IT_number 12
_symmetry_cell_setting 'monoclinic'
loop_
_space_group_symop_operation_xyz
x,y,z
-x,y,-z
-x,-y,-z
x,-y,z
1/2+x,1/2+y,z
1/2-x,1/2+y,-z
1/2-x,1/2-y,-z
1/2+x,1/2-y,z
loop_
_atom_site_type_symbol
_atom_site_label
_atom_site_fract_x
_atom_site_fract_y
_atom_site_fract_z
Si Si1 0.027755 0.839475 0.633132
Si Si2 0.901711 0.832461 0.781044
Si Si3 0.750649 0.831632 0.187934
Si Si4 0.033595 0.667872 0.972945
Si Si5 0.138420 0.665039 0.456039
Si Si6 0.000000 0.755833 0.500000
Si Si7 0.655370 0.834674 0.357673
Si Si8 0.721018 0.841115 0.691416
O O1 0.142066 0.794917 0.741888
O O2 0.950187 0.732910 0.589739
O O3 0.015771 0.838054 0.564104
O O4 0.011159 0.000000 0.636087
O O5 0.910509 0.748488 0.738353
O O6 0.788193 0.812341 0.702491
O O7 0.971142 0.762781 0.882091
O O8 0.919120 0.000000 0.790904
O O9 0.747670 0.762208 0.238396
O O10 0.750362 0.000000 0.194178
O O11 0.651001 0.795876 0.072666
O O12 0.019899 0.500000 0.950678
O O13 0.000000 0.689484 0.000000
O O14 0.155383 0.500000 0.483117
O O15 0.237762 0.756793 0.549716
O O16 0.115960 0.672960 0.378869
O O17 0.896959 0.672186 0.418530
O O18 0.665865 0.000000 0.353759
O O19 0.744353 0.000000 0.727448
#
# Coordination Sequence:
#
# PCOD9184847 Si02
#       8
#     8   8   8   8   8   4   8   8
#     4  10  20  34  53  76 104 141 177 216 261 313
#     4  11  22  33  51  80 111 139 174 225 273 317
#     4   9  19  34  51  73 101 136 181 217 253 312
#     4  10  19  34  55  76 103 144 184 222 267 319
#     4  10  21  37  57  81 109 139 176 220 265 316
#     4  10  20  32  48  72 106 142 178 210 246 310
#     4  10  21  37  57  80 106 140 179 219 264 316
#     4  10  20  31  45  69 102 138 172 210 258 308
#
# _framework density 17.166623000000001
#
# number of rings (size 3 to 8) (size 9 to 14) (size 15 to 20)
#    0.000    2.000    1.333    2.400    0.000    7.200 
#    0.000    0.000    0.000    0.800    0.000    0.000 
#    0.000    0.000    0.000    0.000    0.000    0.000 
#
# Total GULP energy -167329.649827 kJ/mol
# GULP energy per Si atom -5577.654994 kJ/mol
# Density = 1.712755 g / cm^3
# Si number density = 17.166623 Si / 1000 Ang^3
#
#
#
# Elastic Constant Matrix: (Units=GPa)
#
#
# Indices 1 2 3 4 5 6 
#
# 1 67.0642 46.8685 38.4624 0.0000 1.8223 0.0000
# 2 46.8685 86.2218 40.4169 -0.0001 -7.9127 0.0004
# 3 38.4624 40.4169 90.0284 0.0000 -4.3121 0.0001
# 4 0.0000 -0.0001 0.0000 22.3798 0.0000 -17.9425
# 5 1.8223 -7.9127 -4.3121 0.0000 25.8258 0.0000
# 6 0.0000 0.0004 0.0001 -17.9425 0.0000 153.1729
#
#
#
# Elastic Compliance Matrix: (Units=1/GPa)
#
#
# Indices 1 2 3 4 5 6 
#
# 1 0.027626 -0.012618 -0.006468 0.000000 -0.006895 0.000000
# 2 -0.012618 0.020759 -0.003611 0.000000 0.006648 0.000000
# 3 -0.006468 -0.003611 0.015585 0.000000 0.001952 0.000000
# 4 0.000000 0.000000 0.000000 0.049314 0.000000 0.005777
# 5 -0.006895 0.006648 0.001952 0.000000 0.041570 0.000000
# 6 0.000000 0.000000 0.000000 0.005777 0.000000 0.007205
#
#
# Mechanical properties :
#
#
# Convention : Reuss Voigt Hill
#
# Bulk Modulus (GPa) = 53.82798 54.97889 54.40343
# Shear Modulus (GPa) = 23.40310 48.11346 35.75828
#
# Velocity S-wave (km/s) = 3.69628 5.29983 4.56895
# Velocity P-wave (km/s) = 7.04563 8.33949 7.71971
#
# Compressibility (1/GPa) = 0.01857770
#
# Stress axis : x y z
#
# Youngs Moduli (GPa) = 36.19751 48.17104 64.16248
#
# Poissons Ratio (x) = 0.60781 0.41502
# Poissons Ratio (y) = 0.45673 0.23166
# Poissons Ratio (z) = 0.23414 0.17392
#
# Static dielectric constant tensor:
#      x y z
#    x 1.577860 0.000000 0.009380 
#    y 0.000000 1.579480 0.000000 
#    z 0.009380 0.000000 1.595620 
# 
# From -- ./inp_files/368891.got.cif
#   From: 2010.05.17/outbox.cif.g08.bks.cpg/sg12_185_cif.got.tgz:368891.got - 2010.06.03 13:09:07.
