data_PCOD9184056
_publ_section_title
;
Structure prediction by ZEFSAII (Michael W. Deem and Ramdas Pophale) SiO2 
 PCOD9184056
Probable space group: C 2/M
;
_chemical_formula_sum "Si O2"
_cell_formula_units_Z 56
_cell_length_a 16.981009
_cell_length_b 7.889905
_cell_length_c 20.892654
_cell_angle_alpha 90.000000
_cell_angle_beta 101.627717
_cell_angle_gamma 90.000000
_cell_volume 2741.722545
_symmetry_space_group_name_H-M "C 2/M"
_symmetry_group_IT_number 12
_symmetry_cell_setting 'monoclinic'
loop_
_space_group_symop_operation_xyz
x,y,z
-x,y,-z
-x,-y,-z
x,-y,z
1/2+x,1/2+y,z
1/2-x,1/2+y,-z
1/2-x,1/2-y,-z
1/2+x,1/2-y,z
loop_
_atom_site_type_symbol
_atom_site_label
_atom_site_fract_x
_atom_site_fract_y
_atom_site_fract_z
Si Si1 0.553313 0.303683 0.352581
Si Si2 0.525328 0.806805 0.207434
Si Si3 0.130948 0.205674 0.651977
Si Si4 0.269390 0.796869 0.930909
Si Si5 0.052600 0.292179 0.068967
Si Si6 0.651918 0.705560 0.799147
Si Si7 0.732714 0.799654 0.424416
O O1 0.550268 0.500000 0.369049
O O2 0.557647 0.282998 0.276214
O O3 0.464003 0.233897 0.360570
O O4 0.639315 0.240348 0.392604
O O5 0.536198 0.732883 0.138354
O O6 0.430396 0.800400 0.201286
O O7 0.556723 0.000000 0.213208
O O8 0.170790 0.239825 0.728068
O O9 0.194606 0.270060 0.609279
O O10 0.125226 0.000000 0.645296
O O11 0.358188 0.737434 0.931640
O O12 0.212333 0.738630 0.864289
O O13 0.268977 0.000000 0.927149
O O14 0.250000 0.750000 0.000000
O O15 0.046110 0.500000 0.069674
O O16 0.000000 0.235549 0.000000
O O17 0.639912 0.500000 0.802080
O O18 0.750000 0.750000 0.500000
O O19 0.739518 0.000000 0.419113
#
# Coordination Sequence:
#
# PCOD9184056 Si02
#       7
#     8   8   8   8   8   8   8
#     4  10  21  40  62  87 119 155 195 240 289 345
#     4  10  19  33  57  83 107 140 185 235 285 339
#     4   8  18  37  61  83 112 156 198 230 281 356
#     4  10  20  33  51  73 103 142 185 230 280 336
#     4   9  18  31  49  74 104 142 185 228 275 337
#     4   9  18  34  55  77 104 143 186 230 280 338
#     4  11  23  40  63  91 121 156 197 241 289 348
#
# _framework density 20.425115999999999
#
# number of rings (size 3 to 8) (size 9 to 14) (size 15 to 20)
#    0.000    2.429    0.000    3.000    2.000    2.286 
#    0.000   11.429    0.000    3.857    0.000    0.000 
#    0.000    0.000    0.000    0.000    0.000    0.000 
#
# Total GULP energy -155929.788901 kJ/mol
# GULP energy per Si atom -5568.921032 kJ/mol
# Density = 2.037863 g / cm^3
# Si number density = 20.425116 Si / 1000 Ang^3
#
#
#
# Elastic Constant Matrix: (Units=GPa)
#
#
# Indices 1 2 3 4 5 6 
#
# 1 126.0204 12.8215 115.4973 0.0000 10.9621 0.0000
# 2 12.8215 20.3639 5.8717 0.0000 1.3673 0.0000
# 3 115.4973 5.8717 178.8169 0.0000 -1.3223 0.0000
# 4 0.0000 0.0000 0.0000 25.4476 0.0000 3.3151
# 5 10.9621 1.3673 -1.3223 0.0000 46.7516 0.0000
# 6 0.0000 0.0000 0.0000 3.3151 0.0000 18.1350
#
#
#
# Elastic Compliance Matrix: (Units=1/GPa)
#
#
# Indices 1 2 3 4 5 6 
#
# 1 0.022373 -0.009639 -0.014174 0.000000 -0.005365 0.000000
# 2 -0.009639 0.053834 0.004464 0.000000 0.000812 0.000000
# 3 -0.014174 0.004464 0.014627 0.000000 0.003606 0.000000
# 4 0.000000 0.000000 0.000000 0.040255 0.000000 -0.007359
# 5 -0.005365 0.000812 0.003606 0.000000 0.022726 0.000000
# 6 0.000000 0.000000 0.000000 -0.007359 0.000000 0.056487
#
#
# Mechanical properties :
#
#
# Convention : Reuss Voigt Hill
#
# Bulk Modulus (GPa) = 19.18044 65.95358 42.56701
# Shear Modulus (GPa) = 18.77034 30.80088 24.78561
#
# Velocity S-wave (km/s) = 3.03476 3.88750 3.48729
# Velocity P-wave (km/s) = 4.65733 7.24643 6.09104
#
# Compressibility (1/GPa) = 0.05213645
#
# Stress axis : x y z
#
# Youngs Moduli (GPa) = 44.69748 18.57567 68.36647
#
# Poissons Ratio (x) = 0.17906 0.96900
# Poissons Ratio (y) = 0.43085 -0.30520
# Poissons Ratio (z) = 0.63352 -0.08293
#
# Static dielectric constant tensor:
#      x y z
#    x 1.795220 0.000000 -0.215330 
#    y 0.000000 1.790690 0.000000 
#    z -0.215330 0.000000 2.569250 
# 
# From -- ./inp_files/308978.got.cif
#   From: 2010.05.17/outbox.cif.g08.bks.cpg/sg12_155_cif.got.tgz:308978.got - 2010.06.03 13:09:07.
