data_PCOD9184366
_publ_section_title
;
Structure prediction by ZEFSAII (Michael W. Deem and Ramdas Pophale) SiO2 
 PCOD9184366
Probable space group: C 2/M
;
_chemical_formula_sum "Si O2"
_cell_formula_units_Z 40
_cell_length_a 13.260074
_cell_length_b 17.536002
_cell_length_c 7.204917
_cell_angle_alpha 90.000000
_cell_angle_beta 98.561399
_cell_angle_gamma 90.000000
_cell_volume 1656.681280
_symmetry_space_group_name_H-M "C 2/M"
_symmetry_group_IT_number 12
_symmetry_cell_setting 'monoclinic'
loop_
_space_group_symop_operation_xyz
x,y,z
-x,y,-z
-x,-y,-z
x,-y,z
1/2+x,1/2+y,z
1/2-x,1/2+y,-z
1/2-x,1/2-y,-z
1/2+x,1/2-y,z
loop_
_atom_site_type_symbol
_atom_site_label
_atom_site_fract_x
_atom_site_fract_y
_atom_site_fract_z
Si Si1 0.415126 0.410167 0.243736
Si Si2 0.470245 0.202767 0.689231
Si Si3 0.382945 0.646248 0.810418
Si Si4 0.296246 0.910163 0.701018
Si Si5 0.308949 0.828036 0.086240
O O1 0.399162 0.500000 0.233359
O O2 0.536310 0.397240 0.297998
O O3 0.321984 0.380525 0.346897
O O4 0.398998 0.377936 0.030267
O O5 0.500000 0.237073 0.500000
O O6 0.413198 0.266545 0.790362
O O7 0.389905 0.134947 0.635460
O O8 0.576406 0.184546 0.816666
O O9 0.261317 0.640459 0.763798
O O10 0.301610 0.000000 0.662573
O O11 0.313408 0.890161 0.923863
O O12 0.250000 0.750000 0.000000
#
# Coordination Sequence:
#
# PCOD9184366 Si02
#       5
#     8   8   8   8   8
#     4   9  18  36  67  97 118 153 206 267 315 353
#     4  12  26  39  58  91 132 169 203 250 315 376
#     4  10  19  33  59  89 121 153 198 252 308 362
#     4  10  22  40  65  92 121 163 214 260 305 366
#     4  11  21  39  65  93 118 156 213 264 306 359
#
# _framework density 24.144656999999999
#
# number of rings (size 3 to 8) (size 9 to 14) (size 15 to 20)
#    0.000    1.600    2.000    5.400    0.000    3.600 
#    0.000    0.000    0.000    2.400    0.000    0.000 
#    0.000    0.000    0.000    0.000    0.000    0.000 
#
# Total GULP energy -111621.946865 kJ/mol
# GULP energy per Si atom -5581.097343 kJ/mol
# Density = 2.408970 g / cm^3
# Si number density = 24.144657 Si / 1000 Ang^3
#
#
#
# Elastic Constant Matrix: (Units=GPa)
#
#
# Indices 1 2 3 4 5 6 
#
# 1 170.8215 24.4569 40.9408 0.0000 -18.2981 0.0000
# 2 24.4569 67.0942 -14.1926 0.0000 -6.2016 0.0000
# 3 40.9408 -14.1926 50.5473 0.0000 -4.7077 0.0000
# 4 0.0000 0.0000 0.0000 7.4700 0.0000 -16.8134
# 5 -18.2981 -6.2016 -4.7077 0.0000 46.1192 0.0000
# 6 0.0000 0.0000 0.0000 -16.8134 0.0000 39.9101
#
#
#
# Elastic Compliance Matrix: (Units=1/GPa)
#
#
# Indices 1 2 3 4 5 6 
#
# 1 0.008706 -0.004724 -0.008193 0.000000 0.001983 0.000000
# 2 -0.004724 0.018726 0.009231 0.000000 0.001586 0.000000
# 3 -0.008193 0.009231 0.029101 0.000000 0.000961 0.000000
# 4 0.000000 0.000000 0.000000 2.585216 0.000000 1.089102
# 5 0.001983 0.001586 0.000961 0.000000 0.022781 0.000000
# 6 0.000000 0.000000 0.000000 1.089102 0.000000 0.483874
#
#
# Mechanical properties :
#
#
# Convention : Reuss Voigt Hill
#
# Bulk Modulus (GPa) = 20.34094 43.43037 31.88565
# Shear Modulus (GPa) = 1.57621 34.51705 18.04663
#
# Velocity S-wave (km/s) = 0.80885 3.78510 2.73690
# Velocity P-wave (km/s) = 3.05208 6.09338 4.81895
#
# Compressibility (1/GPa) = 0.04916193
#
# Stress axis : x y z
#
# Youngs Moduli (GPa) = 114.85718 53.40287 34.36288
#
# Poissons Ratio (x) = 0.25225 0.28155
# Poissons Ratio (y) = 0.54253 -0.31721
# Poissons Ratio (z) = 0.94107 -0.49298
#
# Static dielectric constant tensor:
#      x y z
#    x 2.083510 0.000000 0.000120 
#    y 0.000000 1.889470 0.000000 
#    z 0.000120 0.000000 1.962430 
# 
# From -- ./inp_files/46931.got.cif
#   From: 2010.05.17/outbox.cif.g08.bks.cpg/sg12_24_cif.got.tgz:46931.got - 2010.06.03 13:09:07.
