data_PCOD9184181
_publ_section_title
;
Structure prediction by ZEFSAII (Michael W. Deem and Ramdas Pophale) SiO2 
 PCOD9184181
Probable space group: C 2/M
;
_chemical_formula_sum "Si O2"
_cell_formula_units_Z 58
_cell_length_a 23.053558
_cell_length_b 21.451712
_cell_length_c 6.238684
_cell_angle_alpha 90.000000
_cell_angle_beta 115.882434
_cell_angle_gamma 90.000000
_cell_volume 2775.789955
_symmetry_space_group_name_H-M "C 2/M"
_symmetry_group_IT_number 12
_symmetry_cell_setting 'monoclinic'
loop_
_space_group_symop_operation_xyz
x,y,z
-x,y,-z
-x,-y,-z
x,-y,z
1/2+x,1/2+y,z
1/2-x,1/2+y,-z
1/2-x,1/2-y,-z
1/2+x,1/2-y,z
loop_
_atom_site_type_symbol
_atom_site_label
_atom_site_fract_x
_atom_site_fract_y
_atom_site_fract_z
Si Si1 0.280600 0.636902 0.760423
Si Si2 0.845997 0.293917 0.552814
Si Si3 0.943459 0.268344 0.076410
Si Si4 0.500000 0.000000 0.500000
Si Si5 0.587112 0.122836 0.686825
Si Si6 0.285920 0.069631 0.988505
Si Si7 0.872744 0.183585 0.267354
Si Si8 0.155625 0.927020 0.511926
O O1 0.273758 0.821415 0.442547
O O2 0.243542 0.581164 0.823198
O O3 0.335096 0.606983 0.699368
O O4 0.314400 0.674435 0.006013
O O5 0.890208 0.344478 0.496692
O O6 0.850282 0.232685 0.410746
O O7 0.879329 0.277765 0.829794
O O8 0.954860 0.330693 0.234575
O O9 0.930406 0.213821 0.225302
O O10 0.000000 0.256168 0.000000
O O11 0.445050 0.943827 0.399974
O O12 0.653706 0.114719 0.927481
O O13 0.309990 0.000000 0.002587
O O14 0.227848 0.077235 0.729110
O O15 0.886055 0.117316 0.401036
O O16 0.137883 0.000000 0.473106
#
# Coordination Sequence:
#
# PCOD9184181 Si02
#       8
#     8   8   8   2   8   8   8   8
#     4  10  19  33  57  88 117 148 189 235 296 356
#     4  10  21  38  58  84 117 152 197 247 294 345
#     4  11  23  40  58  79 111 151 204 251 293 343
#     4  12  20  36  58  76 116 166 210 252 288 316
#     4  10  21  35  54  78 110 154 202 251 289 327
#     4   9  17  32  50  76 115 156 189 227 281 344
#     4  10  22  37  58  86 114 152 192 241 297 352
#     4  10  20  34  56  86 120 150 181 229 294 365
#
# _framework density 20.894950999999999
#
# number of rings (size 3 to 8) (size 9 to 14) (size 15 to 20)
#    0.000    1.931    0.690    3.310    0.000    6.621 
#    0.000    3.103    0.000    0.414    0.000    3.862 
#    0.000    0.000    0.000    0.000    0.000    0.000 
#
# Total GULP energy -161644.335245 kJ/mol
# GULP energy per Si atom -5573.942595 kJ/mol
# Density = 2.084739 g / cm^3
# Si number density = 20.894951 Si / 1000 Ang^3
#
#
#
# Elastic Constant Matrix: (Units=GPa)
#
#
# Indices 1 2 3 4 5 6 
#
# 1 63.6538 51.9944 0.5992 0.0000 -23.4984 0.0000
# 2 51.9944 153.7423 40.9099 0.0000 -22.1564 0.0000
# 3 0.5992 40.9099 67.1395 0.0000 -9.5736 0.0000
# 4 0.0000 0.0000 0.0000 18.0258 0.0000 -1.2907
# 5 -23.4984 -22.1564 -9.5736 0.0000 22.7574 0.0000
# 6 0.0000 0.0000 0.0000 -1.2907 0.0000 19.2342
#
#
#
# Elastic Compliance Matrix: (Units=1/GPa)
#
#
# Indices 1 2 3 4 5 6 
#
# 1 0.035428 -0.010280 0.010358 0.000000 0.030930 0.000000
# 2 -0.010280 0.011577 -0.007307 0.000000 -0.002418 0.000000
# 3 0.010358 -0.007307 0.021026 0.000000 0.012427 0.000000
# 4 0.000000 0.000000 0.000000 0.055744 0.000000 0.003741
# 5 0.030930 -0.002418 0.012427 0.000000 0.078753 0.000000
# 6 0.000000 0.000000 0.000000 0.003741 0.000000 0.052242
#
#
# Mechanical properties :
#
#
# Convention : Reuss Voigt Hill
#
# Bulk Modulus (GPa) = 18.66607 52.39363 35.52985
# Shear Modulus (GPa) = 17.41638 24.73897 21.07767
#
# Velocity S-wave (km/s) = 2.89021 3.44462 3.17952
# Velocity P-wave (km/s) = 4.48223 6.39920 5.52450
#
# Compressibility (1/GPa) = 0.05357313
#
# Stress axis : x y z
#
# Youngs Moduli (GPa) = 28.22632 86.37766 47.55930
#
# Poissons Ratio (x) = 0.88798 -0.49263
# Poissons Ratio (y) = 0.29017 0.34753
# Poissons Ratio (z) = -0.29238 0.63118
#
# Static dielectric constant tensor:
#      x y z
#    x 1.768140 0.000000 0.008070 
#    y 0.000000 1.745920 0.000000 
#    z 0.008070 0.000000 1.767300 
# 
# From -- ./inp_files/29333.got.cif
#   From: 2010.05.17/outbox.cif.g08.bks.cpg/sg12_15_cif.got.tgz:29333.got - 2010.06.03 13:09:07.
