data_PCOD9184924
_publ_section_title
;
Structure prediction by ZEFSAII (Michael W. Deem and Ramdas Pophale) SiO2 
 PCOD9184924
Probable space group: C 2/M
;
_chemical_formula_sum "Si O2"
_cell_formula_units_Z 56
_cell_length_a 19.456728
_cell_length_b 7.631466
_cell_length_c 28.251541
_cell_angle_alpha 90.000000
_cell_angle_beta 142.323956
_cell_angle_gamma 90.000000
_cell_volume 2563.896829
_symmetry_space_group_name_H-M "C 2/M"
_symmetry_group_IT_number 12
_symmetry_cell_setting 'monoclinic'
loop_
_space_group_symop_operation_xyz
x,y,z
-x,y,-z
-x,-y,-z
x,-y,z
1/2+x,1/2+y,z
1/2-x,1/2+y,-z
1/2-x,1/2-y,-z
1/2+x,1/2-y,z
loop_
_atom_site_type_symbol
_atom_site_label
_atom_site_fract_x
_atom_site_fract_y
_atom_site_fract_z
Si Si1 0.486998 0.214846 0.266948
Si Si2 0.601574 0.706246 0.154623
Si Si3 0.667318 0.206542 0.291301
Si Si4 0.849783 0.210397 0.017317
Si Si5 0.893816 0.287886 0.471480
Si Si6 0.727491 0.285424 0.128773
Si Si7 0.119024 0.290242 0.431118
O O1 0.558090 0.275485 0.260176
O O2 0.357883 0.268514 0.199355
O O3 0.552296 0.275995 0.349432
O O4 0.488893 0.000000 0.267072
O O5 0.587781 0.500000 0.137825
O O6 0.674625 0.722798 0.242087
O O7 0.476009 0.776538 0.097399
O O8 0.660652 0.776502 0.139122
O O9 0.776433 0.237577 0.383269
O O10 0.653443 0.000000 0.278688
O O11 0.853337 0.000000 0.018336
O O12 0.750000 0.250000 0.000000
O O13 0.823216 0.269891 0.949268
O O14 0.893629 0.500000 0.472610
O O15 0.913243 0.222193 0.535099
O O16 0.000000 0.227017 0.500000
O O17 0.725962 0.500000 0.128797
O O18 0.103598 0.500000 0.422416
O O19 0.250000 0.250000 0.500000
#
# Coordination Sequence:
#
# PCOD9184924 Si02
#       7
#     8   8   8   8   8   8   8
#     4   9  18  32  53  79 106 142 184 223 270 327
#     4  10  21  36  58  84 113 145 186 232 271 321
#     4  11  22  37  56  80 113 148 184 226 280 338
#     4  10  20  36  59  88 115 147 185 224 274 328
#     4  10  22  37  57  82 109 144 189 235 276 325
#     4   9  18  34  58  83 110 144 184 229 271 322
#     4  10  19  34  55  79 107 142 184 227 274 326
#
# _framework density 21.841752
#
# number of rings (size 3 to 8) (size 9 to 14) (size 15 to 20)
#    0.000    2.143    1.429    1.714    2.000    3.714 
#    0.000    0.714    0.000    3.429    0.000    0.000 
#    0.000    0.000    0.000    0.000    0.000    0.000 
#
# Total GULP energy -156337.928728 kJ/mol
# GULP energy per Si atom -5583.497455 kJ/mol
# Density = 2.179204 g / cm^3
# Si number density = 21.841752 Si / 1000 Ang^3
#
#
#
# Elastic Constant Matrix: (Units=GPa)
#
#
# Indices 1 2 3 4 5 6 
#
# 1 157.0704 9.6725 22.0328 0.0000 -16.5368 0.0000
# 2 9.6725 42.4524 -0.1336 0.0001 0.7641 -0.0002
# 3 22.0328 -0.1336 78.2577 0.0000 -13.1437 0.0000
# 4 0.0000 0.0001 0.0000 12.3611 0.0000 4.0476
# 5 -16.5368 0.7641 -13.1437 0.0000 41.0026 0.0000
# 6 0.0000 -0.0002 0.0000 4.0476 0.0000 9.9592
#
#
#
# Elastic Compliance Matrix: (Units=1/GPa)
#
#
# Indices 1 2 3 4 5 6 
#
# 1 0.006931 -0.001626 -0.001564 0.000000 0.002324 0.000000
# 2 -0.001626 0.023945 0.000331 0.000000 -0.000996 0.000001
# 3 -0.001564 0.000331 0.013858 0.000000 0.003806 0.000000
# 4 0.000000 0.000000 0.000000 0.093318 0.000000 -0.037926
# 5 0.002324 -0.000996 0.003806 0.000000 0.026565 0.000000
# 6 0.000000 0.000001 0.000000 -0.037926 0.000000 0.115823
#
#
# Mechanical properties :
#
#
# Convention : Reuss Voigt Hill
#
# Bulk Modulus (GPa) = 25.62928 37.88043 31.75485
# Shear Modulus (GPa) = 16.71333 29.07849 22.89591
#
# Velocity S-wave (km/s) = 2.76923 3.65269 3.24120
# Velocity P-wave (km/s) = 4.68875 5.93046 5.34578
#
# Compressibility (1/GPa) = 0.03901788
#
# Stress axis : x y z
#
# Youngs Moduli (GPa) = 144.28459 41.76198 72.15914
#
# Poissons Ratio (x) = 0.06790 0.11284
# Poissons Ratio (y) = 0.23459 -0.02391
# Poissons Ratio (z) = 0.22562 -0.01384
#
# Static dielectric constant tensor:
#      x y z
#    x 1.591380 0.000000 0.095120 
#    y 0.000000 1.836850 0.000000 
#    z 0.095120 0.000000 1.708280 
# 
# From -- ./inp_files/363166.got.cif
#   From: 2010.05.17/outbox.cif.g08.bks.cpg/sg12_182_cif.got.tgz:363166.got - 2010.06.03 13:09:07.
