data_PCOD9184535
_publ_section_title
;
Structure prediction by ZEFSAII (Michael W. Deem and Ramdas Pophale) SiO2 
 PCOD9184535
Probable space group: C 2/M
;
_chemical_formula_sum "Si O2"
_cell_formula_units_Z 56
_cell_length_a 14.885391
_cell_length_b 7.531840
_cell_length_c 27.065561
_cell_angle_alpha 90.000000
_cell_angle_beta 66.296906
_cell_angle_gamma 90.000000
_cell_volume 2778.456125
_symmetry_space_group_name_H-M "C 2/M"
_symmetry_group_IT_number 12
_symmetry_cell_setting 'monoclinic'
loop_
_space_group_symop_operation_xyz
x,y,z
-x,y,-z
-x,-y,-z
x,-y,z
1/2+x,1/2+y,z
1/2-x,1/2+y,-z
1/2-x,1/2-y,-z
1/2+x,1/2-y,z
loop_
_atom_site_type_symbol
_atom_site_label
_atom_site_fract_x
_atom_site_fract_y
_atom_site_fract_z
Si Si1 0.964530 0.287840 0.851793
Si Si2 0.267003 0.717118 0.642555
Si Si3 0.172028 0.717318 0.765562
Si Si4 0.746918 0.712165 0.147854
Si Si5 0.545513 0.782775 0.938379
Si Si6 0.528569 0.703780 0.440949
Si Si7 0.327778 0.211250 0.439401
O O1 0.972709 0.500000 0.851802
O O2 0.858799 0.250093 0.851967
O O3 0.059201 0.225813 0.799424
O O4 0.983035 0.225869 0.904041
O O5 0.265260 0.500000 0.645290
O O6 0.218189 0.779140 0.704014
O O7 0.378622 0.777912 0.608692
O O8 0.210605 0.770750 0.605296
O O9 0.172566 0.500000 0.764710
O O10 0.234553 0.773971 0.799901
O O11 0.755020 0.500000 0.147824
O O12 0.841660 0.774112 0.095527
O O13 0.544779 0.000000 0.939347
O O14 0.500000 0.722143 0.000000
O O15 0.500000 0.788122 0.500000
O O16 0.557687 0.500000 0.446253
O O17 0.431332 0.706368 0.430338
O O18 0.250000 0.250000 0.500000
O O19 0.340479 0.000000 0.434784
#
# Coordination Sequence:
#
# PCOD9184535 Si02
#       7
#     8   8   8   8   8   8   8
#     4   9  17  30  50  72  95 126 163 200 238 279
#     4   9  18  33  52  70  95 128 159 193 238 291
#     4   8  16  32  50  68  92 128 165 192 231 292
#     4   9  17  30  50  72  94 124 163 201 237 279
#     4   8  15  29  47  68  97 133 167 193 226 284
#     4  10  19  34  52  72  96 125 158 191 236 291
#     4  11  21  34  52  74  97 125 158 194 238 288
#
# _framework density 20.155079000000001
#
# number of rings (size 3 to 8) (size 9 to 14) (size 15 to 20)
#    0.000    2.857    1.429    2.143    0.000    2.000 
#    0.000    2.857    0.000    4.286    0.000    0.000 
#    0.000    0.000    0.000    0.000    0.000    0.000 
#
# Total GULP energy -156153.928682 kJ/mol
# GULP energy per Si atom -5576.926024 kJ/mol
# Density = 2.010921 g / cm^3
# Si number density = 20.155079 Si / 1000 Ang^3
#
#
#
# Elastic Constant Matrix: (Units=GPa)
#
#
# Indices 1 2 3 4 5 6 
#
# 1 194.9522 -6.1914 126.1716 0.0000 -6.1533 0.0000
# 2 -6.1914 48.4785 7.7632 0.0000 0.2548 -0.0001
# 3 126.1716 7.7632 241.7772 0.0000 0.0525 0.0000
# 4 0.0000 0.0000 0.0000 0.6650 0.0000 1.3923
# 5 -6.1533 0.2548 0.0525 0.0000 16.2722 0.0000
# 6 0.0000 -0.0001 0.0000 1.3923 0.0000 25.9247
#
#
#
# Elastic Compliance Matrix: (Units=1/GPa)
#
#
# Indices 1 2 3 4 5 6 
#
# 1 0.008024 0.001688 -0.004242 0.000000 0.003021 0.000000
# 2 0.001688 0.021091 -0.001558 0.000000 0.000313 0.000000
# 3 -0.004242 -0.001558 0.006400 0.000000 -0.001600 0.000000
# 4 0.000000 0.000000 0.000000 1.694158 0.000000 -0.090985
# 5 0.003021 0.000313 -0.001600 0.000000 0.062597 0.000000
# 6 0.000000 0.000000 0.000000 -0.090985 0.000000 0.043460
#
#
# Mechanical properties :
#
#
# Convention : Reuss Voigt Hill
#
# Bulk Modulus (GPa) = 36.64226 82.29941 59.47083
# Shear Modulus (GPa) = 2.69825 32.40337 17.55081
#
# Velocity S-wave (km/s) = 1.15830 4.01397 2.95411
# Velocity P-wave (km/s) = 4.47309 7.89964 6.41922
#
# Compressibility (1/GPa) = 0.02729089
#
# Stress axis : x y z
#
# Youngs Moduli (GPa) = 124.62704 47.41315 156.24514
#
# Poissons Ratio (x) = -0.08004 0.66282
# Poissons Ratio (y) = -0.21040 0.24347
# Poissons Ratio (z) = 0.52869 0.07388
#
# Static dielectric constant tensor:
#      x y z
#    x 1.677920 0.000000 -0.007660 
#    y 0.000000 1.781050 0.000000 
#    z -0.007660 0.000000 1.701480 
# 
# From -- ./inp_files/337867.got.cif
#   From: 2010.05.17/outbox.cif.g08.bks.cpg/sg12_169_cif.got.tgz:337867.got - 2010.06.03 13:09:07.
