data_PCOD9184249
_publ_section_title
;
Structure prediction by ZEFSAII (Michael W. Deem and Ramdas Pophale) SiO2 
 PCOD9184249
Probable space group: C 2/M
;
_chemical_formula_sum "Si O2"
_cell_formula_units_Z 64
_cell_length_a 20.983776
_cell_length_b 8.676908
_cell_length_c 22.205597
_cell_angle_alpha 90.000000
_cell_angle_beta 61.531260
_cell_angle_gamma 90.000000
_cell_volume 3554.169707
_symmetry_space_group_name_H-M "C 2/M"
_symmetry_group_IT_number 12
_symmetry_cell_setting 'monoclinic'
loop_
_space_group_symop_operation_xyz
x,y,z
-x,y,-z
-x,-y,-z
x,-y,z
1/2+x,1/2+y,z
1/2-x,1/2+y,-z
1/2-x,1/2-y,-z
1/2+x,1/2-y,z
loop_
_atom_site_type_symbol
_atom_site_label
_atom_site_fract_x
_atom_site_fract_y
_atom_site_fract_z
Si Si1 0.663844 0.685946 0.923868
Si Si2 0.026274 0.812782 0.553183
Si Si3 0.079597 0.684345 0.076271
Si Si4 0.827585 0.185105 0.446366
Si Si5 0.595988 0.183300 0.703749
Si Si6 0.047449 0.184533 0.290482
Si Si7 0.331896 0.185446 0.843369
Si Si8 0.918702 0.183970 0.161621
O O1 0.659767 0.500000 0.933139
O O2 0.748133 0.731166 0.884973
O O3 0.626620 0.725462 0.877277
O O4 0.621458 0.763336 0.997768
O O5 0.106962 0.765447 0.538047
O O6 0.000000 0.756033 0.500000
O O7 0.972176 0.770684 0.632121
O O8 0.027210 0.000000 0.550312
O O9 0.070410 0.500000 0.080762
O O10 0.126757 0.727879 0.113632
O O11 0.001232 0.762210 0.115186
O O12 0.750000 0.250000 0.500000
O O13 0.851372 0.243818 0.369860
O O14 0.825754 0.000000 0.446994
O O15 0.515292 0.240537 0.722337
O O16 0.611071 0.239012 0.764346
O O17 0.598735 0.000000 0.698836
O O18 0.124208 0.240129 0.231298
O O19 0.041447 0.000000 0.288433
O O20 0.334999 0.000000 0.835846
O O21 0.916850 0.000000 0.169760
#
# Coordination Sequence:
#
# PCOD9184249 Si02
#       8
#     8   8   8   8   8   8   8   8
#     4  10  23  40  56  79 114 152 185 230 286 337
#     4   8  16  33  56  82 113 144 182 227 270 320
#     4  11  22  36  59  85 109 144 189 235 278 333
#     4  10  20  36  59  86 117 150 187 229 278 333
#     4  11  21  36  59  84 112 148 192 237 279 329
#     4  10  19  33  58  86 110 147 190 229 275 331
#     4  10  21  38  57  80 113 149 186 229 280 331
#     4  11  22  38  59  82 112 149 190 232 282 338
#
# _framework density 18.007019
#
# number of rings (size 3 to 8) (size 9 to 14) (size 15 to 20)
#    0.000    1.875    1.250    4.125    0.000    3.500 
#    2.250    0.000    0.000   12.750    0.000    0.000 
#    0.000    0.000    0.000    0.000    0.000    0.000 
#
# Total GULP energy -178720.400897 kJ/mol
# GULP energy per Si atom -5585.012528 kJ/mol
# Density = 1.796603 g / cm^3
# Si number density = 18.007019 Si / 1000 Ang^3
#
#
#
# Elastic Constant Matrix: (Units=GPa)
#
#
# Indices 1 2 3 4 5 6 
#
# 1 102.5922 35.0201 66.6133 -0.0002 3.7309 -0.0007
# 2 35.0201 50.4237 38.8676 -0.0004 1.9410 -0.0015
# 3 66.6133 38.8676 133.3734 0.0000 2.6814 -0.0002
# 4 -0.0002 -0.0004 0.0000 32.0530 0.0001 -10.3392
# 5 3.7309 1.9410 2.6814 0.0001 31.8002 -0.0001
# 6 -0.0007 -0.0015 -0.0002 -10.3392 -0.0001 11.9336
#
#
#
# Elastic Compliance Matrix: (Units=1/GPa)
#
#
# Indices 1 2 3 4 5 6 
#
# 1 0.015879 -0.006311 -0.006073 0.000000 -0.000966 0.000000
# 2 -0.006311 0.028113 -0.005030 0.000002 -0.000552 0.000005
# 3 -0.006073 -0.005030 0.011996 0.000000 0.000008 -0.000001
# 4 0.000000 0.000002 0.000000 0.043299 0.000000 0.037514
# 5 -0.000966 -0.000552 0.000008 0.000000 0.031593 0.000000
# 6 0.000000 0.000005 -0.000001 0.037514 0.000000 0.116299
#
#
# Mechanical properties :
#
#
# Convention : Reuss Voigt Hill
#
# Bulk Modulus (GPa) = 47.25226 63.04348 55.14787
# Shear Modulus (GPa) = 17.29747 24.88324 21.09036
#
# Velocity S-wave (km/s) = 3.10271 3.72138 3.42604
# Velocity P-wave (km/s) = 6.25570 7.31788 6.80754
#
# Compressibility (1/GPa) = 0.02116301
#
# Stress axis : x y z
#
# Youngs Moduli (GPa) = 62.97431 35.57075 83.35893
#
# Poissons Ratio (x) = 0.22447 0.50620
# Poissons Ratio (y) = 0.39740 0.41928
# Poissons Ratio (z) = 0.38242 0.17891
#
# Static dielectric constant tensor:
#      x y z
#    x 1.602230 0.000000 0.008880 
#    y 0.000000 1.608030 0.000000 
#    z 0.008880 0.000000 1.601490 
# 
# From -- ./inp_files/319840.got.cif
#   From: 2010.05.17/outbox.cif.g08.bks.cpg/sg12_160_cif.got.tgz:319840.got - 2010.06.03 13:09:07.
