data_PCOD9184906
_publ_section_title
;
Structure prediction by ZEFSAII (Michael W. Deem and Ramdas Pophale) SiO2 
 PCOD9184906
Probable space group: C 2/M
;
_chemical_formula_sum "Si O2"
_cell_formula_units_Z 64
_cell_length_a 30.840592
_cell_length_b 7.503474
_cell_length_c 12.143181
_cell_angle_alpha 90.000000
_cell_angle_beta 87.191669
_cell_angle_gamma 90.000000
_cell_volume 2806.697874
_symmetry_space_group_name_H-M "C 2/M"
_symmetry_group_IT_number 12
_symmetry_cell_setting 'monoclinic'
loop_
_space_group_symop_operation_xyz
x,y,z
-x,y,-z
-x,-y,-z
x,-y,z
1/2+x,1/2+y,z
1/2-x,1/2+y,-z
1/2-x,1/2-y,-z
1/2+x,1/2-y,z
loop_
_atom_site_type_symbol
_atom_site_label
_atom_site_fract_x
_atom_site_fract_y
_atom_site_fract_z
Si Si1 0.764339 0.782102 0.303667
Si Si2 0.333005 0.795357 0.688629
Si Si3 0.995490 0.288367 0.625190
Si Si4 0.205858 0.787031 0.939069
Si Si5 0.585066 0.714724 0.736934
Si Si6 0.159331 0.216148 0.557856
Si Si7 0.417541 0.212312 0.786268
Si Si8 0.609357 0.714690 0.977507
O O1 0.715097 0.715569 0.306528
O O2 0.787398 0.727422 0.187482
O O3 0.793619 0.726275 0.402752
O O4 0.763794 0.000000 0.306620
O O5 0.349320 0.790482 0.561292
O O6 0.370637 0.711747 0.757034
O O7 0.327168 0.000000 0.726103
O O8 0.988145 0.500000 0.614393
O O9 0.039526 0.263375 0.688062
O O10 0.000000 0.215724 0.500000
O O11 0.955674 0.216364 0.703642
O O12 0.159312 0.720314 0.988494
O O13 0.202356 0.000000 0.936582
O O14 0.250000 0.750000 0.000000
O O15 0.587497 0.500000 0.740324
O O16 0.623573 0.773164 0.650901
O O17 0.592588 0.778454 0.860675
O O18 0.158559 0.000000 0.550958
O O19 0.415798 0.000000 0.766975
O O20 0.421005 0.237542 0.916217
O O21 0.610506 0.500000 0.973395
#
# Coordination Sequence:
#
# PCOD9184906 Si02
#       8
#     8   8   8   8   8   8   8   8
#     4   9  17  32  53  76 107 146 183 222 276 332
#     4  10  20  34  54  80 110 146 185 228 278 332
#     4  10  22  41  63  86 114 147 185 231 283 339
#     4  10  19  34  55  78 109 151 194 233 276 326
#     4  10  21  38  60  85 113 148 190 234 283 336
#     4  10  19  34  55  79 110 146 183 227 278 332
#     4  10  22  39  58  83 114 146 184 229 281 338
#     4  10  21  38  59  83 114 150 189 234 281 332
#
# _framework density 22.802595
#
# number of rings (size 3 to 8) (size 9 to 14) (size 15 to 20)
#    0.000    2.125    1.250    1.875    0.000    5.250 
#    0.000    3.750    0.000    0.000    0.000    0.000 
#    0.000    0.000    0.000    0.000    0.000    0.000 
#
# Total GULP energy -178814.625761 kJ/mol
# GULP energy per Si atom -5587.957055 kJ/mol
# Density = 2.275070 g / cm^3
# Si number density = 22.802595 Si / 1000 Ang^3
#
#
#
# Elastic Constant Matrix: (Units=GPa)
#
#
# Indices 1 2 3 4 5 6 
#
# 1 99.8049 -1.7642 64.3179 0.0000 -3.4603 0.0000
# 2 -1.7642 61.9986 -8.1092 0.0000 -2.6316 0.0000
# 3 64.3179 -8.1092 125.8334 0.0000 -14.7942 0.0000
# 4 0.0000 0.0000 0.0000 17.2849 0.0000 0.0224
# 5 -3.4603 -2.6316 -14.7942 0.0000 36.0558 0.0000
# 6 0.0000 0.0000 0.0000 0.0224 0.0000 15.7794
#
#
#
# Elastic Compliance Matrix: (Units=1/GPa)
#
#
# Indices 1 2 3 4 5 6 
#
# 1 0.015081 -0.000693 -0.007973 0.000000 -0.001875 0.000000
# 2 -0.000693 0.016398 0.001622 0.000000 0.001796 0.000000
# 3 -0.007973 0.001622 0.012662 0.000000 0.004549 0.000000
# 4 0.000000 0.000000 0.000000 0.057854 0.000000 -0.000082
# 5 -0.001875 0.001796 0.004549 0.000000 0.029552 0.000000
# 6 0.000000 0.000000 0.000000 -0.000082 0.000000 0.063374
#
#
# Mechanical properties :
#
#
# Convention : Reuss Voigt Hill
#
# Bulk Modulus (GPa) = 33.27598 44.05842 38.66720
# Shear Modulus (GPa) = 22.82829 29.37019 26.09924
#
# Velocity S-wave (km/s) = 3.16749 3.59279 3.38682
# Velocity P-wave (km/s) = 5.29170 6.04768 5.68228
#
# Compressibility (1/GPa) = 0.03005171
#
# Stress axis : x y z
#
# Youngs Moduli (GPa) = 66.31042 60.98275 78.97786
#
# Poissons Ratio (x) = 0.04228 0.62972
# Poissons Ratio (y) = 0.04598 -0.12813
# Poissons Ratio (z) = 0.52871 -0.09893
#
# Static dielectric constant tensor:
#      x y z
#    x 1.844420 0.000000 -0.006660 
#    y 0.000000 1.891390 0.000000 
#    z -0.006660 0.000000 1.828390 
# 
# From -- ./inp_files/187620.got.cif
#   From: 2010.05.17/outbox.cif.g08.bks.cpg/sg12_94_cif.got.tgz:187620.got - 2010.06.03 13:09:07.
