data_PCOD9184317
_publ_section_title
;
Structure prediction by ZEFSAII (Michael W. Deem and Ramdas Pophale) SiO2 
 PCOD9184317
Probable space group: C 2/M
;
_chemical_formula_sum "Si O2"
_cell_formula_units_Z 48
_cell_length_a 11.307053
_cell_length_b 15.573157
_cell_length_c 13.273804
_cell_angle_alpha 90.000000
_cell_angle_beta 101.981430
_cell_angle_gamma 90.000000
_cell_volume 2286.418785
_symmetry_space_group_name_H-M "C 2/M"
_symmetry_group_IT_number 12
_symmetry_cell_setting 'monoclinic'
loop_
_space_group_symop_operation_xyz
x,y,z
-x,y,-z
-x,-y,-z
x,-y,z
1/2+x,1/2+y,z
1/2-x,1/2+y,-z
1/2-x,1/2-y,-z
1/2+x,1/2-y,z
loop_
_atom_site_type_symbol
_atom_site_label
_atom_site_fract_x
_atom_site_fract_y
_atom_site_fract_z
Si Si1 0.862670 0.098230 0.429794
Si Si2 0.762720 0.690205 0.099893
Si Si3 0.790556 0.000000 0.953381
Si Si4 0.075959 0.257702 0.684111
Si Si5 0.682505 0.903735 0.584384
Si Si6 0.601553 0.656379 0.246248
Si Si7 0.475948 0.500000 0.156176
O O1 0.854779 0.176597 0.351529
O O2 0.759847 0.110251 0.496840
O O3 0.000000 0.103083 0.500000
O O4 0.849833 0.000000 0.388969
O O5 0.777995 0.589607 0.074584
O O6 0.864683 0.718969 0.197575
O O7 0.639552 0.692675 0.144907
O O8 0.750000 0.750000 0.000000
O O9 0.906369 0.000000 0.897662
O O10 0.853565 0.000000 0.073080
O O11 0.087976 0.333748 0.605992
O O12 0.940257 0.229090 0.684571
O O13 0.785265 0.894629 0.689253
O O14 0.633747 0.000000 0.575146
O O15 0.494503 0.587496 0.219401
#
# Coordination Sequence:
#
# PCOD9184317 Si02
#       7
#     8   8   4   8   8   8   4
#     4  10  20  36  60  92 121 148 193 250 302 352
#     4  10  22  38  55  85 120 154 196 248 290 352
#     4   9  18  34  54  81 111 148 197 239 290 342
#     4  11  22  33  60  89 118 155 194 244 297 349
#     4  10  20  37  60  87 123 155 194 238 291 364
#     4  10  19  33  58  90 115 153 196 243 291 346
#     4   9  16  28  56  83 112 142 186 244 294 333
#
# _framework density 20.993531000000001
#
# number of rings (size 3 to 8) (size 9 to 14) (size 15 to 20)
#    0.000    2.000    2.500    1.500    4.667    2.000 
#    1.500    0.000    1.833    2.500    0.000    0.000 
#    0.000    0.000    0.000    0.000    0.000    0.000 
#
# Total GULP energy -133939.695154 kJ/mol
# GULP energy per Si atom -5580.820631 kJ/mol
# Density = 2.094575 g / cm^3
# Si number density = 20.993531 Si / 1000 Ang^3
#
#
#
# Elastic Constant Matrix: (Units=GPa)
#
#
# Indices 1 2 3 4 5 6 
#
# 1 35.9089 36.2337 19.0613 0.0000 -11.0891 0.0000
# 2 36.2337 141.2779 54.1737 0.0000 -16.0951 0.0000
# 3 19.0613 54.1737 81.2440 0.0000 -7.5237 0.0000
# 4 0.0000 0.0000 0.0000 31.9744 0.0000 -10.3110
# 5 -11.0891 -16.0951 -7.5237 0.0000 43.5473 0.0000
# 6 0.0000 0.0000 0.0000 -10.3110 0.0000 23.4932
#
#
#
# Elastic Compliance Matrix: (Units=1/GPa)
#
#
# Indices 1 2 3 4 5 6 
#
# 1 0.039920 -0.008240 -0.003265 0.000000 0.006556 0.000000
# 2 -0.008240 0.011477 -0.005611 0.000000 0.001174 0.000000
# 3 -0.003265 -0.005611 0.016816 0.000000 0.000000 0.000000
# 4 0.000000 0.000000 0.000000 0.036431 0.000000 0.015989
# 5 0.006556 0.001174 0.000000 0.000000 0.025067 0.000000
# 6 0.000000 0.000000 0.000000 0.015989 0.000000 0.049583
#
#
# Mechanical properties :
#
#
# Convention : Reuss Voigt Hill
#
# Bulk Modulus (GPa) = 29.42701 53.04093 41.23397
# Shear Modulus (GPa) = 22.23690 29.73378 25.98534
#
# Velocity S-wave (km/s) = 3.25811 3.76750 3.52202
# Velocity P-wave (km/s) = 5.31049 6.65174 6.01859
#
# Compressibility (1/GPa) = 0.03398239
#
# Stress axis : x y z
#
# Youngs Moduli (GPa) = 25.05021 87.13278 59.46759
#
# Poissons Ratio (x) = 0.71794 0.19414
# Poissons Ratio (y) = 0.20640 0.33366
# Poissons Ratio (z) = 0.08178 0.48889
#
# Static dielectric constant tensor:
#      x y z
#    x 1.777260 0.000000 -0.013240 
#    y 0.000000 1.806380 0.000000 
#    z -0.013240 0.000000 1.791050 
# 
# From -- ./inp_files/212797.got.cif
#   From: 2010.05.17/outbox.cif.g08.bks.cpg/sg12_107_cif.got.tgz:212797.got - 2010.06.03 13:09:07.
