data_PCOD9184537
_publ_section_title
;
Structure prediction by ZEFSAII (Michael W. Deem and Ramdas Pophale) SiO2 
 PCOD9184537
Probable space group: C 2/M
;
_chemical_formula_sum "Si O2"
_cell_formula_units_Z 56
_cell_length_a 14.940989
_cell_length_b 7.695563
_cell_length_c 30.814963
_cell_angle_alpha 90.000000
_cell_angle_beta 126.703143
_cell_angle_gamma 90.000000
_cell_volume 2840.641944
_symmetry_space_group_name_H-M "C 2/M"
_symmetry_group_IT_number 12
_symmetry_cell_setting 'monoclinic'
loop_
_space_group_symop_operation_xyz
x,y,z
-x,y,-z
-x,-y,-z
x,-y,z
1/2+x,1/2+y,z
1/2-x,1/2+y,-z
1/2-x,1/2-y,-z
1/2+x,1/2-y,z
loop_
_atom_site_type_symbol
_atom_site_label
_atom_site_fract_x
_atom_site_fract_y
_atom_site_fract_z
Si Si1 0.056965 0.201619 0.559412
Si Si2 0.422278 0.791560 0.852446
Si Si3 0.328064 0.791353 0.062979
Si Si4 0.303992 0.212648 0.642579
Si Si5 0.142381 0.292662 0.439471
Si Si6 0.287581 0.208435 0.147889
Si Si7 0.460920 0.212623 0.765973
O O1 0.175808 0.273362 0.608570
O O2 0.000000 0.282169 0.500000
O O3 0.965866 0.211219 0.570238
O O4 0.080419 0.000000 0.554787
O O5 0.543602 0.728668 0.904580
O O6 0.317250 0.749857 0.852186
O O7 0.415562 0.732683 0.800239
O O8 0.427835 0.000000 0.852601
O O9 0.280613 0.728636 0.095819
O O10 0.333245 0.000000 0.067175
O O11 0.250000 0.750000 0.000000
O O12 0.342153 0.264167 0.605521
O O13 0.383708 0.273500 0.704248
O O14 0.306488 0.000000 0.645175
O O15 0.129266 0.500000 0.435944
O O16 0.250000 0.250000 0.500000
O O17 0.409397 0.267620 0.200212
O O18 0.292962 0.000000 0.147764
O O19 0.460252 0.000000 0.765335
#
# Coordination Sequence:
#
# PCOD9184537 Si02
#       7
#     8   8   8   8   8   8   8
#     4  10  19  34  52  73 100 131 165 201 247 305
#     4   9  18  33  53  75 100 131 169 209 250 294
#     4   9  19  34  50  73 105 138 170 204 244 295
#     4   9  18  33  53  73  99 134 167 201 252 310
#     4  11  21  34  52  75 100 130 166 204 249 302
#     4   9  18  33  53  75 101 133 169 208 251 295
#     4   8  16  33  53  72  97 133 170 204 248 304
#
# _framework density 19.713854999999999
#
# number of rings (size 3 to 8) (size 9 to 14) (size 15 to 20)
#    0.000    2.714    1.429    2.143    0.000    3.143 
#    0.000    5.000    0.000    3.429    0.000    0.000 
#    0.000    0.000    0.000    0.000    0.000    0.000 
#
# Total GULP energy -156136.516973 kJ/mol
# GULP energy per Si atom -5576.304178 kJ/mol
# Density = 1.966899 g / cm^3
# Si number density = 19.713855 Si / 1000 Ang^3
#
#
#
# Elastic Constant Matrix: (Units=GPa)
#
#
# Indices 1 2 3 4 5 6 
#
# 1 193.0190 -3.6147 123.3835 0.0000 5.2665 0.0000
# 2 -3.6147 30.9941 7.7473 0.0000 0.4219 0.0000
# 3 123.3835 7.7473 228.9994 0.0000 2.8019 0.0000
# 4 0.0000 0.0000 0.0000 10.5897 0.0000 -2.5283
# 5 5.2665 0.4219 2.8019 0.0000 16.0485 0.0000
# 6 0.0000 0.0000 0.0000 -2.5283 0.0000 27.5781
#
#
#
# Elastic Compliance Matrix: (Units=1/GPa)
#
#
# Indices 1 2 3 4 5 6 
#
# 1 0.008088 0.002070 -0.004404 0.000000 -0.001940 0.000000
# 2 0.002070 0.033076 -0.002220 0.000000 -0.001161 0.000000
# 3 -0.004404 -0.002220 0.006811 0.000000 0.000314 0.000000
# 4 0.000000 0.000000 0.000000 0.096545 0.000000 0.008851
# 5 -0.001940 -0.001161 0.000314 0.000000 0.062923 0.000000
# 6 0.000000 0.000000 0.000000 0.008851 0.000000 0.037072
#
#
# Mechanical properties :
#
#
# Convention : Reuss Voigt Hill
#
# Bulk Modulus (GPa) = 25.72850 78.67162 52.20006
# Shear Modulus (GPa) = 18.75618 32.54301 25.64960
#
# Velocity S-wave (km/s) = 3.08786 4.06737 3.61098
# Velocity P-wave (km/s) = 5.07863 7.87727 6.62736
#
# Compressibility (1/GPa) = 0.03886740
#
# Stress axis : x y z
#
# Youngs Moduli (GPa) = 123.64575 30.23297 146.82401
#
# Poissons Ratio (x) = -0.06260 0.64659
# Poissons Ratio (y) = -0.25600 0.32600
# Poissons Ratio (z) = 0.54452 0.06713
#
# Static dielectric constant tensor:
#      x y z
#    x 1.665160 0.000000 0.006110 
#    y 0.000000 1.747260 0.000000 
#    z 0.006110 0.000000 1.685140 
# 
# From -- ./inp_files/360038.got.cif
#   From: 2010.05.17/outbox.cif.g08.bks.cpg/sg12_181_cif.got.tgz:360038.got - 2010.06.03 13:09:07.
