data_PCOD9184855
_publ_section_title
;
Structure prediction by ZEFSAII (Michael W. Deem and Ramdas Pophale) SiO2 
 PCOD9184855
Probable space group: C 2/M
;
_chemical_formula_sum "Si O2"
_cell_formula_units_Z 56
_cell_length_a 17.484784
_cell_length_b 14.373799
_cell_length_c 12.435585
_cell_angle_alpha 90.000000
_cell_angle_beta 105.025421
_cell_angle_gamma 90.000000
_cell_volume 3018.492917
_symmetry_space_group_name_H-M "C 2/M"
_symmetry_group_IT_number 12
_symmetry_cell_setting 'monoclinic'
loop_
_space_group_symop_operation_xyz
x,y,z
-x,y,-z
-x,-y,-z
x,-y,z
1/2+x,1/2+y,z
1/2-x,1/2+y,-z
1/2-x,1/2-y,-z
1/2+x,1/2-y,z
loop_
_atom_site_type_symbol
_atom_site_label
_atom_site_fract_x
_atom_site_fract_y
_atom_site_fract_z
Si Si1 0.415764 0.309198 0.424457
Si Si2 0.600701 0.612223 0.217585
Si Si3 0.706487 0.654296 0.456848
Si Si4 0.364520 0.900190 0.410357
Si Si5 0.190845 0.110787 0.029260
Si Si6 0.867590 0.394724 0.154264
Si Si7 0.069261 0.798122 0.824501
O O1 0.500000 0.341055 0.500000
O O2 0.345388 0.365941 0.456334
O O3 0.405301 0.198786 0.451707
O O4 0.415314 0.315287 0.296152
O O5 0.597803 0.500000 0.229887
O O6 0.643575 0.656074 0.336823
O O7 0.651929 0.633631 0.130437
O O8 0.512864 0.653267 0.174381
O O9 0.750000 0.750000 0.500000
O O10 0.780433 0.596476 0.440090
O O11 0.350927 0.895964 0.276729
O O12 0.405366 0.000000 0.447739
O O13 0.284409 0.130101 0.067543
O O14 0.182223 0.000000 0.012009
O O15 0.141017 0.160972 0.919727
O O16 0.891087 0.500000 0.132737
O O17 0.930281 0.313261 0.157444
#
# Coordination Sequence:
#
# PCOD9184855 Si02
#       7
#     8   8   8   8   8   8   8
#     4  10  20  34  50  77 109 140 173 215 274 332
#     4  11  21  36  59  83 110 144 183 228 275 320
#     4  10  19  34  55  76 107 143 178 215 259 326
#     4   9  17  32  55  77  99 135 180 224 261 307
#     4  10  20  36  58  84 107 137 187 234 269 319
#     4   9  18  34  57  82 108 140 181 226 273 321
#     4  11  21  34  54  84 115 143 177 225 282 327
#
# _framework density 18.552306000000002
#
# number of rings (size 3 to 8) (size 9 to 14) (size 15 to 20)
#    0.000    2.000    2.857    1.714    0.000    1.429 
#    0.000    3.571    0.000    1.714    0.000    0.000 
#    0.000    0.000    0.000    0.000    0.000    0.000 
#
# Total GULP energy -156039.995522 kJ/mol
# GULP energy per Si atom -5572.856983 kJ/mol
# Density = 1.851008 g / cm^3
# Si number density = 18.552306 Si / 1000 Ang^3
#
#
#
# Elastic Constant Matrix: (Units=GPa)
#
#
# Indices 1 2 3 4 5 6 
#
# 1 42.3872 6.9034 3.4967 0.0000 12.5205 0.0000
# 2 6.9034 45.8762 26.0326 0.0000 11.0770 0.0000
# 3 3.4967 26.0326 63.2220 0.0000 11.3093 0.0000
# 4 0.0000 0.0000 0.0000 13.7482 0.0000 -0.1636
# 5 12.5205 11.0770 11.3093 0.0000 16.6372 0.0000
# 6 0.0000 0.0000 0.0000 -0.1636 0.0000 16.0558
#
#
#
# Elastic Compliance Matrix: (Units=1/GPa)
#
#
# Indices 1 2 3 4 5 6 
#
# 1 0.030760 -0.000226 0.002853 0.000000 -0.024937 0.000000
# 2 -0.000226 0.030927 -0.010325 0.000000 -0.013402 0.000000
# 3 0.002853 -0.010325 0.021704 0.000000 -0.010027 0.000000
# 4 0.000000 0.000000 0.000000 0.072745 0.000000 0.000741
# 5 -0.024937 -0.013402 -0.010027 0.000000 0.094612 0.000000
# 6 0.000000 0.000000 0.000000 0.000741 0.000000 0.062290
#
#
# Mechanical properties :
#
#
# Convention : Reuss Voigt Hill
#
# Bulk Modulus (GPa) = 14.70712 24.92787 19.81750
# Shear Modulus (GPa) = 14.24098 16.95842 15.59970
#
# Velocity S-wave (km/s) = 2.77359 3.02667 2.90289
# Velocity P-wave (km/s) = 4.26634 5.06754 4.68410
#
# Compressibility (1/GPa) = 0.06799426
#
# Stress axis : x y z
#
# Youngs Moduli (GPa) = 32.51025 32.33453 46.07369
#
# Poissons Ratio (x) = 0.00732 -0.13144
# Poissons Ratio (y) = 0.00736 0.47569
# Poissons Ratio (z) = -0.09274 0.33384
#
# Static dielectric constant tensor:
#      x y z
#    x 1.656340 0.000000 -0.007630 
#    y 0.000000 1.676780 0.000000 
#    z -0.007630 0.000000 1.614000 
# 
# From -- ./inp_files/156167.got.cif
#   From: 2010.05.17/outbox.cif.g08.bks.cpg/sg12_79_cif.got.tgz:156167.got - 2010.06.03 13:09:07.
