data_PCOD9184527
_publ_section_title
;
Structure prediction by ZEFSAII (Michael W. Deem and Ramdas Pophale) SiO2 
 PCOD9184527
Probable space group: C 2/M
;
_chemical_formula_sum "Si O2"
_cell_formula_units_Z 60
_cell_length_a 30.878485
_cell_length_b 20.427701
_cell_length_c 5.336988
_cell_angle_alpha 90.000000
_cell_angle_beta 67.486666
_cell_angle_gamma 90.000000
_cell_volume 3109.891022
_symmetry_space_group_name_H-M "C 2/M"
_symmetry_group_IT_number 12
_symmetry_cell_setting 'monoclinic'
loop_
_space_group_symop_operation_xyz
x,y,z
-x,y,-z
-x,-y,-z
x,-y,z
1/2+x,1/2+y,z
1/2-x,1/2+y,-z
1/2-x,1/2-y,-z
1/2+x,1/2-y,z
loop_
_atom_site_type_symbol
_atom_site_label
_atom_site_fract_x
_atom_site_fract_y
_atom_site_fract_z
Si Si1 0.116900 0.578975 0.929880
Si Si2 0.000000 0.891407 0.000000
Si Si3 0.468737 0.829506 0.818508
Si Si4 0.327585 0.079395 0.690170
Si Si5 0.919491 0.071700 0.497163
Si Si6 0.448703 0.309878 0.747060
Si Si7 0.327589 0.423176 0.391280
Si Si8 0.779764 0.080200 0.999484
O O1 0.113431 0.500000 0.932768
O O2 0.065908 0.611087 0.048305
O O3 0.144660 0.598040 0.120456
O O4 0.145572 0.600553 0.620023
O O5 0.027700 0.930620 0.728730
O O6 0.960231 0.844553 0.980925
O O7 0.500000 0.842160 0.500000
O O8 0.437230 0.765309 0.822142
O O9 0.500000 0.816442 0.000000
O O10 0.273444 0.099887 0.824252
O O11 0.326898 0.000000 0.685344
O O12 0.918074 0.137402 0.665287
O O13 0.881129 0.078394 0.363263
O O14 0.909756 0.000000 0.643016
O O15 0.500000 0.306588 0.500000
O O16 0.315174 0.500000 0.403675
O O17 0.313494 0.397179 0.150845
O O18 0.297549 0.395764 0.690317
O O19 0.781165 0.000000 0.984485
#
# Coordination Sequence:
#
# PCOD9184527 Si02
#       8
#     8   4   8   8   8   8   8   8
#     4  10  20  33  53  85 113 137 175 219 264 313
#     4  10  19  34  52  70 101 138 184 218 267 316
#     4  11  22  38  58  77 108 147 181 218 257 309
#     4   9  17  31  51  78 111 139 171 217 264 315
#     4  10  21  33  50  77 108 138 177 228 273 314
#     4   9  20  36  52  71  99 140 187 222 254 314
#     4   9  18  29  45  73 104 135 172 212 262 319
#     4   9  16  29  48  71 104 141 169 207 266 316
#
# _framework density 19.293278000000001
#
# number of rings (size 3 to 8) (size 9 to 14) (size 15 to 20)
#    0.000    2.400    0.667    1.800    1.867    6.667 
#    0.000    0.000    0.000    0.000    0.000    5.600 
#    0.000    0.000    0.000    0.000    0.000    0.000 
#
# Total GULP energy -167103.936520 kJ/mol
# GULP energy per Si atom -5570.131217 kJ/mol
# Density = 1.924937 g / cm^3
# Si number density = 19.293278 Si / 1000 Ang^3
#
#
#
# Elastic Constant Matrix: (Units=GPa)
#
#
# Indices 1 2 3 4 5 6 
#
# 1 65.7961 19.3780 23.7731 0.0000 7.4120 0.0000
# 2 19.3780 40.5918 16.7608 0.0000 -1.7236 0.0000
# 3 23.7731 16.7608 103.0527 0.0000 0.6667 0.0000
# 4 0.0000 0.0000 0.0000 2.3123 0.0000 6.0401
# 5 7.4120 -1.7236 0.6667 0.0000 31.7650 0.0000
# 6 0.0000 0.0000 0.0000 6.0401 0.0000 4.3164
#
#
#
# Elastic Compliance Matrix: (Units=1/GPa)
#
#
# Indices 1 2 3 4 5 6 
#
# 1 0.019256 -0.008124 -0.003089 0.000000 -0.004869 0.000000
# 2 -0.008124 0.029910 -0.003014 0.000000 0.003582 0.000000
# 3 -0.003089 -0.003014 0.010904 0.000000 0.000328 0.000000
# 4 0.000000 0.000000 0.000000 -0.162870 0.000000 0.227910
# 5 -0.004869 0.003582 0.000328 0.000000 0.032805 0.000000
# 6 0.000000 0.000000 0.000000 0.227910 0.000000 -0.087251
#
#
# Mechanical properties :
#
#
# Convention : Reuss Voigt Hill
#
# Bulk Modulus (GPa) = 31.62867 36.58494 34.10681
# Shear Modulus (GPa) = -42.28233 17.64732 -12.31750
#
# Velocity S-wave (km/s) = -4.68649 3.02766 -2.52947
# Velocity P-wave (km/s) = 3.58539 5.58802 3.03076
#
# Compressibility (1/GPa) = 0.03161689
#
# Stress axis : x y z
#
# Youngs Moduli (GPa) = 51.93258 33.43348 91.70528
#
# Poissons Ratio (x) = 0.27160 0.28331
# Poissons Ratio (y) = 0.42188 0.27638
# Poissons Ratio (z) = 0.16044 0.10076
#
# Static dielectric constant tensor:
#      x y z
#    x 1.680890 0.000000 0.017770 
#    y 0.000000 1.672040 0.000000 
#    z 0.017770 0.000000 1.737840 
# 
# From -- ./inp_files/29605.got.cif
#   From: 2010.05.17/outbox.cif.g08.bks.cpg/sg12_15_cif.got.tgz:29605.got - 2010.06.03 13:09:07.
