data_PCOD9184143
_publ_section_title
;
Structure prediction by ZEFSAII (Michael W. Deem and Ramdas Pophale) SiO2 
 PCOD9184143
Probable space group: C 2/M
;
_chemical_formula_sum "Si O2"
_cell_formula_units_Z 48
_cell_length_a 19.558121
_cell_length_b 14.742306
_cell_length_c 10.359837
_cell_angle_alpha 90.000000
_cell_angle_beta 113.954138
_cell_angle_gamma 90.000000
_cell_volume 2729.796309
_symmetry_space_group_name_H-M "C 2/M"
_symmetry_group_IT_number 12
_symmetry_cell_setting 'monoclinic'
loop_
_space_group_symop_operation_xyz
x,y,z
-x,y,-z
-x,-y,-z
x,-y,z
1/2+x,1/2+y,z
1/2-x,1/2+y,-z
1/2-x,1/2-y,-z
1/2+x,1/2-y,z
loop_
_atom_site_type_symbol
_atom_site_label
_atom_site_fract_x
_atom_site_fract_y
_atom_site_fract_z
Si Si1 0.082921 0.000000 0.626279
Si Si2 0.238888 0.000000 0.282820
Si Si3 0.536807 0.298986 0.167363
Si Si4 0.929709 0.000000 0.846754
Si Si5 0.311590 0.814348 0.366327
Si Si6 0.674998 0.818043 0.326843
Si Si7 0.939856 0.800851 0.336163
Si Si8 0.738250 0.500000 0.595875
O O1 0.086542 0.095073 0.703174
O O2 0.153744 0.000000 0.584279
O O3 0.000000 0.000000 0.500000
O O4 0.154817 0.000000 0.162036
O O5 0.284627 0.090682 0.287044
O O6 0.231522 0.000000 0.434580
O O7 0.564831 0.402506 0.222062
O O8 0.601574 0.224293 0.208274
O O9 0.480194 0.271625 0.236581
O O10 0.500000 0.305459 0.000000
O O11 0.000000 0.000000 0.000000
O O12 0.344304 0.826573 0.535630
O O13 0.238258 0.755631 0.341948
O O14 0.370374 0.760509 0.325120
O O15 0.714350 0.912775 0.323597
O O16 0.000000 0.799123 0.500000
#
# Coordination Sequence:
#
# PCOD9184143 Si02
#       8
#     4   4   8   4   8   8   8   4
#     4  10  21  28  53  89 118 141 172 240 296 327
#     4  10  20  32  58  85 115 149 190 229 284 340
#     4  11  23  39  59  82 117 157 189 227 287 348
#     4  10  21  35  57  83 116 152 188 225 281 355
#     4  10  19  33  57  86 116 146 185 238 284 333
#     4  10  19  35  56  84 117 149 188 230 282 340
#     4  11  21  35  56  87 118 143 188 241 285 328
#     4  10  20  33  56  90 114 145 190 236 284 333
#
# _framework density 17.583729999999999
#
# number of rings (size 3 to 8) (size 9 to 14) (size 15 to 20)
#    0.000    1.667    5.000    0.500    4.667    0.000 
#    0.000    2.500    0.000    0.000    0.000    0.000 
#    0.000    0.000    0.000    0.000    0.000    0.000 
#
# Total GULP energy -133723.938857 kJ/mol
# GULP energy per Si atom -5571.830786 kJ/mol
# Density = 1.754371 g / cm^3
# Si number density = 17.583730 Si / 1000 Ang^3
#
#
#
# Elastic Constant Matrix: (Units=GPa)
#
#
# Indices 1 2 3 4 5 6 
#
# 1 117.2776 47.6209 31.5507 0.0000 4.0944 0.0000
# 2 47.6209 116.8361 20.9483 0.0000 18.4357 0.0000
# 3 31.5507 20.9483 48.1163 0.0000 4.9734 0.0000
# 4 0.0000 0.0000 0.0000 8.9798 0.0000 8.7771
# 5 4.0944 18.4357 4.9734 0.0000 22.0165 0.0000
# 6 0.0000 0.0000 0.0000 8.7771 0.0000 -101.0271
#
#
#
# Elastic Compliance Matrix: (Units=1/GPa)
#
#
# Indices 1 2 3 4 5 6 
#
# 1 0.011769 -0.004102 -0.006205 0.000000 0.002648 0.000000
# 2 -0.004102 0.011912 -0.001581 0.000000 -0.008854 0.000000
# 3 -0.006205 -0.001581 0.025888 0.000000 -0.003370 0.000000
# 4 0.000000 0.000000 0.000000 0.102645 0.000000 0.008918
# 5 0.002648 -0.008854 -0.003370 0.000000 0.053103 0.000000
# 6 0.000000 0.000000 0.000000 0.008918 0.000000 -0.009124
#
#
# Mechanical properties :
#
#
# Convention : Reuss Voigt Hill
#
# Bulk Modulus (GPa) = 38.77028 53.60775 46.18901
# Shear Modulus (GPa) = 21.87533 -1.86549 10.00492
#
# Velocity S-wave (km/s) = 3.53096 -1.03113 2.38793
# Velocity P-wave (km/s) = 6.22257 5.39775 5.82478
#
# Compressibility (1/GPa) = 0.02579296
#
# Stress axis : x y z
#
# Youngs Moduli (GPa) = 84.96581 83.95167 38.62746
#
# Poissons Ratio (x) = 0.34440 0.23969
# Poissons Ratio (y) = 0.34856 0.06106
# Poissons Ratio (z) = 0.52722 0.13271
#
# Static dielectric constant tensor:
#      x y z
#    x 1.588150 0.000000 0.005890 
#    y 0.000000 1.633770 0.000000 
#    z 0.005890 0.000000 1.619900 
# 
# From -- ./inp_files/155293.got.cif
#   From: 2010.05.17/outbox.cif.g08.bks.cpg/sg12_78_cif.got.tgz:155293.got - 2010.06.03 13:09:07.
