data_PCOD9184699
_publ_section_title
;
Structure prediction by ZEFSAII (Michael W. Deem and Ramdas Pophale) SiO2 
 PCOD9184699
Probable space group: C 2/M
;
_chemical_formula_sum "Si O2"
_cell_formula_units_Z 64
_cell_length_a 17.331796
_cell_length_b 12.370648
_cell_length_c 30.685199
_cell_angle_alpha 90.000000
_cell_angle_beta 34.229876
_cell_angle_gamma 90.000000
_cell_volume 3700.826608
_symmetry_space_group_name_H-M "C 2/M"
_symmetry_group_IT_number 12
_symmetry_cell_setting 'monoclinic'
loop_
_space_group_symop_operation_xyz
x,y,z
-x,y,-z
-x,-y,-z
x,-y,z
1/2+x,1/2+y,z
1/2-x,1/2+y,-z
1/2-x,1/2-y,-z
1/2+x,1/2-y,z
loop_
_atom_site_type_symbol
_atom_site_label
_atom_site_fract_x
_atom_site_fract_y
_atom_site_fract_z
Si Si1 0.081135 0.374158 0.065646
Si Si2 0.046589 0.871589 0.779343
Si Si3 0.774673 0.733345 0.920668
Si Si4 0.903114 0.750120 0.332532
Si Si5 0.012987 0.129029 0.365706
Si Si6 0.313313 0.128370 0.810917
Si Si7 0.301625 0.241105 0.217164
Si Si8 0.381440 0.370897 0.520975
O O1 0.092068 0.500000 0.049642
O O2 0.171328 0.346579 0.066580
O O3 0.925606 0.340230 0.148440
O O4 0.142306 0.296511 0.999818
O O5 0.093123 0.830650 0.710227
O O6 0.144692 0.819280 0.769844
O O7 0.895670 0.821573 0.857969
O O8 0.044386 0.000000 0.783188
O O9 0.758710 0.671005 0.882853
O O10 0.758585 0.690727 0.403792
O O11 0.937181 0.814777 0.360672
O O12 0.027253 0.665215 0.266771
O O13 0.166524 0.176660 0.294821
O O14 0.936093 0.152185 0.446898
O O15 0.018052 0.000000 0.357388
O O16 0.236575 0.189168 0.807511
O O17 0.300726 0.000000 0.813335
O O18 0.500000 0.341691 0.500000
O O19 0.358457 0.500000 0.535230
#
# Coordination Sequence:
#
# PCOD9184699 Si02
#       8
#     8   8   8   8   8   8   8   8
#     4  10  19  35  55  76 105 135 171 215 257 303
#     4  10  19  34  54  76 105 137 171 211 258 307
#     4   9  20  34  53  79 101 134 176 212 255 306
#     4  10  20  34  55  79 103 136 174 210 252 307
#     4  10  20  35  54  77 106 137 171 212 258 304
#     4  10  20  36  54  75 105 136 172 214 255 300
#     4  10  21  34  53  79 104 136 173 210 256 309
#     4  10  20  34  54  79 106 136 170 211 257 302
#
# _framework density 17.293434000000001
#
# number of rings (size 3 to 8) (size 9 to 14) (size 15 to 20)
#    0.000    2.125    0.000    3.375    0.000    0.500 
#    0.000    8.750    0.000    9.000    0.000    0.000 
#    0.000    0.000    0.000    0.000    0.000    0.000 
#
# Total GULP energy -178675.537910 kJ/mol
# GULP energy per Si atom -5583.610560 kJ/mol
# Density = 1.725407 g / cm^3
# Si number density = 17.293434 Si / 1000 Ang^3
#
#
#
# Elastic Constant Matrix: (Units=GPa)
#
#
# Indices 1 2 3 4 5 6 
#
# 1 51.7084 -0.2743 4.6607 0.0000 5.4323 0.0000
# 2 -0.2743 61.1620 3.6873 0.0000 -0.5391 0.0000
# 3 4.6607 3.6873 51.3617 0.0000 1.5914 0.0000
# 4 0.0000 0.0000 0.0000 16.5381 0.0000 3.2328
# 5 5.4323 -0.5391 1.5914 0.0000 29.1892 0.0000
# 6 0.0000 0.0000 0.0000 3.2328 0.0000 15.8236
#
#
#
# Elastic Compliance Matrix: (Units=1/GPa)
#
#
# Indices 1 2 3 4 5 6 
#
# 1 0.019872 0.000160 -0.001703 0.000000 -0.003602 0.000000
# 2 0.000160 0.016426 -0.001204 0.000000 0.000339 0.000000
# 3 -0.001703 -0.001204 0.019735 0.000000 -0.000781 0.000000
# 4 0.000000 0.000000 0.000000 0.062982 0.000000 -0.012867
# 5 -0.003602 0.000339 -0.000781 0.000000 0.034978 0.000000
# 6 0.000000 0.000000 0.000000 -0.012867 0.000000 0.065826
#
#
# Mechanical properties :
#
#
# Convention : Reuss Voigt Hill
#
# Bulk Modulus (GPa) = 19.78687 20.04218 19.91452
# Shear Modulus (GPa) = 20.64747 22.72072 21.68410
#
# Velocity S-wave (km/s) = 3.45910 3.62862 3.54488
# Velocity P-wave (km/s) = 5.23646 5.40097 5.31935
#
# Compressibility (1/GPa) = 0.05053857
#
# Stress axis : x y z
#
# Youngs Moduli (GPa) = 50.32199 60.87781 50.67142
#
# Poissons Ratio (x) = -0.00974 0.08630
# Poissons Ratio (y) = -0.00805 0.06102
# Poissons Ratio (z) = 0.08570 0.07332
#
# Static dielectric constant tensor:
#      x y z
#    x 1.571440 0.000000 0.007090 
#    y 0.000000 1.543800 0.000000 
#    z 0.007090 0.000000 1.568580 
# 
# From -- ./inp_files/296459.got.cif
#   From: 2010.05.17/outbox.cif.g08.bks.cpg/sg12_149_cif.got.tgz:296459.got - 2010.06.03 13:09:07.
