data_PCOD9184340
_publ_section_title
;
Structure prediction by ZEFSAII (Michael W. Deem and Ramdas Pophale) SiO2 
 PCOD9184340
Probable space group: C 2/M
;
_chemical_formula_sum "Si O2"
_cell_formula_units_Z 56
_cell_length_a 9.052095
_cell_length_b 14.802544
_cell_length_c 23.942887
_cell_angle_alpha 90.000000
_cell_angle_beta 59.639351
_cell_angle_gamma 90.000000
_cell_volume 2768.234174
_symmetry_space_group_name_H-M "C 2/M"
_symmetry_group_IT_number 12
_symmetry_cell_setting 'monoclinic'
loop_
_space_group_symop_operation_xyz
x,y,z
-x,y,-z
-x,-y,-z
x,-y,z
1/2+x,1/2+y,z
1/2-x,1/2+y,-z
1/2-x,1/2-y,-z
1/2+x,1/2-y,z
loop_
_atom_site_type_symbol
_atom_site_label
_atom_site_fract_x
_atom_site_fract_y
_atom_site_fract_z
Si Si1 0.805754 0.345112 0.014310
Si Si2 0.808489 0.103197 0.844492
Si Si3 0.704297 0.246378 0.312615
Si Si4 0.671846 0.295083 0.596644
Si Si5 0.702519 0.394335 0.476609
Si Si6 0.427212 0.215738 0.776528
Si Si7 0.415290 0.097420 0.879806
O O1 0.695222 0.377380 0.088129
O O2 0.750000 0.250000 0.000000
O O3 0.810704 0.403603 0.957212
O O4 0.000000 0.341132 0.000000
O O5 0.915599 0.177375 0.791041
O O6 0.612076 0.114573 0.860533
O O7 0.859185 0.000000 0.825091
O O8 0.531291 0.301971 0.355610
O O9 0.735744 0.188409 0.362212
O O10 0.674693 0.194731 0.260125
O O11 0.874152 0.306088 0.271566
O O12 0.725579 0.360337 0.536170
O O13 0.710747 0.189014 0.574011
O O14 0.500000 0.390477 0.500000
O O15 0.756332 0.500000 0.458438
O O16 0.358266 0.169909 0.845538
O O17 0.407367 0.000000 0.853733
#
# Coordination Sequence:
#
# PCOD9184340 Si02
#       7
#     8   8   8   8   8   8   8
#     4  10  19  33  59  84 108 140 185 241 305 350
#     4  10  20  36  58  83 110 147 192 240 292 352
#     4  10  22  37  60  81 120 160 192 224 288 324
#     4  10  20  41  60  91 122 154 180 242 276 332
#     4  10  20  37  66  95 118 151 189 228 280 340
#     4  11  20  38  58  82 110 157 196 238 272 343
#     4  10  20  36  58  83 110 147 192 240 292 352
#
# _framework density 20.229502
#
# number of rings (size 3 to 8) (size 9 to 14) (size 15 to 20)
#    0.000    1.857    4.286    0.429    0.000    1.714 
#    0.000   10.714    0.000    0.857    0.000    0.000 
#    0.000    0.000    0.000    0.000    0.000    0.000 
#
# Total GULP energy -156059.730294 kJ/mol
# GULP energy per Si atom -5573.561796 kJ/mol
# Density = 2.018346 g / cm^3
# Si number density = 20.229502 Si / 1000 Ang^3
#
#
#
# Elastic Constant Matrix: (Units=GPa)
#
#
# Indices 1 2 3 4 5 6 
#
# 1 72.5416 16.1473 32.5582 0.0000 29.8957 0.0000
# 2 16.1473 105.2985 31.1996 0.0000 15.2690 0.0000
# 3 32.5582 31.1996 90.2918 0.0000 30.6192 0.0000
# 4 0.0000 0.0000 0.0000 6.5126 0.0000 -2.6991
# 5 29.8957 15.2690 30.6192 0.0000 44.0732 0.0000
# 6 0.0000 0.0000 0.0000 -2.6991 0.0000 11.8543
#
#
#
# Elastic Compliance Matrix: (Units=1/GPa)
#
#
# Indices 1 2 3 4 5 6 
#
# 1 0.019923 -0.000482 -0.003259 0.000000 -0.011083 0.000000
# 2 -0.000482 0.010665 -0.003100 0.000000 -0.001214 0.000000
# 3 -0.003259 -0.003100 0.015970 0.000000 -0.007811 0.000000
# 4 0.000000 0.000000 0.000000 0.169546 0.000000 0.038604
# 5 -0.011083 -0.001214 -0.007811 0.000000 0.036054 0.000000
# 6 0.000000 0.000000 0.000000 0.038604 0.000000 0.093147
#
#
# Mechanical properties :
#
#
# Convention : Reuss Voigt Hill
#
# Bulk Modulus (GPa) = 30.41717 47.54915 38.98316
# Shear Modulus (GPa) = 13.51548 25.03646 19.27597
#
# Velocity S-wave (km/s) = 2.58758 3.52180 3.09020
# Velocity P-wave (km/s) = 4.89858 6.33193 5.66081
#
# Compressibility (1/GPa) = 0.03287617
#
# Stress axis : x y z
#
# Youngs Moduli (GPa) = 50.19424 93.76230 62.61744
#
# Poissons Ratio (x) = 0.04523 0.20406
# Poissons Ratio (y) = 0.02422 0.19409
# Poissons Ratio (z) = 0.16358 0.29062
#
# Static dielectric constant tensor:
#      x y z
#    x 1.725550 0.000000 0.007960 
#    y 0.000000 1.722390 0.000000 
#    z 0.007960 0.000000 1.742710 
# 
# From -- ./inp_files/332673.got.cif
#   From: 2010.05.17/outbox.cif.g08.bks.cpg/sg12_167_cif.got.tgz:332673.got - 2010.06.03 13:09:07.
