data_PCOD9184763
_publ_section_title
;
Structure prediction by ZEFSAII (Michael W. Deem and Ramdas Pophale) SiO2 
 PCOD9184763
Probable space group: C 2/M
;
_chemical_formula_sum "Si O2"
_cell_formula_units_Z 56
_cell_length_a 19.902752
_cell_length_b 23.323512
_cell_length_c 11.000294
_cell_angle_alpha 90.000000
_cell_angle_beta 148.313448
_cell_angle_gamma 90.000000
_cell_volume 2682.227262
_symmetry_space_group_name_H-M "C 2/M"
_symmetry_group_IT_number 12
_symmetry_cell_setting 'monoclinic'
loop_
_space_group_symop_operation_xyz
x,y,z
-x,y,-z
-x,-y,-z
x,-y,z
1/2+x,1/2+y,z
1/2-x,1/2+y,-z
1/2-x,1/2-y,-z
1/2+x,1/2-y,z
loop_
_atom_site_type_symbol
_atom_site_label
_atom_site_fract_x
_atom_site_fract_y
_atom_site_fract_z
Si Si1 0.841737 0.563262 0.054887
Si Si2 0.760271 0.314842 0.460820
Si Si3 0.462077 0.778948 0.152607
Si Si4 0.943754 0.064969 0.285718
Si Si5 0.625427 0.172294 0.756405
Si Si6 0.634970 0.874627 0.160298
Si Si7 0.114786 0.842602 0.996395
O O1 0.900045 0.500000 0.140191
O O2 0.705192 0.559737 0.909762
O O3 0.822604 0.588415 0.889824
O O4 0.913302 0.610380 0.245884
O O5 0.750000 0.250000 0.500000
O O6 0.770886 0.361767 0.584479
O O7 0.659984 0.337333 0.206304
O O8 0.902610 0.310305 0.619765
O O9 0.359973 0.789571 0.101556
O O10 0.400281 0.810949 0.943163
O O11 0.477453 0.711773 0.161940
O O12 0.000000 0.089543 0.500000
O O13 0.996314 0.000000 0.349943
O O14 0.948591 0.103594 0.171689
O O15 0.500000 0.196769 0.500000
O O16 0.751526 0.167560 0.870864
O O17 0.500000 0.899408 0.000000
#
# Coordination Sequence:
#
# PCOD9184763 Si02
#       7
#     8   8   8   8   8   8   8
#     4   9  19  35  56  79 105 143 185 223 276 335
#     4  11  21  35  54  79 115 151 183 225 270 331
#     4  10  20  35  52  79 115 146 180 227 281 328
#     4   9  20  40  61  83 111 141 183 239 289 332
#     4  10  19  34  54  79 111 140 175 236 282 317
#     4   9  19  34  52  73 111 148 181 224 270 319
#     4  11  21  35  59  84 109 151 188 222 285 347
#
# _framework density 20.878171999999999
#
# number of rings (size 3 to 8) (size 9 to 14) (size 15 to 20)
#    0.000    2.143    2.857    0.429    0.000    2.286 
#    2.571    0.714    0.000    0.000    0.000    5.000 
#    0.000    0.000    0.000    0.000    0.000    0.000 
#
# Total GULP energy -155917.671955 kJ/mol
# GULP energy per Si atom -5568.488284 kJ/mol
# Density = 2.083065 g / cm^3
# Si number density = 20.878172 Si / 1000 Ang^3
#
#
#
# Elastic Constant Matrix: (Units=GPa)
#
#
# Indices 1 2 3 4 5 6 
#
# 1 61.8982 13.4404 6.9232 0.0000 -14.9641 0.0000
# 2 13.4404 87.7387 17.8910 0.0000 -20.8319 0.0000
# 3 6.9232 17.8910 73.5672 0.0000 -26.7483 0.0000
# 4 0.0000 0.0000 0.0000 11.5546 0.0000 -5.9999
# 5 -14.9641 -20.8319 -26.7483 0.0000 35.8793 0.0000
# 6 0.0000 0.0000 0.0000 -5.9999 0.0000 6.8100
#
#
#
# Elastic Compliance Matrix: (Units=1/GPa)
#
#
# Indices 1 2 3 4 5 6 
#
# 1 0.018182 -0.001189 0.001487 0.000000 0.008002 0.000000
# 2 -0.001189 0.013316 -0.000680 0.000000 0.006729 0.000000
# 3 0.001487 -0.000680 0.018795 0.000000 0.014237 0.000000
# 4 0.000000 0.000000 0.000000 0.159528 0.000000 0.140551
# 5 0.008002 0.006729 0.014237 0.000000 0.045729 0.000000
# 6 0.000000 0.000000 0.000000 0.140551 0.000000 0.270675
#
#
# Mechanical properties :
#
#
# Convention : Reuss Voigt Hill
#
# Bulk Modulus (GPa) = 20.18975 33.30145 26.74560
# Shear Modulus (GPa) = 9.19968 23.17876 16.18922
#
# Velocity S-wave (km/s) = 2.10141 3.33557 2.78765
# Velocity P-wave (km/s) = 3.94704 5.55155 4.81658
#
# Compressibility (1/GPa) = 0.04953009
#
# Stress axis : x y z
#
# Youngs Moduli (GPa) = 55.00025 75.09871 53.20568
#
# Poissons Ratio (x) = 0.08926 -0.07914
# Poissons Ratio (y) = 0.06538 0.03618
# Poissons Ratio (z) = -0.08181 0.05107
#
# Static dielectric constant tensor:
#      x y z
#    x 1.800280 0.000000 -0.007360 
#    y 0.000000 1.782140 0.000000 
#    z -0.007360 0.000000 1.791220 
# 
# From -- ./inp_files/178319.got.cif
#   From: 2010.05.17/outbox.cif.g08.bks.cpg/sg12_90_cif.got.tgz:178319.got - 2010.06.03 13:09:07.
