data_PCOD9184871
_publ_section_title
;
Structure prediction by ZEFSAII (Michael W. Deem and Ramdas Pophale) SiO2 
 PCOD9184871
Probable space group: C 2/M
;
_chemical_formula_sum "Si O2"
_cell_formula_units_Z 48
_cell_length_a 19.710359
_cell_length_b 7.388465
_cell_length_c 12.735354
_cell_angle_alpha 90.000000
_cell_angle_beta 101.290656
_cell_angle_gamma 90.000000
_cell_volume 1818.747057
_symmetry_space_group_name_H-M "C 2/M"
_symmetry_group_IT_number 12
_symmetry_cell_setting 'monoclinic'
loop_
_space_group_symop_operation_xyz
x,y,z
-x,y,-z
-x,-y,-z
x,-y,z
1/2+x,1/2+y,z
1/2-x,1/2+y,-z
1/2-x,1/2-y,-z
1/2+x,1/2-y,z
loop_
_atom_site_type_symbol
_atom_site_label
_atom_site_fract_x
_atom_site_fract_y
_atom_site_fract_z
Si Si1 0.695386 0.283462 0.390336
Si Si2 0.389665 0.210356 0.295729
Si Si3 0.611823 0.279581 0.047710
Si Si4 0.068862 0.204941 0.473354
Si Si5 0.249356 0.219785 0.176954
Si Si6 0.994852 0.782563 0.162703
O O1 0.686914 0.500000 0.379929
O O2 0.750000 0.250000 0.500000
O O3 0.620180 0.212570 0.403636
O O4 0.722803 0.226204 0.285283
O O5 0.386199 0.305692 0.406043
O O6 0.329214 0.278309 0.199277
O O7 0.464512 0.227330 0.264927
O O8 0.375982 0.000000 0.312510
O O9 0.612157 0.500000 0.043813
O O10 0.690690 0.215743 0.078500
O O11 0.569088 0.227847 0.140109
O O12 0.563127 0.217875 0.938323
O O13 0.000000 0.294664 0.500000
O O14 0.050031 0.000000 0.433830
O O15 0.248794 0.000000 0.169537
O O16 0.995031 0.000000 0.161420
#
# Coordination Sequence:
#
# PCOD9184871 Si02
#       6
#     8   8   8   8   8   8
#     4  10  19  34  55  77 105 140 172 212 260 310
#     4  11  22  35  52  77 110 145 172 209 266 318
#     4   8  16  33  57  81 102 134 178 221 262 306
#     4  10  22  37  56  81 104 135 180 224 261 301
#     4   9  18  32  52  77 106 140 176 210 257 316
#     4   9  18  34  58  82 104 133 176 224 262 304
#
# _framework density 26.391795999999999
#
# number of rings (size 3 to 8) (size 9 to 14) (size 15 to 20)
#    0.000    2.500    1.667    1.500    2.333    1.000 
#    0.000    1.667    0.000    4.000    0.000    0.000 
#    0.000    0.000    0.000    0.000    0.000    0.000 
#
# Total GULP energy -134171.338956 kJ/mol
# GULP energy per Si atom -5590.472456 kJ/mol
# Density = 2.633173 g / cm^3
# Si number density = 26.391796 Si / 1000 Ang^3
#
#
#
# Elastic Constant Matrix: (Units=GPa)
#
#
# Indices 1 2 3 4 5 6 
#
# 1 135.4396 -2.7961 -4.6139 0.0000 -7.4723 0.0000
# 2 -2.7961 101.3530 -8.1104 0.0000 2.3125 0.0000
# 3 -4.6139 -8.1104 55.4741 0.0000 -4.0798 0.0000
# 4 0.0000 0.0000 0.0000 3.9335 0.0000 5.6090
# 5 -7.4723 2.3125 -4.0798 0.0000 53.6029 0.0000
# 6 0.0000 0.0000 0.0000 5.6090 0.0000 3.3921
#
#
#
# Elastic Compliance Matrix: (Units=1/GPa)
#
#
# Indices 1 2 3 4 5 6 
#
# 1 0.007473 0.000240 0.000737 0.000000 0.001088 0.000000
# 2 0.000240 0.009997 0.001460 0.000000 -0.000287 0.000000
# 3 0.000737 0.001460 0.018407 0.000000 0.001441 0.000000
# 4 0.000000 0.000000 0.000000 -0.187227 0.000000 0.309585
# 5 0.001088 -0.000287 0.001441 0.000000 0.018929 0.000000
# 6 0.000000 0.000000 0.000000 0.309585 0.000000 -0.217107
#
#
# Mechanical properties :
#
#
# Convention : Reuss Voigt Hill
#
# Bulk Modulus (GPa) = 24.53868 29.02510 26.78189
# Shear Modulus (GPa) = -14.67058 32.70484 9.01713
#
# Velocity S-wave (km/s) = -2.36026 3.52405 1.85042
# Velocity P-wave (km/s) = 1.37486 5.25169 3.83865
#
# Compressibility (1/GPa) = 0.04075199
#
# Stress axis : x y z
#
# Youngs Moduli (GPa) = 133.80754 100.03462 54.32668
#
# Poissons Ratio (x) = -0.02404 -0.04002
# Poissons Ratio (y) = -0.03216 -0.07934
# Poissons Ratio (z) = -0.09858 -0.14609
#
# Static dielectric constant tensor:
#      x y z
#    x 2.088220 0.000000 0.055490 
#    y 0.000000 2.021200 0.000000 
#    z 0.055490 0.000000 2.078860 
# 
# From -- ./inp_files/221522.got.cif
#   From: 2010.05.17/outbox.cif.g08.bks.cpg/sg12_111_cif.got.tgz:221522.got - 2010.06.03 13:09:07.
