data_PCOD9184201
_publ_section_title
;
Structure prediction by ZEFSAII (Michael W. Deem and Ramdas Pophale) SiO2 
 PCOD9184201
Probable space group: C 2/M
;
_chemical_formula_sum "Si O2"
_cell_formula_units_Z 58
_cell_length_a 21.697367
_cell_length_b 7.561825
_cell_length_c 16.865225
_cell_angle_alpha 90.000000
_cell_angle_beta 102.355273
_cell_angle_gamma 90.000000
_cell_volume 2703.018752
_symmetry_space_group_name_H-M "C 2/M"
_symmetry_group_IT_number 12
_symmetry_cell_setting 'monoclinic'
loop_
_space_group_symop_operation_xyz
x,y,z
-x,y,-z
-x,-y,-z
x,-y,z
1/2+x,1/2+y,z
1/2-x,1/2+y,-z
1/2-x,1/2-y,-z
1/2+x,1/2-y,z
loop_
_atom_site_type_symbol
_atom_site_label
_atom_site_fract_x
_atom_site_fract_y
_atom_site_fract_z
Si Si1 0.251124 0.788108 0.778254
Si Si2 0.605477 0.715177 0.753168
Si Si3 0.500000 0.500000 0.000000
Si Si4 0.692490 0.788741 0.042998
Si Si5 0.959912 0.198432 0.418946
Si Si6 0.158712 0.295330 0.524201
Si Si7 0.564656 0.208688 0.921404
Si Si8 0.205254 0.790724 0.380118
O O1 0.177957 0.724956 0.755824
O O2 0.286726 0.718679 0.865803
O O3 0.291776 0.748476 0.711562
O O4 0.246727 0.000000 0.784082
O O5 0.605592 0.500000 0.749927
O O6 0.556825 0.776684 0.671384
O O7 0.583982 0.771357 0.834600
O O8 0.489000 0.342287 0.064761
O O9 0.686370 0.000000 0.046876
O O10 0.750000 0.750000 0.000000
O O11 0.626257 0.727273 0.988908
O O12 0.892452 0.188635 0.442612
O O13 0.000000 0.289225 0.500000
O O14 0.986732 0.000000 0.413938
O O15 0.153867 0.500000 0.546756
O O16 0.154716 0.284849 0.427821
O O17 0.226853 0.225338 0.569529
O O18 0.552068 0.000000 0.932923
O O19 0.202493 0.000000 0.389923
#
# Coordination Sequence:
#
# PCOD9184201 Si02
#       8
#     8   8   2   8   8   8   8   8
#     4  10  19  33  57  89 125 159 192 246 317 381
#     4  10  19  36  62  92 125 161 207 258 318 382
#     4  12  26  48  72  90 134 180 230 258 318 402
#     4  10  21  35  59  95 132 159 199 261 328 384
#     4  10  21  37  59  87 119 157 205 258 307 359
#     4  10  20  34  54  78 113 153 197 246 301 361
#     4  11  24  43  69 100 129 170 220 270 320 389
#     4  10  20  33  52  82 114 151 198 242 298 371
#
# _framework density 21.45749
#
# number of rings (size 3 to 8) (size 9 to 14) (size 15 to 20)
#    0.000    1.793    3.448    1.034    0.966    3.034 
#    0.000    1.379    0.000    0.000    0.000    0.000 
#    0.000    0.000    0.000    0.000    0.000    0.000 
#
# Total GULP energy -161527.722925 kJ/mol
# GULP energy per Si atom -5569.921480 kJ/mol
# Density = 2.140865 g / cm^3
# Si number density = 21.457490 Si / 1000 Ang^3
#
#
#
# Elastic Constant Matrix: (Units=GPa)
#
#
# Indices 1 2 3 4 5 6 
#
# 1 4.7423 3.1577 15.8884 0.0000 -1.4522 0.0000
# 2 3.1577 87.6595 9.0647 0.0000 0.7614 0.0000
# 3 15.8884 9.0647 173.1603 0.0000 1.5968 0.0000
# 4 0.0000 0.0000 0.0000 30.2740 0.0000 -16.7761
# 5 -1.4522 0.7614 1.5968 0.0000 38.5057 0.0000
# 6 0.0000 0.0000 0.0000 -16.7761 0.0000 16.3636
#
#
#
# Elastic Compliance Matrix: (Units=1/GPa)
#
#
# Indices 1 2 3 4 5 6 
#
# 1 0.317012 -0.008561 -0.028762 0.000000 0.013318 0.000000
# 2 -0.008561 0.011703 0.000178 0.000000 -0.000562 0.000000
# 3 -0.028762 0.000178 0.008418 0.000000 -0.001437 0.000000
# 4 0.000000 0.000000 0.000000 0.076483 0.000000 0.078411
# 5 0.013318 -0.000562 -0.001437 0.000000 0.026543 0.000000
# 6 0.000000 0.000000 0.000000 0.078411 0.000000 0.141499
#
#
# Mechanical properties :
#
#
# Convention : Reuss Voigt Hill
#
# Bulk Modulus (GPa) = 3.80457 35.75375 19.77916
# Shear Modulus (GPa) = 6.72439 32.85872 19.79156
#
# Velocity S-wave (km/s) = 1.77218 3.91748 3.04033
# Velocity P-wave (km/s) = 2.44222 6.09598 4.64356
#
# Compressibility (1/GPa) = 0.26284199
#
# Stress axis : x y z
#
# Youngs Moduli (GPa) = 3.15446 85.45092 118.79271
#
# Poissons Ratio (x) = 0.73154 3.41674
# Poissons Ratio (y) = 0.02701 -0.02115
# Poissons Ratio (z) = 0.09073 -0.01522
#
# Static dielectric constant tensor:
#      x y z
#    x 1.789120 0.000000 0.022290 
#    y 0.000000 1.820370 0.000000 
#    z 0.022290 0.000000 1.827390 
# 
# From -- ./inp_files/237766.got.cif
#   From: 2010.05.17/outbox.cif.g08.bks.cpg/sg12_119_cif.got.tgz:237766.got - 2010.06.03 13:09:07.
