data_PCOD9184791
_publ_section_title
;
Structure prediction by ZEFSAII (Michael W. Deem and Ramdas Pophale) SiO2 
 PCOD9184791
Probable space group: C 2/M
;
_chemical_formula_sum "Si O2"
_cell_formula_units_Z 56
_cell_length_a 14.209279
_cell_length_b 13.937776
_cell_length_c 19.563804
_cell_angle_alpha 90.000000
_cell_angle_beta 38.842085
_cell_angle_gamma 90.000000
_cell_volume 2430.011416
_symmetry_space_group_name_H-M "C 2/M"
_symmetry_group_IT_number 12
_symmetry_cell_setting 'monoclinic'
loop_
_space_group_symop_operation_xyz
x,y,z
-x,y,-z
-x,-y,-z
x,-y,z
1/2+x,1/2+y,z
1/2-x,1/2+y,-z
1/2-x,1/2-y,-z
1/2+x,1/2-y,z
loop_
_atom_site_type_symbol
_atom_site_label
_atom_site_fract_x
_atom_site_fract_y
_atom_site_fract_z
Si Si1 0.720446 0.896963 0.464608
Si Si2 0.950804 0.892507 0.757752
Si Si3 0.755309 0.188280 0.587455
Si Si4 0.554552 0.194400 0.891345
Si Si5 0.834891 0.108489 0.126976
Si Si6 0.591699 0.797985 0.164260
Si Si7 0.343843 0.391914 0.678192
O O1 0.759905 0.886446 0.522575
O O2 0.668459 0.789339 0.477235
O O3 0.871475 0.901118 0.333647
O O4 0.640237 0.000000 0.500087
O O5 0.873532 0.814889 0.848123
O O6 0.935412 0.850753 0.689709
O O7 0.887788 0.000000 0.797344
O O8 0.576776 0.193439 0.707762
O O9 0.836553 0.156492 0.609858
O O10 0.640283 0.299094 0.837303
O O11 0.429350 0.183987 0.904008
O O12 0.676350 0.115035 0.803540
O O13 0.500000 0.186745 0.000000
O O14 0.711207 0.140666 0.140164
O O15 0.799006 0.000000 0.173414
O O16 0.000000 0.101419 0.000000
O O17 0.394870 0.500000 0.640019
#
# Coordination Sequence:
#
# PCOD9184791 Si02
#       7
#     8   8   8   8   8   8   8
#     4   9  17  32  53  84 117 150 193 237 287 345
#     4   9  18  33  56  83 113 148 189 239 292 347
#     4   9  19  32  54  86 114 155 192 237 289 348
#     4  10  22  38  60  84 115 150 196 247 298 350
#     4  10  22  40  59  83 114 151 197 244 295 358
#     4  10  20  38  62  82 115 157 198 242 296 351
#     4  10  19  34  54  81 114 144 188 239 289 349
#
# _framework density 23.045159999999999
#
# number of rings (size 3 to 8) (size 9 to 14) (size 15 to 20)
#    0.000    2.429    1.429    0.429    0.000    6.571 
#    0.000    4.286    0.000    0.429    0.000    3.000 
#    0.000    0.000    0.000    0.000    0.000    0.000 
#
# Total GULP energy -155986.647343 kJ/mol
# GULP energy per Si atom -5570.951691 kJ/mol
# Density = 2.299271 g / cm^3
# Si number density = 23.045160 Si / 1000 Ang^3
#
#
#
# Elastic Constant Matrix: (Units=GPa)
#
#
# Indices 1 2 3 4 5 6 
#
# 1 72.6303 -6.1359 19.5507 -0.0001 -11.8965 0.0001
# 2 -6.1359 65.6604 11.2312 -0.0001 -14.0278 0.0001
# 3 19.5507 11.2312 78.9490 -0.0002 -4.7672 0.0002
# 4 -0.0001 -0.0001 -0.0002 -7.0735 0.0002 -9.1560
# 5 -11.8965 -14.0278 -4.7672 0.0002 22.9274 -0.0001
# 6 0.0001 0.0001 0.0002 -9.1560 -0.0001 18.3535
#
#
#
# Elastic Compliance Matrix: (Units=1/GPa)
#
#
# Indices 1 2 3 4 5 6 
#
# 1 0.017069 0.004628 -0.004233 0.000000 0.010808 0.000000
# 2 0.004628 0.019051 -0.003046 0.000000 0.013425 0.000000
# 3 -0.004233 -0.003046 0.014079 0.000000 -0.001132 0.000000
# 4 0.000000 0.000000 0.000000 -0.085902 0.000000 -0.042854
# 5 0.010808 0.013425 -0.001132 0.000000 0.057202 0.000000
# 6 0.000000 0.000000 0.000000 -0.042854 0.000000 0.033107
#
#
# Mechanical properties :
#
#
# Convention : Reuss Voigt Hill
#
# Bulk Modulus (GPa) = 22.27194 29.61463 25.94328
# Shear Modulus (GPa) = 66.77909 19.68107 43.23008
#
# Velocity S-wave (km/s) = 5.38891 2.92554 4.33585
# Velocity P-wave (km/s) = 6.95744 4.92852 6.02894
#
# Compressibility (1/GPa) = 0.04489955
#
# Stress axis : x y z
#
# Youngs Moduli (GPa) = 58.58544 52.48963 71.02536
#
# Poissons Ratio (x) = -0.24293 0.30063
# Poissons Ratio (y) = -0.27115 0.21632
# Poissons Ratio (z) = 0.24797 0.15987
#
# Static dielectric constant tensor:
#      x y z
#    x 1.925910 0.000000 -0.033980 
#    y 0.000000 1.922350 0.000000 
#    z -0.033980 0.000000 1.927590 
# 
# From -- ./inp_files/270169.got.cif
#   From: 2010.05.17/outbox.cif.g08.bks.cpg/sg12_136_cif.got.tgz:270169.got - 2010.06.03 13:09:07.
