data_PCOD9184447
_publ_section_title
;
Structure prediction by ZEFSAII (Michael W. Deem and Ramdas Pophale) SiO2 
 PCOD9184447
Probable space group: C 2/M
;
_chemical_formula_sum "Si O2"
_cell_formula_units_Z 64
_cell_length_a 26.218032
_cell_length_b 16.694841
_cell_length_c 9.639495
_cell_angle_alpha 90.000000
_cell_angle_beta 99.098051
_cell_angle_gamma 90.000000
_cell_volume 4166.181829
_symmetry_space_group_name_H-M "C 2/M"
_symmetry_group_IT_number 12
_symmetry_cell_setting 'monoclinic'
loop_
_space_group_symop_operation_xyz
x,y,z
-x,y,-z
-x,-y,-z
x,-y,z
1/2+x,1/2+y,z
1/2-x,1/2+y,-z
1/2-x,1/2-y,-z
1/2+x,1/2-y,z
loop_
_atom_site_type_symbol
_atom_site_label
_atom_site_fract_x
_atom_site_fract_y
_atom_site_fract_z
Si Si1 0.699915 0.804996 0.304036
Si Si2 0.345559 0.317907 0.249100
Si Si3 0.070045 0.905084 0.895901
Si Si4 0.135852 0.824438 0.417555
Si Si5 0.726115 0.173921 0.806504
Si Si6 0.257131 0.905439 0.890242
Si Si7 0.450110 0.405600 0.790833
Si Si8 0.757317 0.908708 0.558439
O O1 0.652404 0.759777 0.354462
O O2 0.731328 0.736252 0.234761
O O3 0.696277 0.874515 0.188056
O O4 0.733694 0.844037 0.441832
O O5 0.389672 0.350434 0.167357
O O6 0.363259 0.319368 0.416135
O O7 0.324933 0.228573 0.207688
O O8 0.296082 0.376348 0.205322
O O9 0.011388 0.889904 0.820627
O O10 0.081095 0.000000 0.877920
O O11 0.070633 0.891156 0.061710
O O12 0.082715 0.855415 0.331769
O O13 0.182328 0.886354 0.399427
O O14 0.727643 0.105384 0.690538
O O15 0.740040 0.138611 0.960954
O O16 0.257485 0.000000 0.906846
O O17 0.443416 0.500000 0.759193
O O18 0.751744 0.000000 0.507583
#
# Coordination Sequence:
#
# PCOD9184447 Si02
#       8
#     8   8   8   8   8   8   8   8
#     4  10  19  34  47  68 100 133 163 201 244 283
#     4  11  20  33  49  70  99 133 165 201 243 286
#     4   9  20  36  51  70  98 128 163 206 245 282
#     4  11  20  32  50  72  97 132 170 196 241 292
#     4  10  20  34  45  69 100 133 165 203 244 285
#     4  11  22  32  47  73 101 132 170 204 238 286
#     4   9  20  36  51  71  97 127 165 206 243 286
#     4  11  19  31  49  70 101 135 167 199 235 289
#
# _framework density 15.361788000000001
#
# number of rings (size 3 to 8) (size 9 to 14) (size 15 to 20)
#    0.000    1.750    3.750    4.500    5.250    2.000 
#    0.000    1.250    0.000    0.000    0.000    0.000 
#    0.000    6.000    0.000    0.000    0.000    0.000 
#
# Total GULP energy -178385.746547 kJ/mol
# GULP energy per Si atom -5574.554580 kJ/mol
# Density = 1.532682 g / cm^3
# Si number density = 15.361788 Si / 1000 Ang^3
#
#
#
# Elastic Constant Matrix: (Units=GPa)
#
#
# Indices 1 2 3 4 5 6 
#
# 1 32.8269 11.2688 14.3170 0.0000 -5.1049 0.0000
# 2 11.2688 62.2789 21.0244 0.0000 5.6498 0.0000
# 3 14.3170 21.0244 86.5889 0.0000 8.1251 0.0000
# 4 0.0000 0.0000 0.0000 26.5142 0.0000 -0.0778
# 5 -5.1049 5.6498 8.1251 0.0000 24.1439 0.0000
# 6 0.0000 0.0000 0.0000 -0.0778 0.0000 23.3252
#
#
#
# Elastic Compliance Matrix: (Units=1/GPa)
#
#
# Indices 1 2 3 4 5 6 
#
# 1 0.036615 -0.005698 -0.005702 0.000000 0.010994 0.000000
# 2 -0.005698 0.018556 -0.003142 0.000000 -0.004489 0.000000
# 3 -0.005702 -0.003142 0.013732 0.000000 -0.005092 0.000000
# 4 0.000000 0.000000 0.000000 0.037716 0.000000 0.000126
# 5 0.010994 -0.004489 -0.005092 0.000000 0.046507 0.000000
# 6 0.000000 0.000000 0.000000 0.000126 0.000000 0.042873
#
#
# Mechanical properties :
#
#
# Convention : Reuss Voigt Hill
#
# Bulk Modulus (GPa) = 25.11339 30.54613 27.82976
# Shear Modulus (GPa) = 20.97701 23.80228 22.38964
#
# Velocity S-wave (km/s) = 3.69932 3.94057 3.82185
# Velocity P-wave (km/s) = 5.88473 6.37431 6.13441
#
# Compressibility (1/GPa) = 0.03981939
#
# Stress axis : x y z
#
# Youngs Moduli (GPa) = 27.31096 53.89175 72.82054
#
# Poissons Ratio (x) = 0.30705 0.41525
# Poissons Ratio (y) = 0.15560 0.22881
# Poissons Ratio (z) = 0.15574 0.16934
#
# Static dielectric constant tensor:
#      x y z
#    x 1.501290 0.000000 -0.015700 
#    y 0.000000 1.523080 0.000000 
#    z -0.015700 0.000000 1.536970 
# 
# From -- ./inp_files/97766.got.cif
#   From: 2010.05.17/outbox.cif.g08.bks.cpg/sg12_49_cif.got.tgz:97766.got - 2010.06.03 13:09:07.
