data_PCOD9184022
_publ_section_title
;
Structure prediction by ZEFSAII (Michael W. Deem and Ramdas Pophale) SiO2 
 PCOD9184022
Probable space group: C 2/M
;
_chemical_formula_sum "Si O2"
_cell_formula_units_Z 64
_cell_length_a 19.086570
_cell_length_b 8.965788
_cell_length_c 20.871474
_cell_angle_alpha 90.000000
_cell_angle_beta 82.380488
_cell_angle_gamma 90.000000
_cell_volume 3540.118658
_symmetry_space_group_name_H-M "C 2/M"
_symmetry_group_IT_number 12
_symmetry_cell_setting 'monoclinic'
loop_
_space_group_symop_operation_xyz
x,y,z
-x,y,-z
-x,-y,-z
x,-y,z
1/2+x,1/2+y,z
1/2-x,1/2+y,-z
1/2-x,1/2-y,-z
1/2+x,1/2-y,z
loop_
_atom_site_type_symbol
_atom_site_label
_atom_site_fract_x
_atom_site_fract_y
_atom_site_fract_z
Si Si1 0.663321 0.173053 0.840158
Si Si2 0.023927 0.320413 0.925760
Si Si3 0.334320 0.179872 0.405229
Si Si4 0.304179 0.822349 0.783503
Si Si5 0.554220 0.323168 0.184919
Si Si6 0.580255 0.818608 0.479011
Si Si7 0.193712 0.319941 0.365948
Si Si8 0.566422 0.173308 0.725083
O O1 0.605678 0.216577 0.900520
O O2 0.731598 0.274148 0.825746
O O3 0.620603 0.181356 0.778183
O O4 0.683865 0.000000 0.847133
O O5 0.017662 0.500000 0.918347
O O6 0.977014 0.243090 0.877169
O O7 0.000000 0.281332 0.000000
O O8 0.368292 0.224413 0.468711
O O9 0.260057 0.253849 0.396531
O O10 0.391321 0.218205 0.343236
O O11 0.325757 0.000000 0.405510
O O12 0.369791 0.744417 0.809335
O O13 0.301857 0.774877 0.708895
O O14 0.312970 0.000000 0.784186
O O15 0.556465 0.500000 0.181358
O O16 0.500575 0.270246 0.247263
O O17 0.500000 0.765303 0.500000
O O18 0.620253 0.774557 0.408940
O O19 0.576915 0.000000 0.479577
O O20 0.198163 0.500000 0.368027
O O21 0.544166 0.000000 0.720994
#
# Coordination Sequence:
#
# PCOD9184022 Si02
#       8
#     8   8   8   8   8   8   8   8
#     4   9  17  33  56  83 113 141 178 223 267 320
#     4   9  19  39  65  89 116 150 184 219 265 324
#     4  10  19  33  57  79 103 142 183 227 279 338
#     4  11  22  35  54  80 113 149 187 231 280 330
#     4  11  23  36  55  83 116 148 184 230 275 321
#     4   9  19  34  53  77 104 139 186 234 281 335
#     4  10  21  35  54  79 107 142 184 233 281 334
#     4   9  18  33  54  80 107 141 185 228 276 334
#
# _framework density 18.078489000000001
#
# number of rings (size 3 to 8) (size 9 to 14) (size 15 to 20)
#    0.000    2.250    1.250    2.625    1.750    3.250 
#    0.000    0.625    0.000    0.750    0.000    0.000 
#    0.000    0.000    0.000    0.000    0.000    0.000 
#
# Total GULP energy -178595.777972 kJ/mol
# GULP energy per Si atom -5581.118062 kJ/mol
# Density = 1.803734 g / cm^3
# Si number density = 18.078489 Si / 1000 Ang^3
#
#
#
# Elastic Constant Matrix: (Units=GPa)
#
#
# Indices 1 2 3 4 5 6 
#
# 1 133.8614 49.8855 60.0845 0.0000 -12.8440 0.0000
# 2 49.8855 37.9038 28.9324 0.0000 -5.1981 0.0000
# 3 60.0845 28.9324 87.4741 0.0000 -25.7876 0.0000
# 4 0.0000 0.0000 0.0000 15.9502 0.0000 -2.0483
# 5 -12.8440 -5.1981 -25.7876 0.0000 24.9675 0.0000
# 6 0.0000 0.0000 0.0000 -2.0483 0.0000 32.6251
#
#
#
# Elastic Compliance Matrix: (Units=1/GPa)
#
#
# Indices 1 2 3 4 5 6 
#
# 1 0.016476 -0.017299 -0.005979 0.000000 -0.001301 0.000000
# 2 -0.017299 0.054270 -0.007707 0.000000 -0.005560 0.000000
# 3 -0.005979 -0.007707 0.024023 0.000000 0.020132 0.000000
# 4 0.000000 0.000000 0.000000 0.063205 0.000000 0.003968
# 5 -0.001301 -0.005560 0.020132 0.000000 0.059018 0.000000
# 6 0.000000 0.000000 0.000000 0.003968 0.000000 0.030900
#
#
# Mechanical properties :
#
#
# Convention : Reuss Voigt Hill
#
# Bulk Modulus (GPa) = 30.48861 59.67155 45.08008
# Shear Modulus (GPa) = 15.58634 22.73103 19.15869
#
# Velocity S-wave (km/s) = 2.93942 3.54976 3.25891
# Velocity P-wave (km/s) = 5.33118 7.06256 6.25704
#
# Compressibility (1/GPa) = 0.03279914
#
# Stress axis : x y z
#
# Youngs Moduli (GPa) = 60.69486 18.42649 41.62712
#
# Poissons Ratio (x) = 0.31875 0.24889
# Poissons Ratio (y) = 1.04994 0.32082
# Poissons Ratio (z) = 0.36290 0.14201
#
# Static dielectric constant tensor:
#      x y z
#    x 1.604800 0.000000 -0.018630 
#    y 0.000000 1.606780 0.000000 
#    z -0.018630 0.000000 1.618960 
# 
# From -- ./inp_files/314139.got.cif
#   From: 2010.05.17/outbox.cif.g08.bks.cpg/sg12_158_cif.got.tgz:314139.got - 2010.06.03 13:09:07.
