data_PCOD9184813
_publ_section_title
;
Structure prediction by ZEFSAII (Michael W. Deem and Ramdas Pophale) SiO2 
 PCOD9184813
Probable space group: C 2/M
;
_chemical_formula_sum "Si O2"
_cell_formula_units_Z 64
_cell_length_a 12.120985
_cell_length_b 24.296356
_cell_length_c 12.328539
_cell_angle_alpha 90.000000
_cell_angle_beta 112.000678
_cell_angle_gamma 90.000000
_cell_volume 3366.312685
_symmetry_space_group_name_H-M "C 2/M"
_symmetry_group_IT_number 12
_symmetry_cell_setting 'monoclinic'
loop_
_space_group_symop_operation_xyz
x,y,z
-x,y,-z
-x,-y,-z
x,-y,z
1/2+x,1/2+y,z
1/2-x,1/2+y,-z
1/2-x,1/2-y,-z
1/2+x,1/2-y,z
loop_
_atom_site_type_symbol
_atom_site_label
_atom_site_fract_x
_atom_site_fract_y
_atom_site_fract_z
Si Si1 0.617774 0.936761 0.114579
Si Si2 0.827316 0.656716 0.687308
Si Si3 0.404653 0.652726 0.543272
Si Si4 0.234599 0.227788 0.370142
Si Si5 0.243474 0.563675 0.786253
Si Si6 0.557967 0.852583 0.631552
Si Si7 0.652652 0.436605 0.954204
Si Si8 0.035777 0.936650 0.283662
O O1 0.645496 0.890481 0.214937
O O2 0.728004 0.936607 0.072325
O O3 0.606778 0.000000 0.153938
O O4 0.500000 0.925055 0.000000
O O5 0.716361 0.640424 0.567961
O O6 0.792193 0.718645 0.711803
O O7 0.947432 0.665981 0.663082
O O8 0.500000 0.682461 0.500000
O O9 0.370815 0.685141 0.641387
O O10 0.467625 0.598050 0.609190
O O11 0.250000 0.250000 0.500000
O O12 0.348520 0.194819 0.368662
O O13 0.210906 0.500000 0.797648
O O14 0.130808 0.600646 0.720258
O O15 0.331649 0.563981 0.716450
O O16 0.315716 0.586347 0.916625
O O17 0.500000 0.875162 0.500000
O O18 0.614576 0.500000 0.961084
O O19 0.550659 0.412494 0.840708
O O20 0.000297 0.000000 0.289483
#
# Coordination Sequence:
#
# PCOD9184813 Si02
#       8
#     8   8   8   8   8   8   8   8
#     4  10  21  40  63  90 120 154 196 238 297 365
#     4  11  24  37  63  89 117 156 194 247 292 346
#     4  11  22  36  58  88 116 157 203 245 295 350
#     4  10  22  38  58  81 112 152 201 237 285 343
#     4  10  20  35  58  88 120 155 195 239 296 358
#     4  12  21  39  60  86 119 151 198 245 295 349
#     4   9  18  34  57  82 114 158 196 235 281 350
#     4  10  19  34  54  84 123 156 194 245 296 350
#
# _framework density 19.011901000000002
#
# number of rings (size 3 to 8) (size 9 to 14) (size 15 to 20)
#    0.000    1.625    3.750    1.875    3.500    4.000 
#    0.000    0.000    2.750    1.500    0.000    0.000 
#    0.000    0.000    0.000    0.000    0.000    0.000 
#
# Total GULP energy -178363.514974 kJ/mol
# GULP energy per Si atom -5573.859843 kJ/mol
# Density = 1.896863 g / cm^3
# Si number density = 19.011901 Si / 1000 Ang^3
#
#
#
# Elastic Constant Matrix: (Units=GPa)
#
#
# Indices 1 2 3 4 5 6 
#
# 1 96.7939 16.6980 20.3043 0.0000 7.1971 0.0000
# 2 16.6980 85.4116 51.2703 0.0000 9.3179 0.0000
# 3 20.3043 51.2703 85.6720 0.0000 13.4682 0.0000
# 4 0.0000 0.0000 0.0000 20.2683 0.0000 -1.4191
# 5 7.1971 9.3179 13.4682 0.0000 33.2819 0.0000
# 6 0.0000 0.0000 0.0000 -1.4191 0.0000 19.7253
#
#
#
# Elastic Compliance Matrix: (Units=1/GPa)
#
#
# Indices 1 2 3 4 5 6 
#
# 1 0.010975 -0.000880 -0.001858 0.000000 -0.001375 0.000000
# 2 -0.000880 0.018359 -0.010680 0.000000 -0.000628 0.000000
# 3 -0.001858 -0.010680 0.019192 0.000000 -0.004375 0.000000
# 4 0.000000 0.000000 0.000000 0.049588 0.000000 0.003568
# 5 -0.001375 -0.000628 -0.004375 0.000000 0.032290 0.000000
# 6 0.000000 0.000000 0.000000 0.003568 0.000000 0.050953
#
#
# Mechanical properties :
#
#
# Convention : Reuss Voigt Hill
#
# Bulk Modulus (GPa) = 46.10447 49.38030 47.74238
# Shear Modulus (GPa) = 23.21012 26.62877 24.91944
#
# Velocity S-wave (km/s) = 3.49781 3.74657 3.62433
# Velocity P-wave (km/s) = 6.37306 6.68920 6.53305
#
# Compressibility (1/GPa) = 0.02168987
#
# Stress axis : x y z
#
# Youngs Moduli (GPa) = 91.11536 54.46799 52.10544
#
# Poissons Ratio (x) = 0.04794 0.09682
# Poissons Ratio (y) = 0.08020 0.55648
# Poissons Ratio (z) = 0.16931 0.58171
#
# Static dielectric constant tensor:
#      x y z
#    x 1.706170 0.000000 0.000280 
#    y 0.000000 1.740990 0.000000 
#    z 0.000280 0.000000 1.663480 
# 
# From -- ./inp_files/135954.got.cif
#   From: 2010.05.17/outbox.cif.g08.bks.cpg/sg12_68_cif.got.tgz:135954.got - 2010.06.03 13:09:07.
