data_PCOD9184033
_publ_section_title
;
Structure prediction by ZEFSAII (Michael W. Deem and Ramdas Pophale) SiO2 
 PCOD9184033
Probable space group: C 2/M
;
_chemical_formula_sum "Si O2"
_cell_formula_units_Z 56
_cell_length_a 9.223608
_cell_length_b 17.446222
_cell_length_c 29.355815
_cell_angle_alpha 90.000000
_cell_angle_beta 146.242100
_cell_angle_gamma 90.000000
_cell_volume 2624.973644
_symmetry_space_group_name_H-M "C 2/M"
_symmetry_group_IT_number 12
_symmetry_cell_setting 'monoclinic'
loop_
_space_group_symop_operation_xyz
x,y,z
-x,y,-z
-x,-y,-z
x,-y,z
1/2+x,1/2+y,z
1/2-x,1/2+y,-z
1/2-x,1/2-y,-z
1/2+x,1/2-y,z
loop_
_atom_site_type_symbol
_atom_site_label
_atom_site_fract_x
_atom_site_fract_y
_atom_site_fract_z
Si Si1 0.900144 0.235980 0.863470
Si Si2 0.681123 0.147077 0.085421
Si Si3 0.484243 0.413839 0.631000
Si Si4 0.393901 0.085544 0.210936
Si Si5 0.382981 0.298365 0.683585
Si Si6 0.812695 0.915976 0.741410
Si Si7 0.462999 0.685033 0.543827
O O1 0.973585 0.300299 0.919286
O O2 0.764786 0.158879 0.848882
O O3 0.674554 0.275254 0.773969
O O4 0.132076 0.206188 0.892887
O O5 0.883423 0.092638 0.164318
O O6 0.500000 0.109391 0.000000
O O7 0.399011 0.500000 0.618865
O O8 0.373772 0.352016 0.637148
O O9 0.409984 0.389253 0.560461
O O10 0.799225 0.410774 0.718574
O O11 0.346000 0.089071 0.253082
O O12 0.300460 0.000000 0.172149
O O13 0.261601 0.346812 0.693640
O O14 0.226005 0.222190 0.632371
O O15 0.768998 0.000000 0.709477
O O16 0.500000 0.671704 0.500000
O O17 0.250000 0.750000 0.500000
#
# Coordination Sequence:
#
# PCOD9184033 Si02
#       7
#     8   8   8   8   8   8   8
#     4  10  19  33  57  81 111 150 197 238 284 342
#     4  10  20  32  52  82 116 150 187 236 290 345
#     4  11  23  40  62  88 119 152 192 246 298 346
#     4   9  18  33  56  84 111 144 194 246 288 335
#     4  11  22  38  63  86 115 152 202 243 289 351
#     4   9  20  36  57  85 114 152 194 240 291 343
#     4  12  26  42  62  89 120 156 195 245 301 357
#
# _framework density 21.333549000000001
#
# number of rings (size 3 to 8) (size 9 to 14) (size 15 to 20)
#    0.000    1.714    2.857    1.714    6.000    0.571 
#    0.000    2.143    0.000    0.429    0.000    0.000 
#    0.000    0.000    0.000    0.000    0.000    0.000 
#
# Total GULP energy -156422.814568 kJ/mol
# GULP energy per Si atom -5586.529092 kJ/mol
# Density = 2.128499 g / cm^3
# Si number density = 21.333549 Si / 1000 Ang^3
#
#
#
# Elastic Constant Matrix: (Units=GPa)
#
#
# Indices 1 2 3 4 5 6 
#
# 1 26.4448 -5.9737 -9.2314 0.0003 2.4557 0.0004
# 2 -5.9737 83.6801 -1.9909 0.0003 -11.1263 0.0002
# 3 -9.2314 -1.9909 40.5538 0.0011 -18.6447 -0.0004
# 4 0.0003 0.0003 0.0011 15.4999 0.0000 2.9337
# 5 2.4557 -11.1263 -18.6447 0.0000 19.5557 0.0001
# 6 0.0004 0.0002 -0.0004 2.9337 0.0001 7.3831
#
#
#
# Elastic Compliance Matrix: (Units=1/GPa)
#
#
# Indices 1 2 3 4 5 6 
#
# 1 0.043379 0.005170 0.015981 -0.000002 0.012731 -0.000001
# 2 0.005170 0.014824 0.009764 -0.000001 0.017094 0.000000
# 3 0.015981 0.009764 0.054138 -0.000005 0.055164 0.000003
# 4 -0.000002 -0.000001 -0.000005 0.069763 -0.000005 -0.027720
# 5 0.012731 0.017094 0.055164 -0.000005 0.111857 0.000002
# 6 -0.000001 0.000000 0.000003 -0.027720 0.000002 0.146459
#
#
# Mechanical properties :
#
#
# Convention : Reuss Voigt Hill
#
# Bulk Modulus (GPa) = 5.74151 12.92074 9.33113
# Shear Modulus (GPa) = 11.45089 19.67940 15.56515
#
# Velocity S-wave (km/s) = 2.31931 3.04050 2.70406
# Velocity P-wave (km/s) = 3.14156 4.28904 3.75934
#
# Compressibility (1/GPa) = 0.17417029
#
# Stress axis : x y z
#
# Youngs Moduli (GPa) = 23.05264 67.45593 18.47148
#
# Poissons Ratio (x) = -0.34872 -0.29520
# Poissons Ratio (y) = -0.11917 -0.18035
# Poissons Ratio (z) = -0.36841 -0.65861
#
# Static dielectric constant tensor:
#      x y z
#    x 1.768620 0.000000 0.010760 
#    y 0.000000 1.754740 0.000000 
#    z 0.010760 0.000000 1.805680 
# 
# From -- ./inp_files/256991.got.cif
#   From: 2010.05.17/outbox.cif.g08.bks.cpg/sg12_129_cif.got.tgz:256991.got - 2010.06.03 13:09:07.
