data_PCOD9184326
_publ_section_title
;
Structure prediction by ZEFSAII (Michael W. Deem and Ramdas Pophale) SiO2 
 PCOD9184326
Probable space group: C 2/M
;
_chemical_formula_sum "Si O2"
_cell_formula_units_Z 48
_cell_length_a 28.947504
_cell_length_b 11.082548
_cell_length_c 21.131094
_cell_angle_alpha 90.000000
_cell_angle_beta 160.656142
_cell_angle_gamma 90.000000
_cell_volume 2245.490553
_symmetry_space_group_name_H-M "C 2/M"
_symmetry_group_IT_number 12
_symmetry_cell_setting 'monoclinic'
loop_
_space_group_symop_operation_xyz
x,y,z
-x,y,-z
-x,-y,-z
x,-y,z
1/2+x,1/2+y,z
1/2-x,1/2+y,-z
1/2-x,1/2-y,-z
1/2+x,1/2-y,z
loop_
_atom_site_type_symbol
_atom_site_label
_atom_site_fract_x
_atom_site_fract_y
_atom_site_fract_z
Si Si1 0.408593 0.132903 0.260442
Si Si2 0.739882 0.134318 0.707698
Si Si3 0.847590 0.218234 0.717640
Si Si4 0.586551 0.366203 0.333536
Si Si5 0.667036 0.792180 0.976171
Si Si6 0.114319 0.634768 0.046338
O O1 0.574780 0.145012 0.480991
O O2 0.361209 0.139869 0.125812
O O3 0.372309 0.000000 0.239397
O O4 0.323331 0.241050 0.182473
O O5 0.824463 0.144251 0.751193
O O6 0.789089 0.252606 0.808831
O O7 0.765280 0.000000 0.768501
O O8 0.698890 0.274415 0.506942
O O9 0.899932 0.143059 0.724956
O O10 0.960291 0.325365 0.869858
O O11 0.618274 0.500000 0.396172
O O12 0.434044 0.324173 0.156304
O O13 0.619958 0.863712 0.977241
O O14 0.150889 0.500000 0.116153
#
# Coordination Sequence:
#
# PCOD9184326 Si02
#       6
#     8   8   8   8   8   8
#     4  10  21  40  65  90 120 159 206 258 308 363
#     4  11  24  42  63  90 127 168 208 253 306 368
#     4  10  21  37  58  90 121 164 205 249 306 364
#     4  10  19  33  58  91 123 154 199 255 305 363
#     4  10  21  40  63  91 119 157 206 253 308 367
#     4  11  25  42  63  90 127 167 205 255 312 368
#
# _framework density 21.376175
#
# number of rings (size 3 to 8) (size 9 to 14) (size 15 to 20)
#    0.000    1.667    1.667    2.500    0.000    7.333 
#    0.000    4.167    0.000    0.000    0.000    0.000 
#    0.000    0.000    0.000    0.000    0.000    0.000 
#
# Total GULP energy -134034.259949 kJ/mol
# GULP energy per Si atom -5584.760831 kJ/mol
# Density = 2.132752 g / cm^3
# Si number density = 21.376175 Si / 1000 Ang^3
#
#
#
# Elastic Constant Matrix: (Units=GPa)
#
#
# Indices 1 2 3 4 5 6 
#
# 1 43.2422 7.5734 6.8738 0.0000 11.3044 0.0000
# 2 7.5734 115.5577 31.7443 0.0000 3.4185 0.0000
# 3 6.8738 31.7443 70.2727 0.0000 13.1993 0.0000
# 4 0.0000 0.0000 0.0000 23.7265 0.0000 -1.4029
# 5 11.3044 3.4185 13.1993 0.0000 27.2949 0.0000
# 6 0.0000 0.0000 0.0000 -1.4029 0.0000 -3.4361
#
#
#
# Elastic Compliance Matrix: (Units=1/GPa)
#
#
# Indices 1 2 3 4 5 6 
#
# 1 0.026157 -0.001424 0.000094 0.000000 -0.010701 0.000000
# 2 -0.001424 0.009983 -0.004670 0.000000 0.001598 0.000000
# 3 0.000094 -0.004670 0.017850 0.000000 -0.008086 0.000000
# 4 0.000000 0.000000 0.000000 0.041153 0.000000 -0.016803
# 5 -0.010701 0.001598 -0.008086 0.000000 0.044779 0.000000
# 6 0.000000 0.000000 0.000000 -0.016803 0.000000 -0.284169
#
#
# Mechanical properties :
#
#
# Convention : Reuss Voigt Hill
#
# Bulk Modulus (GPa) = 23.81502 35.71728 29.76615
# Shear Modulus (GPa) = -42.28288 21.70913 -10.28688
#
# Velocity S-wave (km/s) = -4.45234 3.19027 -2.19608
# Velocity P-wave (km/s) = 3.90717 5.50596 2.74314
#
# Compressibility (1/GPa) = 0.04199031
#
# Stress axis : x y z
#
# Youngs Moduli (GPa) = 38.23028 100.17339 56.02379
#
# Poissons Ratio (x) = 0.14261 -0.00529
# Poissons Ratio (y) = 0.05443 0.26165
# Poissons Ratio (z) = -0.00361 0.46785
#
# Static dielectric constant tensor:
#      x y z
#    x 1.775950 0.000000 -0.025950 
#    y 0.000000 1.782110 0.000000 
#    z -0.025950 0.000000 1.757630 
# 
# From -- ./inp_files/330070.got.cif
#   From: 2010.05.17/outbox.cif.g08.bks.cpg/sg12_166_cif.got.tgz:330070.got - 2010.06.03 13:09:07.
