data_PCOD9184159
_publ_section_title
;
Structure prediction by ZEFSAII (Michael W. Deem and Ramdas Pophale) SiO2 
 PCOD9184159
Probable space group: C 2/M
;
_chemical_formula_sum "Si O2"
_cell_formula_units_Z 48
_cell_length_a 17.685661
_cell_length_b 12.481128
_cell_length_c 11.369990
_cell_angle_alpha 90.000000
_cell_angle_beta 112.538047
_cell_angle_gamma 90.000000
_cell_volume 2318.093740
_symmetry_space_group_name_H-M "C 2/M"
_symmetry_group_IT_number 12
_symmetry_cell_setting 'monoclinic'
loop_
_space_group_symop_operation_xyz
x,y,z
-x,y,-z
-x,-y,-z
x,-y,z
1/2+x,1/2+y,z
1/2-x,1/2+y,-z
1/2-x,1/2-y,-z
1/2+x,1/2-y,z
loop_
_atom_site_type_symbol
_atom_site_label
_atom_site_fract_x
_atom_site_fract_y
_atom_site_fract_z
Si Si1 0.679364 0.117521 0.379776
Si Si2 0.924887 0.874509 0.754228
Si Si3 0.911140 0.322961 0.893524
Si Si4 0.743997 0.875490 0.044243
Si Si5 0.085636 0.878400 0.716988
Si Si6 0.350248 0.717433 0.471038
O O1 0.606332 0.124443 0.243609
O O2 0.649061 0.160980 0.485971
O O3 0.756466 0.188650 0.384766
O O4 0.713229 0.000000 0.406737
O O5 0.901191 0.802713 0.852018
O O6 0.874240 0.846363 0.605153
O O7 0.017561 0.844169 0.770479
O O8 0.919608 0.000000 0.776376
O O9 0.840410 0.367796 0.934257
O O10 0.000000 0.341457 0.000000
O O11 0.825451 0.880232 0.171806
O O12 0.743026 0.000000 0.986575
O O13 0.750000 0.750000 0.000000
O O14 0.092670 0.810076 0.603245
O O15 0.063346 0.000000 0.668930
#
# Coordination Sequence:
#
# PCOD9184159 Si02
#       6
#     8   8   8   8   8   8
#     4  10  20  35  55  83 116 151 190 240 296 350
#     4  10  21  35  59  92 121 151 191 247 303 353
#     4  11  23  39  60  86 117 159 204 243 291 357
#     4  11  24  42  63  87 118 159 203 248 298 353
#     4  10  19  36  60  86 119 155 193 240 298 355
#     4  10  19  33  57  87 116 149 192 241 292 357
#
# _framework density 20.706669000000002
#
# number of rings (size 3 to 8) (size 9 to 14) (size 15 to 20)
#    0.000    1.667    1.667    3.500    0.000    3.667 
#    0.000    0.833    0.000    9.000    0.000    0.000 
#    0.000    0.000    0.000    0.000    0.000    0.000 
#
# Total GULP energy -133653.049959 kJ/mol
# GULP energy per Si atom -5568.877082 kJ/mol
# Density = 2.065954 g / cm^3
# Si number density = 20.706669 Si / 1000 Ang^3
#
#
#
# Elastic Constant Matrix: (Units=GPa)
#
#
# Indices 1 2 3 4 5 6 
#
# 1 62.8519 21.0548 20.7502 0.0000 23.2057 0.0000
# 2 21.0548 83.5957 25.2246 0.0000 -4.1138 0.0000
# 3 20.7502 25.2246 55.6422 0.0000 23.5335 0.0000
# 4 0.0000 0.0000 0.0000 18.1872 0.0000 -5.3598
# 5 23.2057 -4.1138 23.5335 0.0000 33.2832 0.0000
# 6 0.0000 0.0000 0.0000 -5.3598 0.0000 29.2468
#
#
#
# Elastic Compliance Matrix: (Units=1/GPa)
#
#
# Indices 1 2 3 4 5 6 
#
# 1 0.025442 -0.008424 0.003244 0.000000 -0.021073 0.000000
# 2 -0.008424 0.018714 -0.012561 0.000000 0.017068 0.000000
# 3 0.003244 -0.012561 0.034339 0.000000 -0.028094 0.000000
# 4 0.000000 0.000000 0.000000 0.058123 0.000000 0.010652
# 5 -0.021073 0.017068 -0.028094 0.000000 0.066712 0.000000
# 6 0.000000 0.000000 0.000000 0.010652 0.000000 0.036144
#
#
# Mechanical properties :
#
#
# Convention : Reuss Voigt Hill
#
# Bulk Modulus (GPa) = 23.24889 37.34990 30.29940
# Shear Modulus (GPa) = 17.28348 25.14748 21.21548
#
# Velocity S-wave (km/s) = 2.89222 3.48869 3.20437
# Velocity P-wave (km/s) = 4.73343 5.85703 5.32495
#
# Compressibility (1/GPa) = 0.04301281
#
# Stress axis : x y z
#
# Youngs Moduli (GPa) = 39.30522 53.43537 29.12140
#
# Poissons Ratio (x) = 0.45013 -0.09446
# Poissons Ratio (y) = 0.33110 0.36580
# Poissons Ratio (z) = -0.12750 0.67121
#
# Static dielectric constant tensor:
#      x y z
#    x 1.742860 0.000000 0.005770 
#    y 0.000000 1.833390 0.000000 
#    z 0.005770 0.000000 1.748340 
# 
# From -- ./inp_files/154306.got.cif
#   From: 2010.05.17/outbox.cif.g08.bks.cpg/sg12_78_cif.got.tgz:154306.got - 2010.06.03 13:09:07.
