data_PCOD9184306
_publ_section_title
;
Structure prediction by ZEFSAII (Michael W. Deem and Ramdas Pophale) SiO2 
 PCOD9184306
Probable space group: C 2/M
;
_chemical_formula_sum "Si O2"
_cell_formula_units_Z 56
_cell_length_a 15.595038
_cell_length_b 8.746390
_cell_length_c 25.133104
_cell_angle_alpha 90.000000
_cell_angle_beta 120.607785
_cell_angle_gamma 90.000000
_cell_volume 2950.526431
_symmetry_space_group_name_H-M "C 2/M"
_symmetry_group_IT_number 12
_symmetry_cell_setting 'monoclinic'
loop_
_space_group_symop_operation_xyz
x,y,z
-x,y,-z
-x,-y,-z
x,-y,z
1/2+x,1/2+y,z
1/2-x,1/2+y,-z
1/2-x,1/2-y,-z
1/2+x,1/2-y,z
loop_
_atom_site_type_symbol
_atom_site_label
_atom_site_fract_x
_atom_site_fract_y
_atom_site_fract_z
Si Si1 0.605427 0.816294 0.506926
Si Si2 0.667574 0.184582 0.933850
Si Si3 0.723045 0.315672 0.355546
Si Si4 0.751319 0.682969 0.155324
Si Si5 0.670740 0.683137 0.710622
Si Si6 0.945200 0.184078 0.620241
Si Si7 0.466957 0.816480 0.928903
O O1 0.500000 0.772237 0.500000
O O2 0.693730 0.770282 0.574409
O O3 0.608066 0.745693 0.449325
O O4 0.608099 0.000000 0.502998
O O5 0.694737 0.231549 0.882497
O O6 0.557801 0.230225 0.919162
O O7 0.672148 0.000000 0.938079
O O8 0.750000 0.250000 0.000000
O O9 0.726516 0.500000 0.351311
O O10 0.752018 0.242432 0.308955
O O11 0.617229 0.271242 0.347299
O O12 0.756302 0.500000 0.160421
O O13 0.801668 0.755288 0.222840
O O14 0.636644 0.735334 0.116027
O O15 0.671089 0.500000 0.711264
O O16 0.559534 0.736436 0.659044
O O17 0.944296 0.000000 0.617271
O O18 0.452994 0.000000 0.919983
O O19 0.500000 0.784017 0.000000
#
# Coordination Sequence:
#
# PCOD9184306 Si02
#       7
#     8   8   8   8   8   8   8
#     4  10  19  33  58  89 118 153 193 241 297 348
#     4  10  21  37  60  90 120 152 189 232 286 342
#     4  10  21  39  60  85 119 154 195 243 294 349
#     4  11  24  40  60  87 119 154 195 240 288 347
#     4  11  24  41  59  82 114 155 199 241 292 348
#     4  10  22  38  59  86 117 153 196 245 293 347
#     4  10  20  37  62  90 121 153 187 234 287 340
#
# _framework density 18.979665000000001
#
# number of rings (size 3 to 8) (size 9 to 14) (size 15 to 20)
#    0.000    1.714    2.857    1.286    0.000    4.571 
#    0.000    2.857    0.000    0.000    0.000    0.000 
#    0.000    0.000    0.000    0.000    0.000    0.000 
#
# Total GULP energy -156441.494756 kJ/mol
# GULP energy per Si atom -5587.196241 kJ/mol
# Density = 1.893647 g / cm^3
# Si number density = 18.979665 Si / 1000 Ang^3
#
#
#
# Elastic Constant Matrix: (Units=GPa)
#
#
# Indices 1 2 3 4 5 6 
#
# 1 126.9832 22.3225 31.6093 0.0000 -33.5802 0.0000
# 2 22.3225 15.0639 21.6760 0.0000 -9.7641 0.0000
# 3 31.6093 21.6760 92.8547 0.0000 -33.0866 0.0000
# 4 0.0000 0.0000 0.0000 33.7900 0.0000 -2.7236
# 5 -33.5802 -9.7641 -33.0866 0.0000 31.2056 0.0000
# 6 0.0000 0.0000 0.0000 -2.7236 0.0000 22.2235
#
#
#
# Elastic Compliance Matrix: (Units=1/GPa)
#
#
# Indices 1 2 3 4 5 6 
#
# 1 0.013448 -0.017307 0.004322 0.000000 0.013639 0.000000
# 2 -0.017307 0.124425 -0.025583 0.000000 -0.006818 0.000000
# 3 0.004322 -0.025583 0.022622 0.000000 0.020632 0.000000
# 4 0.000000 0.000000 0.000000 0.029890 0.000000 0.003663
# 5 0.013639 -0.006818 0.020632 0.000000 0.066464 0.000000
# 6 0.000000 0.000000 0.000000 0.003663 0.000000 0.045446
#
#
# Mechanical properties :
#
#
# Convention : Reuss Voigt Hill
#
# Bulk Modulus (GPa) = 11.99644 42.90193 27.44918
# Shear Modulus (GPa) = 12.27841 28.06341 20.17091
#
# Velocity S-wave (km/s) = 2.54623 3.84943 3.26354
# Velocity P-wave (km/s) = 3.87024 6.51235 5.35675
#
# Compressibility (1/GPa) = 0.08335807
#
# Stress axis : x y z
#
# Youngs Moduli (GPa) = 74.35822 8.03699 44.20480
#
# Poissons Ratio (x) = 0.13910 -0.19106
# Poissons Ratio (y) = 1.28694 1.13091
# Poissons Ratio (z) = -0.32138 0.20561
#
# Static dielectric constant tensor:
#      x y z
#    x 1.668800 0.000000 -0.000340 
#    y 0.000000 1.640860 0.000000 
#    z -0.000340 0.000000 1.620600 
# 
# From -- ./inp_files/309015.got.cif
#   From: 2010.05.17/outbox.cif.g08.bks.cpg/sg12_155_cif.got.tgz:309015.got - 2010.06.03 13:09:07.
