data_PCOD9184948
_publ_section_title
;
Structure prediction by ZEFSAII (Michael W. Deem and Ramdas Pophale) SiO2 
 PCOD9184948
Probable space group: C 2/M
;
_chemical_formula_sum "Si O2"
_cell_formula_units_Z 48
_cell_length_a 18.650417
_cell_length_b 16.571163
_cell_length_c 16.717633
_cell_angle_alpha 90.000000
_cell_angle_beta 29.132888
_cell_angle_gamma 90.000000
_cell_volume 2515.357771
_symmetry_space_group_name_H-M "C 2/M"
_symmetry_group_IT_number 12
_symmetry_cell_setting 'monoclinic'
loop_
_space_group_symop_operation_xyz
x,y,z
-x,y,-z
-x,-y,-z
x,-y,z
1/2+x,1/2+y,z
1/2-x,1/2+y,-z
1/2-x,1/2-y,-z
1/2+x,1/2-y,z
loop_
_atom_site_type_symbol
_atom_site_label
_atom_site_fract_x
_atom_site_fract_y
_atom_site_fract_z
Si Si1 0.704169 0.000000 0.586075
Si Si2 0.837117 0.326538 0.884829
Si Si3 0.665329 0.824323 0.303211
Si Si4 0.173771 0.000000 0.350642
Si Si5 0.843341 0.500000 0.696206
Si Si6 0.326616 0.171551 0.391150
Si Si7 0.332568 0.163977 0.193446
Si Si8 0.361487 0.000000 0.872644
O O1 0.780738 0.000000 0.598952
O O2 0.740107 0.086481 0.512292
O O3 0.522631 0.000000 0.759190
O O4 0.840246 0.322650 0.786662
O O5 0.783064 0.415018 0.966888
O O6 0.004439 0.322681 0.749521
O O7 0.750000 0.250000 0.000000
O O8 0.500000 0.818226 0.500000
O O9 0.727409 0.914609 0.260374
O O10 0.758961 0.747623 0.238398
O O11 0.246797 0.083312 0.248138
O O12 0.000000 0.000000 0.500000
O O13 0.875156 0.500000 0.761488
O O14 0.000000 0.500000 0.500000
O O15 0.250000 0.250000 0.500000
O O16 0.323139 0.165989 0.298794
O O17 0.500000 0.159350 0.000000
#
# Coordination Sequence:
#
# PCOD9184948 Si02
#       8
#     4   8   8   4   4   8   8   4
#     4   8  18  35  54  77 106 138 178 220 268 323
#     4  10  19  34  55  80 106 137 177 222 269 321
#     4  10  19  34  56  82 109 141 183 229 274 329
#     4  10  21  37  58  82 110 144 185 229 275 332
#     4   8  16  30  53  81 107 139 180 224 272 322
#     4  10  20  36  56  78 107 144 182 223 271 327
#     4  11  22  37  56  82 114 149 184 228 282 334
#     4   8  16  32  54  76 106 141 172 213 267 323
#
# _framework density 19.082773
#
# number of rings (size 3 to 8) (size 9 to 14) (size 15 to 20)
#    0.000    2.333    0.000    2.750    0.000    2.667 
#    0.000    3.750    0.000    0.000    0.000    0.000 
#    0.000    0.000    0.000    0.000    0.000    0.000 
#
# Total GULP energy -133651.289239 kJ/mol
# GULP energy per Si atom -5568.803718 kJ/mol
# Density = 1.903934 g / cm^3
# Si number density = 19.082773 Si / 1000 Ang^3
#
#
#
# Elastic Constant Matrix: (Units=GPa)
#
#
# Indices 1 2 3 4 5 6 
#
# 1 68.6210 60.3930 11.6370 -0.0001 -14.0810 0.0002
# 2 60.3930 261.9223 76.6158 0.0000 -20.2300 0.0001
# 3 11.6370 76.6158 67.3885 0.0003 -5.9889 0.0000
# 4 -0.0001 0.0000 0.0003 28.8903 -0.0002 -1.8525
# 5 -14.0810 -20.2300 -5.9889 -0.0002 22.7604 0.0000
# 6 0.0002 0.0001 0.0000 -1.8525 0.0000 29.9320
#
#
#
# Elastic Compliance Matrix: (Units=1/GPa)
#
#
# Indices 1 2 3 4 5 6 
#
# 1 0.020122 -0.004742 0.002711 0.000000 0.008948 0.000000
# 2 -0.004742 0.007116 -0.007137 0.000000 0.001513 0.000000
# 3 0.002711 -0.007137 0.022599 0.000000 0.001281 0.000000
# 4 0.000000 0.000000 0.000000 0.034752 0.000000 0.002151
# 5 0.008948 0.001513 0.001281 0.000000 0.051154 0.000000
# 6 0.000000 0.000000 0.000000 0.002151 0.000000 0.033542
#
#
# Mechanical properties :
#
#
# Convention : Reuss Voigt Hill
#
# Bulk Modulus (GPa) = 31.74336 77.24704 54.49520
# Shear Modulus (GPa) = 25.23732 32.93561 29.08646
#
# Velocity S-wave (km/s) = 3.64059 4.15894 3.90837
# Velocity P-wave (km/s) = 5.86025 7.97686 6.99903
#
# Compressibility (1/GPa) = 0.03150265
#
# Stress axis : x y z
#
# Youngs Moduli (GPa) = 49.69625 140.53383 44.24998
#
# Poissons Ratio (x) = 0.66637 -0.11998
# Poissons Ratio (y) = 0.23565 0.31580
# Poissons Ratio (z) = -0.13475 1.00295
#
# Static dielectric constant tensor:
#      x y z
#    x 1.644610 0.000000 0.013750 
#    y 0.000000 1.739100 0.000000 
#    z 0.013750 0.000000 1.621470 
# 
# From -- ./inp_files/86004.got.cif
#   From: 2010.05.17/outbox.cif.g08.bks.cpg/sg12_44_cif.got.tgz:86004.got - 2010.06.03 13:09:07.
