data_PCOD9184640
_publ_section_title
;
Structure prediction by ZEFSAII (Michael W. Deem and Ramdas Pophale) SiO2 
 PCOD9184640
Probable space group: C 2/M
;
_chemical_formula_sum "Si O2"
_cell_formula_units_Z 56
_cell_length_a 12.412530
_cell_length_b 21.836491
_cell_length_c 23.610636
_cell_angle_alpha 90.000000
_cell_angle_beta 31.120991
_cell_angle_gamma 90.000000
_cell_volume 3307.598955
_symmetry_space_group_name_H-M "C 2/M"
_symmetry_group_IT_number 12
_symmetry_cell_setting 'monoclinic'
loop_
_space_group_symop_operation_xyz
x,y,z
-x,y,-z
-x,-y,-z
x,-y,z
1/2+x,1/2+y,z
1/2-x,1/2+y,-z
1/2-x,1/2-y,-z
1/2+x,1/2-y,z
loop_
_atom_site_type_symbol
_atom_site_label
_atom_site_fract_x
_atom_site_fract_y
_atom_site_fract_z
Si Si1 0.600971 0.673022 0.287822
Si Si2 0.629654 0.071727 0.884742
Si Si3 0.760955 0.731459 0.619131
Si Si4 0.072566 0.569916 0.148006
Si Si5 0.660829 0.684129 0.974088
Si Si6 0.829942 0.870899 0.619518
Si Si7 0.556017 0.732356 0.825558
O O1 0.682849 0.619171 0.209916
O O2 0.397813 0.706291 0.355771
O O3 0.568858 0.645794 0.365181
O O4 0.789393 0.721663 0.210757
O O5 0.491675 0.078232 0.889436
O O6 0.693989 0.000000 0.858620
O O7 0.500000 0.085677 0.000000
O O8 0.755164 0.805640 0.627219
O O9 0.682163 0.707589 0.715409
O O10 0.000000 0.714988 0.500000
O O11 0.130477 0.500000 0.131135
O O12 0.867895 0.587751 0.276317
O O13 0.251664 0.618017 0.081036
O O14 0.861216 0.727937 0.890113
O O15 0.500000 0.707658 0.000000
O O16 0.540741 0.684297 0.087720
O O17 0.000000 0.897328 0.500000
#
# Coordination Sequence:
#
# PCOD9184640 Si02
#       7
#     8   8   8   8   8   8   8
#     4  10  19  34  53  79 105 138 169 220 259 312
#     4   9  18  32  54  79 103 135 176 220 261 306
#     4  10  20  33  52  80 111 134 172 213 265 315
#     4  10  20  37  52  76 108 136 182 222 257 312
#     4  11  21  35  51  78 109 143 173 214 266 316
#     4   9  19  35  52  78 105 137 179 214 265 308
#     4  10  21  34  52  80 105 141 175 209 265 318
#
# _framework density 16.930710999999999
#
# number of rings (size 3 to 8) (size 9 to 14) (size 15 to 20)
#    0.000    2.143    4.286    0.857    2.000    6.286 
#    0.000    0.000    0.000    0.429    0.000    0.000 
#    0.000    0.000    0.000    0.000    0.000    0.000 
#
# Total GULP energy -156137.856769 kJ/mol
# GULP energy per Si atom -5576.352027 kJ/mol
# Density = 1.689218 g / cm^3
# Si number density = 16.930711 Si / 1000 Ang^3
#
#
#
# Elastic Constant Matrix: (Units=GPa)
#
#
# Indices 1 2 3 4 5 6 
#
# 1 60.2260 28.5526 48.1658 0.0449 -13.6891 -0.0020
# 2 28.5526 38.2045 27.8035 0.0502 -1.9089 0.0021
# 3 48.1658 27.8035 125.9577 0.0864 12.6405 -0.0055
# 4 0.0449 0.0502 0.0864 9.0843 -0.0229 13.3707
# 5 -13.6891 -1.9089 12.6405 -0.0229 33.7928 0.0382
# 6 -0.0020 0.0021 -0.0055 13.3707 0.0382 -4.9352
#
#
#
# Elastic Compliance Matrix: (Units=1/GPa)
#
#
# Indices 1 2 3 4 5 6 
#
# 1 0.041920 -0.020359 -0.013637 -0.000027 0.020932 0.000078
# 2 -0.020359 0.041747 -0.000871 -0.000023 -0.005563 -0.000077
# 3 -0.013637 -0.000871 0.014448 0.000010 -0.010978 -0.000070
# 4 -0.000027 -0.000023 0.000010 0.022071 -0.000068 0.059795
# 5 0.020932 -0.005563 -0.010978 -0.000068 0.041863 0.000140
# 6 0.000078 -0.000077 -0.000070 0.059795 0.000140 -0.040625
#
#
# Mechanical properties :
#
#
# Convention : Reuss Voigt Hill
#
# Bulk Modulus (GPa) = 35.23624 48.15911 41.69768
# Shear Modulus (GPa) = 24.92285 15.57947 20.25116
#
# Velocity S-wave (km/s) = 3.84089 3.03675 3.46225
# Velocity P-wave (km/s) = 6.36609 6.38768 6.37689
#
# Compressibility (1/GPa) = 0.02837987
#
# Stress axis : x y z
#
# Youngs Moduli (GPa) = 23.85486 23.95380 69.21468
#
# Poissons Ratio (x) = 0.48769 0.94386
# Poissons Ratio (y) = 0.48567 0.06031
# Poissons Ratio (z) = 0.32530 0.02087
#
# Static dielectric constant tensor:
#      x y z
#    x 1.586370 0.000010 0.017880 
#    y 0.000010 1.564620 0.000020 
#    z 0.017880 0.000020 1.582040 
# 
# From -- ./inp_files/337001.got.cif
#   From: 2010.05.17/outbox.cif.g08.bks.cpg/sg12_169_cif.got.tgz:337001.got - 2010.06.03 13:09:07.
