data_PCOD9184949
_publ_section_title
;
Structure prediction by ZEFSAII (Michael W. Deem and Ramdas Pophale) SiO2 
 PCOD9184949
Probable space group: C 2/M
;
_chemical_formula_sum "Si O2"
_cell_formula_units_Z 56
_cell_length_a 19.234809
_cell_length_b 9.333136
_cell_length_c 27.108058
_cell_angle_alpha 90.000000
_cell_angle_beta 41.475143
_cell_angle_gamma 90.000000
_cell_volume 3223.037773
_symmetry_space_group_name_H-M "C 2/M"
_symmetry_group_IT_number 12
_symmetry_cell_setting 'monoclinic'
loop_
_space_group_symop_operation_xyz
x,y,z
-x,y,-z
-x,-y,-z
x,-y,z
1/2+x,1/2+y,z
1/2-x,1/2+y,-z
1/2-x,1/2-y,-z
1/2+x,1/2-y,z
loop_
_atom_site_type_symbol
_atom_site_label
_atom_site_fract_x
_atom_site_fract_y
_atom_site_fract_z
Si Si1 0.646743 0.340587 0.548973
Si Si2 0.259523 0.170110 0.734299
Si Si3 0.041544 0.173321 0.422250
Si Si4 0.068582 0.329072 0.788892
Si Si5 0.680024 0.168645 0.076473
Si Si6 0.663642 0.166771 0.195482
Si Si7 0.043537 0.840420 0.709698
O O1 0.672336 0.500000 0.516573
O O2 0.750000 0.250000 0.500000
O O3 0.554038 0.284198 0.563301
O O4 0.603563 0.349903 0.626969
O O5 0.353794 0.245700 0.652808
O O6 0.149893 0.247151 0.780341
O O7 0.279209 0.183677 0.782770
O O8 0.256849 0.000000 0.724069
O O9 0.000000 0.202692 0.500000
O O10 0.058408 0.000000 0.409130
O O11 0.080284 0.500000 0.786242
O O12 0.944385 0.293397 0.861367
O O13 0.094268 0.269963 0.720753
O O14 0.717148 0.191283 0.113617
O O15 0.687114 0.000000 0.062921
O O16 0.750000 0.250000 0.000000
O O17 0.568991 0.277715 0.244623
O O18 0.625742 0.000000 0.213518
O O19 0.036537 0.000000 0.735662
#
# Coordination Sequence:
#
# PCOD9184949 Si02
#       7
#     8   8   8   8   8   8   8
#     4  10  22  36  52  77 108 142 185 232 281 335
#     4  11  22  37  59  85 113 148 192 238 281 330
#     4  10  22  40  57  78 111 153 192 232 289 342
#     4  10  22  38  57  82 115 150 185 226 279 337
#     4   9  19  37  60  86 114 146 183 223 274 331
#     4   9  19  36  57  82 112 147 182 222 276 333
#     4  10  19  34  55  80 106 138 188 237 273 325
#
# _framework density 17.374911999999998
#
# number of rings (size 3 to 8) (size 9 to 14) (size 15 to 20)
#    0.000    2.143    1.429    2.143    2.000    5.429 
#    0.000    0.714    0.000    4.286    0.000    0.000 
#    0.000    0.000    0.000    0.000    0.000    0.000 
#
# Total GULP energy -155962.883030 kJ/mol
# GULP energy per Si atom -5570.102965 kJ/mol
# Density = 1.733537 g / cm^3
# Si number density = 17.374912 Si / 1000 Ang^3
#
#
#
# Elastic Constant Matrix: (Units=GPa)
#
#
# Indices 1 2 3 4 5 6 
#
# 1 99.2671 55.8622 55.4840 0.0000 0.0883 0.0000
# 2 55.8622 74.1128 53.0746 0.0000 1.7359 0.0001
# 3 55.4840 53.0746 99.6059 0.0000 14.5202 0.0000
# 4 0.0000 0.0000 0.0000 24.8850 0.0000 -2.1519
# 5 0.0883 1.7359 14.5202 0.0000 19.4598 0.0000
# 6 0.0000 0.0001 0.0000 -2.1519 0.0000 31.5093
#
#
#
# Elastic Compliance Matrix: (Units=1/GPa)
#
#
# Indices 1 2 3 4 5 6 
#
# 1 0.019224 -0.010338 -0.005971 0.000000 0.005291 0.000000
# 2 -0.010338 0.028413 -0.010119 0.000000 0.005063 0.000000
# 3 -0.005971 -0.010119 0.020895 0.000000 -0.014661 0.000000
# 4 0.000000 0.000000 0.000000 0.040424 0.000000 0.002761
# 5 0.005291 0.005063 -0.014661 0.000000 0.061852 0.000000
# 6 0.000000 0.000000 0.000000 0.002761 0.000000 0.031925
#
#
# Mechanical properties :
#
#
# Convention : Reuss Voigt Hill
#
# Bulk Modulus (GPa) = 63.79378 66.86973 65.33175
# Shear Modulus (GPa) = 19.17058 22.40850 20.78954
#
# Velocity S-wave (km/s) = 3.32527 3.59514 3.46284
# Velocity P-wave (km/s) = 7.17907 7.47016 7.32606
#
# Compressibility (1/GPa) = 0.01567551
#
# Stress axis : x y z
#
# Youngs Moduli (GPa) = 52.01732 35.19465 47.85785
#
# Poissons Ratio (x) = 0.36384 0.28578
# Poissons Ratio (y) = 0.53775 0.48430
# Poissons Ratio (z) = 0.31061 0.35615
#
# Static dielectric constant tensor:
#      x y z
#    x 1.611830 0.000000 0.013970 
#    y 0.000000 1.615760 0.000000 
#    z 0.013970 0.000000 1.590510 
# 
# From -- ./inp_files/342270.got.cif
#   From: 2010.05.17/outbox.cif.g08.bks.cpg/sg12_172_cif.got.tgz:342270.got - 2010.06.03 13:09:07.
