data_PCOD9184960
_publ_section_title
;
Structure prediction by ZEFSAII (Michael W. Deem and Ramdas Pophale) SiO2 
 PCOD9184960
Probable space group: C 2/M
;
_chemical_formula_sum "Si O2"
_cell_formula_units_Z 56
_cell_length_a 30.898909
_cell_length_b 8.850535
_cell_length_c 12.811337
_cell_angle_alpha 90.000000
_cell_angle_beta 74.805093
_cell_angle_gamma 90.000000
_cell_volume 3381.055874
_symmetry_space_group_name_H-M "C 2/M"
_symmetry_group_IT_number 12
_symmetry_cell_setting 'monoclinic'
loop_
_space_group_symop_operation_xyz
x,y,z
-x,y,-z
-x,-y,-z
x,-y,z
1/2+x,1/2+y,z
1/2-x,1/2+y,-z
1/2-x,1/2-y,-z
1/2+x,1/2-y,z
loop_
_atom_site_type_symbol
_atom_site_label
_atom_site_fract_x
_atom_site_fract_y
_atom_site_fract_z
Si Si1 0.047959 0.818587 0.021470
Si Si2 0.200469 0.818558 0.414264
Si Si3 0.554833 0.181058 0.630746
Si Si4 0.452169 0.819513 0.750383
Si Si5 0.705838 0.681346 0.654645
Si Si6 0.896659 0.181584 0.600760
Si Si7 0.609734 0.682392 0.789366
O O1 0.053208 0.737821 0.128349
O O2 0.048442 0.000000 0.037210
O O3 0.086178 0.779289 0.913284
O O4 0.000000 0.779703 0.000000
O O5 0.246847 0.751474 0.342876
O O6 0.197198 0.774294 0.538888
O O7 0.155043 0.771592 0.385332
O O8 0.203060 0.000000 0.409328
O O9 0.502617 0.219707 0.680678
O O10 0.574487 0.253931 0.513697
O O11 0.582613 0.242518 0.711876
O O12 0.558770 0.000000 0.622180
O O13 0.417113 0.743302 0.694521
O O14 0.447686 0.000000 0.748711
O O15 0.709667 0.500000 0.655157
O O16 0.661902 0.725614 0.747316
O O17 0.898578 0.000000 0.597164
O O18 0.606821 0.500000 0.777928
#
# Coordination Sequence:
#
# PCOD9184960 Si02
#       7
#     8   8   8   8   8   8   8
#     4  10  20  35  58  80 102 140 185 222 259 307
#     4   9  18  32  51  77 106 135 171 214 262 316
#     4  11  22  34  51  78 111 144 175 213 265 317
#     4  11  24  38  52  76 111 144 179 220 265 316
#     4   9  17  31  51  77 108 137 168 213 265 311
#     4  11  22  37  56  77 106 143 181 220 261 314
#     4  10  19  34  55  80 109 139 179 220 257 310
#
# _framework density 16.562873
#
# number of rings (size 3 to 8) (size 9 to 14) (size 15 to 20)
#    0.000    1.857    2.857    1.714    0.000    6.000 
#    0.000    0.000    0.000    0.857    0.000    0.000 
#    0.000    0.000    0.000    0.000    0.000    0.000 
#
# Total GULP energy -156313.793773 kJ/mol
# GULP energy per Si atom -5582.635492 kJ/mol
# Density = 1.652518 g / cm^3
# Si number density = 16.562873 Si / 1000 Ang^3
#
#
#
# Elastic Constant Matrix: (Units=GPa)
#
#
# Indices 1 2 3 4 5 6 
#
# 1 149.9500 47.8514 96.2596 0.0000 -12.1370 0.0000
# 2 47.8514 29.2393 40.6067 0.0000 -0.6995 0.0000
# 3 96.2596 40.6067 106.9667 0.0000 -1.9908 0.0000
# 4 0.0000 0.0000 0.0000 15.3732 0.0000 -10.9291
# 5 -12.1370 -0.6995 -1.9908 0.0000 30.8820 0.0000
# 6 0.0000 0.0000 0.0000 -10.9291 0.0000 16.4032
#
#
#
# Elastic Compliance Matrix: (Units=1/GPa)
#
#
# Indices 1 2 3 4 5 6 
#
# 1 0.019773 -0.016203 -0.011519 0.000000 0.006662 0.000000
# 2 -0.016203 0.085615 -0.018024 0.000000 -0.005591 0.000000
# 3 -0.011519 -0.018024 0.026497 0.000000 -0.003227 0.000000
# 4 0.000000 0.000000 0.000000 0.123588 0.000000 0.082344
# 5 0.006662 -0.005591 -0.003227 0.000000 0.034665 0.000000
# 6 0.000000 0.000000 0.000000 0.082344 0.000000 0.115828
#
#
# Mechanical properties :
#
#
# Convention : Reuss Voigt Hill
#
# Bulk Modulus (GPa) = 24.75673 72.84347 48.80010
# Shear Modulus (GPa) = 9.78622 19.29425 14.54024
#
# Velocity S-wave (km/s) = 2.43338 3.41678 2.96612
# Velocity P-wave (km/s) = 4.78275 7.72278 6.42324
#
# Compressibility (1/GPa) = 0.04039305
#
# Stress axis : x y z
#
# Youngs Moduli (GPa) = 50.57295 11.68015 37.74030
#
# Poissons Ratio (x) = 0.18926 0.43473
# Poissons Ratio (y) = 0.81945 0.68023
# Poissons Ratio (z) = 0.58255 0.21052
#
# Static dielectric constant tensor:
#      x y z
#    x 1.551190 0.000000 -0.016320 
#    y 0.000000 1.556860 0.000000 
#    z -0.016320 0.000000 1.531680 
# 
# From -- ./inp_files/186400.got.cif
#   From: 2010.05.17/outbox.cif.g08.bks.cpg/sg12_94_cif.got.tgz:186400.got - 2010.06.03 13:09:07.
