data_PCOD9184665
_publ_section_title
;
Structure prediction by ZEFSAII (Michael W. Deem and Ramdas Pophale) SiO2 
 PCOD9184665
Probable space group: C 2/M
;
_chemical_formula_sum "Si O2"
_cell_formula_units_Z 40
_cell_length_a 8.590882
_cell_length_b 16.851415
_cell_length_c 13.752155
_cell_angle_alpha 90.000000
_cell_angle_beta 121.669991
_cell_angle_gamma 90.000000
_cell_volume 1694.409747
_symmetry_space_group_name_H-M "C 2/M"
_symmetry_group_IT_number 12
_symmetry_cell_setting 'monoclinic'
loop_
_space_group_symop_operation_xyz
x,y,z
-x,y,-z
-x,-y,-z
x,-y,z
1/2+x,1/2+y,z
1/2-x,1/2+y,-z
1/2-x,1/2-y,-z
1/2+x,1/2-y,z
loop_
_atom_site_type_symbol
_atom_site_label
_atom_site_fract_x
_atom_site_fract_y
_atom_site_fract_z
Si Si1 0.913394 0.873577 0.828236
Si Si2 0.269893 0.846446 0.026795
Si Si3 0.719110 0.084629 0.571809
Si Si4 0.514271 0.277202 0.393102
Si Si5 0.386134 0.809714 0.761394
O O1 0.820738 0.877938 0.902884
O O2 0.800980 0.915994 0.707900
O O3 0.894238 0.780622 0.799789
O O4 0.132834 0.887396 0.905001
O O5 0.484444 0.857061 0.121549
O O6 0.250000 0.750000 0.000000
O O7 0.500000 0.088064 0.500000
O O8 0.820269 0.160835 0.560850
O O9 0.768994 0.000000 0.540273
O O10 0.500000 0.252613 0.500000
O O11 0.534607 0.205099 0.322079
O O12 0.328318 0.326395 0.309996
#
# Coordination Sequence:
#
# PCOD9184665 Si02
#       5
#     8   8   8   8   8
#     4   9  18  34  57  86 113 156 195 229 287 354
#     4   9  17  31  55  85 127 153 181 224 291 365
#     4  10  24  45  62  78 111 161 209 251 290 335
#     4  11  23  34  58  89 123 157 195 241 290 359
#     4  10  19  34  53  89 128 154 179 233 302 358
#
# _framework density 23.607040999999999
#
# number of rings (size 3 to 8) (size 9 to 14) (size 15 to 20)
#    0.000    2.200    2.000    0.600    2.800    3.600 
#    0.000    2.000    0.000    2.400    0.000    0.000 
#    0.000    0.000    0.000    0.000    0.000    0.000 
#
# Total GULP energy -111430.504209 kJ/mol
# GULP energy per Si atom -5571.525210 kJ/mol
# Density = 2.355331 g / cm^3
# Si number density = 23.607041 Si / 1000 Ang^3
#
#
#
# Elastic Constant Matrix: (Units=GPa)
#
#
# Indices 1 2 3 4 5 6 
#
# 1 97.0392 13.9352 62.4527 0.0000 30.3206 0.0000
# 2 13.9352 57.4246 7.6627 0.0000 7.2452 0.0000
# 3 62.4527 7.6627 176.3572 0.0000 48.7999 0.0000
# 4 0.0000 0.0000 0.0000 -22.0844 0.0000 -8.4059
# 5 30.3206 7.2452 48.7999 0.0000 62.7775 0.0000
# 6 0.0000 0.0000 0.0000 -8.4059 0.0000 -6.6433
#
#
#
# Elastic Compliance Matrix: (Units=1/GPa)
#
#
# Indices 1 2 3 4 5 6 
#
# 1 0.014337 -0.002501 -0.003990 0.000000 -0.003534 0.000000
# 2 -0.002501 0.018117 0.000437 0.000000 -0.001223 0.000000
# 3 -0.003990 0.000437 0.008339 0.000000 -0.004605 0.000000
# 4 0.000000 0.000000 0.000000 -0.087349 0.000000 0.110524
# 5 -0.003534 -0.001223 -0.004605 0.000000 0.021357 0.000000
# 6 0.000000 0.000000 0.000000 0.110524 0.000000 -0.290374
#
#
# Mechanical properties :
#
#
# Convention : Reuss Voigt Hill
#
# Bulk Modulus (GPa) = 34.86354 55.43581 45.14967
# Shear Modulus (GPa) = -17.01239 23.26132 3.12446
#
# Velocity S-wave (km/s) = -2.68740 3.14244 1.15170
# Velocity P-wave (km/s) = 2.27395 6.05808 4.57554
#
# Compressibility (1/GPa) = 0.02868326
#
# Stress axis : x y z
#
# Youngs Moduli (GPa) = 69.75172 55.19694 119.92184
#
# Poissons Ratio (x) = 0.13803 0.47854
# Poissons Ratio (y) = 0.17443 -0.05237
# Poissons Ratio (z) = 0.27834 -0.02410
#
# Static dielectric constant tensor:
#      x y z
#    x 0.912250 0.000000 0.470910 
#    y 0.000000 1.875410 0.000000 
#    z 0.470910 0.000000 1.833320 
# 
# From -- ./inp_files/198101.got.cif
#   From: 2010.05.17/outbox.cif.g08.bks.cpg/sg12_100_cif.got.tgz:198101.got - 2010.06.03 13:09:07.
