data_PCOD9184945
_publ_section_title
;
Structure prediction by ZEFSAII (Michael W. Deem and Ramdas Pophale) SiO2 
 PCOD9184945
Probable space group: C 2/M
;
_chemical_formula_sum "Si O2"
_cell_formula_units_Z 48
_cell_length_a 26.349688
_cell_length_b 7.533472
_cell_length_c 20.881149
_cell_angle_alpha 90.000000
_cell_angle_beta 145.648910
_cell_angle_gamma 90.000000
_cell_volume 2338.870608
_symmetry_space_group_name_H-M "C 2/M"
_symmetry_group_IT_number 12
_symmetry_cell_setting 'monoclinic'
loop_
_space_group_symop_operation_xyz
x,y,z
-x,y,-z
-x,-y,-z
x,-y,z
1/2+x,1/2+y,z
1/2-x,1/2+y,-z
1/2-x,1/2-y,-z
1/2+x,1/2-y,z
loop_
_atom_site_type_symbol
_atom_site_label
_atom_site_fract_x
_atom_site_fract_y
_atom_site_fract_z
Si Si1 0.934092 0.717618 0.373437
Si Si2 0.236463 0.790248 0.610419
Si Si3 0.260828 0.714224 0.784399
Si Si4 0.040178 0.296260 0.362838
Si Si5 0.586755 0.209737 0.274199
Si Si6 0.955887 0.785330 0.021069
O O1 0.935254 0.500000 0.374081
O O2 0.832751 0.775898 0.282554
O O3 0.000000 0.771417 0.500000
O O4 0.974443 0.781337 0.348086
O O5 0.263195 0.764145 0.712124
O O6 0.140427 0.704585 0.496727
O O7 0.317093 0.719046 0.649937
O O8 0.225855 0.000000 0.587883
O O9 0.259998 0.500000 0.785911
O O10 0.352378 0.774943 0.913583
O O11 0.010101 0.500000 0.322663
O O12 0.050291 0.214161 0.302940
O O13 0.515486 0.228465 0.143001
O O14 0.601782 0.000000 0.300785
O O15 0.956662 0.000000 0.021459
O O16 0.000000 0.726002 0.000000
#
# Coordination Sequence:
#
# PCOD9184945 Si02
#       6
#     8   8   8   8   8   8
#     4   9  16  30  56  80  98 132 177 216 251 298
#     4  11  21  32  50  80 110 136 166 212 268 310
#     4  10  19  34  55  80 104 132 175 218 255 303
#     4  10  20  36  55  76 104 140 178 211 253 312
#     4  10  22  36  52  76 108 142 172 210 261 313
#     4  10  20  34  55  79 103 136 176 217 256 300
#
# _framework density 20.522725000000001
#
# number of rings (size 3 to 8) (size 9 to 14) (size 15 to 20)
#    0.000    2.000    3.333    1.000    0.000    2.333 
#    0.000    2.500    0.000    0.000    0.000    0.000 
#    0.000    0.000    0.000    0.000    0.000    0.000 
#
# Total GULP energy -134052.273640 kJ/mol
# GULP energy per Si atom -5585.511402 kJ/mol
# Density = 2.047601 g / cm^3
# Si number density = 20.522725 Si / 1000 Ang^3
#
#
#
# Elastic Constant Matrix: (Units=GPa)
#
#
# Indices 1 2 3 4 5 6 
#
# 1 176.3973 6.4833 27.1444 0.0000 16.6042 0.0000
# 2 6.4833 53.4903 -8.4223 0.0000 6.6802 0.0000
# 3 27.1444 -8.4223 42.5742 0.0000 19.4909 0.0000
# 4 0.0000 0.0000 0.0000 3.8814 0.0000 4.3721
# 5 16.6042 6.6802 19.4909 0.0000 35.7867 0.0000
# 6 0.0000 0.0000 0.0000 4.3721 0.0000 -2.3986
#
#
#
# Elastic Compliance Matrix: (Units=1/GPa)
#
#
# Indices 1 2 3 4 5 6 
#
# 1 0.006400 -0.001371 -0.004142 0.000000 -0.000458 0.000000
# 2 -0.001371 0.021262 0.008800 0.000000 -0.008126 0.000000
# 3 -0.004142 0.008800 0.036958 0.000000 -0.019849 0.000000
# 4 0.000000 0.000000 0.000000 0.084383 0.000000 0.153810
# 5 -0.000458 -0.008126 -0.019849 0.000000 0.040483 0.000000
# 6 0.000000 0.000000 0.000000 0.153810 0.000000 -0.136547
#
#
# Mechanical properties :
#
#
# Convention : Reuss Voigt Hill
#
# Bulk Modulus (GPa) = 14.04623 35.87473 24.96048
# Shear Modulus (GPa) = 71.33194 23.93765 47.63480
#
# Velocity S-wave (km/s) = 5.90195 3.41896 4.82298
# Velocity P-wave (km/s) = 7.30090 5.75362 6.57295
#
# Compressibility (1/GPa) = 0.07119348
#
# Stress axis : x y z
#
# Youngs Moduli (GPa) = 156.25311 47.03326 27.05803
#
# Poissons Ratio (x) = 0.06447 0.11208
# Poissons Ratio (y) = 0.21419 -0.23811
# Poissons Ratio (z) = 0.64722 -0.41390
#
# Static dielectric constant tensor:
#      x y z
#    x 1.744130 0.000000 0.010340 
#    y 0.000000 1.779330 0.000000 
#    z 0.010340 0.000000 1.681560 
# 
# From -- ./inp_files/327199.got.cif
#   From: 2010.05.17/outbox.cif.g08.bks.cpg/sg12_164_cif.got.tgz:327199.got - 2010.06.03 13:09:07.
