data_PCOD9184357
_publ_section_title
;
Structure prediction by ZEFSAII (Michael W. Deem and Ramdas Pophale) SiO2 
 PCOD9184357
Probable space group: C 2/M
;
_chemical_formula_sum "Si O2"
_cell_formula_units_Z 56
_cell_length_a 8.639985
_cell_length_b 17.853368
_cell_length_c 22.679670
_cell_angle_alpha 90.000000
_cell_angle_beta 42.411137
_cell_angle_gamma 90.000000
_cell_volume 2359.483824
_symmetry_space_group_name_H-M "C 2/M"
_symmetry_group_IT_number 12
_symmetry_cell_setting 'monoclinic'
loop_
_space_group_symop_operation_xyz
x,y,z
-x,y,-z
-x,-y,-z
x,-y,z
1/2+x,1/2+y,z
1/2-x,1/2+y,-z
1/2-x,1/2-y,-z
1/2+x,1/2-y,z
loop_
_atom_site_type_symbol
_atom_site_label
_atom_site_fract_x
_atom_site_fract_y
_atom_site_fract_z
Si Si1 0.255642 0.000000 0.855263
Si Si2 0.565042 0.410583 0.546678
Si Si3 0.115268 0.656042 0.235015
Si Si4 0.547028 0.856810 0.907316
Si Si5 0.947108 0.090252 0.706463
Si Si6 0.237403 0.500000 0.005211
Si Si7 0.437110 0.089092 0.627307
Si Si8 0.922737 0.762467 0.858454
O O1 0.373894 0.924063 0.800473
O O2 0.247210 0.000000 0.927987
O O3 0.991795 0.000000 0.907177
O O4 0.500000 0.381208 0.500000
O O5 0.514395 0.500000 0.559216
O O6 0.444236 0.381111 0.639708
O O7 0.839709 0.402572 0.476273
O O8 0.018150 0.637515 0.326677
O O9 0.372126 0.686240 0.175958
O O10 0.015364 0.719592 0.220148
O O11 0.740616 0.882248 0.805001
O O12 0.381062 0.802073 0.917800
O O13 0.700414 0.811128 0.909606
O O14 0.405687 0.926856 0.968887
O O15 0.194050 0.108798 0.666270
O O16 0.934664 0.000000 0.708218
O O17 0.425369 0.000000 0.646732
#
# Coordination Sequence:
#
# PCOD9184357 Si02
#       8
#     4   8   8   8   8   4   8   8
#     4  11  24  43  69 100 127 158 207 265 314 369
#     4   9  19  31  49  88 127 158 206 267 318 364
#     4  11  21  42  64  94 126 169 211 258 311 374
#     4  11  21  42  64  94 126 169 211 258 311 374
#     4  10  19  33  59  88 123 161 211 264 317 365
#     4  11  24  43  69 100 127 158 207 265 314 369
#     4  10  19  33  59  88 123 161 211 264 317 365
#     4  10  24  38  63  93 130 168 212 250 312 383
#
# _framework density 23.734002
#
# number of rings (size 3 to 8) (size 9 to 14) (size 15 to 20)
#    0.000    1.714    4.286    0.429    2.000    2.286 
#    0.000    5.714    0.000    5.143    0.000    0.000 
#    0.000    0.000    0.000    0.000    0.000    0.000 
#
# Total GULP energy -156745.531316 kJ/mol
# GULP energy per Si atom -5598.054690 kJ/mol
# Density = 2.367998 g / cm^3
# Si number density = 23.734002 Si / 1000 Ang^3
#
#
#
# Elastic Constant Matrix: (Units=GPa)
#
#
# Indices 1 2 3 4 5 6 
#
# 1 107.0685 30.7331 11.6851 0.0048 0.1508 -0.0032
# 2 30.7331 92.6922 8.3469 0.0022 -1.4579 -0.0024
# 3 11.6851 8.3469 70.5051 -0.0010 0.1407 -0.0034
# 4 0.0048 0.0022 -0.0010 20.9194 -0.0001 -0.7323
# 5 0.1508 -1.4579 0.1407 -0.0001 31.7689 0.0003
# 6 -0.0032 -0.0024 -0.0034 -0.7323 0.0003 36.8390
#
#
#
# Elastic Compliance Matrix: (Units=1/GPa)
#
#
# Indices 1 2 3 4 5 6 
#
# 1 0.010446 -0.003347 -0.001335 -0.000002 -0.000197 0.000001
# 2 -0.003347 0.011985 -0.000865 -0.000001 0.000570 0.000000
# 3 -0.001335 -0.000865 0.014507 0.000001 -0.000098 0.000001
# 4 -0.000002 -0.000001 0.000001 0.047836 0.000000 0.000951
# 5 -0.000197 0.000570 -0.000098 0.000000 0.031505 0.000000
# 6 0.000001 0.000000 0.000001 0.000951 0.000000 0.027164
#
#
# Mechanical properties :
#
#
# Convention : Reuss Voigt Hill
#
# Bulk Modulus (GPa) = 38.69190 41.31068 40.00129
# Shear Modulus (GPa) = 30.64637 32.53884 31.59261
#
# Velocity S-wave (km/s) = 3.59729 3.70669 3.65240
# Velocity P-wave (km/s) = 5.79583 5.98021 5.88874
#
# Compressibility (1/GPa) = 0.02584520
#
# Stress axis : x y z
#
# Youngs Moduli (GPa) = 95.72722 83.43865 68.93120
#
# Poissons Ratio (x) = 0.27923 0.09200
# Poissons Ratio (y) = 0.32035 0.05965
# Poissons Ratio (z) = 0.12777 0.07220
#
# Static dielectric constant tensor:
#      x y z
#    x 1.941830 0.000000 0.027910 
#    y 0.000000 1.857880 0.000000 
#    z 0.027910 0.000000 1.928130 
# 
# From -- ./inp_files/356700.got.cif
#   From: 2010.05.17/outbox.cif.g08.bks.cpg/sg12_179_cif.got.tgz:356700.got - 2010.06.03 13:09:07.
