data_PCOD9184384
_publ_section_title
;
Structure prediction by ZEFSAII (Michael W. Deem and Ramdas Pophale) SiO2 
 PCOD9184384
Probable space group: C 2/M
;
_chemical_formula_sum "Si O2"
_cell_formula_units_Z 58
_cell_length_a 11.551819
_cell_length_b 21.257842
_cell_length_c 10.570470
_cell_angle_alpha 90.000000
_cell_angle_beta 98.729037
_cell_angle_gamma 90.000000
_cell_volume 2565.689516
_symmetry_space_group_name_H-M "C 2/M"
_symmetry_group_IT_number 12
_symmetry_cell_setting 'monoclinic'
loop_
_space_group_symop_operation_xyz
x,y,z
-x,y,-z
-x,-y,-z
x,-y,z
1/2+x,1/2+y,z
1/2-x,1/2+y,-z
1/2-x,1/2-y,-z
1/2+x,1/2-y,z
loop_
_atom_site_type_symbol
_atom_site_label
_atom_site_fract_x
_atom_site_fract_y
_atom_site_fract_z
Si Si1 0.959979 0.290314 0.844470
Si Si2 0.000000 0.000000 0.500000
Si Si3 0.723803 0.930999 0.831378
Si Si4 0.666370 0.322496 0.310177
Si Si5 0.923154 0.124750 0.350475
Si Si6 0.606711 0.426546 0.926484
Si Si7 0.394910 0.761284 0.382536
Si Si8 0.459531 0.931044 0.847373
O O1 0.873722 0.234368 0.788338
O O2 0.061793 0.280891 0.753052
O O3 0.908471 0.361241 0.818690
O O4 0.000000 0.284619 0.000000
O O5 0.921926 0.942512 0.419432
O O6 0.791684 0.880650 0.764331
O O7 0.584997 0.928899 0.796496
O O8 0.766055 0.000000 0.798910
O O9 0.769332 0.922332 0.981939
O O10 0.556878 0.347984 0.370959
O O11 0.782078 0.300910 0.400667
O O12 0.894619 0.111682 0.200354
O O13 0.856914 0.188299 0.375385
O O14 0.584250 0.500000 0.895046
O O15 0.500000 0.405856 0.000000
O O16 0.500000 0.771791 0.500000
O O17 0.402705 0.000000 0.809777
O O18 0.500000 0.933423 0.000000
#
# Coordination Sequence:
#
# PCOD9184384 Si02
#       8
#     8   2   8   8   8   8   8   8
#     4  10  23  39  64 102 132 171 217 276 339 393
#     4  12  24  48  62  96 138 172 222 266 338 400
#     4  10  20  34  62  96 125 168 212 263 335 390
#     4  11  24  40  68  95 131 171 222 273 331 400
#     4  11  24  40  68  94 131 176 211 277 330 400
#     4  10  19  33  59  98 136 159 206 270 335 394
#     4  11  25  46  65  92 132 183 229 272 330 397
#     4   9  18  37  60  86 129 171 210 262 326 389
#
# _framework density 22.606009
#
# number of rings (size 3 to 8) (size 9 to 14) (size 15 to 20)
#    0.000    1.655    4.138    0.000    4.828    4.966 
#    0.000    0.000    1.517    1.655    0.000    0.000 
#    0.000    0.000    0.000    0.000    0.000    0.000 
#
# Total GULP energy -161545.318267 kJ/mol
# GULP energy per Si atom -5570.528216 kJ/mol
# Density = 2.255456 g / cm^3
# Si number density = 22.606009 Si / 1000 Ang^3
#
#
#
# Elastic Constant Matrix: (Units=GPa)
#
#
# Indices 1 2 3 4 5 6 
#
# 1 61.2608 25.7189 13.3663 0.0000 -0.4761 0.0000
# 2 25.7189 178.5175 37.9926 0.0000 -2.0384 0.0000
# 3 13.3663 37.9926 65.2204 0.0000 -1.5353 0.0000
# 4 0.0000 0.0000 0.0000 31.2156 0.0000 -3.7853
# 5 -0.4761 -2.0384 -1.5353 0.0000 32.6686 0.0000
# 6 0.0000 0.0000 0.0000 -3.7853 0.0000 22.4268
#
#
#
# Elastic Compliance Matrix: (Units=1/GPa)
#
#
# Indices 1 2 3 4 5 6 
#
# 1 0.017710 -0.002031 -0.002446 0.000000 0.000016 0.000000
# 2 -0.002031 0.006629 -0.003440 0.000000 0.000222 0.000000
# 3 -0.002446 -0.003440 0.017852 0.000000 0.000589 0.000000
# 4 0.000000 0.000000 0.000000 0.032705 0.000000 0.005520
# 5 0.000016 0.000222 0.000589 0.000000 0.030652 0.000000
# 6 0.000000 0.000000 0.000000 0.005520 0.000000 0.045521
#
#
# Mechanical properties :
#
#
# Convention : Reuss Voigt Hill
#
# Bulk Modulus (GPa) = 37.94093 51.01714 44.47903
# Shear Modulus (GPa) = 28.45948 32.45693 30.45821
#
# Velocity S-wave (km/s) = 3.55200 3.79326 3.67461
# Velocity P-wave (km/s) = 5.80019 6.46545 6.14184
#
# Compressibility (1/GPa) = 0.02635676
#
# Stress axis : x y z
#
# Youngs Moduli (GPa) = 56.46514 150.85403 56.01682
#
# Poissons Ratio (x) = 0.30634 0.13703
# Poissons Ratio (y) = 0.11466 0.19270
# Poissons Ratio (z) = 0.13812 0.51896
#
# Static dielectric constant tensor:
#      x y z
#    x 1.896670 0.000000 -0.024840 
#    y 0.000000 1.859260 0.000000 
#    z -0.024840 0.000000 1.907930 
# 
# From -- ./inp_files/147690.got.cif
#   From: 2010.05.17/outbox.cif.g08.bks.cpg/sg12_74_cif.got.tgz:147690.got - 2010.06.03 13:09:07.
