data_PCOD9184910
_publ_section_title
;
Structure prediction by ZEFSAII (Michael W. Deem and Ramdas Pophale) SiO2 
 PCOD9184910
Probable space group: C 2/M
;
_chemical_formula_sum "Si O2"
_cell_formula_units_Z 64
_cell_length_a 20.459594
_cell_length_b 7.517028
_cell_length_c 23.340623
_cell_angle_alpha 90.000000
_cell_angle_beta 128.968364
_cell_angle_gamma 90.000000
_cell_volume 2790.951513
_symmetry_space_group_name_H-M "C 2/M"
_symmetry_group_IT_number 12
_symmetry_cell_setting 'monoclinic'
loop_
_space_group_symop_operation_xyz
x,y,z
-x,y,-z
-x,-y,-z
x,-y,z
1/2+x,1/2+y,z
1/2-x,1/2+y,-z
1/2-x,1/2-y,-z
1/2+x,1/2-y,z
loop_
_atom_site_type_symbol
_atom_site_label
_atom_site_fract_x
_atom_site_fract_y
_atom_site_fract_z
Si Si1 0.009909 0.287221 0.296782
Si Si2 0.910150 0.795260 0.964150
Si Si3 0.244439 0.790139 0.315772
Si Si4 0.705627 0.708577 0.415961
Si Si5 0.912556 0.286915 0.842402
Si Si6 0.239374 0.282583 0.907017
Si Si7 0.155392 0.716788 0.738956
Si Si8 0.426499 0.783693 0.130875
O O1 0.003868 0.500000 0.290736
O O2 0.106280 0.246785 0.361842
O O3 0.941651 0.227868 0.306177
O O4 0.974981 0.226355 0.215749
O O5 0.875915 0.796066 0.879812
O O6 0.835435 0.715657 0.960938
O O7 0.923429 0.000000 0.987958
O O8 0.000000 0.705763 0.000000
O O9 0.247937 0.712060 0.381673
O O10 0.148026 0.768065 0.242384
O O11 0.300531 0.715979 0.294511
O O12 0.264286 0.000000 0.328805
O O13 0.713181 0.500000 0.412487
O O14 0.750000 0.750000 0.500000
O O15 0.910276 0.500000 0.845332
O O16 0.009125 0.230303 0.883683
O O17 0.243227 0.500000 0.911064
O O18 0.201151 0.232639 0.823728
O O19 0.169707 0.221992 0.914636
O O20 0.158564 0.500000 0.739629
O O21 0.424256 0.000000 0.128801
#
# Coordination Sequence:
#
# PCOD9184910 Si02
#       8
#     8   8   8   8   8   8   8   8
#     4   9  16  31  54  77 101 130 168 209 254 307
#     4  10  20  34  53  75 102 138 177 216 255 300
#     4  10  19  34  55  79 102 130 174 217 251 293
#     4  11  23  36  53  76 107 142 171 209 257 306
#     4  11  20  31  51  78 105 132 166 212 260 306
#     4   8  13  26  49  73  98 130 169 209 247 297
#     4   8  14  27  53  79  97 125 167 216 254 293
#     4   8  15  27  48  76 100 129 167 206 252 303
#
# _framework density 22.931248
#
# number of rings (size 3 to 8) (size 9 to 14) (size 15 to 20)
#    0.000    2.625    2.500    2.250    0.000    0.750 
#    0.000    1.875    0.000    5.250    0.000    0.000 
#    0.000    0.000    0.000    0.000    0.000    0.000 
#
# Total GULP energy -178619.898435 kJ/mol
# GULP energy per Si atom -5581.871826 kJ/mol
# Density = 2.287906 g / cm^3
# Si number density = 22.931248 Si / 1000 Ang^3
#
#
#
# Elastic Constant Matrix: (Units=GPa)
#
#
# Indices 1 2 3 4 5 6 
#
# 1 212.2451 12.4864 48.9413 0.0000 -1.3788 0.0000
# 2 12.4864 55.7459 -5.9233 0.0000 -2.0285 0.0000
# 3 48.9413 -5.9233 67.8623 0.0000 -4.4299 0.0000
# 4 0.0000 0.0000 0.0000 14.4982 0.0000 2.3182
# 5 -1.3788 -2.0285 -4.4299 0.0000 32.2622 0.0000
# 6 0.0000 0.0000 0.0000 2.3182 0.0000 13.1778
#
#
#
# Elastic Compliance Matrix: (Units=1/GPa)
#
#
# Indices 1 2 3 4 5 6 
#
# 1 0.005825 -0.001788 -0.004388 0.000000 -0.000466 0.000000
# 2 -0.001788 0.018715 0.003022 0.000000 0.001515 0.000000
# 3 -0.004388 0.003022 0.018328 0.000000 0.002519 0.000000
# 4 0.000000 0.000000 0.000000 0.070970 0.000000 -0.012485
# 5 -0.000466 0.001515 0.002519 0.000000 0.031417 0.000000
# 6 0.000000 0.000000 0.000000 -0.012485 0.000000 0.078082
#
#
# Mechanical properties :
#
#
# Convention : Reuss Voigt Hill
#
# Bulk Modulus (GPa) = 27.35124 49.65135 38.50130
# Shear Modulus (GPa) = 20.67543 30.67757 25.67650
#
# Velocity S-wave (km/s) = 3.00597 3.66157 3.34985
# Velocity P-wave (km/s) = 4.89910 6.29090 5.63811
#
# Compressibility (1/GPa) = 0.03656141
#
# Stress axis : x y z
#
# Youngs Moduli (GPa) = 171.66066 53.43235 54.56055
#
# Poissons Ratio (x) = 0.09554 0.23940
# Poissons Ratio (y) = 0.30693 -0.16488
# Poissons Ratio (z) = 0.75320 -0.16147
#
# Static dielectric constant tensor:
#      x y z
#    x 1.918760 0.000000 -0.008830 
#    y 0.000000 1.876460 0.000000 
#    z -0.008830 0.000000 1.810710 
# 
# From -- ./inp_files/365235.got.cif
#   From: 2010.05.17/outbox.cif.g08.bks.cpg/sg12_183_cif.got.tgz:365235.got - 2010.06.03 13:09:07.
