data_PCOD9184339
_publ_section_title
;
Structure prediction by ZEFSAII (Michael W. Deem and Ramdas Pophale) SiO2 
 PCOD9184339
Probable space group: C 2/M
;
_chemical_formula_sum "Si O2"
_cell_formula_units_Z 52
_cell_length_a 14.462041
_cell_length_b 9.897890
_cell_length_c 17.470426
_cell_angle_alpha 90.000000
_cell_angle_beta 108.744866
_cell_angle_gamma 90.000000
_cell_volume 2368.137143
_symmetry_space_group_name_H-M "C 2/M"
_symmetry_group_IT_number 12
_symmetry_cell_setting 'monoclinic'
loop_
_space_group_symop_operation_xyz
x,y,z
-x,y,-z
-x,-y,-z
x,-y,z
1/2+x,1/2+y,z
1/2-x,1/2+y,-z
1/2-x,1/2-y,-z
1/2+x,1/2-y,z
loop_
_atom_site_type_symbol
_atom_site_label
_atom_site_fract_x
_atom_site_fract_y
_atom_site_fract_z
Si Si1 0.774718 0.000000 0.516042
Si Si2 0.615313 0.652006 0.013274
Si Si3 0.606832 0.840708 0.255574
Si Si4 0.743483 0.342404 0.201138
Si Si5 0.996832 0.339624 0.615870
Si Si6 0.162251 0.733871 0.556431
Si Si7 0.096965 0.342236 0.870656
O O1 0.800922 0.879800 0.459786
O O2 0.744259 0.880217 0.570031
O O3 0.636075 0.500000 0.991052
O O4 0.635544 0.756664 0.951393
O O5 0.500000 0.660796 0.000000
O O6 0.675088 0.671264 0.107097
O O7 0.697910 0.754096 0.252380
O O8 0.557522 0.795312 0.321714
O O9 0.518582 0.825704 0.171240
O O10 0.630158 0.000000 0.268367
O O11 0.742466 0.500000 0.224072
O O12 0.849178 0.307479 0.194582
O O13 0.016709 0.500000 0.627947
O O14 0.096452 0.269301 0.615344
O O15 0.916307 0.317687 0.528502
O O16 0.117309 0.500000 0.889149
#
# Coordination Sequence:
#
# PCOD9184339 Si02
#       7
#     4   8   8   8   8   8   8
#     4  10  20  34  60  96 112 138 180 250 272 328
#     4  10  19  33  59  82 111 145 183 234 290 335
#     4  10  22  39  56  80 114 153 190 228 281 340
#     4  10  21  39  56  82 113 147 187 237 287 334
#     4  10  19  38  58  78 112 162 182 226 287 341
#     4  10  19  38  60  84 118 142 190 230 283 327
#     4  10  21  37  56  82 111 145 190 235 279 337
#
# _framework density 21.958188
#
# number of rings (size 3 to 8) (size 9 to 14) (size 15 to 20)
#    0.000    2.000    3.077    0.923    0.000    2.769 
#    8.308    0.000    0.000    0.000    0.000    0.000 
#    0.000    0.000    0.000    0.000    0.000    0.000 
#
# Total GULP energy -144817.599247 kJ/mol
# GULP energy per Si atom -5569.907663 kJ/mol
# Density = 2.190821 g / cm^3
# Si number density = 21.958188 Si / 1000 Ang^3
#
#
#
# Elastic Constant Matrix: (Units=GPa)
#
#
# Indices 1 2 3 4 5 6 
#
# 1 104.1402 57.3218 18.7995 0.0000 -22.4710 0.0000
# 2 57.3218 102.0784 41.2472 0.0000 -41.5609 0.0000
# 3 18.7995 41.2472 70.2244 0.0000 -21.3027 0.0000
# 4 0.0000 0.0000 0.0000 26.2877 0.0000 -20.6790
# 5 -22.4710 -41.5609 -21.3027 0.0000 45.9458 0.0000
# 6 0.0000 0.0000 0.0000 -20.6790 0.0000 21.0776
#
#
#
# Elastic Compliance Matrix: (Units=1/GPa)
#
#
# Indices 1 2 3 4 5 6 
#
# 1 0.013969 -0.008395 0.001117 0.000000 -0.000244 0.000000
# 2 -0.008395 0.022751 -0.007119 0.000000 0.013173 0.000000
# 3 0.001117 -0.007119 0.019008 0.000000 0.002920 0.000000
# 4 0.000000 0.000000 0.000000 0.166676 0.000000 0.163524
# 5 -0.000244 0.013173 0.002920 0.000000 0.034915 0.000000
# 6 0.000000 0.000000 0.000000 0.163524 0.000000 0.207876
#
#
# Mechanical properties :
#
#
# Convention : Reuss Voigt Hill
#
# Bulk Modulus (GPa) = 37.12843 56.79779 46.96311
# Shear Modulus (GPa) = 9.94102 29.26719 19.60410
#
# Velocity S-wave (km/s) = 2.13004 3.65480 2.99120
# Velocity P-wave (km/s) = 4.79529 6.61306 5.77613
#
# Compressibility (1/GPa) = 0.02693354
#
# Stress axis : x y z
#
# Youngs Moduli (GPa) = 71.58714 43.95489 52.60853
#
# Poissons Ratio (x) = 0.36900 -0.05878
# Poissons Ratio (y) = 0.60098 0.37455
# Poissons Ratio (z) = -0.07999 0.31294
#
# Static dielectric constant tensor:
#      x y z
#    x 1.857720 0.000000 0.028500 
#    y 0.000000 1.730810 0.000000 
#    z 0.028500 0.000000 1.860360 
# 
# From -- ./inp_files/274435.got.cif
#   From: 2010.05.17/outbox.cif.g08.bks.cpg/sg12_138_cif.got.tgz:274435.got - 2010.06.03 13:09:07.
