data_PCOD9184786
_publ_section_title
;
Structure prediction by ZEFSAII (Michael W. Deem and Ramdas Pophale) SiO2 
 PCOD9184786
Probable space group: C 2/M
;
_chemical_formula_sum "Si O2"
_cell_formula_units_Z 64
_cell_length_a 9.569817
_cell_length_b 26.003057
_cell_length_c 14.272681
_cell_angle_alpha 90.000000
_cell_angle_beta 73.889866
_cell_angle_gamma 90.000000
_cell_volume 3412.204043
_symmetry_space_group_name_H-M "C 2/M"
_symmetry_group_IT_number 12
_symmetry_cell_setting 'monoclinic'
loop_
_space_group_symop_operation_xyz
x,y,z
-x,y,-z
-x,-y,-z
x,-y,z
1/2+x,1/2+y,z
1/2-x,1/2+y,-z
1/2-x,1/2-y,-z
1/2+x,1/2-y,z
loop_
_atom_site_type_symbol
_atom_site_label
_atom_site_fract_x
_atom_site_fract_y
_atom_site_fract_z
Si Si1 0.339102 0.824580 0.029321
Si Si2 0.661909 0.088806 0.460729
Si Si3 0.442442 0.556962 0.284627
Si Si4 0.127368 0.091838 0.411686
Si Si5 0.695102 0.714698 0.869717
Si Si6 0.702434 0.801127 0.364331
Si Si7 0.551500 0.653292 0.161224
Si Si8 0.472441 0.702430 0.635813
O O1 0.335508 0.773745 0.096494
O O2 0.209216 0.859698 0.092136
O O3 0.500000 0.846874 0.000000
O O4 0.297059 0.806902 0.932603
O O5 0.500000 0.065670 0.500000
O O6 0.794183 0.064551 0.373779
O O7 0.727698 0.089643 0.554124
O O8 0.643634 0.144807 0.414279
O O9 0.440290 0.500000 0.244921
O O10 0.588605 0.564614 0.321284
O O11 0.458528 0.604116 0.210380
O O12 0.088413 0.151588 0.402319
O O13 0.000000 0.069320 0.500000
O O14 0.759970 0.702226 0.754290
O O15 0.540875 0.686050 0.894333
O O16 0.596348 0.753066 0.394099
O O17 0.853756 0.794361 0.391865
O O18 0.568958 0.690643 0.248242
#
# Coordination Sequence:
#
# PCOD9184786 Si02
#       8
#     8   8   8   8   8   8   8   8
#     4  11  21  31  55  89 117 150 191 226 272 335
#     4  11  23  38  56  86 116 146 192 247 293 335
#     4  10  21  42  68  83 104 148 197 245 298 348
#     4   9  18  38  53  78 110 143 195 234 272 343
#     4  10  19  34  54  80 121 159 187 223 272 333
#     4  11  21  34  51  81 120 163 193 229 275 337
#     4  10  19  38  55  82 119 149 190 232 278 351
#     4  10  20  32  52  74 114 160 194 221 269 332
#
# _framework density 18.756205000000001
#
# number of rings (size 3 to 8) (size 9 to 14) (size 15 to 20)
#    0.000    1.750    6.250    1.875    3.500    3.500 
#    2.250    0.000    0.000    1.875    0.000    0.000 
#    0.000    0.000    0.000    0.000    0.000    0.000 
#
# Total GULP energy -178262.208371 kJ/mol
# GULP energy per Si atom -5570.694012 kJ/mol
# Density = 1.871352 g / cm^3
# Si number density = 18.756205 Si / 1000 Ang^3
#
#
#
# Elastic Constant Matrix: (Units=GPa)
#
#
# Indices 1 2 3 4 5 6 
#
# 1 116.2437 18.5530 36.4374 0.0000 -1.2803 0.0000
# 2 18.5530 72.1741 8.7842 0.0000 -0.9325 0.0000
# 3 36.4374 8.7842 65.8920 0.0000 -4.3146 0.0000
# 4 0.0000 0.0000 0.0000 1.4264 0.0000 -2.6110
# 5 -1.2803 -0.9325 -4.3146 0.0000 28.2042 0.0000
# 6 0.0000 0.0000 0.0000 -2.6110 0.0000 10.9891
#
#
#
# Elastic Compliance Matrix: (Units=1/GPa)
#
#
# Indices 1 2 3 4 5 6 
#
# 1 0.010706 -0.002067 -0.005674 0.000000 -0.000450 0.000000
# 2 -0.002067 0.014484 -0.000770 0.000000 0.000267 0.000000
# 3 -0.005674 -0.000770 0.018584 0.000000 0.002560 0.000000
# 4 0.000000 0.000000 0.000000 1.240686 0.000000 0.294785
# 5 -0.000450 0.000267 0.002560 0.000000 0.035836 0.000000
# 6 0.000000 0.000000 0.000000 0.294785 0.000000 0.161040
#
#
# Mechanical properties :
#
#
# Convention : Reuss Voigt Hill
#
# Bulk Modulus (GPa) = 37.38168 42.42875 39.90521
# Shear Modulus (GPa) = 3.31724 20.82629 12.07176
#
# Velocity S-wave (km/s) = 1.33133 3.33583 2.53971
# Velocity P-wave (km/s) = 4.72619 6.12432 5.47011
#
# Compressibility (1/GPa) = 0.02675107
#
# Stress axis : x y z
#
# Youngs Moduli (GPa) = 93.40327 69.04169 53.80840
#
# Poissons Ratio (x) = 0.14273 0.30533
# Poissons Ratio (y) = 0.19310 0.04144
# Poissons Ratio (z) = 0.53000 0.05317
#
# Static dielectric constant tensor:
#      x y z
#    x 1.678520 0.000000 -0.017000 
#    y 0.000000 1.642470 0.000000 
#    z -0.017000 0.000000 1.728170 
# 
# From -- ./inp_files/199799.got.cif
#   From: 2010.05.17/outbox.cif.g08.bks.cpg/sg12_100_cif.got.tgz:199799.got - 2010.06.03 13:09:07.
