data_PCOD9184656
_publ_section_title
;
Structure prediction by ZEFSAII (Michael W. Deem and Ramdas Pophale) SiO2 
 PCOD9184656
Probable space group: C 2/M
;
_chemical_formula_sum "Si O2"
_cell_formula_units_Z 56
_cell_length_a 17.080178
_cell_length_b 29.071015
_cell_length_c 9.745633
_cell_angle_alpha 90.000000
_cell_angle_beta 133.865566
_cell_angle_gamma 90.000000
_cell_volume 3488.819112
_symmetry_space_group_name_H-M "C 2/M"
_symmetry_group_IT_number 12
_symmetry_cell_setting 'monoclinic'
loop_
_space_group_symop_operation_xyz
x,y,z
-x,y,-z
-x,-y,-z
x,-y,z
1/2+x,1/2+y,z
1/2-x,1/2+y,-z
1/2-x,1/2-y,-z
1/2+x,1/2-y,z
loop_
_atom_site_type_symbol
_atom_site_label
_atom_site_fract_x
_atom_site_fract_y
_atom_site_fract_z
Si Si1 0.938855 0.228808 0.063984
Si Si2 0.914489 0.200403 0.520217
Si Si3 0.125228 0.446558 0.204017
Si Si4 0.891557 0.678191 0.167205
Si Si5 0.882484 0.359846 0.657680
Si Si6 0.270643 0.135054 0.788707
Si Si7 0.792640 0.703441 0.327826
O O1 0.019702 0.199343 0.257548
O O2 0.172921 0.206251 0.120373
O O3 0.906786 0.271565 0.120686
O O4 0.000000 0.243450 0.000000
O O5 0.841104 0.155760 0.402152
O O6 0.837596 0.245987 0.423758
O O7 0.000000 0.205481 0.500000
O O8 0.149595 0.500000 0.250100
O O9 0.134838 0.414679 0.351373
O O10 0.205528 0.419207 0.197833
O O11 0.000000 0.442225 0.000000
O O12 0.868632 0.683955 0.298828
O O13 0.999777 0.651008 0.257995
O O14 0.793937 0.653954 0.967159
O O15 0.861844 0.345569 0.791509
O O16 0.801164 0.330506 0.466623
#
# Coordination Sequence:
#
# PCOD9184656 Si02
#       7
#     8   8   8   8   8   8   8
#     4  12  24  33  48  71 106 151 186 214 237 295
#     4  12  22  35  48  74 110 148 182 213 250 302
#     4   9  18  35  59  85 103 123 168 227 275 314
#     4  12  19  33  48  77 111 142 176 205 258 299
#     4  10  19  34  53  80  98 140 170 212 256 315
#     4  10  20  33  55  77 102 138 179 213 260 307
#     4  12  23  34  49  72 115 151 173 210 255 304
#
# _framework density 16.051275
#
# number of rings (size 3 to 8) (size 9 to 14) (size 15 to 20)
#    0.857    0.143    5.714    3.857    0.000    1.143 
#    0.000    0.000    0.000    3.000    0.000    2.000 
#    0.000    0.000    0.000    0.000    0.000    0.000 
#
# Total GULP energy -156040.667156 kJ/mol
# GULP energy per Si atom -5572.880970 kJ/mol
# Density = 1.601474 g / cm^3
# Si number density = 16.051275 Si / 1000 Ang^3
#
#
#
# Elastic Constant Matrix: (Units=GPa)
#
#
# Indices 1 2 3 4 5 6 
#
# 1 26.5544 9.2715 11.9543 0.0000 -0.8247 0.0000
# 2 9.2715 98.5654 25.0431 0.0000 13.3702 0.0000
# 3 11.9543 25.0431 67.9967 0.0000 14.8919 0.0000
# 4 0.0000 0.0000 0.0000 91.2069 0.0000 20.4623
# 5 -0.8247 13.3702 14.8919 0.0000 30.3198 0.0000
# 6 0.0000 0.0000 0.0000 20.4623 0.0000 14.2063
#
#
#
# Elastic Compliance Matrix: (Units=1/GPa)
#
#
# Indices 1 2 3 4 5 6 
#
# 1 0.042339 -0.002856 -0.007754 0.000000 0.006219 0.000000
# 2 -0.002856 0.011681 -0.002975 0.000000 -0.003768 0.000000
# 3 -0.007754 -0.002975 0.018964 0.000000 -0.008214 0.000000
# 4 0.000000 0.000000 0.000000 0.016199 0.000000 -0.023332
# 5 0.006219 -0.003768 -0.008214 0.000000 0.038847 0.000000
# 6 0.000000 0.000000 0.000000 -0.023332 0.000000 0.103998
#
#
# Mechanical properties :
#
#
# Convention : Reuss Voigt Hill
#
# Bulk Modulus (GPa) = 21.82682 31.73935 26.78309
# Shear Modulus (GPa) = 18.21698 36.93645 27.57671
#
# Velocity S-wave (km/s) = 3.37252 4.80224 4.14942
# Velocity P-wave (km/s) = 5.36590 7.11093 6.29913
#
# Compressibility (1/GPa) = 0.04581519
#
# Stress axis : x y z
#
# Youngs Moduli (GPa) = 23.61862 85.60816 52.73083
#
# Poissons Ratio (x) = 0.24452 0.40886
# Poissons Ratio (y) = 0.06746 0.15687
# Poissons Ratio (z) = 0.18313 0.25467
#
# Static dielectric constant tensor:
#      x y z
#    x 1.572440 0.000000 0.018930 
#    y 0.000000 1.533870 0.000000 
#    z 0.018930 0.000000 1.572330 
# 
# From -- ./inp_files/67920.got.cif
#   From: 2010.05.17/outbox.cif.g08.bks.cpg/sg12_34_cif.got.tgz:67920.got - 2010.06.03 13:09:07.
