data_PCOD9184128
_publ_section_title
;
Structure prediction by ZEFSAII (Michael W. Deem and Ramdas Pophale) SiO2 
 PCOD9184128
Probable space group: C 2/M
;
_chemical_formula_sum "Si O2"
_cell_formula_units_Z 40
_cell_length_a 17.585595
_cell_length_b 15.082878
_cell_length_c 15.141152
_cell_angle_alpha 90.000000
_cell_angle_beta 154.462512
_cell_angle_gamma 90.000000
_cell_volume 1731.329764
_symmetry_space_group_name_H-M "C 2/M"
_symmetry_group_IT_number 12
_symmetry_cell_setting 'monoclinic'
loop_
_space_group_symop_operation_xyz
x,y,z
-x,y,-z
-x,-y,-z
x,-y,z
1/2+x,1/2+y,z
1/2-x,1/2+y,-z
1/2-x,1/2-y,-z
1/2+x,1/2-y,z
loop_
_atom_site_type_symbol
_atom_site_label
_atom_site_fract_x
_atom_site_fract_y
_atom_site_fract_z
Si Si1 0.792203 0.776612 0.760386
Si Si2 0.152638 0.599301 0.272091
Si Si3 0.878643 0.856431 0.675006
Si Si4 0.267682 0.096720 0.150869
Si Si5 0.416390 0.813519 0.150921
O O1 0.763111 0.674456 0.702941
O O2 0.772263 0.838223 0.653410
O O3 0.702643 0.822467 0.750168
O O4 0.000000 0.782030 0.000000
O O5 0.142233 0.500000 0.225298
O O6 0.270677 0.596893 0.485051
O O7 0.961555 0.636781 0.105975
O O8 0.933416 0.760605 0.693363
O O9 0.066179 0.898224 0.901833
O O10 0.395841 0.111891 0.202799
O O11 0.291210 0.000000 0.216766
O O12 0.250000 0.750000 0.000000
#
# Coordination Sequence:
#
# PCOD9184128 Si02
#       5
#     8   8   8   8   8
#     4   9  19  34  52  79 113 145 177 223 274 320
#     4  11  21  36  59  82 107 146 191 225 262 324
#     4   9  19  36  56  78 109 146 181 225 271 320
#     4  10  19  33  57  86 112 140 179 228 281 329
#     4   9  18  34  55  80 112 144 178 224 277 325
#
# _framework density 23.103629000000002
#
# number of rings (size 3 to 8) (size 9 to 14) (size 15 to 20)
#    0.000    2.400    0.000    4.800    0.000    4.800 
#    0.000    4.000    0.000    9.600    0.000    0.000 
#    0.000    0.000    0.000    0.000    0.000    0.000 
#
# Total GULP energy -111470.931609 kJ/mol
# GULP energy per Si atom -5573.546580 kJ/mol
# Density = 2.305104 g / cm^3
# Si number density = 23.103629 Si / 1000 Ang^3
#
#
#
# Elastic Constant Matrix: (Units=GPa)
#
#
# Indices 1 2 3 4 5 6 
#
# 1 82.7939 37.0296 -0.3973 0.0015 -12.4622 0.0002
# 2 37.0296 171.0961 5.2781 0.0007 -12.4647 0.0003
# 3 -0.3973 5.2781 77.8328 0.0011 -12.6313 0.0009
# 4 0.0015 0.0007 0.0011 14.4378 0.0020 -7.2015
# 5 -12.4622 -12.4647 -12.6313 0.0020 35.2336 0.0010
# 6 0.0002 0.0003 0.0009 -7.2015 0.0010 21.1666
#
#
#
# Elastic Compliance Matrix: (Units=1/GPa)
#
#
# Indices 1 2 3 4 5 6 
#
# 1 0.013955 -0.002736 0.000956 -0.000003 0.004311 -0.000001
# 2 -0.002736 0.006536 -0.000254 0.000000 0.001254 0.000000
# 3 0.000956 -0.000254 0.013708 -0.000003 0.005163 -0.000002
# 4 -0.000003 0.000000 -0.000003 0.083420 -0.000008 0.028382
# 5 0.004311 0.001254 0.005163 -0.000008 0.032201 -0.000004
# 6 -0.000001 0.000000 -0.000002 0.028382 -0.000004 0.056901
#
#
# Mechanical properties :
#
#
# Convention : Reuss Voigt Hill
#
# Bulk Modulus (GPa) = 33.18620 46.17153 39.67886
# Shear Modulus (GPa) = 22.64172 33.48842 28.06507
#
# Velocity S-wave (km/s) = 3.13390 3.81134 3.48910
# Velocity P-wave (km/s) = 5.24313 6.27665 5.78302
#
# Compressibility (1/GPa) = 0.03013300
#
# Stress axis : x y z
#
# Youngs Moduli (GPa) = 71.65773 153.00105 72.95010
#
# Poissons Ratio (x) = 0.41857 -0.06977
# Poissons Ratio (y) = 0.19603 0.01851
# Poissons Ratio (z) = -0.06853 0.03882
#
# Static dielectric constant tensor:
#      x y z
#    x 1.865220 -0.000010 -0.021400 
#    y -0.000010 1.914850 -0.000010 
#    z -0.021400 -0.000010 1.979120 
# 
# From -- ./inp_files/225824.got.cif
#   From: 2010.05.17/outbox.cif.g08.bks.cpg/sg12_113_cif.got.tgz:225824.got - 2010.06.03 13:09:07.
