data_PCOD9184717
_publ_section_title
;
Structure prediction by ZEFSAII (Michael W. Deem and Ramdas Pophale) SiO2 
 PCOD9184717
Probable space group: C 2/M
;
_chemical_formula_sum "Si O2"
_cell_formula_units_Z 56
_cell_length_a 15.851719
_cell_length_b 8.371469
_cell_length_c 23.054616
_cell_angle_alpha 90.000000
_cell_angle_beta 71.579119
_cell_angle_gamma 90.000000
_cell_volume 2902.636925
_symmetry_space_group_name_H-M "C 2/M"
_symmetry_group_IT_number 12
_symmetry_cell_setting 'monoclinic'
loop_
_space_group_symop_operation_xyz
x,y,z
-x,y,-z
-x,-y,-z
x,-y,z
1/2+x,1/2+y,z
1/2-x,1/2+y,-z
1/2-x,1/2-y,-z
1/2+x,1/2-y,z
loop_
_atom_site_type_symbol
_atom_site_label
_atom_site_fract_x
_atom_site_fract_y
_atom_site_fract_z
Si Si1 0.097192 0.691156 0.001539
Si Si2 0.597803 0.304699 0.789921
Si Si3 0.098057 0.809133 0.132525
Si Si4 0.574147 0.305334 0.563882
Si Si5 0.814305 0.807194 0.349242
Si Si6 0.877538 0.807124 0.576232
Si Si7 0.282299 0.309320 0.128006
O O1 0.100333 0.500000 0.998964
O O2 0.170775 0.757141 0.941824
O O3 0.109124 0.746665 0.064652
O O4 0.000000 0.744793 0.000000
O O5 0.597714 0.500000 0.789995
O O6 0.496423 0.252369 0.821889
O O7 0.639658 0.251773 0.720124
O O8 0.657705 0.252132 0.831283
O O9 0.182576 0.754998 0.150922
O O10 0.096179 0.000000 0.130731
O O11 0.574773 0.500000 0.564243
O O12 0.630983 0.249253 0.606264
O O13 0.470361 0.257015 0.586056
O O14 0.615286 0.256517 0.492964
O O15 0.712044 0.756767 0.376280
O O16 0.817847 0.000000 0.348891
O O17 0.875158 0.000000 0.577719
O O18 0.279770 0.500000 0.130186
#
# Coordination Sequence:
#
# PCOD9184717 Si02
#       7
#     8   8   8   8   8   8   8
#     4  11  22  37  60  88 113 139 177 226 271 321
#     4   9  21  38  55  75 107 146 182 217 268 325
#     4  11  22  39  60  83 109 144 183 222 270 328
#     4   8  16  31  53  76 107 142 176 214 267 326
#     4  10  19  34  54  77 104 142 182 220 264 318
#     4   9  17  32  52  79 107 139 176 220 269 318
#     4  11  22  39  59  81 109 144 180 224 276 326
#
# _framework density 19.292801999999998
#
# number of rings (size 3 to 8) (size 9 to 14) (size 15 to 20)
#    0.000    2.143    1.429    3.000    0.000    1.714 
#    0.000    6.429    0.000    0.000    0.000    0.000 
#    0.000    0.000    0.000    0.000    0.000    0.000 
#
# Total GULP energy -156370.004894 kJ/mol
# GULP energy per Si atom -5584.643032 kJ/mol
# Density = 1.924889 g / cm^3
# Si number density = 19.292802 Si / 1000 Ang^3
#
#
#
# Elastic Constant Matrix: (Units=GPa)
#
#
# Indices 1 2 3 4 5 6 
#
# 1 137.7340 16.9508 61.0172 0.0000 -37.1270 0.0000
# 2 16.9508 22.0754 11.8512 0.0000 -6.1755 0.0000
# 3 61.0172 11.8512 105.0391 0.0000 -33.6098 0.0000
# 4 0.0000 0.0000 0.0000 12.4874 0.0000 -7.8094
# 5 -37.1270 -6.1755 -33.6098 0.0000 16.6260 0.0000
# 6 0.0000 0.0000 0.0000 -7.8094 0.0000 28.2531
#
#
#
# Elastic Compliance Matrix: (Units=1/GPa)
#
#
# Indices 1 2 3 4 5 6 
#
# 1 0.020373 -0.003010 0.007657 0.000000 0.059855 0.000000
# 2 -0.003010 0.051024 -0.000269 0.000000 0.011687 0.000000
# 3 0.007657 -0.000269 0.029849 0.000000 0.077340 0.000000
# 4 0.000000 0.000000 0.000000 0.096817 0.000000 0.026761
# 5 0.059855 0.011687 0.077340 0.000000 0.354494 0.000000
# 6 0.000000 0.000000 0.000000 0.026761 0.000000 0.042791
#
#
# Mechanical properties :
#
#
# Convention : Reuss Voigt Hill
#
# Bulk Modulus (GPa) = 9.09066 49.38744 29.23905
# Shear Modulus (GPa) = 8.02233 23.14190 15.58212
#
# Velocity S-wave (km/s) = 2.04138 3.46715 2.84503
# Velocity P-wave (km/s) = 3.20601 6.45621 5.09711
#
# Compressibility (1/GPa) = 0.11000304
#
# Stress axis : x y z
#
# Youngs Moduli (GPa) = 49.08443 19.59853 33.50144
#
# Poissons Ratio (x) = 0.05899 -0.25652
# Poissons Ratio (y) = 0.14775 0.00900
# Poissons Ratio (z) = -0.37584 0.00527
#
# Static dielectric constant tensor:
#      x y z
#    x 1.674070 0.000000 0.005980 
#    y 0.000000 1.667430 0.000000 
#    z 0.005980 0.000000 1.644920 
# 
# From -- ./inp_files/337851.got.cif
#   From: 2010.05.17/outbox.cif.g08.bks.cpg/sg12_169_cif.got.tgz:337851.got - 2010.06.03 13:09:07.
