data_PCOD9184290
_publ_section_title
;
Structure prediction by ZEFSAII (Michael W. Deem and Ramdas Pophale) SiO2 
 PCOD9184290
Probable space group: C 2/M
;
_chemical_formula_sum "Si O2"
_cell_formula_units_Z 48
_cell_length_a 28.454095
_cell_length_b 8.342777
_cell_length_c 15.144326
_cell_angle_alpha 90.000000
_cell_angle_beta 39.064793
_cell_angle_gamma 90.000000
_cell_volume 2265.598514
_symmetry_space_group_name_H-M "C 2/M"
_symmetry_group_IT_number 12
_symmetry_cell_setting 'monoclinic'
loop_
_space_group_symop_operation_xyz
x,y,z
-x,y,-z
-x,-y,-z
x,-y,z
1/2+x,1/2+y,z
1/2-x,1/2+y,-z
1/2-x,1/2-y,-z
1/2+x,1/2-y,z
loop_
_atom_site_type_symbol
_atom_site_label
_atom_site_fract_x
_atom_site_fract_y
_atom_site_fract_z
Si Si1 0.852848 0.310557 0.429114
Si Si2 0.432649 0.312176 0.477015
Si Si3 0.813616 0.306070 0.291691
Si Si4 0.149907 0.313855 0.953671
Si Si5 0.400966 0.311858 0.794425
Si Si6 0.195436 0.316705 0.213077
O O1 0.867188 0.500000 0.418262
O O2 0.906935 0.213443 0.413778
O O3 0.855815 0.268273 0.321160
O O4 0.767917 0.273255 0.583007
O O5 0.427389 0.500000 0.508261
O O6 0.518363 0.261004 0.359602
O O7 0.374607 0.215489 0.620914
O O8 0.802853 0.500000 0.304770
O O9 0.853733 0.258641 0.142536
O O10 0.128610 0.500000 0.988899
O O11 0.236473 0.293049 0.855474
O O12 0.104088 0.220145 0.094234
O O13 0.392247 0.500000 0.789627
O O14 0.335513 0.220997 0.838847
O O15 0.220685 0.500000 0.182297
#
# Coordination Sequence:
#
# PCOD9184290 Si02
#       6
#     8   8   8   8   8   8
#     4  10  19  33  58  89 116 148 192 240 287 341
#     4  11  23  40  60  85 118 156 194 239 293 345
#     4   9  19  35  57  86 118 151 189 236 290 342
#     4  11  22  39  62  87 119 155 193 238 289 344
#     4  11  25  42  59  82 118 158 196 239 291 347
#     4  12  24  39  62  89 115 149 197 244 289 345
#
# _framework density 21.186454999999999
#
# number of rings (size 3 to 8) (size 9 to 14) (size 15 to 20)
#    0.000    1.333    1.667    4.500    0.000    6.000 
#    0.000    0.833    0.000    5.000    0.000    0.000 
#    0.000    0.000    0.000    0.000    0.000    0.000 
#
# Total GULP energy -134233.915244 kJ/mol
# GULP energy per Si atom -5593.079802 kJ/mol
# Density = 2.113823 g / cm^3
# Si number density = 21.186455 Si / 1000 Ang^3
#
#
#
# Elastic Constant Matrix: (Units=GPa)
#
#
# Indices 1 2 3 4 5 6 
#
# 1 57.5822 1.3023 5.8309 0.0001 22.5354 0.0000
# 2 1.3023 26.2069 -2.1039 0.0004 4.4732 -0.0003
# 3 5.8309 -2.1039 71.4567 0.0002 17.5067 -0.0002
# 4 0.0001 0.0004 0.0002 25.4698 0.0000 4.0377
# 5 22.5354 4.4732 17.5067 0.0000 35.2232 0.0000
# 6 0.0000 -0.0003 -0.0002 4.0377 0.0000 22.1282
#
#
#
# Elastic Compliance Matrix: (Units=1/GPa)
#
#
# Indices 1 2 3 4 5 6 
#
# 1 0.023497 0.001789 0.002134 0.000000 -0.016321 0.000000
# 2 0.001789 0.039599 0.002884 -0.000001 -0.007607 0.000001
# 3 0.002134 0.002884 0.016316 0.000000 -0.009841 0.000000
# 4 0.000000 -0.000001 0.000000 0.040432 0.000000 -0.007378
# 5 -0.016321 -0.007607 -0.009841 0.000000 0.044690 0.000000
# 6 0.000000 0.000001 0.000000 -0.007378 0.000000 0.046537
#
#
# Mechanical properties :
#
#
# Convention : Reuss Voigt Hill
#
# Bulk Modulus (GPa) = 10.74960 18.36714 14.55837
# Shear Modulus (GPa) = 21.88505 26.57866 24.23185
#
# Velocity S-wave (km/s) = 3.21748 3.54575 3.38560
# Velocity P-wave (km/s) = 4.34600 5.04492 4.70845
#
# Compressibility (1/GPa) = 0.09302672
#
# Stress axis : x y z
#
# Youngs Moduli (GPa) = 42.55791 25.25321 61.28844
#
# Poissons Ratio (x) = -0.04519 -0.13079
# Poissons Ratio (y) = -0.07616 -0.17673
# Poissons Ratio (z) = -0.09082 -0.07282
#
# Static dielectric constant tensor:
#      x y z
#    x 1.767480 0.000000 0.039170 
#    y 0.000000 1.717250 0.000000 
#    z 0.039170 0.000000 1.768440 
# 
# From -- ./inp_files/244658.got.cif
#   From: 2010.05.17/outbox.cif.g08.bks.cpg/sg12_123_cif.got.tgz:244658.got - 2010.06.03 13:09:07.
