data_PCOD9184132
_publ_section_title
;
Structure prediction by ZEFSAII (Michael W. Deem and Ramdas Pophale) SiO2 
 PCOD9184132
Probable space group: C 2/M
;
_chemical_formula_sum "Si O2"
_cell_formula_units_Z 56
_cell_length_a 19.487211
_cell_length_b 7.731301
_cell_length_c 16.504299
_cell_angle_alpha 90.000000
_cell_angle_beta 88.088964
_cell_angle_gamma 90.000000
_cell_volume 2485.179345
_symmetry_space_group_name_H-M "C 2/M"
_symmetry_group_IT_number 12
_symmetry_cell_setting 'monoclinic'
loop_
_space_group_symop_operation_xyz
x,y,z
-x,y,-z
-x,-y,-z
x,-y,z
1/2+x,1/2+y,z
1/2-x,1/2+y,-z
1/2-x,1/2-y,-z
1/2+x,1/2-y,z
loop_
_atom_site_type_symbol
_atom_site_label
_atom_site_fract_x
_atom_site_fract_y
_atom_site_fract_z
Si Si1 0.086161 0.789704 0.829024
Si Si2 0.959352 0.698943 0.927851
Si Si3 0.416672 0.703601 0.352926
Si Si4 0.346961 0.211961 0.818609
Si Si5 0.077884 0.710556 0.349180
Si Si6 0.217668 0.792799 0.914312
Si Si7 0.671129 0.196937 0.491111
O O1 0.013606 0.706147 0.852872
O O2 0.105193 0.742018 0.736717
O O3 0.141902 0.730976 0.893331
O O4 0.079111 0.000000 0.832115
O O5 0.944550 0.500000 0.951172
O O6 0.890605 0.775847 0.894397
O O7 0.000000 0.784950 0.000000
O O8 0.403226 0.500000 0.360494
O O9 0.498645 0.732117 0.357609
O O10 0.372256 0.789709 0.424763
O O11 0.383690 0.266808 0.734836
O O12 0.269554 0.264118 0.840872
O O13 0.349357 0.000000 0.818864
O O14 0.075156 0.500000 0.349213
O O15 0.124055 0.778271 0.422158
O O16 0.214213 0.000000 0.911037
O O17 0.250000 0.750000 0.000000
O O18 0.750000 0.250000 0.500000
O O19 0.676536 0.000000 0.464931
#
# Coordination Sequence:
#
# PCOD9184132 Si02
#       7
#     8   8   8   8   8   8   8
#     4  10  22  37  57  85 118 156 193 238 295 352
#     4  10  19  33  57  86 113 147 195 243 285 340
#     4  11  23  40  63  91 125 160 198 245 298 355
#     4   9  18  34  58  83 111 150 193 238 286 343
#     4  10  21  40  65  89 117 159 203 243 296 361
#     4  10  21  38  58  81 114 155 199 244 297 351
#     4  11  25  42  65  94 123 156 198 245 297 358
#
# _framework density 22.533586
#
# number of rings (size 3 to 8) (size 9 to 14) (size 15 to 20)
#    0.000    1.857    1.429    2.143    2.000    5.429 
#    0.000    1.429    0.000    0.000    0.000    0.000 
#    0.000    0.000    0.000    0.000    0.000    0.000 
#
# Total GULP energy -156360.213568 kJ/mol
# GULP energy per Si atom -5584.293342 kJ/mol
# Density = 2.248230 g / cm^3
# Si number density = 22.533586 Si / 1000 Ang^3
#
#
#
# Elastic Constant Matrix: (Units=GPa)
#
#
# Indices 1 2 3 4 5 6 
#
# 1 112.6926 -1.3251 18.6741 0.0000 2.1239 0.0000
# 2 -1.3251 33.6404 -5.8525 0.0000 7.3110 0.0000
# 3 18.6741 -5.8525 88.9392 0.0000 10.2772 0.0000
# 4 0.0000 0.0000 0.0000 20.6258 0.0000 -1.5779
# 5 2.1239 7.3110 10.2772 0.0000 39.2346 0.0000
# 6 0.0000 0.0000 0.0000 -1.5779 0.0000 22.0380
#
#
#
# Elastic Compliance Matrix: (Units=1/GPa)
#
#
# Indices 1 2 3 4 5 6 
#
# 1 0.009194 0.000026 -0.001929 0.000000 0.000003 0.000000
# 2 0.000026 0.031667 0.002847 0.000000 -0.006648 0.000000
# 3 -0.001929 0.002847 0.012256 0.000000 -0.003636 0.000000
# 4 0.000000 0.000000 0.000000 0.048750 0.000000 0.003490
# 5 0.000003 -0.006648 -0.003636 0.000000 0.027679 0.000000
# 6 0.000000 0.000000 0.000000 0.003490 0.000000 0.045626
#
#
# Mechanical properties :
#
#
# Convention : Reuss Voigt Hill
#
# Bulk Modulus (GPa) = 18.18047 28.69612 23.43829
# Shear Modulus (GPa) = 26.09338 31.29805 28.69571
#
# Velocity S-wave (km/s) = 3.40660 3.73091 3.57243
# Velocity P-wave (km/s) = 4.85375 5.59661 5.23836
#
# Compressibility (1/GPa) = 0.05500408
#
# Stress axis : x y z
#
# Youngs Moduli (GPa) = 108.77139 31.57843 81.59164
#
# Poissons Ratio (x) = -0.00082 0.15739
# Poissons Ratio (y) = -0.00282 -0.23225
# Poissons Ratio (z) = 0.20981 -0.08989
#
# Static dielectric constant tensor:
#      x y z
#    x 1.811380 0.000000 0.031100 
#    y 0.000000 1.820370 0.000000 
#    z 0.031100 0.000000 1.867360 
# 
# From -- ./inp_files/230885.got.cif
#   From: 2010.05.17/outbox.cif.g08.bks.cpg/sg12_116_cif.got.tgz:230885.got - 2010.06.03 13:09:07.
