data_PCOD9184089
_publ_section_title
;
Structure prediction by ZEFSAII (Michael W. Deem and Ramdas Pophale) SiO2 
 PCOD9184089
Probable space group: C 2/M
;
_chemical_formula_sum "Si O2"
_cell_formula_units_Z 64
_cell_length_a 22.956749
_cell_length_b 24.248379
_cell_length_c 12.369610
_cell_angle_alpha 90.000000
_cell_angle_beta 147.308307
_cell_angle_gamma 90.000000
_cell_volume 3719.101263
_symmetry_space_group_name_H-M "C 2/M"
_symmetry_group_IT_number 12
_symmetry_cell_setting 'monoclinic'
loop_
_space_group_symop_operation_xyz
x,y,z
-x,y,-z
-x,-y,-z
x,-y,z
1/2+x,1/2+y,z
1/2-x,1/2+y,-z
1/2-x,1/2-y,-z
1/2+x,1/2-y,z
loop_
_atom_site_type_symbol
_atom_site_label
_atom_site_fract_x
_atom_site_fract_y
_atom_site_fract_z
Si Si1 0.184961 0.204631 0.965198
Si Si2 0.319753 0.937323 0.915600
Si Si3 0.615747 0.103639 0.211017
Si Si4 0.057643 0.222297 0.377278
Si Si5 0.291902 0.687595 0.566519
Si Si6 0.193594 0.332847 0.632131
Si Si7 0.556823 0.064307 0.353886
Si Si8 0.384074 0.365111 0.343145
O O1 0.155558 0.158270 0.832723
O O2 0.070548 0.228542 0.825983
O O3 0.250000 0.250000 0.000000
O O4 0.252599 0.181299 0.170374
O O5 0.351469 0.933272 0.839029
O O6 0.213691 0.901469 0.766630
O O7 0.297169 0.000000 0.910632
O O8 0.429294 0.920407 0.150411
O O9 0.705787 0.149533 0.370129
O O10 0.598045 0.070557 0.294198
O O11 0.500000 0.129849 0.000000
O O12 0.100175 0.191202 0.336021
O O13 0.113940 0.281923 0.477613
O O14 0.091775 0.184651 0.534032
O O15 0.250000 0.750000 0.500000
O O16 0.284083 0.666969 0.677970
O O17 0.126494 0.389887 0.525691
O O18 0.567625 0.000000 0.403927
O O19 0.500000 0.392872 0.500000
#
# Coordination Sequence:
#
# PCOD9184089 Si02
#       8
#     8   8   8   8   8   8   8   8
#     4  11  23  37  56  79 107 153 191 221 268 335
#     4  10  19  33  57  84 111 148 186 229 278 322
#     4   9  16  30  55  82 113 146 180 221 276 337
#     4  10  20  37  57  82 114 137 181 236 276 330
#     4   9  18  34  50  83 116 137 172 222 287 334
#     4  10  21  36  56  84 111 148 179 219 289 334
#     4   9  19  34  54  85 116 142 182 228 276 337
#     4  10  21  37  55  78 112 144 187 237 266 315
#
# _framework density 17.208458
#
# number of rings (size 3 to 8) (size 9 to 14) (size 15 to 20)
#    0.000    2.250    2.500    0.375    1.750    2.250 
#   11.250    0.625    0.000    2.250    0.000    1.750 
#    0.000    0.000    0.000    0.000    0.000    0.000 
#
# Total GULP energy -178265.023588 kJ/mol
# GULP energy per Si atom -5570.781987 kJ/mol
# Density = 1.716929 g / cm^3
# Si number density = 17.208458 Si / 1000 Ang^3
#
#
#
# Elastic Constant Matrix: (Units=GPa)
#
#
# Indices 1 2 3 4 5 6 
#
# 1 93.6605 30.0821 60.1044 0.0000 19.6023 0.0000
# 2 30.0821 72.7582 54.1851 0.0000 10.3721 0.0000
# 3 60.1044 54.1851 113.4618 0.0000 3.5152 0.0000
# 4 0.0000 0.0000 0.0000 21.9998 0.0000 0.9974
# 5 19.6023 10.3721 3.5152 0.0000 34.1889 0.0000
# 6 0.0000 0.0000 0.0000 0.9974 0.0000 12.9449
#
#
#
# Elastic Compliance Matrix: (Units=1/GPa)
#
#
# Indices 1 2 3 4 5 6 
#
# 1 0.019097 0.001345 -0.010440 0.000000 -0.010284 0.000000
# 2 0.001345 0.022484 -0.011251 0.000000 -0.006436 0.000000
# 3 -0.010440 -0.011251 0.019488 0.000000 0.007395 0.000000
# 4 0.000000 0.000000 0.000000 0.045614 0.000000 -0.003515
# 5 -0.010284 -0.006436 0.007395 0.000000 0.036338 0.000000
# 6 0.000000 0.000000 0.000000 -0.003515 0.000000 0.077521
#
#
# Mechanical properties :
#
#
# Convention : Reuss Voigt Hill
#
# Bulk Modulus (GPa) = 49.07330 63.18043 56.12687
# Shear Modulus (GPa) = 18.65491 22.86066 20.75779
#
# Velocity S-wave (km/s) = 3.29607 3.64875 3.47689
# Velocity P-wave (km/s) = 6.56234 7.38550 6.98606
#
# Compressibility (1/GPa) = 0.02037768
#
# Stress axis : x y z
#
# Youngs Moduli (GPa) = 52.36501 44.47557 51.31386
#
# Poissons Ratio (x) = -0.05984 0.53572
# Poissons Ratio (y) = -0.07046 0.57733
# Poissons Ratio (z) = 0.54670 0.50039
#
# Static dielectric constant tensor:
#      x y z
#    x 1.626740 0.000000 0.008900 
#    y 0.000000 1.387740 0.000000 
#    z 0.008900 0.000000 1.580090 
# 
# From -- ./inp_files/178575.got.cif
#   From: 2010.05.17/outbox.cif.g08.bks.cpg/sg12_90_cif.got.tgz:178575.got - 2010.06.03 13:09:07.
