data_PCOD9184667
_publ_section_title
;
Structure prediction by ZEFSAII (Michael W. Deem and Ramdas Pophale) SiO2 
 PCOD9184667
Probable space group: C 2/M
;
_chemical_formula_sum "Si O2"
_cell_formula_units_Z 60
_cell_length_a 19.755421
_cell_length_b 7.480376
_cell_length_c 16.668897
_cell_angle_alpha 90.000000
_cell_angle_beta 74.150792
_cell_angle_gamma 90.000000
_cell_volume 2369.650714
_symmetry_space_group_name_H-M "C 2/M"
_symmetry_group_IT_number 12
_symmetry_cell_setting 'monoclinic'
loop_
_space_group_symop_operation_xyz
x,y,z
-x,y,-z
-x,-y,-z
x,-y,z
1/2+x,1/2+y,z
1/2-x,1/2+y,-z
1/2-x,1/2-y,-z
1/2+x,1/2-y,z
loop_
_atom_site_type_symbol
_atom_site_label
_atom_site_fract_x
_atom_site_fract_y
_atom_site_fract_z
Si Si1 0.353460 0.204883 0.224127
Si Si2 0.701429 0.290097 0.251697
Si Si3 0.140988 0.299249 0.521002
Si Si4 0.626653 0.213862 0.120997
Si Si5 0.579955 0.707601 0.962301
Si Si6 0.775436 0.000000 0.421421
Si Si7 0.990293 0.719415 0.266038
Si Si8 0.563611 0.205852 0.394128
O O1 0.276339 0.290607 0.253642
O O2 0.378995 0.203522 0.123847
O O3 0.418037 0.283767 0.251864
O O4 0.345248 0.000000 0.253450
O O5 0.700144 0.500000 0.271493
O O6 0.689133 0.271663 0.160065
O O7 0.634250 0.208036 0.316650
O O8 0.120933 0.500000 0.558880
O O9 0.211216 0.346832 0.445942
O O10 0.085189 0.224757 0.474240
O O11 0.166505 0.158519 0.577477
O O12 0.554626 0.275668 0.187853
O O13 0.627035 0.000000 0.119237
O O14 0.622386 0.277664 0.031442
O O15 0.572862 0.500000 0.942507
O O16 0.500000 0.779089 0.000000
O O17 0.991486 0.500000 0.264194
O O18 0.006390 0.780966 0.351013
O O19 0.545979 0.000000 0.413905
#
# Coordination Sequence:
#
# PCOD9184667 Si02
#       8
#     8   8   8   8   8   4   8   8
#     4  10  20  35  51  67  92 124 160 194 239 290
#     4  10  21  33  47  70  98 125 154 201 238 281
#     4   8  14  25  42  69 103 134 160 195 242 285
#     4  10  19  34  54  69  88 118 156 192 243 297
#     4  11  22  33  50  74  92 112 147 202 252 297
#     4   8  14  24  42  70 106 132 156 202 238 276
#     4   8  15  29  49  68  86 118 159 198 231 282
#     4   9  17  30  49  71  97 130 165 192 236 289
#
# _framework density 25.320186
#
# number of rings (size 3 to 8) (size 9 to 14) (size 15 to 20)
#    0.400    2.267    1.333    2.000    0.933    2.133 
#    0.000    0.000    0.000    0.000    0.000    0.000 
#    0.000    6.400    0.000    0.000    0.000    0.000 
#
# Total GULP energy -167228.565511 kJ/mol
# GULP energy per Si atom -5574.285517 kJ/mol
# Density = 2.526256 g / cm^3
# Si number density = 25.320186 Si / 1000 Ang^3
#
#
#
# Elastic Constant Matrix: (Units=GPa)
#
#
# Indices 1 2 3 4 5 6 
#
# 1 171.2811 5.2200 43.1409 0.0000 19.6828 0.0000
# 2 5.2200 100.1446 -10.3286 0.0000 -1.6005 0.0000
# 3 43.1409 -10.3286 99.6595 0.0000 8.4941 0.0000
# 4 0.0000 0.0000 0.0000 -8.6697 0.0000 4.5744
# 5 19.6828 -1.6005 8.4941 0.0000 34.1660 0.0000
# 6 0.0000 0.0000 0.0000 4.5744 0.0000 4.4975
#
#
#
# Elastic Compliance Matrix: (Units=1/GPa)
#
#
# Indices 1 2 3 4 5 6 
#
# 1 0.006948 -0.000704 -0.002796 0.000000 -0.003341 0.000000
# 2 -0.000704 0.010166 0.001311 0.000000 0.000556 0.000000
# 3 -0.002796 0.001311 0.011481 0.000000 -0.001182 0.000000
# 4 0.000000 0.000000 0.000000 -0.075063 0.000000 0.076345
# 5 -0.003341 0.000556 -0.001182 0.000000 0.031513 0.000000
# 6 0.000000 0.000000 0.000000 0.076345 0.000000 0.144696
#
#
# Mechanical properties :
#
#
# Convention : Reuss Voigt Hill
#
# Bulk Modulus (GPa) = 41.29212 49.68333 45.48772
# Shear Modulus (GPa) = 35.16371 28.20228 31.68300
#
# Velocity S-wave (km/s) = 3.73065 3.34102 3.54120
# Velocity P-wave (km/s) = 5.90766 5.87774 5.89272
#
# Compressibility (1/GPa) = 0.02421770
#
# Stress axis : x y z
#
# Youngs Moduli (GPa) = 143.92873 98.36377 87.09991
#
# Poissons Ratio (x) = 0.06924 0.24352
# Poissons Ratio (y) = 0.10131 -0.11418
# Poissons Ratio (z) = 0.40240 -0.12895
#
# Static dielectric constant tensor:
#      x y z
#    x 2.037610 0.000000 -0.009850 
#    y 0.000000 2.038140 0.000000 
#    z -0.009850 0.000000 2.018940 
# 
# From -- ./inp_files/313954.got.cif
#   From: 2010.05.17/outbox.cif.g08.bks.cpg/sg12_157_cif.got.tgz:313954.got - 2010.06.03 13:09:07.
