data_PCOD9184005
_publ_section_title
;
Structure prediction by ZEFSAII (Michael W. Deem and Ramdas Pophale) SiO2 
 PCOD9184005
Probable space group: C 2/M
;
_chemical_formula_sum "Si O2"
_cell_formula_units_Z 56
_cell_length_a 21.115076
_cell_length_b 13.930472
_cell_length_c 14.897811
_cell_angle_alpha 90.000000
_cell_angle_beta 35.940674
_cell_angle_gamma 90.000000
_cell_volume 2572.053606
_symmetry_space_group_name_H-M "C 2/M"
_symmetry_group_IT_number 12
_symmetry_cell_setting 'monoclinic'
loop_
_space_group_symop_operation_xyz
x,y,z
-x,y,-z
-x,-y,-z
x,-y,z
1/2+x,1/2+y,z
1/2-x,1/2+y,-z
1/2-x,1/2-y,-z
1/2+x,1/2-y,z
loop_
_atom_site_type_symbol
_atom_site_label
_atom_site_fract_x
_atom_site_fract_y
_atom_site_fract_z
Si Si1 0.244298 0.396056 0.735946
Si Si2 0.095994 0.897717 0.280013
Si Si3 0.223819 0.842056 0.967247
Si Si4 0.681199 0.391675 0.543305
Si Si5 0.076084 0.247735 0.987759
Si Si6 0.417049 0.186748 0.313237
Si Si7 0.461861 0.176031 0.643189
O O1 0.189573 0.500000 0.791705
O O2 0.313108 0.393875 0.747338
O O3 0.320142 0.386957 0.562970
O O4 0.159906 0.311321 0.835695
O O5 0.042524 0.793350 0.349620
O O6 0.036139 0.000000 0.360338
O O7 0.154370 0.901918 0.116910
O O8 0.342955 0.868284 0.796729
O O9 0.250000 0.750000 0.000000
O O10 0.147391 0.817564 0.971347
O O11 0.650790 0.500000 0.606755
O O12 0.612074 0.301213 0.655400
O O13 0.806298 0.369718 0.423446
O O14 0.007503 0.318130 0.132123
O O15 0.000000 0.200167 0.000000
O O16 0.464411 0.154657 0.354910
O O17 0.500000 0.148038 0.500000
#
# Coordination Sequence:
#
# PCOD9184005 Si02
#       7
#     8   8   8   8   8   8   8
#     4  10  19  33  56  89 119 150 187 247 312 352
#     4  10  19  34  57  83 118 152 189 243 302 352
#     4  10  19  37  55  79 120 156 193 234 285 347
#     4  10  23  40  58  88 130 156 192 249 305 366
#     4  12  21  35  60  87 118 156 201 244 286 362
#     4  11  22  37  61  91 114 168 202 232 309 361
#     4  11  21  35  62  89 115 150 201 248 293 357
#
# _framework density 21.772486000000001
#
# number of rings (size 3 to 8) (size 9 to 14) (size 15 to 20)
#    0.000    1.429    7.143    0.857    0.000    1.714 
#    0.000    0.714    0.000    5.143    0.000    0.000 
#    0.000    0.000    0.000    0.000    0.000    0.000 
#
# Total GULP energy -156276.610978 kJ/mol
# GULP energy per Si atom -5581.307535 kJ/mol
# Density = 2.172293 g / cm^3
# Si number density = 21.772486 Si / 1000 Ang^3
#
#
#
# Elastic Constant Matrix: (Units=GPa)
#
#
# Indices 1 2 3 4 5 6 
#
# 1 155.3219 2.4532 17.4703 0.0000 -3.4015 0.0000
# 2 2.4532 49.1917 -17.9370 0.0000 1.3881 0.0000
# 3 17.4703 -17.9370 60.9538 0.0000 8.9367 0.0000
# 4 0.0000 0.0000 0.0000 -34.5838 0.0000 -149.5245
# 5 -3.4015 1.3881 8.9367 0.0000 32.6741 0.0000
# 6 0.0000 0.0000 0.0000 -149.5245 0.0000 -460.2190
#
#
#
# Elastic Compliance Matrix: (Units=1/GPa)
#
#
# Indices 1 2 3 4 5 6 
#
# 1 0.006776 -0.001305 -0.002540 0.000000 0.001456 0.000000
# 2 -0.001305 0.023294 0.007703 0.000000 -0.003232 0.000000
# 3 -0.002540 0.007703 0.020301 0.000000 -0.006144 0.000000
# 4 0.000000 0.000000 0.000000 0.071447 0.000000 -0.023213
# 5 0.001456 -0.003232 -0.006144 0.000000 0.032575 0.000000
# 6 0.000000 0.000000 0.000000 -0.023213 0.000000 0.005369
#
#
# Mechanical properties :
#
#
# Convention : Reuss Voigt Hill
#
# Bulk Modulus (GPa) = 17.21560 29.93783 23.57671
# Shear Modulus (GPa) = 29.17016 -74.86037 -22.84510
#
# Velocity S-wave (km/s) = 3.66426 -5.87006 -3.24275
# Velocity P-wave (km/s) = 5.08199 5.67128 1.78000
#
# Compressibility (1/GPa) = 0.05808687
#
# Stress axis : x y z
#
# Youngs Moduli (GPa) = 147.57125 42.93038 49.25802
#
# Poissons Ratio (x) = 0.05603 0.12510
# Poissons Ratio (y) = 0.19259 -0.37941
# Poissons Ratio (z) = 0.37478 -0.33067
#
# Static dielectric constant tensor:
#      x y z
#    x 1.823520 0.000000 -0.000630 
#    y 0.000000 1.807720 0.000000 
#    z -0.000630 0.000000 1.829250 
# 
# From -- ./inp_files/233654.got.cif
#   From: 2010.05.17/outbox.cif.g08.bks.cpg/sg12_117_cif.got.tgz:233654.got - 2010.06.03 13:09:07.
