data_PCOD9184073
_publ_section_title
;
Structure prediction by ZEFSAII (Michael W. Deem and Ramdas Pophale) SiO2 
 PCOD9184073
Probable space group: C 2/M
;
_chemical_formula_sum "Si O2"
_cell_formula_units_Z 64
_cell_length_a 30.903152
_cell_length_b 10.103599
_cell_length_c 11.390921
_cell_angle_alpha 90.000000
_cell_angle_beta 83.240131
_cell_angle_gamma 90.000000
_cell_volume 3531.897134
_symmetry_space_group_name_H-M "C 2/M"
_symmetry_group_IT_number 12
_symmetry_cell_setting 'monoclinic'
loop_
_space_group_symop_operation_xyz
x,y,z
-x,y,-z
-x,-y,-z
x,-y,z
1/2+x,1/2+y,z
1/2-x,1/2+y,-z
1/2-x,1/2-y,-z
1/2+x,1/2-y,z
loop_
_atom_site_type_symbol
_atom_site_label
_atom_site_fract_x
_atom_site_fract_y
_atom_site_fract_z
Si Si1 0.399534 0.347469 0.981022
Si Si2 0.048499 0.651670 0.190920
Si Si3 0.028575 0.653592 0.609925
Si Si4 0.685771 0.247869 0.118579
Si Si5 0.844012 0.846851 0.219249
Si Si6 0.278806 0.145340 0.135013
Si Si7 0.389910 0.344245 0.452464
Si Si8 0.369771 0.852764 0.659347
O O1 0.413492 0.500000 0.974714
O O2 0.383247 0.310605 0.116822
O O3 0.435563 0.251737 0.913962
O O4 0.355572 0.330149 0.916656
O O5 0.048310 0.500000 0.147521
O O6 0.085034 0.657518 0.282297
O O7 0.002945 0.679934 0.269308
O O8 0.044146 0.500000 0.613129
O O9 0.066432 0.760997 0.588515
O O10 0.000000 0.660952 0.500000
O O11 0.727196 0.332807 0.144261
O O12 0.667840 0.163499 0.232212
O O13 0.702538 0.162209 0.003046
O O14 0.803093 0.755986 0.202681
O O15 0.860053 0.836825 0.346600
O O16 0.833361 0.000000 0.195777
O O17 0.289347 0.000000 0.176357
O O18 0.398067 0.500000 0.475314
O O19 0.368412 0.265558 0.567211
O O20 0.368229 0.000000 0.606220
#
# Coordination Sequence:
#
# PCOD9184073 Si02
#       8
#     8   8   8   8   8   8   8   8
#     4   9  17  32  54  76 104 140 173 209 260 313
#     4   9  18  32  52  79 108 132 164 215 266 309
#     4  10  19  36  56  77 106 139 171 212 265 315
#     4   9  19  32  52  84 114 134 164 218 271 308
#     4   9  21  39  53  71 106 146 178 215 265 313
#     4  10  19  33  57  84 107 136 179 220 257 310
#     4  11  23  37  54  77 105 139 180 221 259 308
#     4  10  19  34  54  77 107 142 173 208 262 319
#
# _framework density 18.120573
#
# number of rings (size 3 to 8) (size 9 to 14) (size 15 to 20)
#    0.000    2.375    1.250    1.125    0.000   10.750 
#    0.000    1.250    0.000    3.750    0.000    0.000 
#    0.000    0.000    0.000    0.000    0.000    0.000 
#
# Total GULP energy -178464.173335 kJ/mol
# GULP energy per Si atom -5577.005417 kJ/mol
# Density = 1.807933 g / cm^3
# Si number density = 18.120573 Si / 1000 Ang^3
#
#
#
# Elastic Constant Matrix: (Units=GPa)
#
#
# Indices 1 2 3 4 5 6 
#
# 1 49.0872 25.7248 13.6318 0.0000 -15.3194 0.0000
# 2 25.7248 88.9798 26.0410 0.0000 -1.4180 0.0000
# 3 13.6318 26.0410 39.7999 0.0000 -6.8366 0.0000
# 4 0.0000 0.0000 0.0000 14.8775 0.0000 2.3207
# 5 -15.3194 -1.4180 -6.8366 0.0000 19.6907 0.0000
# 6 0.0000 0.0000 0.0000 2.3207 0.0000 15.6523
#
#
#
# Elastic Compliance Matrix: (Units=1/GPa)
#
#
# Indices 1 2 3 4 5 6 
#
# 1 0.033006 -0.008754 -0.001355 0.000000 0.024578 0.000000
# 2 -0.008754 0.016320 -0.009196 0.000000 -0.008828 0.000000
# 3 -0.001355 -0.009196 0.033298 0.000000 0.009844 0.000000
# 4 0.000000 0.000000 0.000000 0.068807 0.000000 -0.010202
# 5 0.024578 -0.008828 0.009844 0.000000 0.072689 0.000000
# 6 0.000000 0.000000 0.000000 -0.010202 0.000000 0.065401
#
#
# Mechanical properties :
#
#
# Convention : Reuss Voigt Hill
#
# Bulk Modulus (GPa) = 22.72053 34.29580 28.50817
# Shear Modulus (GPa) = 14.58556 17.54204 16.06380
#
# Velocity S-wave (km/s) = 2.84018 3.11476 2.98064
# Velocity P-wave (km/s) = 4.82921 5.64829 5.25473
#
# Compressibility (1/GPa) = 0.04401306
#
# Stress axis : x y z
#
# Youngs Moduli (GPa) = 30.29714 61.27400 30.03168
#
# Poissons Ratio (x) = 0.53640 0.04070
# Poissons Ratio (y) = 0.26522 0.27618
# Poissons Ratio (z) = 0.04106 0.56350
#
# Static dielectric constant tensor:
#      x y z
#    x 1.609120 0.000000 -0.015490 
#    y 0.000000 1.620500 0.000000 
#    z -0.015490 0.000000 1.623130 
# 
# From -- ./inp_files/187605.got.cif
#   From: 2010.05.17/outbox.cif.g08.bks.cpg/sg12_94_cif.got.tgz:187605.got - 2010.06.03 13:09:07.
