data_PCOD9184200
_publ_section_title
;
Structure prediction by ZEFSAII (Michael W. Deem and Ramdas Pophale) SiO2 
 PCOD9184200
Probable space group: C 2/M
;
_chemical_formula_sum "Si O2"
_cell_formula_units_Z 52
_cell_length_a 12.058965
_cell_length_b 32.619066
_cell_length_c 10.652683
_cell_angle_alpha 90.000000
_cell_angle_beta 39.233911
_cell_angle_gamma 90.000000
_cell_volume 2650.286025
_symmetry_space_group_name_H-M "C 2/M"
_symmetry_group_IT_number 12
_symmetry_cell_setting 'monoclinic'
loop_
_space_group_symop_operation_xyz
x,y,z
-x,y,-z
-x,-y,-z
x,-y,z
1/2+x,1/2+y,z
1/2-x,1/2+y,-z
1/2-x,1/2-y,-z
1/2+x,1/2-y,z
loop_
_atom_site_type_symbol
_atom_site_label
_atom_site_fract_x
_atom_site_fract_y
_atom_site_fract_z
Si Si1 0.706983 0.766503 0.343429
Si Si2 0.008259 0.867936 0.257980
Si Si3 0.992163 0.544494 0.158528
Si Si4 0.402369 0.867451 0.951573
Si Si5 0.295722 0.813319 0.391101
Si Si6 0.500000 0.322925 0.000000
Si Si7 0.421519 0.453854 0.429225
O O1 0.500000 0.765794 0.500000
O O2 0.729353 0.788905 0.457610
O O3 0.776054 0.720146 0.298860
O O4 0.829626 0.793153 0.144346
O O5 0.856798 0.847278 0.475006
O O6 0.985432 0.916737 0.288026
O O7 0.200323 0.856357 0.138916
O O8 0.992059 0.850740 0.131124
O O9 0.060547 0.500000 0.142842
O O10 0.788728 0.547636 0.374821
O O11 0.085326 0.586510 0.115537
O O12 0.000000 0.543427 0.000000
O O13 0.517651 0.835572 0.772606
O O14 0.500000 0.868511 0.000000
O O15 0.500000 0.447469 0.500000
O O16 0.472689 0.500000 0.344945
#
# Coordination Sequence:
#
# PCOD9184200 Si02
#       7
#     8   8   8   8   8   4   8
#     4  10  22  40  62  78 112 154 192 244 293 348
#     4  11  23  39  61  85 121 157 198 243 289 347
#     4   9  17  31  50  79 119 153 183 221 276 349
#     4  11  22  33  56  88 119 148 185 238 298 349
#     4  10  23  38  55  89 112 147 198 238 297 349
#     4  10  24  44  61  84 110 158 211 242 284 350
#     4  10  19  33  57  89 125 158 190 237 296 347
#
# _framework density 19.620524
#
# number of rings (size 3 to 8) (size 9 to 14) (size 15 to 20)
#    0.000    1.846    1.538    2.769    3.231    1.846 
#    0.000    5.000    0.000    0.000    0.000    2.154 
#    0.000    0.000    0.000    0.000    0.000    0.000 
#
# Total GULP energy -145121.068596 kJ/mol
# GULP energy per Si atom -5581.579561 kJ/mol
# Density = 1.957587 g / cm^3
# Si number density = 19.620524 Si / 1000 Ang^3
#
#
#
# Elastic Constant Matrix: (Units=GPa)
#
#
# Indices 1 2 3 4 5 6 
#
# 1 38.4181 20.8524 11.8564 0.0000 -10.7080 0.0000
# 2 20.8524 143.6341 44.5992 0.0000 4.6132 0.0000
# 3 11.8564 44.5992 87.2741 0.0000 -14.1672 0.0000
# 4 0.0000 0.0000 0.0000 -11.2780 0.0000 8.3054
# 5 -10.7080 4.6132 -14.1672 0.0000 31.1266 0.0000
# 6 0.0000 0.0000 0.0000 8.3054 0.0000 13.1220
#
#
#
# Elastic Compliance Matrix: (Units=1/GPa)
#
#
# Indices 1 2 3 4 5 6 
#
# 1 0.032041 -0.005085 0.000170 0.000000 0.011853 0.000000
# 2 -0.005085 0.009430 -0.005009 0.000000 -0.005427 0.000000
# 3 0.000170 -0.005009 0.015252 0.000000 0.007743 0.000000
# 4 0.000000 0.000000 0.000000 -0.060478 0.000000 0.038279
# 5 0.011853 -0.005427 0.007743 0.000000 0.040533 0.000000
# 6 0.000000 0.000000 0.000000 0.038279 0.000000 0.051979
#
#
# Mechanical properties :
#
#
# Convention : Reuss Voigt Hill
#
# Bulk Modulus (GPa) = 27.11927 47.10470 37.11198
# Shear Modulus (GPa) = 41.35768 19.39534 30.37651
#
# Velocity S-wave (km/s) = 4.59614 3.14749 3.93899
# Velocity P-wave (km/s) = 6.48213 6.10483 6.29630
#
# Compressibility (1/GPa) = 0.03687415
#
# Stress axis : x y z
#
# Youngs Moduli (GPa) = 31.21012 106.04438 65.56651
#
# Poissons Ratio (x) = 0.53924 -0.01114
# Poissons Ratio (y) = 0.15871 0.32843
# Poissons Ratio (z) = -0.00530 0.53118
#
# Static dielectric constant tensor:
#      x y z
#    x 1.706120 0.000000 -0.084670 
#    y 0.000000 1.738300 0.000000 
#    z -0.084670 0.000000 1.863820 
# 
# From -- ./inp_files/137570.got.cif
#   From: 2010.05.17/outbox.cif.g08.bks.cpg/sg12_69_cif.got.tgz:137570.got - 2010.06.03 13:09:07.
