data_PCOD9184750
_publ_section_title
;
Structure prediction by ZEFSAII (Michael W. Deem and Ramdas Pophale) SiO2 
 PCOD9184750
Probable space group: C 2/M
;
_chemical_formula_sum "Si O2"
_cell_formula_units_Z 44
_cell_length_a 28.475875
_cell_length_b 17.490577
_cell_length_c 5.253377
_cell_angle_alpha 90.000000
_cell_angle_beta 64.742958
_cell_angle_gamma 90.000000
_cell_volume 2366.364483
_symmetry_space_group_name_H-M "C 2/M"
_symmetry_group_IT_number 12
_symmetry_cell_setting 'monoclinic'
loop_
_space_group_symop_operation_xyz
x,y,z
-x,y,-z
-x,-y,-z
x,-y,z
1/2+x,1/2+y,z
1/2-x,1/2+y,-z
1/2-x,1/2-y,-z
1/2+x,1/2-y,z
loop_
_atom_site_type_symbol
_atom_site_label
_atom_site_fract_x
_atom_site_fract_y
_atom_site_fract_z
Si Si1 0.610142 0.269595 0.355103
Si Si2 0.356131 0.822583 0.229514
Si Si3 0.251565 0.590233 0.538398
Si Si4 0.500000 0.218493 0.500000
Si Si5 0.048502 0.417590 0.073427
Si Si6 0.820348 0.910665 0.882000
O O1 0.632786 0.233929 0.561944
O O2 0.547181 0.265568 0.513400
O O3 0.631577 0.354334 0.264473
O O4 0.631816 0.219792 0.065843
O O5 0.298615 0.856518 0.362301
O O6 0.396638 0.893294 0.171367
O O7 0.236897 0.500000 0.556392
O O8 0.281290 0.601615 0.735733
O O9 0.290117 0.606090 0.214190
O O10 0.468600 0.158151 0.741848
O O11 0.054238 0.500000 0.197703
O O12 0.000000 0.426346 0.000000
O O13 0.835153 0.000000 0.848780
#
# Coordination Sequence:
#
# PCOD9184750 Si02
#       6
#     8   8   8   4   8   8
#     4  11  23  37  59  81 113 146 185 236 276 330
#     4  11  22  36  56  88 113 148 185 224 273 324
#     4  10  21  38  58  83 117 148 182 226 272 330
#     4  10  21  38  53  82 114 148 188 234 279 314
#     4  10  19  34  54  78 112 152 186 217 262 325
#     4  10  22  40  59  81 109 146 185 230 288 336
#
# _framework density 18.593923
#
# number of rings (size 3 to 8) (size 9 to 14) (size 15 to 20)
#    0.000    1.636    1.818    3.000    0.000    4.364 
#    0.000    2.273    0.000    0.000    0.000    7.636 
#    0.000    0.000    0.000    0.000    0.000    0.000 
#
# Total GULP energy -122644.257121 kJ/mol
# GULP energy per Si atom -5574.738960 kJ/mol
# Density = 1.855160 g / cm^3
# Si number density = 18.593923 Si / 1000 Ang^3
#
#
#
# Elastic Constant Matrix: (Units=GPa)
#
#
# Indices 1 2 3 4 5 6 
#
# 1 40.2232 32.5328 7.6136 0.0000 -12.8542 0.0000
# 2 32.5328 59.8853 14.5523 0.0000 -29.8439 0.0000
# 3 7.6136 14.5523 59.9114 0.0000 4.2486 0.0000
# 4 0.0000 0.0000 0.0000 36.6793 0.0000 -31.1075
# 5 -12.8542 -29.8439 4.2486 0.0000 35.4317 0.0000
# 6 0.0000 0.0000 0.0000 -31.1075 0.0000 81.6448
#
#
#
# Elastic Compliance Matrix: (Units=1/GPa)
#
#
# Indices 1 2 3 4 5 6 
#
# 1 0.045648 -0.029550 0.001984 0.000000 -0.008567 0.000000
# 2 -0.029550 0.053359 -0.011732 0.000000 0.035631 0.000000
# 3 0.001984 -0.011732 0.020110 0.000000 -0.011574 0.000000
# 4 0.000000 0.000000 0.000000 0.040279 0.000000 0.015347
# 5 -0.008567 0.035631 -0.011574 0.000000 0.056515 0.000000
# 6 0.000000 0.000000 0.000000 0.015347 0.000000 0.018095
#
#
# Mechanical properties :
#
#
# Convention : Reuss Voigt Hill
#
# Bulk Modulus (GPa) = 24.67876 29.93526 27.30701
# Shear Modulus (GPa) = 15.33230 37.77257 26.55243
#
# Velocity S-wave (km/s) = 2.87468 4.51205 3.78301
# Velocity P-wave (km/s) = 4.93150 6.57869 5.81373
#
# Compressibility (1/GPa) = 0.04052067
#
# Stress axis : x y z
#
# Youngs Moduli (GPa) = 21.90669 18.74089 49.72734
#
# Poissons Ratio (x) = 0.55379 -0.09867
# Poissons Ratio (y) = 0.64734 0.58342
# Poissons Ratio (z) = -0.04347 0.21987
#
# Static dielectric constant tensor:
#      x y z
#    x 1.658350 0.000000 -0.030300 
#    y 0.000000 1.707250 0.000000 
#    z -0.030300 0.000000 1.276710 
# 
# From -- ./inp_files/24599.got.cif
#   From: 2010.05.17/outbox.cif.g08.bks.cpg/sg12_13_cif.got.tgz:24599.got - 2010.06.03 13:09:07.
