data_PCOD9184474
_publ_section_title
;
Structure prediction by ZEFSAII (Michael W. Deem and Ramdas Pophale) SiO2 
 PCOD9184474
Probable space group: C 2/M
;
_chemical_formula_sum "Si O2"
_cell_formula_units_Z 40
_cell_length_a 13.556987
_cell_length_b 20.490778
_cell_length_c 8.321535
_cell_angle_alpha 90.000000
_cell_angle_beta 125.756025
_cell_angle_gamma 90.000000
_cell_volume 1875.945889
_symmetry_space_group_name_H-M "C 2/M"
_symmetry_group_IT_number 12
_symmetry_cell_setting 'monoclinic'
loop_
_space_group_symop_operation_xyz
x,y,z
-x,y,-z
-x,-y,-z
x,-y,z
1/2+x,1/2+y,z
1/2-x,1/2+y,-z
1/2-x,1/2-y,-z
1/2+x,1/2-y,z
loop_
_atom_site_type_symbol
_atom_site_label
_atom_site_fract_x
_atom_site_fract_y
_atom_site_fract_z
Si Si1 0.515507 0.500000 0.831055
Si Si2 0.645228 0.500000 0.579945
Si Si3 0.818366 0.791090 0.703347
Si Si4 0.418788 0.271743 0.150403
Si Si5 0.704794 0.601109 0.875466
Si Si6 0.382855 0.136527 0.300167
O O1 0.380631 0.500000 0.629817
O O2 0.596201 0.562047 0.858618
O O3 0.500000 0.500000 0.000000
O O4 0.500000 0.500000 0.500000
O O5 0.290305 0.563802 0.288533
O O6 0.750000 0.750000 0.500000
O O7 0.725251 0.846413 0.676747
O O8 0.949362 0.804472 0.748760
O O9 0.861343 0.760677 0.917644
O O10 0.336435 0.324274 0.164726
O O11 0.424215 0.205329 0.256637
O O12 0.823270 0.596008 0.098692
O O13 0.500000 0.108452 0.500000
#
# Coordination Sequence:
#
# PCOD9184474 Si02
#       6
#     4   4   8   8   8   8
#     4  10  22  38  60  85 111 134 194 251 286 323
#     4   8  18  40  56  81 105 138 193 234 279 339
#     4  10  19  34  50  75 119 150 193 227 269 333
#     4  10  21  35  54  83 117 151 191 230 283 338
#     4   9  19  36  55  81 111 147 189 235 282 338
#     4  11  21  35  55  84 121 155 188 225 287 348
#
# _framework density 21.322576000000002
#
# number of rings (size 3 to 8) (size 9 to 14) (size 15 to 20)
#    0.000    2.400    2.000    2.400    5.600    2.400 
#   10.800    2.000    0.000    0.000    0.000    1.400 
#    0.000    0.000    0.000    0.000    0.000    0.000 
#
# Total GULP energy -111448.282967 kJ/mol
# GULP energy per Si atom -5572.414148 kJ/mol
# Density = 2.127405 g / cm^3
# Si number density = 21.322576 Si / 1000 Ang^3
#
#
#
# Elastic Constant Matrix: (Units=GPa)
#
#
# Indices 1 2 3 4 5 6 
#
# 1 64.8572 4.0404 23.5190 0.0000 22.8301 0.0000
# 2 4.0404 44.0367 37.6034 0.0000 -1.7844 0.0000
# 3 23.5190 37.6034 208.2236 0.0000 17.7162 0.0000
# 4 0.0000 0.0000 0.0000 26.3295 0.0000 9.4136
# 5 22.8301 -1.7844 17.7162 0.0000 38.1271 0.0000
# 6 0.0000 0.0000 0.0000 9.4136 0.0000 1.0129
#
#
#
# Elastic Compliance Matrix: (Units=1/GPa)
#
#
# Indices 1 2 3 4 5 6 
#
# 1 0.019934 -0.001433 -0.001012 0.000000 -0.011534 0.000000
# 2 -0.001433 0.027450 -0.005183 0.000000 0.004551 0.000000
# 3 -0.001012 -0.005183 0.006061 0.000000 -0.002453 0.000000
# 4 0.000000 0.000000 0.000000 -0.016351 0.000000 0.151961
# 5 -0.011534 0.004551 -0.002453 0.000000 0.034487 0.000000
# 6 0.000000 0.000000 0.000000 0.151961 0.000000 -0.425028
#
#
# Mechanical properties :
#
#
# Convention : Reuss Voigt Hill
#
# Bulk Modulus (GPa) = 26.18337 49.71589 37.94963
# Shear Modulus (GPa) = -15.36275 29.89088 7.26406
#
# Velocity S-wave (km/s) = -2.68711 3.74818 1.84774
# Velocity P-wave (km/s) = 1.63673 6.48834 4.73167
#
# Compressibility (1/GPa) = 0.03819219
#
# Stress axis : x y z
#
# Youngs Moduli (GPa) = 50.16444 36.43042 164.97715
#
# Poissons Ratio (x) = 0.05219 0.16689
# Poissons Ratio (y) = 0.07186 0.85500
# Poissons Ratio (z) = 0.05075 0.18880
#
# Static dielectric constant tensor:
#      x y z
#    x 1.819920 0.000000 -0.029910 
#    y 0.000000 1.801500 0.000000 
#    z -0.029910 0.000000 1.868150 
# 
# From -- ./inp_files/64974.got.cif
#   From: 2010.05.17/outbox.cif.g08.bks.cpg/sg12_33_cif.got.tgz:64974.got - 2010.06.03 13:09:07.
