data_PCOD9184298
_publ_section_title
;
Structure prediction by ZEFSAII (Michael W. Deem and Ramdas Pophale) SiO2 
 PCOD9184298
Probable space group: C 2/M
;
_chemical_formula_sum "Si O2"
_cell_formula_units_Z 64
_cell_length_a 15.113508
_cell_length_b 8.034908
_cell_length_c 24.675934
_cell_angle_alpha 90.000000
_cell_angle_beta 63.612201
_cell_angle_gamma 90.000000
_cell_volume 2684.317985
_symmetry_space_group_name_H-M "C 2/M"
_symmetry_group_IT_number 12
_symmetry_cell_setting 'monoclinic'
loop_
_space_group_symop_operation_xyz
x,y,z
-x,y,-z
-x,-y,-z
x,-y,z
1/2+x,1/2+y,z
1/2-x,1/2+y,-z
1/2-x,1/2-y,-z
1/2+x,1/2-y,z
loop_
_atom_site_type_symbol
_atom_site_label
_atom_site_fract_x
_atom_site_fract_y
_atom_site_fract_z
Si Si1 0.219808 0.695026 0.401400
Si Si2 0.565964 0.191640 0.648462
Si Si3 0.644988 0.799904 0.308551
Si Si4 0.772734 0.299126 0.108926
Si Si5 0.150883 0.301971 0.801010
Si Si6 0.420779 0.305883 0.475791
Si Si7 0.084432 0.800161 0.017787
Si Si8 0.940101 0.199954 0.852194
O O1 0.199775 0.500000 0.414037
O O2 0.335800 0.717722 0.358413
O O3 0.158467 0.760822 0.366639
O O4 0.183419 0.785991 0.465135
O O5 0.456662 0.262298 0.690655
O O6 0.571514 0.203294 0.581293
O O7 0.572612 0.000000 0.664437
O O8 0.747794 0.757440 0.252799
O O9 0.635638 0.000000 0.313218
O O10 0.773927 0.500000 0.108795
O O11 0.842324 0.237778 0.138672
O O12 0.814009 0.243019 0.040018
O O13 0.660132 0.242727 0.149499
O O14 0.152796 0.500000 0.801091
O O15 0.047773 0.250495 0.802537
O O16 0.500000 0.253716 0.500000
O O17 0.436358 0.500000 0.458037
O O18 0.076600 0.000000 0.022329
O O19 0.071441 0.738107 0.082379
O O20 0.000000 0.734771 0.000000
O O21 0.938142 0.000000 0.853010
#
# Coordination Sequence:
#
# PCOD9184298 Si02
#       8
#     8   8   8   8   8   8   8   8
#     4  11  23  41  64  91 122 158 199 244 299 358
#     4  11  23  41  64  92 124 159 200 244 297 358
#     4  10  24  44  64  84 115 159 200 243 298 353
#     4  10  22  38  58  86 118 154 191 237 293 349
#     4  11  24  40  60  86 115 150 198 248 292 342
#     4  11  22  37  62  94 126 161 199 244 297 352
#     4  10  19  33  58  89 117 152 192 236 288 348
#     4  10  21  39  60  84 119 156 193 235 292 355
#
# _framework density 23.842182999999999
#
# number of rings (size 3 to 8) (size 9 to 14) (size 15 to 20)
#    0.000    1.500    2.500    2.250    0.000    5.250 
#    0.000    3.750    0.000    0.000    0.000    0.000 
#    0.000    0.000    0.000    0.000    0.000    0.000 
#
# Total GULP energy -178964.850295 kJ/mol
# GULP energy per Si atom -5592.651572 kJ/mol
# Density = 2.378792 g / cm^3
# Si number density = 23.842183 Si / 1000 Ang^3
#
#
#
# Elastic Constant Matrix: (Units=GPa)
#
#
# Indices 1 2 3 4 5 6 
#
# 1 96.8985 0.9558 4.8646 0.0000 -32.7781 0.0000
# 2 0.9558 25.4910 -13.3775 0.0000 -0.5448 0.0001
# 3 4.8646 -13.3775 75.5147 0.0000 -31.2394 0.0000
# 4 0.0000 0.0000 0.0000 26.1595 0.0000 -7.9764
# 5 -32.7781 -0.5448 -31.2394 0.0000 43.7676 0.0000
# 6 0.0000 0.0001 0.0000 -7.9764 0.0000 18.7592
#
#
#
# Elastic Compliance Matrix: (Units=1/GPa)
#
#
# Indices 1 2 3 4 5 6 
#
# 1 0.015367 0.002976 0.006121 0.000000 0.015914 0.000000
# 2 0.002976 0.046190 0.012985 0.000000 0.012072 0.000000
# 3 0.006121 0.012985 0.024281 0.000000 0.022076 0.000000
# 4 0.000000 0.000000 0.000000 0.043921 0.000000 0.018675
# 5 0.015914 0.012072 0.022076 0.000000 0.050674 0.000000
# 6 0.000000 0.000000 0.000000 0.018675 0.000000 0.061248
#
#
# Mechanical properties :
#
#
# Convention : Reuss Voigt Hill
#
# Bulk Modulus (GPa) = 7.69222 20.31000 14.00111
# Shear Modulus (GPa) = 20.75967 31.43469 26.09718
#
# Velocity S-wave (km/s) = 2.95398 3.63498 3.31203
# Velocity P-wave (km/s) = 3.85591 5.11415 4.52893
#
# Compressibility (1/GPa) = 0.13000142
#
# Stress axis : x y z
#
# Youngs Moduli (GPa) = 65.07544 21.64962 41.18425
#
# Poissons Ratio (x) = -0.06443 -0.25208
# Poissons Ratio (y) = -0.19367 -0.53477
# Poissons Ratio (z) = -0.39831 -0.28112
#
# Static dielectric constant tensor:
#      x y z
#    x 1.961920 0.000000 -0.023690 
#    y 0.000000 1.820530 0.000000 
#    z -0.023690 0.000000 1.938970 
# 
# From -- ./inp_files/375517.got.cif
#   From: 2010.05.17/outbox.cif.g08.bks.cpg/sg12_188_cif.got.tgz:375517.got - 2010.06.03 13:09:07.
