data_PCOD9184766
_publ_section_title
;
Structure prediction by ZEFSAII (Michael W. Deem and Ramdas Pophale) SiO2 
 PCOD9184766
Probable space group: C 2/M
;
_chemical_formula_sum "Si O2"
_cell_formula_units_Z 56
_cell_length_a 12.037840
_cell_length_b 20.657682
_cell_length_c 10.945093
_cell_angle_alpha 90.000000
_cell_angle_beta 101.403792
_cell_angle_gamma 90.000000
_cell_volume 2668.025930
_symmetry_space_group_name_H-M "C 2/M"
_symmetry_group_IT_number 12
_symmetry_cell_setting 'monoclinic'
loop_
_space_group_symop_operation_xyz
x,y,z
-x,y,-z
-x,-y,-z
x,-y,z
1/2+x,1/2+y,z
1/2-x,1/2+y,-z
1/2-x,1/2-y,-z
1/2+x,1/2-y,z
loop_
_atom_site_type_symbol
_atom_site_label
_atom_site_fract_x
_atom_site_fract_y
_atom_site_fract_z
Si Si1 0.797705 0.073921 0.364787
Si Si2 0.806693 0.075004 0.644631
Si Si3 0.764649 0.718095 0.369632
Si Si4 0.863802 0.325976 0.781087
Si Si5 0.537274 0.575582 0.823172
Si Si6 0.386657 0.209668 0.170932
Si Si7 0.198557 0.833722 0.976174
O O1 0.846948 0.074690 0.511764
O O2 0.693232 0.122970 0.324137
O O3 0.891738 0.090996 0.285103
O O4 0.760048 0.000000 0.332116
O O5 0.731974 0.140196 0.626999
O O6 0.908463 0.088985 0.759943
O O7 0.764862 0.000000 0.657356
O O8 0.750000 0.750000 0.500000
O O9 0.663735 0.753659 0.272967
O O10 0.872293 0.735758 0.306489
O O11 0.794574 0.338246 0.890608
O O12 0.998191 0.328839 0.822244
O O13 0.545480 0.500000 0.847765
O O14 0.606164 0.611168 0.943379
O O15 0.371765 0.269022 0.073198
O O16 0.273739 0.169032 0.113255
#
# Coordination Sequence:
#
# PCOD9184766 Si02
#       7
#     8   8   8   8   8   8   8
#     4   9  17  31  51  80 114 143 180 227 274 330
#     4  10  19  34  54  79 113 147 181 224 281 333
#     4  11  22  37  53  82 113 144 184 229 272 326
#     4  10  19  35  57  82 108 142 181 229 277 329
#     4   9  17  31  55  83 109 142 181 229 284 326
#     4  10  21  36  56  78 109 147 185 226 276 325
#     4   9  19  36  56  81 107 140 184 231 274 327
#
# _framework density 20.9893
#
# number of rings (size 3 to 8) (size 9 to 14) (size 15 to 20)
#    0.000    2.286    1.429    1.714    0.000    2.286 
#    2.571    4.286    0.000    6.857    0.000    0.000 
#    0.000    0.000    0.000    0.000    0.000    0.000 
#
# Total GULP energy -155970.402424 kJ/mol
# GULP energy per Si atom -5570.371515 kJ/mol
# Density = 2.094153 g / cm^3
# Si number density = 20.989300 Si / 1000 Ang^3
#
#
#
# Elastic Constant Matrix: (Units=GPa)
#
#
# Indices 1 2 3 4 5 6 
#
# 1 69.0386 29.3953 31.5711 0.0000 9.8711 0.0000
# 2 29.3953 78.4614 10.3644 0.0000 8.8278 0.0000
# 3 31.5711 10.3644 86.9217 0.0000 -3.1703 0.0000
# 4 0.0000 0.0000 0.0000 33.9605 0.0000 7.5192
# 5 9.8711 8.8278 -3.1703 0.0000 25.4332 0.0000
# 6 0.0000 0.0000 0.0000 7.5192 0.0000 21.1189
#
#
#
# Elastic Compliance Matrix: (Units=1/GPa)
#
#
# Indices 1 2 3 4 5 6 
#
# 1 0.021531 -0.006302 -0.007327 0.000000 -0.007083 0.000000
# 2 -0.006302 0.015380 0.000351 0.000000 -0.002849 0.000000
# 3 -0.007327 0.000351 0.014288 0.000000 0.004503 0.000000
# 4 0.000000 0.000000 0.000000 0.031966 0.000000 -0.011381
# 5 -0.007083 -0.002849 0.004503 0.000000 0.043618 0.000000
# 6 0.000000 0.000000 0.000000 -0.011381 0.000000 0.051403
#
#
# Mechanical properties :
#
#
# Convention : Reuss Voigt Hill
#
# Bulk Modulus (GPa) = 40.57830 41.89814 41.23822
# Shear Modulus (GPa) = 23.47891 26.97526 25.22708
#
# Velocity S-wave (km/s) = 3.34820 3.58885 3.47061
# Velocity P-wave (km/s) = 5.85850 6.09738 5.97914
#
# Compressibility (1/GPa) = 0.02464372
#
# Stress axis : x y z
#
# Youngs Moduli (GPa) = 46.44411 65.01858 69.98697
#
# Poissons Ratio (x) = 0.40973 0.51282
# Poissons Ratio (y) = 0.29268 -0.02457
# Poissons Ratio (z) = 0.34031 -0.02283
#
# Static dielectric constant tensor:
#      x y z
#    x 1.760120 0.000000 -0.022930 
#    y 0.000000 1.819620 0.000000 
#    z -0.022930 0.000000 1.819540 
# 
# From -- ./inp_files/133288.got.cif
#   From: 2010.05.17/outbox.cif.g08.bks.cpg/sg12_67_cif.got.tgz:133288.got - 2010.06.03 13:09:07.
