data_PCOD9184229
_publ_section_title
;
Structure prediction by ZEFSAII (Michael W. Deem and Ramdas Pophale) SiO2 
 PCOD9184229
Probable space group: C 2/M
;
_chemical_formula_sum "Si O2"
_cell_formula_units_Z 40
_cell_length_a 20.414617
_cell_length_b 13.776032
_cell_length_c 11.217831
_cell_angle_alpha 90.000000
_cell_angle_beta 44.258364
_cell_angle_gamma 90.000000
_cell_volume 2201.731573
_symmetry_space_group_name_H-M "C 2/M"
_symmetry_group_IT_number 12
_symmetry_cell_setting 'monoclinic'
loop_
_space_group_symop_operation_xyz
x,y,z
-x,y,-z
-x,-y,-z
x,-y,z
1/2+x,1/2+y,z
1/2-x,1/2+y,-z
1/2-x,1/2-y,-z
1/2+x,1/2-y,z
loop_
_atom_site_type_symbol
_atom_site_label
_atom_site_fract_x
_atom_site_fract_y
_atom_site_fract_z
Si Si1 0.027202 0.500000 0.657361
Si Si2 0.736879 0.768655 0.714523
Si Si3 0.393524 0.613577 0.660054
Si Si4 0.700158 0.669658 0.984352
Si Si5 0.346125 0.000000 0.747260
Si Si6 0.672017 0.888848 0.580515
O O1 0.920375 0.500000 0.758599
O O2 0.091713 0.500000 0.453503
O O3 0.063791 0.407244 0.683752
O O4 0.820416 0.823706 0.677152
O O5 0.669786 0.721666 0.902220
O O6 0.687148 0.842934 0.689798
O O7 0.779556 0.682633 0.577217
O O8 0.500000 0.646078 0.500000
O O9 0.384284 0.500000 0.639133
O O10 0.372298 0.623176 0.828965
O O11 0.778850 0.592159 0.843962
O O12 0.750000 0.750000 0.000000
O O13 0.710733 0.000000 0.525354
#
# Coordination Sequence:
#
# PCOD9184229 Si02
#       6
#     4   8   8   8   4   8
#     4   9  20  32  59  88 115 150 182 234 287 339
#     4  10  19  33  58  83 113 155 190 229 283 347
#     4  10  21  36  57  83 111 146 193 246 285 330
#     4  10  20  34  55  82 112 150 184 232 291 337
#     4  11  18  36  56  86 122 140 188 241 288 338
#     4   9  18  34  53  85 116 152 191 222 279 351
#
# _framework density 18.167518999999999
#
# number of rings (size 3 to 8) (size 9 to 14) (size 15 to 20)
#    0.600    1.600    3.000    0.600    0.000    3.200 
#    0.000    0.000    0.000   24.000    0.000   14.000 
#    0.000    0.000    0.000    0.000    0.000    0.000 
#
# Total GULP energy -111339.738273 kJ/mol
# GULP energy per Si atom -5566.986914 kJ/mol
# Density = 1.812617 g / cm^3
# Si number density = 18.167519 Si / 1000 Ang^3
#
#
#
# Elastic Constant Matrix: (Units=GPa)
#
#
# Indices 1 2 3 4 5 6 
#
# 1 112.0882 36.1587 42.1669 0.0000 22.9415 0.0000
# 2 36.1587 88.1623 11.6875 0.0000 10.8213 0.0000
# 3 42.1669 11.6875 70.5533 0.0000 10.4092 0.0000
# 4 0.0000 0.0000 0.0000 18.4665 0.0000 10.9727
# 5 22.9415 10.8213 10.4092 0.0000 25.5028 0.0000
# 6 0.0000 0.0000 0.0000 10.9727 0.0000 -7.0185
#
#
#
# Elastic Compliance Matrix: (Units=1/GPa)
#
#
# Indices 1 2 3 4 5 6 
#
# 1 0.014508 -0.004001 -0.006739 0.000000 -0.008603 0.000000
# 2 -0.004001 0.013185 0.000534 0.000000 -0.002213 0.000000
# 3 -0.006739 0.000534 0.018357 0.000000 -0.001657 0.000000
# 4 0.000000 0.000000 0.000000 0.028073 0.000000 0.043890
# 5 -0.008603 -0.002213 -0.001657 0.000000 0.048566 0.000000
# 6 0.000000 0.000000 0.000000 0.043890 0.000000 -0.073864
#
#
# Mechanical properties :
#
#
# Convention : Reuss Voigt Hill
#
# Bulk Modulus (GPa) = 39.00534 50.09224 44.54879
# Shear Modulus (GPa) = 64.28094 19.44287 41.86190
#
# Velocity S-wave (km/s) = 5.95476 3.27494 4.80543
# Velocity P-wave (km/s) = 8.29429 6.47554 7.44069
#
# Compressibility (1/GPa) = 0.02563751
#
# Stress axis : x y z
#
# Youngs Moduli (GPa) = 68.92682 75.84618 54.47413
#
# Poissons Ratio (x) = 0.30346 0.36710
# Poissons Ratio (y) = 0.27578 -0.02907
# Poissons Ratio (z) = 0.46449 -0.04048
#
# Static dielectric constant tensor:
#      x y z
#    x 1.631470 0.000000 0.026280 
#    y 0.000000 1.648620 0.000000 
#    z 0.026280 0.000000 1.636210 
# 
# From -- ./inp_files/166483.got.cif
#   From: 2010.05.17/outbox.cif.g08.bks.cpg/sg12_84_cif.got.tgz:166483.got - 2010.06.03 13:09:07.
