data_PCOD9184681
_publ_section_title
;
Structure prediction by ZEFSAII (Michael W. Deem and Ramdas Pophale) SiO2 
 PCOD9184681
Probable space group: C 2/M
;
_chemical_formula_sum "Si O2"
_cell_formula_units_Z 56
_cell_length_a 19.428995
_cell_length_b 9.219190
_cell_length_c 18.018202
_cell_angle_alpha 90.000000
_cell_angle_beta 81.894095
_cell_angle_gamma 90.000000
_cell_volume 3195.168409
_symmetry_space_group_name_H-M "C 2/M"
_symmetry_group_IT_number 12
_symmetry_cell_setting 'monoclinic'
loop_
_space_group_symop_operation_xyz
x,y,z
-x,y,-z
-x,-y,-z
x,-y,z
1/2+x,1/2+y,z
1/2-x,1/2+y,-z
1/2-x,1/2-y,-z
1/2+x,1/2-y,z
loop_
_atom_site_type_symbol
_atom_site_label
_atom_site_fract_x
_atom_site_fract_y
_atom_site_fract_z
Si Si1 0.498893 0.167078 0.411817
Si Si2 0.161053 0.332401 0.564369
Si Si3 0.551118 0.175873 0.924229
Si Si4 0.823677 0.327316 0.000589
Si Si5 0.388619 0.671942 0.700002
Si Si6 0.287734 0.829337 0.608776
Si Si7 0.572039 0.827243 0.155150
O O1 0.500000 0.189449 0.500000
O O2 0.418744 0.180118 0.401066
O O3 0.547475 0.276273 0.361143
O O4 0.522399 0.000000 0.394703
O O5 0.183604 0.500000 0.571622
O O6 0.211160 0.226783 0.601130
O O7 0.169811 0.303415 0.474755
O O8 0.505811 0.219288 0.859499
O O9 0.553938 0.000000 0.922063
O O10 0.500000 0.214952 0.000000
O O11 0.628497 0.223905 0.936437
O O12 0.811774 0.500000 0.010651
O O13 0.873910 0.308113 0.921280
O O14 0.750000 0.250000 0.000000
O O15 0.383274 0.500000 0.704100
O O16 0.321811 0.741038 0.670047
O O17 0.401889 0.739860 0.778377
O O18 0.289495 0.000000 0.623743
O O19 0.569637 0.000000 0.171680
#
# Coordination Sequence:
#
# PCOD9184681 Si02
#       7
#     8   8   8   8   8   8   8
#     4  10  19  36  57  77 102 135 176 219 268 325
#     4   9  18  33  54  78 101 128 171 222 269 320
#     4   7  12  27  52  77  99 129 173 212 241 294
#     4   9  17  31  55  85 110 135 171 213 259 312
#     4  12  24  35  51  78 110 141 180 227 273 317
#     4  10  19  34  54  75 102 137 175 216 268 325
#     4   9  18  35  56  75 101 142 183 215 258 315
#
# _framework density 17.526461999999999
#
# number of rings (size 3 to 8) (size 9 to 14) (size 15 to 20)
#    0.000    2.571    1.429    3.429    0.000    2.000 
#    0.000    2.143    0.000    7.714    0.000    0.000 
#    0.000    0.000    0.000    0.000    0.000    0.000 
#
# Total GULP energy -156027.923755 kJ/mol
# GULP energy per Si atom -5572.425848 kJ/mol
# Density = 1.748657 g / cm^3
# Si number density = 17.526462 Si / 1000 Ang^3
#
#
#
# Elastic Constant Matrix: (Units=GPa)
#
#
# Indices 1 2 3 4 5 6 
#
# 1 119.6868 59.3158 36.4759 0.0000 29.1262 0.0000
# 2 59.3158 82.9631 53.7457 0.0000 25.3669 0.0000
# 3 36.4759 53.7457 56.7707 0.0000 31.8815 0.0000
# 4 0.0000 0.0000 0.0000 18.9801 0.0000 0.2415
# 5 29.1262 25.3669 31.8815 0.0000 28.1306 0.0000
# 6 0.0000 0.0000 0.0000 0.2415 0.0000 31.5057
#
#
#
# Elastic Compliance Matrix: (Units=1/GPa)
#
#
# Indices 1 2 3 4 5 6 
#
# 1 0.016387 -0.015859 0.016456 0.000000 -0.021316 0.000000
# 2 -0.015859 0.048890 -0.056550 0.000000 0.036424 0.000000
# 3 0.016456 -0.056550 0.114181 0.000000 -0.095450 0.000000
# 4 0.000000 0.000000 0.000000 0.052692 0.000000 -0.000404
# 5 -0.021316 0.036424 -0.095450 0.000000 0.132950 0.000000
# 6 0.000000 0.000000 0.000000 -0.000404 0.000000 0.031743
#
#
# Mechanical properties :
#
#
# Convention : Reuss Voigt Hill
#
# Bulk Modulus (GPa) = 14.80355 62.05504 38.42929
# Shear Modulus (GPa) = 9.41146 23.04884 16.23015
#
# Velocity S-wave (km/s) = 2.31981 3.63035 3.04639
# Velocity P-wave (km/s) = 3.95476 7.28395 5.86072
#
# Compressibility (1/GPa) = 0.06755139
#
# Stress axis : x y z
#
# Youngs Moduli (GPa) = 61.02430 20.45421 8.75799
#
# Poissons Ratio (x) = 0.32438 -0.14412
# Poissons Ratio (y) = 0.96778 0.49526
# Poissons Ratio (z) = -1.00420 1.15669
#
# Static dielectric constant tensor:
#      x y z
#    x 1.621470 0.000000 0.015470 
#    y 0.000000 1.580240 0.000000 
#    z 0.015470 0.000000 1.601870 
# 
# From -- ./inp_files/280148.got.cif
#   From: 2010.05.17/outbox.cif.g08.bks.cpg/sg12_141_cif.got.tgz:280148.got - 2010.06.03 13:09:07.
