data_PCOD9184843
_publ_section_title
;
Structure prediction by ZEFSAII (Michael W. Deem and Ramdas Pophale) SiO2 
 PCOD9184843
Probable space group: C 2/M
;
_chemical_formula_sum "Si O2"
_cell_formula_units_Z 40
_cell_length_a 14.496622
_cell_length_b 15.212883
_cell_length_c 13.284202
_cell_angle_alpha 90.000000
_cell_angle_beta 34.651156
_cell_angle_gamma 90.000000
_cell_volume 1665.728455
_symmetry_space_group_name_H-M "C 2/M"
_symmetry_group_IT_number 12
_symmetry_cell_setting 'monoclinic'
loop_
_space_group_symop_operation_xyz
x,y,z
-x,y,-z
-x,-y,-z
x,-y,z
1/2+x,1/2+y,z
1/2-x,1/2+y,-z
1/2-x,1/2-y,-z
1/2+x,1/2-y,z
loop_
_atom_site_type_symbol
_atom_site_label
_atom_site_fract_x
_atom_site_fract_y
_atom_site_fract_z
Si Si1 0.564295 0.255308 0.199480
Si Si2 0.384662 0.094117 0.447018
Si Si3 0.894404 0.898928 0.469626
Si Si4 0.149172 0.285433 0.808248
Si Si5 0.195123 0.902999 0.827183
O O1 0.507527 0.172173 0.316924
O O2 0.534587 0.342458 0.291588
O O3 0.437326 0.251026 0.217680
O O4 0.750000 0.250000 0.000000
O O5 0.241727 0.100745 0.495108
O O6 0.302438 0.092904 0.629427
O O7 0.462038 0.000000 0.358964
O O8 0.801027 0.846129 0.641718
O O9 0.934886 0.000000 0.455754
O O10 0.204589 0.204189 0.828860
O O11 0.000000 0.332432 0.000000
O O12 0.230480 0.000000 0.845428
O O13 0.000000 0.908143 0.000000
#
# Coordination Sequence:
#
# PCOD9184843 Si02
#       5
#     8   8   8   8   8
#     4  11  21  34  51  79 110 135 170 215 266 308
#     4   9  16  31  53  75  99 133 177 214 247 303
#     4  10  19  34  55  76 101 139 183 215 249 308
#     4  10  19  35  57  79 103 135 179 218 255 306
#     4   9  15  25  50  81 102 125 167 216 254 295
#
# _framework density 24.013518000000001
#
# number of rings (size 3 to 8) (size 9 to 14) (size 15 to 20)
#    0.000    2.200    4.000    1.200    0.000    1.200 
#    0.000    1.000    0.000    1.200    0.000    7.000 
#    0.000    0.000    0.000    0.000    0.000    0.000 
#
# Total GULP energy -111426.753050 kJ/mol
# GULP energy per Si atom -5571.337652 kJ/mol
# Density = 2.395886 g / cm^3
# Si number density = 24.013518 Si / 1000 Ang^3
#
#
#
# Elastic Constant Matrix: (Units=GPa)
#
#
# Indices 1 2 3 4 5 6 
#
# 1 83.1796 8.3136 37.5206 0.0001 -17.2271 0.0001
# 2 8.3136 204.6058 104.7378 0.0003 -15.7760 0.0000
# 3 37.5206 104.7378 172.5323 0.0002 -10.0594 0.0003
# 4 0.0001 0.0003 0.0002 116.2621 0.0000 -22.9056
# 5 -17.2271 -15.7760 -10.0594 0.0000 26.1721 -0.0002
# 6 0.0001 0.0000 0.0003 -22.9056 -0.0002 2.2290
#
#
#
# Elastic Compliance Matrix: (Units=1/GPa)
#
#
# Indices 1 2 3 4 5 6 
#
# 1 0.015817 0.002320 -0.004255 0.000000 0.010174 -0.000001
# 2 0.002320 0.007620 -0.004883 0.000000 0.004243 -0.000001
# 3 -0.004255 -0.004883 0.009565 0.000000 -0.002068 0.000001
# 4 0.000000 0.000000 0.000000 -0.008395 -0.000001 -0.086268
# 5 0.010174 0.004243 -0.002068 -0.000001 0.046669 -0.000003
# 6 -0.000001 -0.000001 0.000001 -0.086268 -0.000003 -0.437873
#
#
# Mechanical properties :
#
#
# Convention : Reuss Voigt Hill
#
# Bulk Modulus (GPa) = 51.63711 84.60686 68.12199
# Shear Modulus (GPa) = -14.42972 49.58234 17.57631
#
# Velocity S-wave (km/s) = -2.45398 4.54890 2.70836
# Velocity P-wave (km/s) = 3.67704 7.93092 6.18143
#
# Compressibility (1/GPa) = 0.01936592
#
# Stress axis : x y z
#
# Youngs Moduli (GPa) = 63.22460 131.23555 104.54867
#
# Poissons Ratio (x) = -0.30444 0.44482
# Poissons Ratio (y) = -0.14667 0.51049
# Poissons Ratio (z) = 0.26900 0.64080
#
# Static dielectric constant tensor:
#      x y z
#    x 1.940690 0.000000 -0.009080 
#    y 0.000000 1.969300 0.000000 
#    z -0.009080 0.000000 1.858400 
# 
# From -- ./inp_files/72405.got.cif
#   From: 2010.05.17/outbox.cif.g08.bks.cpg/sg12_37_cif.got.tgz:72405.got - 2010.06.03 13:09:07.
