data_PCOD9184436
_publ_section_title
;
Structure prediction by ZEFSAII (Michael W. Deem and Ramdas Pophale) SiO2 
 PCOD9184436
Probable space group: C 2/M
;
_chemical_formula_sum "Si O2"
_cell_formula_units_Z 56
_cell_length_a 15.672999
_cell_length_b 11.570792
_cell_length_c 18.802943
_cell_angle_alpha 90.000000
_cell_angle_beta 64.546740
_cell_angle_gamma 90.000000
_cell_volume 3078.917681
_symmetry_space_group_name_H-M "C 2/M"
_symmetry_group_IT_number 12
_symmetry_cell_setting 'monoclinic'
loop_
_space_group_symop_operation_xyz
x,y,z
-x,y,-z
-x,-y,-z
x,-y,z
1/2+x,1/2+y,z
1/2-x,1/2+y,-z
1/2-x,1/2-y,-z
1/2+x,1/2-y,z
loop_
_atom_site_type_symbol
_atom_site_label
_atom_site_fract_x
_atom_site_fract_y
_atom_site_fract_z
Si Si1 0.020539 0.500000 0.104747
Si Si2 0.728599 0.273711 0.090850
Si Si3 0.512891 0.757113 0.175786
Si Si4 0.809306 0.636795 0.502075
Si Si5 0.335607 0.638559 0.172421
Si Si6 0.675213 0.861965 0.336241
Si Si7 0.344533 0.000000 0.079698
Si Si8 0.482189 0.136471 0.331083
O O1 0.910177 0.500000 0.124961
O O2 0.040337 0.383813 0.138467
O O3 0.084171 0.500000 0.012155
O O4 0.617173 0.297122 0.142901
O O5 0.777302 0.175099 0.122696
O O6 0.782773 0.387224 0.096177
O O7 0.750000 0.250000 0.000000
O O8 0.438026 0.696761 0.149683
O O9 0.465902 0.781549 0.269226
O O10 0.773687 0.500000 0.508852
O O11 0.750000 0.750000 0.500000
O O12 0.828576 0.657929 0.578554
O O13 0.902022 0.640804 0.419620
O O14 0.347141 0.500000 0.169424
O O15 0.268263 0.679075 0.261769
O O16 0.580801 0.823442 0.330231
O O17 0.676189 0.000000 0.327293
O O18 0.489347 0.000000 0.307062
#
# Coordination Sequence:
#
# PCOD9184436 Si02
#       8
#     4   8   8   8   8   8   4   8
#     4  11  22  40  66  83 115 158 206 257 303 359
#     4  12  26  41  65  88 121 160 202 255 313 367
#     4  12  23  40  63  92 122 160 202 255 308 364
#     4  10  20  35  58  90 125 160 203 251 304 360
#     4  11  25  42  61  91 125 162 204 251 311 370
#     4   9  18  36  60  86 121 159 202 252 295 355
#     4  11  24  44  60  88 119 154 210 258 308 367
#     4  10  19  33  62  93 117 156 208 253 294 355
#
# _framework density 18.188210999999999
#
# number of rings (size 3 to 8) (size 9 to 14) (size 15 to 20)
#    0.000    1.286    5.000    1.286    3.000    2.286 
#    0.000    0.714    0.000    2.571    0.000    0.000 
#    0.000    0.000    0.000    0.000    0.000    0.000 
#
# Total GULP energy -156019.182646 kJ/mol
# GULP energy per Si atom -5572.113666 kJ/mol
# Density = 1.814681 g / cm^3
# Si number density = 18.188211 Si / 1000 Ang^3
#
#
#
# Elastic Constant Matrix: (Units=GPa)
#
#
# Indices 1 2 3 4 5 6 
#
# 1 89.1237 13.2340 14.6681 0.0000 -10.4839 0.0000
# 2 13.2340 49.0468 -1.0970 0.0000 -9.1545 0.0000
# 3 14.6681 -1.0970 76.5472 0.0000 1.2965 0.0000
# 4 0.0000 0.0000 0.0000 52.1109 0.0000 -24.8528
# 5 -10.4839 -9.1545 1.2965 0.0000 29.8894 0.0000
# 6 0.0000 0.0000 0.0000 -24.8528 0.0000 -754.3785
#
#
#
# Elastic Compliance Matrix: (Units=1/GPa)
#
#
# Indices 1 2 3 4 5 6 
#
# 1 0.012465 -0.002739 -0.002490 0.000000 0.003641 0.000000
# 2 -0.002739 0.022230 0.000745 0.000000 0.005815 0.000000
# 3 -0.002490 0.000745 0.013572 0.000000 -0.001234 0.000000
# 4 0.000000 0.000000 0.000000 0.018893 0.000000 -0.000622
# 5 0.003641 0.005815 -0.001234 0.000000 0.036568 0.000000
# 6 0.000000 0.000000 0.000000 -0.000622 0.000000 -0.001305
#
#
# Mechanical properties :
#
#
# Convention : Reuss Voigt Hill
#
# Bulk Modulus (GPa) = 25.44552 29.81422 27.62987
# Shear Modulus (GPa) = 40.16329 -121.94813 -40.89242
#
# Velocity S-wave (km/s) = 4.70425 -8.19716 -4.74676
# Velocity P-wave (km/s) = 6.59751 8.55357 3.84945
#
# Compressibility (1/GPa) = 0.03929965
#
# Stress axis : x y z
#
# Youngs Moduli (GPa) = 80.22339 44.98436 73.67867
#
# Poissons Ratio (x) = 0.12323 0.18342
# Poissons Ratio (y) = 0.21977 -0.05489
# Poissons Ratio (z) = 0.19972 -0.03351
#
# Static dielectric constant tensor:
#      x y z
#    x 1.627490 0.000000 0.005990 
#    y 0.000000 1.616000 0.000000 
#    z 0.005990 0.000000 1.650350 
# 
# From -- ./inp_files/269227.got.cif
#   From: 2010.05.17/outbox.cif.g08.bks.cpg/sg12_135_cif.got.tgz:269227.got - 2010.06.03 13:09:07.
