data_PCOD9184862
_publ_section_title
;
Structure prediction by ZEFSAII (Michael W. Deem and Ramdas Pophale) SiO2 
 PCOD9184862
Probable space group: C 2/M
;
_chemical_formula_sum "Si O2"
_cell_formula_units_Z 64
_cell_length_a 20.616087
_cell_length_b 9.109534
_cell_length_c 16.737119
_cell_angle_alpha 90.000000
_cell_angle_beta 102.253729
_cell_angle_gamma 90.000000
_cell_volume 3071.667821
_symmetry_space_group_name_H-M "C 2/M"
_symmetry_group_IT_number 12
_symmetry_cell_setting 'monoclinic'
loop_
_space_group_symop_operation_xyz
x,y,z
-x,y,-z
-x,-y,-z
x,-y,z
1/2+x,1/2+y,z
1/2-x,1/2+y,-z
1/2-x,1/2-y,-z
1/2+x,1/2-y,z
loop_
_atom_site_type_symbol
_atom_site_label
_atom_site_fract_x
_atom_site_fract_y
_atom_site_fract_z
Si Si1 0.932723 0.177106 0.441794
Si Si2 0.167630 0.829874 0.166928
Si Si3 0.712952 0.670697 0.594703
Si Si4 0.847903 0.829222 0.645202
Si Si5 0.494469 0.675318 0.699645
Si Si6 0.700194 0.331259 0.784295
Si Si7 0.579257 0.830637 0.021888
Si Si8 0.416647 0.174662 0.157301
O O1 0.949220 0.199369 0.352731
O O2 0.000000 0.233808 0.500000
O O3 0.859964 0.230297 0.449981
O O4 0.930664 0.000000 0.454137
O O5 0.154911 0.819414 0.258679
O O6 0.229937 0.726266 0.164807
O O7 0.182578 0.000000 0.153808
O O8 0.107824 0.772183 0.097796
O O9 0.719004 0.500000 0.573163
O O10 0.781959 0.751981 0.594163
O O11 0.706001 0.675499 0.689699
O O12 0.922676 0.774900 0.647393
O O13 0.844617 0.000000 0.621363
O O14 0.489244 0.500000 0.711257
O O15 0.518159 0.752789 0.786400
O O16 0.686025 0.500000 0.802047
O O17 0.644075 0.227192 0.804542
O O18 0.598499 0.781506 0.937663
O O19 0.601013 0.000000 0.040739
O O20 0.500000 0.830317 0.000000
O O21 0.424959 0.000000 0.160514
#
# Coordination Sequence:
#
# PCOD9184862 Si02
#       8
#     8   8   8   8   8   8   8   8
#     4   9  17  32  56  83 108 138 179 220 257 310
#     4  10  20  34  52  77 105 136 178 222 271 317
#     4   9  17  32  54  79 105 139 180 216 257 313
#     4   9  19  33  53  79 108 142 176 221 269 312
#     4  10  19  35  56  80 108 139 181 220 263 319
#     4  10  19  34  55  77 102 138 179 218 263 316
#     4  10  22  38  52  70 101 140 178 217 268 323
#     4  11  22  34  53  79 105 135 174 222 270 311
#
# _framework density 20.835587
#
# number of rings (size 3 to 8) (size 9 to 14) (size 15 to 20)
#    0.000    2.250    1.250    1.875    0.000    3.250 
#    0.000    0.625    0.000    1.500    0.000    0.000 
#    0.000    0.000    0.000    0.000    0.000    0.000 
#
# Total GULP energy -178615.335996 kJ/mol
# GULP energy per Si atom -5581.729250 kJ/mol
# Density = 2.078816 g / cm^3
# Si number density = 20.835587 Si / 1000 Ang^3
#
#
#
# Elastic Constant Matrix: (Units=GPa)
#
#
# Indices 1 2 3 4 5 6 
#
# 1 110.1019 13.1956 18.8977 0.0000 24.3344 0.0000
# 2 13.1956 23.4225 26.6728 0.0000 5.6091 0.0000
# 3 18.8977 26.6728 86.8561 0.0000 18.1797 0.0000
# 4 0.0000 0.0000 0.0000 9.7110 0.0000 12.1489
# 5 24.3344 5.6091 18.1797 0.0000 35.8813 0.0000
# 6 0.0000 0.0000 0.0000 12.1489 0.0000 28.6814
#
#
#
# Elastic Compliance Matrix: (Units=1/GPa)
#
#
# Indices 1 2 3 4 5 6 
#
# 1 0.011177 -0.005412 0.000716 0.000000 -0.007096 0.000000
# 2 -0.005412 0.068274 -0.020497 0.000000 0.003383 0.000000
# 3 0.000716 -0.020497 0.019109 0.000000 -0.006963 0.000000
# 4 0.000000 0.000000 0.000000 0.219062 0.000000 -0.092791
# 5 -0.007096 0.003383 -0.006963 0.000000 0.035682 0.000000
# 6 0.000000 0.000000 0.000000 -0.092791 0.000000 0.074171
#
#
# Mechanical properties :
#
#
# Convention : Reuss Voigt Hill
#
# Bulk Modulus (GPa) = 20.75831 37.54586 29.15209
# Shear Modulus (GPa) = 10.12311 25.62903 17.87607
#
# Velocity S-wave (km/s) = 2.20661 3.51103 2.93227
# Velocity P-wave (km/s) = 4.05915 5.87330 5.04838
#
# Compressibility (1/GPa) = 0.04817348
#
# Stress axis : x y z
#
# Youngs Moduli (GPa) = 89.47136 14.64686 52.33013
#
# Poissons Ratio (x) = 0.07927 -0.03745
# Poissons Ratio (y) = 0.48423 1.07260
# Poissons Ratio (z) = -0.06403 0.30021
#
# Static dielectric constant tensor:
#      x y z
#    x 1.771650 0.000000 0.001960 
#    y 0.000000 1.693860 0.000000 
#    z 0.001960 0.000000 1.793470 
# 
# From -- ./inp_files/320083.got.cif
#   From: 2010.05.17/outbox.cif.g08.bks.cpg/sg12_161_cif.got.tgz:320083.got - 2010.06.03 13:09:07.
