data_PCOD9184031
_publ_section_title
;
Structure prediction by ZEFSAII (Michael W. Deem and Ramdas Pophale) SiO2 
 PCOD9184031
Probable space group: C 2/M
;
_chemical_formula_sum "Si O2"
_cell_formula_units_Z 56
_cell_length_a 13.960729
_cell_length_b 12.467741
_cell_length_c 15.236247
_cell_angle_alpha 90.000000
_cell_angle_beta 97.863110
_cell_angle_gamma 90.000000
_cell_volume 2627.067376
_symmetry_space_group_name_H-M "C 2/M"
_symmetry_group_IT_number 12
_symmetry_cell_setting 'monoclinic'
loop_
_space_group_symop_operation_xyz
x,y,z
-x,y,-z
-x,-y,-z
x,-y,z
1/2+x,1/2+y,z
1/2-x,1/2+y,-z
1/2-x,1/2-y,-z
1/2+x,1/2-y,z
loop_
_atom_site_type_symbol
_atom_site_label
_atom_site_fract_x
_atom_site_fract_y
_atom_site_fract_z
Si Si1 0.211022 0.223925 0.123589
Si Si2 0.864062 0.871513 0.066677
Si Si3 0.866123 0.119812 0.717280
Si Si4 0.490579 0.183468 0.903077
Si Si5 0.162627 0.620242 0.421659
Si Si6 0.808725 0.714917 0.391998
Si Si7 0.986606 0.686426 0.284222
O O1 0.302664 0.301398 0.128618
O O2 0.196131 0.146812 0.203561
O O3 0.122812 0.306132 0.122817
O O4 0.191651 0.156368 0.031952
O O5 0.963594 0.803769 0.080173
O O6 0.872520 0.000000 0.079511
O O7 0.785263 0.138856 0.632861
O O8 0.956381 0.200341 0.721278
O O9 0.902236 0.000000 0.723630
O O10 0.531616 0.140444 0.816257
O O11 0.500000 0.130109 0.000000
O O12 0.181160 0.500000 0.452179
O O13 0.147652 0.691561 0.506868
O O14 0.255409 0.670020 0.383600
O O15 0.068106 0.623203 0.348881
O O16 0.890493 0.698016 0.329569
#
# Coordination Sequence:
#
# PCOD9184031 Si02
#       7
#     8   8   8   8   8   8   8
#     4   9  19  34  52  81 116 144 188 244 287 338
#     4  10  19  33  57  81 106 150 198 240 291 343
#     4  10  20  35  55  80 113 150 186 230 286 340
#     4   9  19  35  55  79 114 151 190 239 284 330
#     4  10  22  40  62  87 117 153 188 231 291 353
#     4  10  21  38  60  89 119 145 188 241 284 341
#     4  10  21  37  57  85 115 148 193 239 282 337
#
# _framework density 21.316545000000001
#
# number of rings (size 3 to 8) (size 9 to 14) (size 15 to 20)
#    0.000    2.286    0.000    2.143    0.000    7.143 
#    0.000   10.714    0.000   20.571    0.000    0.000 
#    0.000    0.000    0.000    0.000    0.000    0.000 
#
# Total GULP energy -156022.975331 kJ/mol
# GULP energy per Si atom -5572.249119 kJ/mol
# Density = 2.126803 g / cm^3
# Si number density = 21.316545 Si / 1000 Ang^3
#
#
#
# Elastic Constant Matrix: (Units=GPa)
#
#
# Indices 1 2 3 4 5 6 
#
# 1 88.9910 13.0511 17.2606 0.0000 -19.7070 0.0000
# 2 13.0511 70.2149 -0.1971 0.0000 -5.3297 0.0000
# 3 17.2606 -0.1971 111.6532 0.0000 -1.0808 0.0000
# 4 0.0000 0.0000 0.0000 12.3163 0.0000 -2.1705
# 5 -19.7070 -5.3297 -1.0808 0.0000 33.4268 0.0000
# 6 0.0000 0.0000 0.0000 -2.1705 0.0000 4.4400
#
#
#
# Elastic Compliance Matrix: (Units=1/GPa)
#
#
# Indices 1 2 3 4 5 6 
#
# 1 0.013612 -0.001955 -0.002034 0.000000 0.007647 0.000000
# 2 -0.001955 0.014698 0.000340 0.000000 0.001202 0.000000
# 3 -0.002034 0.000340 0.009263 0.000000 -0.000845 0.000000
# 4 0.000000 0.000000 0.000000 0.088848 0.000000 0.043433
# 5 0.007647 0.001202 -0.000845 0.000000 0.034589 0.000000
# 6 0.000000 0.000000 0.000000 0.043433 0.000000 0.246457
#
#
# Mechanical properties :
#
#
# Convention : Reuss Voigt Hill
#
# Bulk Modulus (GPa) = 33.03138 36.78758 34.90948
# Shear Modulus (GPa) = 11.76869 26.08625 18.92747
#
# Velocity S-wave (km/s) = 2.35221 3.50202 2.98304
# Velocity P-wave (km/s) = 4.78607 5.80064 5.31761
#
# Compressibility (1/GPa) = 0.03027424
#
# Stress axis : x y z
#
# Youngs Moduli (GPa) = 73.46557 68.03832 107.95512
#
# Poissons Ratio (x) = 0.13304 0.21955
# Poissons Ratio (y) = 0.14365 -0.03669
# Poissons Ratio (z) = 0.14941 -0.02312
#
# Static dielectric constant tensor:
#      x y z
#    x 1.751120 0.000000 0.003850 
#    y 0.000000 1.746370 0.000000 
#    z 0.003850 0.000000 1.894820 
# 
# From -- ./inp_files/213378.got.cif
#   From: 2010.05.17/outbox.cif.g08.bks.cpg/sg12_107_cif.got.tgz:213378.got - 2010.06.03 13:09:07.
