data_PCOD9184288
_publ_section_title
;
Structure prediction by ZEFSAII (Michael W. Deem and Ramdas Pophale) SiO2 
 PCOD9184288
Probable space group: C 2/M
;
_chemical_formula_sum "Si O2"
_cell_formula_units_Z 56
_cell_length_a 15.533622
_cell_length_b 8.854091
_cell_length_c 25.081739
_cell_angle_alpha 90.000000
_cell_angle_beta 120.475009
_cell_angle_gamma 90.000000
_cell_volume 2973.077793
_symmetry_space_group_name_H-M "C 2/M"
_symmetry_group_IT_number 12
_symmetry_cell_setting 'monoclinic'
loop_
_space_group_symop_operation_xyz
x,y,z
-x,y,-z
-x,-y,-z
x,-y,z
1/2+x,1/2+y,z
1/2-x,1/2+y,-z
1/2-x,1/2-y,-z
1/2+x,1/2-y,z
loop_
_atom_site_type_symbol
_atom_site_label
_atom_site_fract_x
_atom_site_fract_y
_atom_site_fract_z
Si Si1 0.166869 0.681169 0.434539
Si Si2 0.106169 0.318836 0.007003
Si Si3 0.329315 0.680869 0.789650
Si Si4 0.944565 0.181720 0.119264
Si Si5 0.753691 0.318202 0.656950
Si Si6 0.478041 0.318401 0.431409
Si Si7 0.777077 0.181867 0.145104
O O1 0.171161 0.500000 0.439504
O O2 0.250000 0.750000 0.500000
O O3 0.194763 0.724411 0.382777
O O4 0.059365 0.740128 0.419563
O O5 0.109769 0.500000 0.002351
O O6 0.193850 0.274320 0.074882
O O7 0.109049 0.245693 0.949879
O O8 0.000000 0.277633 0.000000
O O9 0.328200 0.500000 0.789412
O O10 0.440673 0.732455 0.841817
O O11 0.303826 0.741622 0.723361
O O12 0.251372 0.743006 0.808366
O O13 0.883075 0.224240 0.152775
O O14 0.942803 0.000000 0.115188
O O15 0.760181 0.500000 0.664163
O O16 0.636169 0.278564 0.617376
O O17 0.500000 0.278991 0.500000
O O18 0.489037 0.500000 0.430135
O O19 0.773184 0.000000 0.150043
#
# Coordination Sequence:
#
# PCOD9184288 Si02
#       7
#     8   8   8   8   8   8   8
#     4  11  22  38  62  93 123 155 195 239 292 350
#     4  10  19  33  58  89 115 147 193 244 293 347
#     4  11  24  40  58  84 116 152 199 245 285 342
#     4  10  22  38  58  84 116 154 194 240 293 347
#     4  10  23  42  62  84 119 160 193 235 296 356
#     4  10  20  39  63  89 120 153 192 238 294 356
#     4  10  21  39  60  83 116 155 195 238 296 356
#
# _framework density 18.835698000000001
#
# number of rings (size 3 to 8) (size 9 to 14) (size 15 to 20)
#    0.000    1.714    2.857    1.286    0.000    5.143 
#    0.000    4.286    0.000    0.000    0.000    0.000 
#    0.000    0.000    0.000    0.000    0.000    0.000 
#
# Total GULP energy -156443.317534 kJ/mol
# GULP energy per Si atom -5587.261340 kJ/mol
# Density = 1.879283 g / cm^3
# Si number density = 18.835698 Si / 1000 Ang^3
#
#
#
# Elastic Constant Matrix: (Units=GPa)
#
#
# Indices 1 2 3 4 5 6 
#
# 1 123.0903 31.8498 30.5042 0.0000 -32.1897 0.0000
# 2 31.8498 19.1248 26.3117 0.0000 -11.9257 0.0000
# 3 30.5042 26.3117 93.2497 0.0000 -30.2603 0.0000
# 4 0.0000 0.0000 0.0000 31.5570 0.0000 -4.2968
# 5 -32.1897 -11.9257 -30.2603 0.0000 30.9221 0.0000
# 6 0.0000 0.0000 0.0000 -4.2968 0.0000 29.7788
#
#
#
# Elastic Compliance Matrix: (Units=1/GPa)
#
#
# Indices 1 2 3 4 5 6 
#
# 1 0.018213 -0.032102 0.007671 0.000000 0.014086 0.000000
# 2 -0.032102 0.146212 -0.034142 0.000000 -0.010439 0.000000
# 3 0.007671 -0.034142 0.023689 0.000000 0.018000 0.000000
# 4 0.000000 0.000000 0.000000 0.032324 0.000000 0.004664
# 5 0.014086 -0.010439 0.018000 0.000000 0.060591 0.000000
# 6 0.000000 0.000000 0.000000 0.004664 0.000000 0.034254
#
#
# Mechanical properties :
#
#
# Convention : Reuss Voigt Hill
#
# Bulk Modulus (GPa) = 14.09068 45.86625 29.97847
# Shear Modulus (GPa) = 10.96286 28.23818 19.60052
#
# Velocity S-wave (km/s) = 2.41514 3.87613 3.22934
# Velocity P-wave (km/s) = 3.90823 6.66604 5.46399
#
# Compressibility (1/GPa) = 0.07096887
#
# Stress axis : x y z
#
# Youngs Moduli (GPa) = 54.90559 6.83939 42.21294
#
# Poissons Ratio (x) = 0.21955 -0.32381
# Poissons Ratio (y) = 1.76255 1.44124
# Poissons Ratio (z) = -0.42118 0.23351
#
# Static dielectric constant tensor:
#      x y z
#    x 1.656280 0.000000 0.009080 
#    y 0.000000 1.630570 0.000000 
#    z 0.009080 0.000000 1.621020 
# 
# From -- ./inp_files/338505.got.cif
#   From: 2010.05.17/outbox.cif.g08.bks.cpg/sg12_170_cif.got.tgz:338505.got - 2010.06.03 13:09:07.
