data_PCOD9184845
_publ_section_title
;
Structure prediction by ZEFSAII (Michael W. Deem and Ramdas Pophale) SiO2 
 PCOD9184845
Probable space group: C 2/M
;
_chemical_formula_sum "Si O2"
_cell_formula_units_Z 64
_cell_length_a 9.891104
_cell_length_b 31.384887
_cell_length_c 19.463963
_cell_angle_alpha 90.000000
_cell_angle_beta 36.619044
_cell_angle_gamma 90.000000
_cell_volume 3604.134589
_symmetry_space_group_name_H-M "C 2/M"
_symmetry_group_IT_number 12
_symmetry_cell_setting 'monoclinic'
loop_
_space_group_symop_operation_xyz
x,y,z
-x,y,-z
-x,-y,-z
x,-y,z
1/2+x,1/2+y,z
1/2-x,1/2+y,-z
1/2-x,1/2-y,-z
1/2+x,1/2-y,z
loop_
_atom_site_type_symbol
_atom_site_label
_atom_site_fract_x
_atom_site_fract_y
_atom_site_fract_z
Si Si1 0.067826 0.636650 0.292936
Si Si2 0.314893 0.894378 0.127530
Si Si3 0.149795 0.743624 0.758747
Si Si4 0.948515 0.833081 0.863332
Si Si5 0.882651 0.048781 0.335725
Si Si6 0.096573 0.345006 0.121514
Si Si7 0.462608 0.049455 0.401561
Si Si8 0.624419 0.773000 0.613861
O O1 0.303173 0.645339 0.237213
O O2 0.118150 0.642808 0.191971
O O3 0.977889 0.589266 0.344073
O O4 0.899151 0.675578 0.382818
O O5 0.213849 0.854281 0.126662
O O6 0.444606 0.878754 0.142074
O O7 0.098758 0.922545 0.233733
O O8 0.500000 0.914678 0.000000
O O9 0.367926 0.755191 0.714923
O O10 0.219889 0.738339 0.650033
O O11 0.983159 0.783526 0.834389
O O12 0.030386 0.700296 0.829248
O O13 0.830296 0.840563 0.984910
O O14 0.689846 0.052124 0.355588
O O15 0.748734 0.057228 0.461154
O O16 0.958446 0.000000 0.306431
O O17 0.448901 0.000000 0.381761
O O18 0.750000 0.750000 0.500000
#
# Coordination Sequence:
#
# PCOD9184845 Si02
#       8
#     8   8   8   8   8   8   8   8
#     4  10  20  35  55  79 106 143 179 222 279 319
#     4  10  20  34  54  82 110 140 173 220 271 325
#     4  10  20  34  52  72 102 143 183 221 260 310
#     4  10  19  34  55  76 101 141 192 223 254 318
#     4   9  18  35  58  83 107 134 179 228 268 317
#     4  10  21  34  51  77 112 141 172 223 274 322
#     4   9  18  35  60  84 104 135 185 235 266 316
#     4  10  21  35  49  75 110 141 177 221 269 328
#
# _framework density 17.757383999999998
#
# number of rings (size 3 to 8) (size 9 to 14) (size 15 to 20)
#    0.000    2.250    1.250    2.625    0.000    2.250 
#    2.250    6.250    0.000    3.750    0.000    0.000 
#    0.000    0.000    0.000    0.000    0.000    0.000 
#
# Total GULP energy -178440.412586 kJ/mol
# GULP energy per Si atom -5576.262893 kJ/mol
# Density = 1.771697 g / cm^3
# Si number density = 17.757384 Si / 1000 Ang^3
#
#
#
# Elastic Constant Matrix: (Units=GPa)
#
#
# Indices 1 2 3 4 5 6 
#
# 1 37.5121 8.5905 1.4721 0.0000 0.0687 0.0000
# 2 8.5905 106.0037 54.7776 0.0000 2.1346 0.0000
# 3 1.4721 54.7776 79.0224 0.0000 -5.6385 0.0000
# 4 0.0000 0.0000 0.0000 23.6625 0.0000 0.4610
# 5 0.0687 2.1346 -5.6385 0.0000 21.5120 0.0000
# 6 0.0000 0.0000 0.0000 0.4610 0.0000 19.1515
#
#
#
# Elastic Compliance Matrix: (Units=1/GPa)
#
#
# Indices 1 2 3 4 5 6 
#
# 1 0.027300 -0.003096 0.001685 0.000000 0.000662 0.000000
# 2 -0.003096 0.015434 -0.010954 0.000000 -0.004393 0.000000
# 3 0.001685 -0.010954 0.020681 0.000000 0.006502 0.000000
# 4 0.000000 0.000000 0.000000 0.042281 0.000000 -0.001018
# 5 0.000662 -0.004393 0.006502 0.000000 0.048624 0.000000
# 6 0.000000 0.000000 0.000000 -0.001018 0.000000 0.052240
#
#
# Mechanical properties :
#
#
# Convention : Reuss Voigt Hill
#
# Bulk Modulus (GPa) = 25.85127 39.13540 32.49333
# Shear Modulus (GPa) = 20.47641 23.37842 21.92742
#
# Velocity S-wave (km/s) = 3.39945 3.63236 3.51783
# Velocity P-wave (km/s) = 5.47704 6.29912 5.90241
#
# Compressibility (1/GPa) = 0.03868283
#
# Stress axis : x y z
#
# Youngs Moduli (GPa) = 36.63031 64.79364 48.35462
#
# Poissons Ratio (x) = 0.20063 -0.08148
# Poissons Ratio (y) = 0.11342 0.52969
# Poissons Ratio (z) = -0.06172 0.70976
#
# Static dielectric constant tensor:
#      x y z
#    x 1.593630 0.000000 -0.002060 
#    y 0.000000 1.590660 0.000000 
#    z -0.002060 0.000000 1.606060 
# 
# From -- ./inp_files/260301.got.cif
#   From: 2010.05.17/outbox.cif.g08.bks.cpg/sg12_131_cif.got.tgz:260301.got - 2010.06.03 13:09:07.
