data_PCOD9184119
_publ_section_title
;
Structure prediction by ZEFSAII (Michael W. Deem and Ramdas Pophale) SiO2 
 PCOD9184119
Probable space group: C 2/M
;
_chemical_formula_sum "Si O2"
_cell_formula_units_Z 40
_cell_length_a 22.829507
_cell_length_b 13.252780
_cell_length_c 12.555288
_cell_angle_alpha 90.000000
_cell_angle_beta 158.129730
_cell_angle_gamma 90.000000
_cell_volume 1415.024021
_symmetry_space_group_name_H-M "C 2/M"
_symmetry_group_IT_number 12
_symmetry_cell_setting 'monoclinic'
loop_
_space_group_symop_operation_xyz
x,y,z
-x,y,-z
-x,-y,-z
x,-y,z
1/2+x,1/2+y,z
1/2-x,1/2+y,-z
1/2-x,1/2-y,-z
1/2+x,1/2-y,z
loop_
_atom_site_type_symbol
_atom_site_label
_atom_site_fract_x
_atom_site_fract_y
_atom_site_fract_z
Si Si1 0.642207 0.275401 0.179516
Si Si2 0.226438 0.841758 0.845907
Si Si3 0.462815 0.883393 0.721151
Si Si4 0.210376 0.112468 0.050880
Si Si5 0.132574 0.109003 0.447986
O O1 0.785674 0.351727 0.393123
O O2 0.756663 0.188228 0.422208
O O3 0.500000 0.329961 0.000000
O O4 0.538696 0.195486 0.932811
O O5 0.155342 0.884743 0.833556
O O6 0.175273 0.885344 0.646126
O O7 0.413665 0.867076 0.167363
O O8 0.202859 0.720750 0.798906
O O9 0.469613 0.000000 0.766245
O O10 0.054654 0.123428 0.861651
O O11 0.279316 0.000000 0.185684
O O12 0.167876 0.000000 0.464028
#
# Coordination Sequence:
#
# PCOD9184119 Si02
#       5
#     8   8   8   8   8
#     4  11  23  43  67  95 129 166 215 271 320 380
#     4  10  19  34  58  83 121 157 200 256 310 372
#     4  11  24  44  67  96 131 169 214 264 324 384
#     4  10  19  33  57  85 115 155 204 250 307 375
#     4  10  20  36  58  84 116 157 206 254 310 373
#
# _framework density 28.268070999999999
#
# number of rings (size 3 to 8) (size 9 to 14) (size 15 to 20)
#    0.000    1.600    2.000    4.800    0.000    3.600 
#    0.000    6.000    0.000    2.400    0.000    0.000 
#    0.000    0.000    0.000    0.000    0.000    0.000 
#
# Total GULP energy -111729.390431 kJ/mol
# GULP energy per Si atom -5586.469522 kJ/mol
# Density = 2.820373 g / cm^3
# Si number density = 28.268071 Si / 1000 Ang^3
#
#
#
# Elastic Constant Matrix: (Units=GPa)
#
#
# Indices 1 2 3 4 5 6 
#
# 1 93.6871 19.2365 42.7085 0.0000 35.3569 0.0000
# 2 19.2365 246.4227 33.6125 0.0000 -0.6358 0.0000
# 3 42.7085 33.6125 208.7028 0.0000 12.5143 0.0000
# 4 0.0000 0.0000 0.0000 5.2368 0.0000 -25.5558
# 5 35.3569 -0.6358 12.5143 0.0000 48.8258 0.0000
# 6 0.0000 0.0000 0.0000 -25.5558 0.0000 -2.4685
#
#
#
# Elastic Compliance Matrix: (Units=1/GPa)
#
#
# Indices 1 2 3 4 5 6 
#
# 1 0.016197 -0.000953 -0.002495 0.000000 -0.011101 0.000000
# 2 -0.000953 0.004208 -0.000536 0.000000 0.000882 0.000000
# 3 -0.002495 -0.000536 0.005363 0.000000 0.000425 0.000000
# 4 0.000000 0.000000 0.000000 0.003706 0.000000 -0.038371
# 5 -0.011101 0.000882 0.000425 0.000000 0.028422 0.000000
# 6 0.000000 0.000000 0.000000 -0.038371 0.000000 -0.007863
#
#
# Mechanical properties :
#
#
# Convention : Reuss Voigt Hill
#
# Bulk Modulus (GPa) = 56.17955 82.21418 69.19686
# Shear Modulus (GPa) = 78.20588 40.53584 59.37086
#
# Velocity S-wave (km/s) = 5.26554 3.79090 4.58785
# Velocity P-wave (km/s) = 7.54220 6.95041 7.25234
#
# Compressibility (1/GPa) = 0.01780007
#
# Stress axis : x y z
#
# Youngs Moduli (GPa) = 61.74142 237.65571 186.46651
#
# Poissons Ratio (x) = 0.22640 0.46530
# Poissons Ratio (y) = 0.05882 0.09987
# Poissons Ratio (z) = 0.15407 0.12729
#
# Static dielectric constant tensor:
#      x y z
#    x 2.380530 0.000000 -0.124380 
#    y 0.000000 2.168860 0.000000 
#    z -0.124380 0.000000 2.318560 
# 
# From -- ./inp_files/296338.got.cif
#   From: 2010.05.17/outbox.cif.g08.bks.cpg/sg12_149_cif.got.tgz:296338.got - 2010.06.03 13:09:07.
