data_PCOD9184068
_publ_section_title
;
Structure prediction by ZEFSAII (Michael W. Deem and Ramdas Pophale) SiO2 
 PCOD9184068
Probable space group: C 2/M
;
_chemical_formula_sum "Si O2"
_cell_formula_units_Z 58
_cell_length_a 14.873492
_cell_length_b 10.432857
_cell_length_c 25.993803
_cell_angle_alpha 90.000000
_cell_angle_beta 126.200558
_cell_angle_gamma 90.000000
_cell_volume 3254.880903
_symmetry_space_group_name_H-M "C 2/M"
_symmetry_group_IT_number 12
_symmetry_cell_setting 'monoclinic'
loop_
_space_group_symop_operation_xyz
x,y,z
-x,y,-z
-x,-y,-z
x,-y,z
1/2+x,1/2+y,z
1/2-x,1/2+y,-z
1/2-x,1/2-y,-z
1/2+x,1/2-y,z
loop_
_atom_site_type_symbol
_atom_site_label
_atom_site_fract_x
_atom_site_fract_y
_atom_site_fract_z
Si Si1 0.174238 0.762503 0.051401
Si Si2 0.184043 0.147647 0.353279
Si Si3 0.530976 0.648383 0.393609
Si Si4 0.892432 0.644934 0.500610
Si Si5 0.000000 0.000000 0.000000
Si Si6 0.733389 0.650936 0.699902
Si Si7 0.600206 0.851213 0.923283
Si Si8 0.647307 0.846440 0.155062
O O1 0.299286 0.786206 0.073258
O O2 0.176925 0.712174 0.110251
O O3 0.121236 0.666983 0.991334
O O4 0.096378 0.887858 0.023986
O O5 0.284537 0.161434 0.428494
O O6 0.202326 0.252974 0.316012
O O7 0.073111 0.165239 0.349539
O O8 0.188094 0.000000 0.335351
O O9 0.555986 0.500000 0.416262
O O10 0.593796 0.747300 0.451741
O O11 0.398734 0.668184 0.352782
O O12 0.889186 0.500000 0.521443
O O13 0.000000 0.653306 0.500000
O O14 0.759299 0.500000 0.699042
O O15 0.767817 0.680320 0.770127
O O16 0.476410 0.799632 0.870803
O O17 0.602721 0.000000 0.910651
O O18 0.641073 0.000000 0.146843
#
# Coordination Sequence:
#
# PCOD9184068 Si02
#       8
#     8   8   8   8   2   8   8   8
#     4  11  21  35  57  83 113 140 173 225 274 319
#     4  10  21  38  56  81 111 143 181 227 278 328
#     4  10  21  36  57  82 111 143 183 227 274 327
#     4  10  19  33  57  83 112 141 177 226 278 329
#     4  12  20  36  54  84 118 136 164 232 280 310
#     4  10  22  39  57  78 109 148 187 229 266 319
#     4  10  20  35  57  82 107 141 180 218 267 323
#     4  10  21  39  57  77 108 146 186 220 263 320
#
# _framework density 17.819391
#
# number of rings (size 3 to 8) (size 9 to 14) (size 15 to 20)
#    0.000    1.793    3.448    0.828    0.000    3.586 
#    1.241    0.000    0.000    0.000    0.000    0.000 
#    0.000    0.000    0.000    0.000    0.000    0.000 
#
# Total GULP energy -161505.515233 kJ/mol
# GULP energy per Si atom -5569.155698 kJ/mol
# Density = 1.777883 g / cm^3
# Si number density = 17.819391 Si / 1000 Ang^3
#
#
#
# Elastic Constant Matrix: (Units=GPa)
#
#
# Indices 1 2 3 4 5 6 
#
# 1 56.5790 30.0351 12.8672 0.0000 -17.5841 0.0000
# 2 30.0351 60.8451 33.6538 0.0000 -14.7768 0.0000
# 3 12.8672 33.6538 55.6625 0.0000 -9.3634 0.0000
# 4 0.0000 0.0000 0.0000 -37.8605 0.0000 -16.8314
# 5 -17.5841 -14.7768 -9.3634 0.0000 16.4701 0.0000
# 6 0.0000 0.0000 0.0000 -16.8314 0.0000 16.6735
#
#
#
# Elastic Compliance Matrix: (Units=1/GPa)
#
#
# Indices 1 2 3 4 5 6 
#
# 1 0.030362 -0.011146 0.003860 0.000000 0.024610 0.000000
# 2 -0.011146 0.032729 -0.015783 0.000000 0.008492 0.000000
# 3 0.003860 -0.015783 0.027563 0.000000 0.005630 0.000000
# 4 0.000000 0.000000 0.000000 -0.018231 0.000000 -0.018404
# 5 0.024610 0.008492 0.005630 0.000000 0.097810 0.000000
# 6 0.000000 0.000000 0.000000 -0.018404 0.000000 0.041397
#
#
# Mechanical properties :
#
#
# Convention : Reuss Voigt Hill
#
# Bulk Modulus (GPa) = 22.46396 36.24431 29.35414
# Shear Modulus (GPa) = 18.34143 5.49198 11.91671
#
# Velocity S-wave (km/s) = 3.21174 1.75747 2.58882
# Velocity P-wave (km/s) = 5.13688 4.94998 5.04430
#
# Compressibility (1/GPa) = 0.04451574
#
# Stress axis : x y z
#
# Youngs Moduli (GPa) = 32.93608 30.55367 36.28065
#
# Poissons Ratio (x) = 0.34055 -0.14005
# Poissons Ratio (y) = 0.36710 0.57263
# Poissons Ratio (z) = -0.12714 0.48224
#
# Static dielectric constant tensor:
#      x y z
#    x 1.628680 0.000000 0.019920 
#    y 0.000000 1.603890 0.000000 
#    z 0.019920 0.000000 1.588830 
# 
# From -- ./inp_files/309989.got.cif
#   From: 2010.05.17/outbox.cif.g08.bks.cpg/sg12_155_cif.got.tgz:309989.got - 2010.06.03 13:09:07.
