data_PCOD9184578
_publ_section_title
;
Structure prediction by ZEFSAII (Michael W. Deem and Ramdas Pophale) SiO2 
 PCOD9184578
Probable space group: C 2/M
;
_chemical_formula_sum "Si O2"
_cell_formula_units_Z 48
_cell_length_a 30.102896
_cell_length_b 14.756100
_cell_length_c 16.904175
_cell_angle_alpha 90.000000
_cell_angle_beta 18.307247
_cell_angle_gamma 90.000000
_cell_volume 2358.626227
_symmetry_space_group_name_H-M "C 2/M"
_symmetry_group_IT_number 12
_symmetry_cell_setting 'monoclinic'
loop_
_space_group_symop_operation_xyz
x,y,z
-x,y,-z
-x,-y,-z
x,-y,z
1/2+x,1/2+y,z
1/2-x,1/2+y,-z
1/2-x,1/2-y,-z
1/2+x,1/2-y,z
loop_
_atom_site_type_symbol
_atom_site_label
_atom_site_fract_x
_atom_site_fract_y
_atom_site_fract_z
Si Si1 0.057021 0.110711 0.318482
Si Si2 0.656863 0.355687 0.729579
Si Si3 0.185424 0.890651 0.856449
Si Si4 0.904041 0.890764 0.418337
Si Si5 0.344235 0.856161 0.272117
Si Si6 0.840660 0.610649 0.752278
O O1 0.000000 0.140658 0.500000
O O2 0.953331 0.138994 0.422074
O O3 0.057505 0.000000 0.318457
O O4 0.216611 0.138108 0.023469
O O5 0.722458 0.360662 0.705959
O O6 0.637046 0.250336 0.741817
O O7 0.754628 0.395930 0.496239
O O8 0.500000 0.396874 0.000000
O O9 0.288431 0.861677 0.753159
O O10 0.184648 0.000000 0.857607
O O11 0.027251 0.860043 0.149098
O O12 0.751947 0.863374 0.643255
O O13 0.907398 0.000000 0.413099
O O14 0.500000 0.895344 0.000000
O O15 0.841624 0.500000 0.751838
O O16 0.000000 0.640902 0.500000
#
# Coordination Sequence:
#
# PCOD9184578 Si02
#       6
#     8   8   8   8   8   8
#     4   8  14  26  45  67  92 125 156 181 226 289
#     4  10  19  34  53  69  91 129 167 193 231 291
#     4   9  17  30  52  77  94 121 164 200 234 277
#     4   9  17  31  51  73  98 126 158 198 238 278
#     4  10  21  34  48  70  98 128 160 195 239 285
#     4   8  14  26  44  68  97 120 146 192 238 274
#
# _framework density 20.350829000000001
#
# number of rings (size 3 to 8) (size 9 to 14) (size 15 to 20)
#    0.000    3.000    1.667    2.000    0.000    1.333 
#    3.000    0.000    0.000    1.000    0.000    4.667 
#    0.000    0.000    0.000    0.000    0.000    0.000 
#
# Total GULP energy -133804.400642 kJ/mol
# GULP energy per Si atom -5575.183360 kJ/mol
# Density = 2.030451 g / cm^3
# Si number density = 20.350829 Si / 1000 Ang^3
#
#
#
# Elastic Constant Matrix: (Units=GPa)
#
#
# Indices 1 2 3 4 5 6 
#
# 1 134.4323 -4.8691 108.9888 -0.0001 4.9654 0.0001
# 2 -4.8691 42.2208 9.1828 -0.0003 2.7718 0.0002
# 3 108.9888 9.1828 182.3537 -0.0003 -10.3786 0.0002
# 4 -0.0001 -0.0003 -0.0003 -5.6395 0.0002 -2.6887
# 5 4.9654 2.7718 -10.3786 0.0002 39.7338 -0.0001
# 6 0.0001 0.0002 0.0002 -2.6887 -0.0001 24.2657
#
#
#
# Elastic Compliance Matrix: (Units=1/GPa)
#
#
# Indices 1 2 3 4 5 6 
#
# 1 0.015866 0.004321 -0.009979 0.000000 -0.004891 0.000000
# 2 0.004321 0.025284 -0.004047 -0.000001 -0.003361 0.000000
# 3 -0.009979 -0.004047 0.011916 0.000000 0.004642 0.000000
# 4 0.000000 -0.000001 0.000000 -0.168423 0.000001 -0.018662
# 5 -0.004891 -0.003361 0.004642 0.000001 0.027226 0.000000
# 6 0.000000 0.000000 0.000000 -0.018662 0.000000 0.039143
#
#
# Mechanical properties :
#
#
# Convention : Reuss Voigt Hill
#
# Bulk Modulus (GPa) = 29.71194 65.06798 47.38996
# Shear Modulus (GPa) = -272.32258 28.05228 -122.13515
#
# Velocity S-wave (km/s) = -11.58035 3.71675 -7.75533
# Velocity P-wave (km/s) = 12.81306 7.10363 7.54032
#
# Compressibility (1/GPa) = 0.03365650
#
# Stress axis : x y z
#
# Youngs Moduli (GPa) = 63.02856 39.55042 83.92200
#
# Poissons Ratio (x) = -0.17090 0.83742
# Poissons Ratio (y) = -0.27235 0.33964
# Poissons Ratio (z) = 0.62894 0.16007
#
# Static dielectric constant tensor:
#      x y z
#    x 1.721250 0.000000 0.001250 
#    y 0.000000 1.727270 0.000000 
#    z 0.001250 0.000000 1.752160 
# 
# From -- ./inp_files/177682.got.cif
#   From: 2010.05.17/outbox.cif.g08.bks.cpg/sg12_89_cif.got.tgz:177682.got - 2010.06.03 13:09:07.
