data_PCOD9184626
_publ_section_title
;
Structure prediction by ZEFSAII (Michael W. Deem and Ramdas Pophale) SiO2 
 PCOD9184626
Probable space group: C 2/M
;
_chemical_formula_sum "Si O2"
_cell_formula_units_Z 64
_cell_length_a 27.024973
_cell_length_b 19.262511
_cell_length_c 9.400399
_cell_angle_alpha 90.000000
_cell_angle_beta 131.712884
_cell_angle_gamma 90.000000
_cell_volume 3652.982746
_symmetry_space_group_name_H-M "C 2/M"
_symmetry_group_IT_number 12
_symmetry_cell_setting 'monoclinic'
loop_
_space_group_symop_operation_xyz
x,y,z
-x,y,-z
-x,-y,-z
x,-y,z
1/2+x,1/2+y,z
1/2-x,1/2+y,-z
1/2-x,1/2-y,-z
1/2+x,1/2-y,z
loop_
_atom_site_type_symbol
_atom_site_label
_atom_site_fract_x
_atom_site_fract_y
_atom_site_fract_z
Si Si1 0.560126 0.777176 0.019987
Si Si2 0.907105 0.575584 0.951078
Si Si3 0.067129 0.733410 0.707832
Si Si4 0.195413 0.786195 0.792499
Si Si5 0.898215 0.420051 0.327466
Si Si6 0.848857 0.424712 0.532629
Si Si7 0.189880 0.281657 0.471472
Si Si8 0.278127 0.921958 0.902687
O O1 0.546787 0.858057 0.953273
O O2 0.625110 0.775173 0.245555
O O3 0.500000 0.749821 0.000000
O O4 0.568622 0.747214 0.877934
O O5 0.930894 0.500000 0.048321
O O6 0.891472 0.569512 0.755821
O O7 0.836540 0.590560 0.896081
O O8 0.127670 0.772120 0.746813
O O9 0.073431 0.648726 0.694965
O O10 0.000000 0.753539 0.500000
O O11 0.185262 0.753181 0.617084
O O12 0.223301 0.863167 0.812684
O O13 0.250000 0.750000 0.000000
O O14 0.922912 0.500000 0.349570
O O15 0.895954 0.406979 0.490627
O O16 0.821965 0.421260 0.129686
O O17 0.818199 0.500000 0.444920
O O18 0.799543 0.362559 0.471356
O O19 0.250000 0.250000 0.500000
O O20 0.252743 0.000000 0.828950
#
# Coordination Sequence:
#
# PCOD9184626 Si02
#       8
#     8   8   8   8   8   8   8   8
#     4  11  23  37  51  74 110 148 187 232 278 336
#     4   9  17  31  50  72 103 142 183 224 265 320
#     4  12  24  37  54  80 114 151 194 239 284 336
#     4  12  20  36  59  84 111 151 190 238 287 335
#     4  10  19  34  53  76 110 148 187 226 273 331
#     4   9  17  30  48  73 105 141 177 224 269 322
#     4  11  21  34  55  82 107 143 191 236 284 337
#     4  10  19  34  57  84 111 145 187 234 283 336
#
# _framework density 17.519929999999999
#
# number of rings (size 3 to 8) (size 9 to 14) (size 15 to 20)
#    0.000    1.500    3.750    3.000    1.750    0.500 
#    0.000    0.000    0.000    0.375    0.000    0.000 
#    0.000    3.500    0.000    0.000    0.000    0.000 
#
# Total GULP energy -178206.831622 kJ/mol
# GULP energy per Si atom -5568.963488 kJ/mol
# Density = 1.748005 g / cm^3
# Si number density = 17.519930 Si / 1000 Ang^3
#
#
#
# Elastic Constant Matrix: (Units=GPa)
#
#
# Indices 1 2 3 4 5 6 
#
# 1 100.9833 17.6345 57.8798 0.0000 -20.8638 0.0000
# 2 17.6345 55.0167 19.7433 0.0000 0.0129 0.0000
# 3 57.8798 19.7433 104.8472 0.0000 -19.2886 0.0000
# 4 0.0000 0.0000 0.0000 18.3437 0.0000 -4.1545
# 5 -20.8638 0.0129 -19.2886 0.0000 43.4808 0.0000
# 6 0.0000 0.0000 0.0000 -4.1545 0.0000 12.6007
#
#
#
# Elastic Compliance Matrix: (Units=1/GPa)
#
#
# Indices 1 2 3 4 5 6 
#
# 1 0.015322 -0.002305 -0.007265 0.000000 0.004130 0.000000
# 2 -0.002305 0.019968 -0.002931 0.000000 -0.002412 0.000000
# 3 -0.007265 -0.002931 0.014655 0.000000 0.003016 0.000000
# 4 0.000000 0.000000 0.000000 0.058914 0.000000 0.019424
# 5 0.004130 -0.002412 0.003016 0.000000 0.026319 0.000000
# 6 0.000000 0.000000 0.000000 0.019424 0.000000 0.085765
#
#
# Mechanical properties :
#
#
# Convention : Reuss Voigt Hill
#
# Bulk Modulus (GPa) = 40.09192 50.15137 45.12164
# Shear Modulus (GPa) = 19.66497 25.92436 22.79466
#
# Velocity S-wave (km/s) = 3.35391 3.85087 3.61095
# Velocity P-wave (km/s) = 6.15886 6.96130 6.57234
#
# Compressibility (1/GPa) = 0.02494268
#
# Stress axis : x y z
#
# Youngs Moduli (GPa) = 65.26435 50.08098 68.23674
#
# Poissons Ratio (x) = 0.11545 0.49571
# Poissons Ratio (y) = 0.15045 0.20002
# Poissons Ratio (z) = 0.47412 0.14680
#
# Static dielectric constant tensor:
#      x y z
#    x 1.613750 0.000000 -0.035340 
#    y 0.000000 1.654650 0.000000 
#    z -0.035340 0.000000 1.623010 
# 
# From -- ./inp_files/98888.got.cif
#   From: 2010.05.17/outbox.cif.g08.bks.cpg/sg12_50_cif.got.tgz:98888.got - 2010.06.03 13:09:07.
