data_PCOD9184632
_publ_section_title
;
Structure prediction by ZEFSAII (Michael W. Deem and Ramdas Pophale) SiO2 
 PCOD9184632
Probable space group: C 2/M
;
_chemical_formula_sum "Si O2"
_cell_formula_units_Z 56
_cell_length_a 12.303785
_cell_length_b 19.363881
_cell_length_c 16.807589
_cell_angle_alpha 90.000000
_cell_angle_beta 59.890731
_cell_angle_gamma 90.000000
_cell_volume 3464.080285
_symmetry_space_group_name_H-M "C 2/M"
_symmetry_group_IT_number 12
_symmetry_cell_setting 'monoclinic'
loop_
_space_group_symop_operation_xyz
x,y,z
-x,y,-z
-x,-y,-z
x,-y,z
1/2+x,1/2+y,z
1/2-x,1/2+y,-z
1/2-x,1/2-y,-z
1/2+x,1/2-y,z
loop_
_atom_site_type_symbol
_atom_site_label
_atom_site_fract_x
_atom_site_fract_y
_atom_site_fract_z
Si Si1 0.071148 0.581459 0.098503
Si Si2 0.111204 0.176889 0.276648
Si Si3 0.387970 0.919045 0.601231
Si Si4 0.678299 0.346341 0.587648
Si Si5 0.301174 0.918531 0.114784
Si Si6 0.943768 0.334472 0.738626
Si Si7 0.260984 0.809553 0.385266
O O1 0.081461 0.500000 0.114231
O O2 0.095817 0.627733 0.166031
O O3 0.929163 0.592980 0.118377
O O4 0.161916 0.595684 0.990347
O O5 0.191853 0.129123 0.188628
O O6 0.102853 0.255734 0.249198
O O7 0.179453 0.177516 0.337120
O O8 0.968655 0.151248 0.339543
O O9 0.500000 0.897343 0.500000
O O10 0.258952 0.903731 0.602821
O O11 0.396649 0.875420 0.678517
O O12 0.403269 0.000000 0.612790
O O13 0.731538 0.272352 0.598974
O O14 0.703116 0.345939 0.484158
O O15 0.270602 0.000000 0.132807
O O16 0.095709 0.333601 0.679193
#
# Coordination Sequence:
#
# PCOD9184632 Si02
#       7
#     8   8   8   8   8   8   8
#     4   9  18  35  58  80 103 141 180 224 278 326
#     4  11  21  33  57  83 109 143 179 226 280 315
#     4  11  22  36  53  78 113 148 184 223 259 312
#     4  10  21  34  53  76 110 150 181 210 270 324
#     4   9  19  36  57  79 107 138 178 227 280 328
#     4  11  20  33  58  81 109 141 186 224 269 320
#     4  10  19  34  53  77 109 143 181 226 256 320
#
# _framework density 16.165907000000001
#
# number of rings (size 3 to 8) (size 9 to 14) (size 15 to 20)
#    0.000    1.857    4.286    1.714    0.000    1.143 
#    0.000    0.714    0.000    2.571    0.000    3.000 
#    0.000    0.000    0.000    0.000    0.000    0.000 
#
# Total GULP energy -156252.138931 kJ/mol
# GULP energy per Si atom -5580.433533 kJ/mol
# Density = 1.612911 g / cm^3
# Si number density = 16.165907 Si / 1000 Ang^3
#
#
#
# Elastic Constant Matrix: (Units=GPa)
#
#
# Indices 1 2 3 4 5 6 
#
# 1 91.1757 49.6844 66.3035 0.0000 0.9579 0.0000
# 2 49.6844 70.0501 80.0378 0.0000 -0.8925 0.0000
# 3 66.3035 80.0378 142.0912 0.0000 6.0080 0.0000
# 4 0.0000 0.0000 0.0000 26.0974 0.0000 -7.1450
# 5 0.9579 -0.8925 6.0080 0.0000 24.8890 0.0000
# 6 0.0000 0.0000 0.0000 -7.1450 0.0000 19.5636
#
#
#
# Elastic Compliance Matrix: (Units=1/GPa)
#
#
# Indices 1 2 3 4 5 6 
#
# 1 0.018471 -0.009163 -0.003449 0.000000 -0.000207 0.000000
# 2 -0.009163 0.045827 -0.021846 0.000000 0.007269 0.000000
# 3 -0.003449 -0.021846 0.021196 0.000000 -0.005767 0.000000
# 4 0.000000 0.000000 0.000000 0.042575 0.000000 0.015549
# 5 -0.000207 0.007269 -0.005767 0.000000 0.041839 0.000000
# 6 0.000000 0.000000 0.000000 0.015549 0.000000 0.056794
#
#
# Mechanical properties :
#
#
# Convention : Reuss Voigt Hill
#
# Bulk Modulus (GPa) = 60.31424 77.26314 68.78869
# Shear Modulus (GPa) = 16.60329 21.26276 18.93303
#
# Velocity S-wave (km/s) = 3.20825 3.63062 3.42595
# Velocity P-wave (km/s) = 7.14943 8.09153 7.63502
#
# Compressibility (1/GPa) = 0.01657983
#
# Stress axis : x y z
#
# Youngs Moduli (GPa) = 54.13777 21.82105 47.17798
#
# Poissons Ratio (x) = 0.19994 0.16273
# Poissons Ratio (y) = 0.49606 1.03063
# Poissons Ratio (z) = 0.18673 0.47669
#
# Static dielectric constant tensor:
#      x y z
#    x 1.520800 0.000000 0.000030 
#    y 0.000000 1.531580 0.000000 
#    z 0.000030 0.000000 1.522240 
# 
# From -- ./inp_files/206079.got.cif
#   From: 2010.05.17/outbox.cif.g08.bks.cpg/sg12_104_cif.got.tgz:206079.got - 2010.06.03 13:09:07.
