data_PCOD9184767
_publ_section_title
;
Structure prediction by ZEFSAII (Michael W. Deem and Ramdas Pophale) SiO2 
 PCOD9184767
Probable space group: C 2/M
;
_chemical_formula_sum "Si O2"
_cell_formula_units_Z 58
_cell_length_a 23.506183
_cell_length_b 7.565405
_cell_length_c 15.121703
_cell_angle_alpha 90.000000
_cell_angle_beta 89.764450
_cell_angle_gamma 90.000000
_cell_volume 2689.127097
_symmetry_space_group_name_H-M "C 2/M"
_symmetry_group_IT_number 12
_symmetry_cell_setting 'monoclinic'
loop_
_space_group_symop_operation_xyz
x,y,z
-x,y,-z
-x,-y,-z
x,-y,z
1/2+x,1/2+y,z
1/2-x,1/2+y,-z
1/2-x,1/2-y,-z
1/2+x,1/2-y,z
loop_
_atom_site_type_symbol
_atom_site_label
_atom_site_fract_x
_atom_site_fract_y
_atom_site_fract_z
Si Si1 0.786904 0.288442 0.585369
Si Si2 0.904095 0.208559 0.185809
Si Si3 0.500000 0.500000 0.000000
Si Si4 0.913793 0.715963 0.544263
Si Si5 0.294114 0.789566 0.922858
Si Si6 0.528762 0.213129 0.638330
Si Si7 0.777389 0.216554 0.241430
Si Si8 0.418025 0.798677 0.983588
O O1 0.791860 0.500000 0.596470
O O2 0.750000 0.250000 0.500000
O O3 0.851482 0.222004 0.573714
O O4 0.749868 0.221501 0.667453
O O5 0.947952 0.230807 0.266371
O O6 0.842126 0.269892 0.220711
O O7 0.916922 0.295347 0.091173
O O8 0.901908 0.000000 0.163571
O O9 0.536868 0.656632 0.048042
O O10 0.913528 0.500000 0.543882
O O11 0.930446 0.770029 0.443794
O O12 0.965313 0.769866 0.609096
O O13 0.265328 0.721257 0.834438
O O14 0.298483 0.000000 0.913023
O O15 0.250000 0.750000 0.000000
O O16 0.356579 0.733304 0.950681
O O17 0.528810 0.000000 0.638690
O O18 0.778988 0.000000 0.241520
O O19 0.428937 0.000000 0.954423
#
# Coordination Sequence:
#
# PCOD9184767 Si02
#       8
#     8   8   2   8   8   8   8   8
#     4  10  19  34  54  79 113 152 191 241 308 373
#     4  11  20  35  57  86 120 157 200 256 318 371
#     4  12  26  48  68  90 136 170 206 258 328 382
#     4   8  16  32  53  76 108 152 199 253 311 365
#     4  10  20  37  64  92 122 161 212 267 320 381
#     4   9  17  32  54  79 108 149 206 258 303 368
#     4   9  19  34  56  85 119 159 202 251 319 382
#     4  11  24  43  68  96 124 169 217 260 318 389
#
# _framework density 21.568335999999999
#
# number of rings (size 3 to 8) (size 9 to 14) (size 15 to 20)
#    0.000    2.207    2.069    2.276    0.966    0.000 
#    2.483    3.448    0.000    0.000    0.000    0.000 
#    0.000    0.000    0.000    0.000    0.000    0.000 
#
# Total GULP energy -161682.019143 kJ/mol
# GULP energy per Si atom -5575.242039 kJ/mol
# Density = 2.151925 g / cm^3
# Si number density = 21.568336 Si / 1000 Ang^3
#
#
#
# Elastic Constant Matrix: (Units=GPa)
#
#
# Indices 1 2 3 4 5 6 
#
# 1 97.3944 12.4275 12.2263 0.0000 15.9675 0.0000
# 2 12.4275 74.9276 -8.9107 0.0000 -1.5891 0.0000
# 3 12.2263 -8.9107 107.7267 0.0000 21.6102 0.0000
# 4 0.0000 0.0000 0.0000 -0.9821 0.0000 0.8480
# 5 15.9675 -1.5891 21.6102 0.0000 33.4785 0.0000
# 6 0.0000 0.0000 0.0000 0.8480 0.0000 15.8963
#
#
#
# Elastic Compliance Matrix: (Units=1/GPa)
#
#
# Indices 1 2 3 4 5 6 
#
# 1 0.011450 -0.002060 -0.000408 0.000000 -0.005296 0.000000
# 2 -0.002060 0.013850 0.001207 0.000000 0.000861 0.000000
# 3 -0.000408 0.001207 0.010773 0.000000 -0.006703 0.000000
# 4 0.000000 0.000000 0.000000 -0.973436 0.000000 0.051927
# 5 -0.005296 0.000861 -0.006703 0.000000 0.036763 0.000000
# 6 0.000000 0.000000 0.000000 0.051927 0.000000 0.060138
#
#
# Mechanical properties :
#
#
# Convention : Reuss Voigt Hill
#
# Bulk Modulus (GPa) = 29.80510 34.61497 32.21004
# Shear Modulus (GPa) = -6.04773 27.29892 10.62559
#
# Velocity S-wave (km/s) = -1.67633 3.56152 2.22198
# Velocity P-wave (km/s) = 3.17839 5.74425 4.64212
#
# Compressibility (1/GPa) = 0.03355130
#
# Stress axis : x y z
#
# Youngs Moduli (GPa) = 87.33829 72.20415 92.82163
#
# Poissons Ratio (x) = 0.14873 0.03783
# Poissons Ratio (y) = 0.17990 -0.11200
# Poissons Ratio (z) = 0.03559 -0.08713
#
# Static dielectric constant tensor:
#      x y z
#    x 1.806610 0.000000 -0.031850 
#    y 0.000000 1.816490 0.000000 
#    z -0.031850 0.000000 1.722140 
# 
# From -- ./inp_files/237635.got.cif
#   From: 2010.05.17/outbox.cif.g08.bks.cpg/sg12_119_cif.got.tgz:237635.got - 2010.06.03 13:09:07.
