data_PCOD9184144
_publ_section_title
;
Structure prediction by ZEFSAII (Michael W. Deem and Ramdas Pophale) SiO2 
 PCOD9184144
Probable space group: C 2/M
;
_chemical_formula_sum "Si O2"
_cell_formula_units_Z 64
_cell_length_a 20.877008
_cell_length_b 12.751143
_cell_length_c 26.507130
_cell_angle_alpha 90.000000
_cell_angle_beta 30.258323
_cell_angle_gamma 90.000000
_cell_volume 3555.690662
_symmetry_space_group_name_H-M "C 2/M"
_symmetry_group_IT_number 12
_symmetry_cell_setting 'monoclinic'
loop_
_space_group_symop_operation_xyz
x,y,z
-x,y,-z
-x,-y,-z
x,-y,z
1/2+x,1/2+y,z
1/2-x,1/2+y,-z
1/2-x,1/2-y,-z
1/2+x,1/2-y,z
loop_
_atom_site_type_symbol
_atom_site_label
_atom_site_fract_x
_atom_site_fract_y
_atom_site_fract_z
Si Si1 0.743715 0.218266 0.422903
Si Si2 0.645477 0.227452 0.190806
Si Si3 0.505753 0.378118 0.784861
Si Si4 0.605756 0.879926 0.607825
Si Si5 0.042900 0.884299 0.528014
Si Si6 0.153638 0.213172 0.021291
Si Si7 0.712892 0.621855 0.233959
Si Si8 0.009532 0.623159 0.932884
O O1 0.848381 0.159166 0.318549
O O2 0.666032 0.140125 0.511967
O O3 0.820379 0.299766 0.406181
O O4 0.643200 0.291955 0.463928
O O5 0.571659 0.306799 0.202802
O O6 0.541069 0.153446 0.287428
O O7 0.709198 0.300013 0.189665
O O8 0.752410 0.168127 0.085434
O O9 0.494503 0.500000 0.778972
O O10 0.446347 0.357611 0.880439
O O11 0.622513 0.000000 0.611359
O O12 0.000000 0.890708 0.500000
O O13 0.918425 0.864913 0.646692
O O14 0.094432 0.000000 0.508081
O O15 0.077320 0.305828 0.044153
O O16 0.250000 0.250000 0.000000
O O17 0.719637 0.500000 0.212269
O O18 0.840049 0.639044 0.180215
O O19 0.978086 0.500000 0.947166
O O20 0.000000 0.644590 0.000000
#
# Coordination Sequence:
#
# PCOD9184144 Si02
#       8
#     8   8   8   8   8   8   8   8
#     4  10  20  36  56  81 111 145 185 235 287 338
#     4  10  19  36  57  86 114 148 191 242 292 349
#     4  10  22  37  56  80 113 156 199 238 285 349
#     4  10  20  34  56  84 111 141 183 237 290 338
#     4  10  21  35  54  83 116 149 183 227 293 356
#     4  10  22  37  56  85 120 156 192 238 299 349
#     4  10  19  33  57  86 116 149 186 237 296 351
#     4  10  20  35  60  91 117 145 189 247 299 349
#
# _framework density 17.999316
#
# number of rings (size 3 to 8) (size 9 to 14) (size 15 to 20)
#    0.000    2.000    2.500    1.125    1.750    2.500 
#    0.000    5.000    0.000    4.125    0.000    0.000 
#    0.000    0.000    0.000    0.000    0.000    0.000 
#
# Total GULP energy -178339.210215 kJ/mol
# GULP energy per Si atom -5573.100319 kJ/mol
# Density = 1.795835 g / cm^3
# Si number density = 17.999316 Si / 1000 Ang^3
#
#
#
# Elastic Constant Matrix: (Units=GPa)
#
#
# Indices 1 2 3 4 5 6 
#
# 1 53.9698 8.7941 17.2557 -0.0001 -5.8650 0.0000
# 2 8.7941 57.1589 38.1707 -0.0001 0.6376 0.0001
# 3 17.2557 38.1707 137.1934 -0.0005 4.2213 0.0002
# 4 -0.0001 -0.0001 -0.0005 12.0934 0.0000 8.7317
# 5 -5.8650 0.6376 4.2213 0.0000 23.6519 0.0000
# 6 0.0000 0.0001 0.0002 8.7317 0.0000 11.5397
#
#
#
# Elastic Compliance Matrix: (Units=1/GPa)
#
#
# Indices 1 2 3 4 5 6 
#
# 1 0.020104 -0.001662 -0.002233 0.000000 0.005429 0.000000
# 2 -0.001662 0.021631 -0.005810 0.000000 0.000042 0.000000
# 3 -0.002233 -0.005810 0.009249 0.000001 -0.002048 -0.000001
# 4 0.000000 0.000000 0.000001 0.182270 0.000000 -0.137918
# 5 0.005429 0.000042 -0.002048 0.000000 0.043990 0.000000
# 6 0.000000 0.000000 -0.000001 -0.137918 0.000000 0.191016
#
#
# Mechanical properties :
#
#
# Convention : Reuss Voigt Hill
#
# Bulk Modulus (GPa) = 31.67352 41.86254 36.76803
# Shear Modulus (GPa) = 10.03622 21.73045 15.88333
#
# Velocity S-wave (km/s) = 2.36389 3.47838 2.97381
# Velocity P-wave (km/s) = 5.00859 6.28017 5.68007
#
# Compressibility (1/GPa) = 0.03157211
#
# Stress axis : x y z
#
# Youngs Moduli (GPa) = 49.74218 46.23092 108.11442
#
# Poissons Ratio (x) = 0.07685 0.24143
# Poissons Ratio (y) = 0.08269 0.62819
# Poissons Ratio (z) = 0.11108 0.26862
#
# Static dielectric constant tensor:
#      x y z
#    x 1.605260 0.000000 -0.013900 
#    y 0.000000 1.592290 0.000000 
#    z -0.013900 0.000000 1.698440 
# 
# From -- ./inp_files/366005.got.cif
#   From: 2010.05.17/outbox.cif.g08.bks.cpg/sg12_184_cif.got.tgz:366005.got - 2010.06.03 13:09:07.
