data_PCOD9184002
_publ_section_title
;
Structure prediction by ZEFSAII (Michael W. Deem and Ramdas Pophale) SiO2 
 PCOD9184002
Probable space group: C 2/M
;
_chemical_formula_sum "Si O2"
_cell_formula_units_Z 64
_cell_length_a 11.444316
_cell_length_b 20.888545
_cell_length_c 24.077154
_cell_angle_alpha 90.000000
_cell_angle_beta 146.930034
_cell_angle_gamma 90.000000
_cell_volume 3140.707541
_symmetry_space_group_name_H-M "C 2/M"
_symmetry_group_IT_number 12
_symmetry_cell_setting 'monoclinic'
loop_
_space_group_symop_operation_xyz
x,y,z
-x,y,-z
-x,-y,-z
x,-y,z
1/2+x,1/2+y,z
1/2-x,1/2+y,-z
1/2-x,1/2-y,-z
1/2+x,1/2-y,z
loop_
_atom_site_type_symbol
_atom_site_label
_atom_site_fract_x
_atom_site_fract_y
_atom_site_fract_z
Si Si1 0.953275 0.156677 0.765300
Si Si2 0.498156 0.797563 0.258305
Si Si3 0.766847 0.927262 0.200577
Si Si4 0.987011 0.198802 0.903526
Si Si5 0.158327 0.206330 0.515920
Si Si6 0.949946 0.571928 0.415304
Si Si7 0.934907 0.664504 0.112116
Si Si8 0.937279 0.927201 0.571664
O O1 0.962687 0.221863 0.733881
O O2 0.123616 0.110443 0.805356
O O3 0.013071 0.172939 0.851711
O O4 0.720592 0.124141 0.671162
O O5 0.251861 0.812927 0.171989
O O6 0.639426 0.816395 0.367084
O O7 0.543240 0.825935 0.215413
O O8 0.541908 0.896977 0.128421
O O9 0.931939 0.923246 0.318563
O O10 0.740448 0.000000 0.174836
O O11 0.012345 0.275378 0.906962
O O12 0.178892 0.168798 0.015323
O O13 0.250000 0.250000 0.500000
O O14 0.033548 0.141822 0.446529
O O15 0.000000 0.238404 0.500000
O O16 0.858238 0.500000 0.371517
O O17 0.000000 0.580947 0.500000
O O18 0.181641 0.573482 0.479495
O O19 0.988647 0.000000 0.569139
#
# Coordination Sequence:
#
# PCOD9184002 Si02
#       8
#     8   8   8   8   8   8   8   8
#     4  11  21  34  60  92 131 163 214 262 328 388
#     4  11  23  40  65  89 127 167 216 268 325 380
#     4  11  21  39  64  93 130 169 212 267 323 394
#     4  10  22  39  63  90 119 163 207 274 317 388
#     4  12  28  41  64 100 142 179 220 277 339 395
#     4  10  19  33  56  88 127 177 219 258 316 399
#     4  10  22  41  63  89 120 158 217 262 330 379
#     4  10  22  40  63  90 130 180 228 265 318 394
#
# _framework density 20.377573999999999
#
# number of rings (size 3 to 8) (size 9 to 14) (size 15 to 20)
#    0.000    1.375    2.500    3.000    5.250    0.750 
#    0.000    2.500    0.000    3.750    0.000    0.000 
#    0.000    0.000    0.000    0.000    0.000    0.000 
#
# Total GULP energy -178588.477556 kJ/mol
# GULP energy per Si atom -5580.889924 kJ/mol
# Density = 2.033119 g / cm^3
# Si number density = 20.377574 Si / 1000 Ang^3
#
#
#
# Elastic Constant Matrix: (Units=GPa)
#
#
# Indices 1 2 3 4 5 6 
#
# 1 59.8015 28.0193 8.0365 -0.0006 6.9858 -0.0001
# 2 28.0193 82.8480 8.0048 -0.0011 -10.9548 -0.0002
# 3 8.0365 8.0048 77.9646 -0.0018 4.7803 -0.0004
# 4 -0.0006 -0.0011 -0.0018 29.0011 -0.0001 4.7611
# 5 6.9858 -10.9548 4.7803 -0.0001 28.1018 0.0000
# 6 -0.0001 -0.0002 -0.0004 4.7611 0.0000 22.8722
#
#
#
# Elastic Compliance Matrix: (Units=1/GPa)
#
#
# Indices 1 2 3 4 5 6 
#
# 1 0.021777 -0.008412 -0.000857 0.000000 -0.008547 0.000000
# 2 -0.008412 0.016184 -0.001323 0.000000 0.008625 0.000000
# 3 -0.000857 -0.001323 0.013207 0.000001 -0.002549 0.000000
# 4 0.000000 0.000000 0.000001 0.035701 0.000000 -0.007432
# 5 -0.008547 0.008625 -0.002549 0.000000 0.041506 0.000000
# 6 0.000000 0.000000 0.000000 -0.007432 0.000000 0.045268
#
#
# Mechanical properties :
#
#
# Convention : Reuss Voigt Hill
#
# Bulk Modulus (GPa) = 33.35302 34.30392 33.82847
# Shear Modulus (GPa) = 24.41139 27.76526 26.08832
#
# Velocity S-wave (km/s) = 3.46490 3.69526 3.58194
# Velocity P-wave (km/s) = 5.69302 5.92261 5.80895
#
# Compressibility (1/GPa) = 0.02998229
#
# Stress axis : x y z
#
# Youngs Moduli (GPa) = 45.91972 61.79051 75.71828
#
# Poissons Ratio (x) = 0.51981 0.06489
# Poissons Ratio (y) = 0.38630 0.10020
# Poissons Ratio (z) = 0.03935 0.08177
#
# Static dielectric constant tensor:
#      x y z
#    x 1.759580 0.000000 0.005450 
#    y 0.000000 1.743780 0.000000 
#    z 0.005450 0.000000 1.748140 
# 
# From -- ./inp_files/359027.got.cif
#   From: 2010.05.17/outbox.cif.g08.bks.cpg/sg12_180_cif.got.tgz:359027.got - 2010.06.03 13:09:07.
