data_PCOD9184708
_publ_section_title
;
Structure prediction by ZEFSAII (Michael W. Deem and Ramdas Pophale) SiO2 
 PCOD9184708
Probable space group: C 2/M
;
_chemical_formula_sum "Si O2"
_cell_formula_units_Z 44
_cell_length_a 24.955897
_cell_length_b 8.485196
_cell_length_c 21.031283
_cell_angle_alpha 90.000000
_cell_angle_beta 23.657466
_cell_angle_gamma 90.000000
_cell_volume 1787.044088
_symmetry_space_group_name_H-M "C 2/M"
_symmetry_group_IT_number 12
_symmetry_cell_setting 'monoclinic'
loop_
_space_group_symop_operation_xyz
x,y,z
-x,y,-z
-x,-y,-z
x,-y,z
1/2+x,1/2+y,z
1/2-x,1/2+y,-z
1/2-x,1/2-y,-z
1/2+x,1/2-y,z
loop_
_atom_site_type_symbol
_atom_site_label
_atom_site_fract_x
_atom_site_fract_y
_atom_site_fract_z
Si Si1 0.410069 0.329240 0.661291
Si Si2 0.082235 0.500000 0.325331
Si Si3 0.714149 0.673404 0.441066
Si Si4 0.214882 0.500000 0.362317
Si Si5 0.117542 0.000000 0.938602
Si Si6 0.459538 0.175391 0.274648
Si Si7 0.102434 0.673086 0.999321
O O1 0.500000 0.310132 0.500000
O O2 0.440690 0.500000 0.655915
O O3 0.254950 0.332352 0.810502
O O4 0.422140 0.179791 0.694433
O O5 0.234529 0.500000 0.187564
O O6 0.927709 0.500000 0.520283
O O7 0.714557 0.500000 0.409012
O O8 0.719015 0.833482 0.394997
O O9 0.586167 0.694397 0.626324
O O10 0.842413 0.676377 0.348393
O O11 0.338819 0.500000 0.180921
O O12 0.047156 0.163203 0.033216
O O13 0.458968 0.000000 0.305359
O O14 0.590725 0.189587 0.088721
O O15 0.044017 0.500000 0.046320
#
# Coordination Sequence:
#
# PCOD9184708 Si02
#       7
#     8   4   8   4   4   8   8
#     4   9  16  28  49  79 107 137 183 226 269 327
#     4  10  19  34  54  76 110 150 186 230 273 329
#     4  10  22  37  58  86 113 152 191 246 286 336
#     4  12  23  37  56  87 123 150 193 238 287 342
#     4  10  21  35  56  85 115 156 194 228 285 347
#     4   9  18  38  62  85 114 145 198 239 288 340
#     4   9  18  32  56  88 112 149 190 237 281 342
#
# _framework density 24.621666000000001
#
# number of rings (size 3 to 8) (size 9 to 14) (size 15 to 20)
#    0.000    2.364    0.909    2.727    2.545    1.455 
#    0.000    1.818    0.000    7.636    0.000    0.000 
#    0.000    0.000    0.000    0.000    0.000    0.000 
#
# Total GULP energy -122468.486585 kJ/mol
# GULP energy per Si atom -5566.749390 kJ/mol
# Density = 2.456563 g / cm^3
# Si number density = 24.621666 Si / 1000 Ang^3
#
#
#
# Elastic Constant Matrix: (Units=GPa)
#
#
# Indices 1 2 3 4 5 6 
#
# 1 39.5621 41.3889 1.6467 0.0000 -12.8585 0.0000
# 2 41.3889 303.8303 22.0569 0.0001 22.8672 0.0003
# 3 1.6467 22.0569 110.5030 0.0001 11.2760 0.0000
# 4 0.0000 0.0001 0.0001 16.6586 0.0001 9.0713
# 5 -12.8585 22.8672 11.2760 0.0001 33.2250 0.0000
# 6 0.0000 0.0003 0.0000 9.0713 0.0000 11.0681
#
#
#
# Elastic Compliance Matrix: (Units=1/GPa)
#
#
# Indices 1 2 3 4 5 6 
#
# 1 0.038898 -0.006719 -0.001291 0.000000 0.020117 0.000001
# 2 -0.006719 0.004655 -0.000245 0.000000 -0.005721 0.000000
# 3 -0.001291 -0.000245 0.009480 0.000000 -0.003548 0.000000
# 4 0.000000 0.000000 0.000000 0.108415 -0.000001 -0.088856
# 5 0.020117 -0.005721 -0.003548 -0.000001 0.043025 0.000001
# 6 0.000001 0.000000 0.000000 -0.088856 0.000001 0.163176
#
#
# Mechanical properties :
#
#
# Convention : Reuss Voigt Hill
#
# Bulk Modulus (GPa) = 27.38094 64.89781 46.13938
# Shear Modulus (GPa) = 12.61560 38.11054 25.36307
#
# Velocity S-wave (km/s) = 2.26603 3.93854 3.21302
# Velocity P-wave (km/s) = 4.24162 6.86280 5.70479
#
# Compressibility (1/GPa) = 0.03652175
#
# Stress axis : x y z
#
# Youngs Moduli (GPa) = 25.70803 214.82232 105.48756
#
# Poissons Ratio (x) = 1.44343 0.13621
# Poissons Ratio (y) = 0.17274 0.02587
# Poissons Ratio (z) = 0.03320 0.05268
#
# Static dielectric constant tensor:
#      x y z
#    x 1.989990 0.000000 -0.028870 
#    y 0.000000 2.021350 0.000000 
#    z -0.028870 0.000000 1.986670 
# 
# From -- ./inp_files/353244.got.cif
#   From: 2010.05.17/outbox.cif.g08.bks.cpg/sg12_177_cif.got.tgz:353244.got - 2010.06.03 13:09:07.
