data_PCOD9184616
_publ_section_title
;
Structure prediction by ZEFSAII (Michael W. Deem and Ramdas Pophale) SiO2 
 PCOD9184616
Probable space group: C 2/M
;
_chemical_formula_sum "Si O2"
_cell_formula_units_Z 44
_cell_length_a 12.672774
_cell_length_b 12.865034
_cell_length_c 21.489672
_cell_angle_alpha 90.000000
_cell_angle_beta 28.515234
_cell_angle_gamma 90.000000
_cell_volume 1672.583937
_symmetry_space_group_name_H-M "C 2/M"
_symmetry_group_IT_number 12
_symmetry_cell_setting 'monoclinic'
loop_
_space_group_symop_operation_xyz
x,y,z
-x,y,-z
-x,-y,-z
x,-y,z
1/2+x,1/2+y,z
1/2-x,1/2+y,-z
1/2-x,1/2-y,-z
1/2+x,1/2-y,z
loop_
_atom_site_type_symbol
_atom_site_label
_atom_site_fract_x
_atom_site_fract_y
_atom_site_fract_z
Si Si1 0.422719 0.343123 0.844313
Si Si2 0.107433 0.887908 0.876235
Si Si3 0.500000 0.705221 0.500000
Si Si4 0.762235 0.385504 0.567621
Si Si5 0.560030 0.887494 0.782524
Si Si6 0.716828 0.660712 0.210785
O O1 0.431795 0.380292 0.909975
O O2 0.653047 0.380885 0.693818
O O3 0.426826 0.218102 0.840661
O O4 0.253569 0.371086 0.877030
O O5 0.253520 0.784582 0.796792
O O6 0.219954 0.000000 0.810722
O O7 0.000000 0.885396 0.000000
O O8 0.418077 0.785680 0.488605
O O9 0.707124 0.636349 0.372399
O O10 0.856477 0.500000 0.507913
O O11 0.538052 0.370802 0.644094
O O12 0.619395 0.887615 0.824667
O O13 0.471805 0.000000 0.809244
#
# Coordination Sequence:
#
# PCOD9184616 Si02
#       6
#     8   8   4   8   8   8
#     4   8  19  35  54  77 105 141 179 211 256 314
#     4  10  20  35  57  83 109 135 169 219 269 311
#     4  10  20  32  50  82 108 136 178 226 264 304
#     4   9  17  33  54  75 103 141 178 216 256 304
#     4  10  19  34  53  75 109 142 173 218 267 305
#     4   9  20  36  54  78 102 143 180 211 252 323
#
# _framework density 26.306602999999999
#
# number of rings (size 3 to 8) (size 9 to 14) (size 15 to 20)
#    1.091    1.636    0.000    1.636    0.000    2.182 
#    0.000    0.909    0.000   13.636    0.000    0.000 
#    0.000    0.000    0.000    0.000    0.000    0.000 
#
# Total GULP energy -122874.631093 kJ/mol
# GULP energy per Si atom -5585.210504 kJ/mol
# Density = 2.624673 g / cm^3
# Si number density = 26.306603 Si / 1000 Ang^3
#
#
#
# Elastic Constant Matrix: (Units=GPa)
#
#
# Indices 1 2 3 4 5 6 
#
# 1 155.1759 8.8406 7.3800 0.0004 20.1648 -0.0108
# 2 8.8406 213.0962 13.5934 -0.0003 6.7590 -0.0171
# 3 7.3800 13.5934 78.7164 -0.0063 21.3502 -0.1084
# 4 0.0004 -0.0003 -0.0063 22.1291 -0.0007 -1.5783
# 5 20.1648 6.7590 21.3502 -0.0007 36.3620 0.0311
# 6 -0.0108 -0.0171 -0.1084 -1.5783 0.0311 33.2710
#
#
#
# Elastic Compliance Matrix: (Units=1/GPa)
#
#
# Indices 1 2 3 4 5 6 
#
# 1 0.006967 -0.000190 0.000497 0.000000 -0.004120 0.000008
# 2 -0.000190 0.004757 -0.000705 0.000000 -0.000365 0.000000
# 3 0.000497 -0.000705 0.015246 0.000008 -0.009097 0.000058
# 4 0.000000 0.000000 0.000008 0.045343 -0.000006 0.002151
# 5 -0.004120 -0.000365 -0.009097 -0.000006 0.035195 -0.000064
# 6 0.000008 0.000000 0.000058 0.002151 -0.000064 0.030158
#
#
# Mechanical properties :
#
#
# Convention : Reuss Voigt Hill
#
# Bulk Modulus (GPa) = 38.20416 56.29073 47.24745
# Shear Modulus (GPa) = 33.97044 46.16407 40.06726
#
# Velocity S-wave (km/s) = 3.59740 4.19363 3.90691
# Velocity P-wave (km/s) = 5.63997 6.70024 6.19284
#
# Compressibility (1/GPa) = 0.02617516
#
# Stress axis : x y z
#
# Youngs Moduli (GPa) = 143.53615 210.21072 65.58983
#
# Poissons Ratio (x) = 0.03995 -0.03261
# Poissons Ratio (y) = 0.02728 0.04622
# Poissons Ratio (z) = -0.07136 0.14812
#
# Static dielectric constant tensor:
#      x y z
#    x 2.072500 0.000000 -0.009210 
#    y 0.000000 2.040430 0.000010 
#    z -0.009210 0.000010 2.115600 
# 
# From -- ./inp_files/339292.got.cif
#   From: 2010.05.17/outbox.cif.g08.bks.cpg/sg12_170_cif.got.tgz:339292.got - 2010.06.03 13:09:07.
