data_PCOD9184208
_publ_section_title
;
Structure prediction by ZEFSAII (Michael W. Deem and Ramdas Pophale) SiO2 
 PCOD9184208
Probable space group: C 2/M
;
_chemical_formula_sum "Si O2"
_cell_formula_units_Z 64
_cell_length_a 15.235989
_cell_length_b 14.379143
_cell_length_c 16.777719
_cell_angle_alpha 90.000000
_cell_angle_beta 59.584640
_cell_angle_gamma 90.000000
_cell_volume 3169.817275
_symmetry_space_group_name_H-M "C 2/M"
_symmetry_group_IT_number 12
_symmetry_cell_setting 'monoclinic'
loop_
_space_group_symop_operation_xyz
x,y,z
-x,y,-z
-x,-y,-z
x,-y,z
1/2+x,1/2+y,z
1/2-x,1/2+y,-z
1/2-x,1/2-y,-z
1/2+x,1/2-y,z
loop_
_atom_site_type_symbol
_atom_site_label
_atom_site_fract_x
_atom_site_fract_y
_atom_site_fract_z
Si Si1 0.347234 0.604120 0.193845
Si Si2 0.798982 0.389589 0.457279
Si Si3 0.014086 0.756926 0.088176
Si Si4 0.141977 0.608624 0.386659
Si Si5 0.062102 0.108537 0.554234
Si Si6 0.500726 0.787673 0.662818
Si Si7 0.584954 0.106516 0.152449
Si Si8 0.181608 0.102718 0.984438
O O1 0.380997 0.500000 0.202067
O O2 0.428270 0.683781 0.172396
O O3 0.240040 0.621016 0.285034
O O4 0.335570 0.603791 0.103359
O O5 0.812703 0.500000 0.436369
O O6 0.820142 0.372452 0.541441
O O7 0.682162 0.366350 0.489713
O O8 0.887864 0.332139 0.373966
O O9 0.014139 0.652408 0.118869
O O10 0.118664 0.814519 0.052702
O O11 0.000000 0.758262 0.000000
O O12 0.111230 0.500000 0.396419
O O13 0.050653 0.668972 0.393145
O O14 0.000000 0.117482 0.500000
O O15 0.014543 0.178905 0.640193
O O16 0.058694 0.000000 0.580074
O O17 0.429537 0.824887 0.766213
O O18 0.697743 0.109831 0.064257
O O19 0.563549 0.000000 0.185378
O O20 0.147220 0.000000 0.028205
#
# Coordination Sequence:
#
# PCOD9184208 Si02
#       8
#     8   8   8   8   8   8   8   8
#     4   9  17  32  56  87 118 145 183 242 299 344
#     4  10  21  36  60  90 118 155 200 242 288 343
#     4  10  21  36  57  84 112 154 198 237 290 367
#     4  10  19  33  57  90 124 151 190 250 301 339
#     4  10  23  43  60  82 119 164 205 242 283 341
#     4  12  22  37  61  87 118 156 200 245 298 357
#     4  11  23  38  58  85 119 153 191 246 302 353
#     4   9  17  35  59  84 112 146 188 241 299 350
#
# _framework density 20.190438
#
# number of rings (size 3 to 8) (size 9 to 14) (size 15 to 20)
#    0.000    1.875    1.250    3.375    1.750    2.750 
#    0.000    0.625    0.000    0.750    0.000    0.000 
#    0.000    0.000    0.000    0.000    0.000    0.000 
#
# Total GULP energy -178636.033577 kJ/mol
# GULP energy per Si atom -5582.376049 kJ/mol
# Density = 2.014448 g / cm^3
# Si number density = 20.190438 Si / 1000 Ang^3
#
#
#
# Elastic Constant Matrix: (Units=GPa)
#
#
# Indices 1 2 3 4 5 6 
#
# 1 80.2205 28.7814 10.0747 0.0000 -15.0734 0.0000
# 2 28.7814 95.6431 16.6032 0.0000 -11.3064 0.0000
# 3 10.0747 16.6032 38.2639 0.0000 -5.9827 0.0000
# 4 0.0000 0.0000 0.0000 25.7153 0.0000 -5.3646
# 5 -15.0734 -11.3064 -5.9827 0.0000 17.5962 0.0000
# 6 0.0000 0.0000 0.0000 -5.3646 0.0000 14.7693
#
#
#
# Elastic Compliance Matrix: (Units=1/GPa)
#
#
# Indices 1 2 3 4 5 6 
#
# 1 0.015862 -0.003281 -0.001012 0.000000 0.011136 0.000000
# 2 -0.003281 0.012600 -0.003989 0.000000 0.003929 0.000000
# 3 -0.001012 -0.003989 0.029145 0.000000 0.006479 0.000000
# 4 0.000000 0.000000 0.000000 0.042076 0.000000 0.015283
# 5 0.011136 0.003929 0.006479 0.000000 0.071097 0.000000
# 6 0.000000 0.000000 0.000000 0.015283 0.000000 0.073259
#
#
# Mechanical properties :
#
#
# Convention : Reuss Voigt Hill
#
# Bulk Modulus (GPa) = 24.36468 36.11623 30.24046
# Shear Modulus (GPa) = 18.22932 22.19404 20.21168
#
# Velocity S-wave (km/s) = 3.00804 3.31907 3.16737
# Velocity P-wave (km/s) = 4.91508 5.71095 5.32789
#
# Compressibility (1/GPa) = 0.04104302
#
# Stress axis : x y z
#
# Youngs Moduli (GPa) = 63.04234 79.36567 34.31167
#
# Poissons Ratio (x) = 0.26043 0.03471
# Poissons Ratio (y) = 0.20686 0.13687
# Poissons Ratio (z) = 0.06377 0.31659
#
# Static dielectric constant tensor:
#      x y z
#    x 1.742990 0.000000 0.007910 
#    y 0.000000 1.732390 0.000000 
#    z 0.007910 0.000000 1.721410 
# 
# From -- ./inp_files/270254.got.cif
#   From: 2010.05.17/outbox.cif.g08.bks.cpg/sg12_136_cif.got.tgz:270254.got - 2010.06.03 13:09:07.
