data_PCOD9184080
_publ_section_title
;
Structure prediction by ZEFSAII (Michael W. Deem and Ramdas Pophale) SiO2 
 PCOD9184080
Probable space group: C 2/M
;
_chemical_formula_sum "Si O2"
_cell_formula_units_Z 56
_cell_length_a 21.475807
_cell_length_b 8.663381
_cell_length_c 15.589982
_cell_angle_alpha 90.000000
_cell_angle_beta 63.409446
_cell_angle_gamma 90.000000
_cell_volume 2593.766078
_symmetry_space_group_name_H-M "C 2/M"
_symmetry_group_IT_number 12
_symmetry_cell_setting 'monoclinic'
loop_
_space_group_symop_operation_xyz
x,y,z
-x,y,-z
-x,-y,-z
x,-y,z
1/2+x,1/2+y,z
1/2-x,1/2+y,-z
1/2-x,1/2-y,-z
1/2+x,1/2-y,z
loop_
_atom_site_type_symbol
_atom_site_label
_atom_site_fract_x
_atom_site_fract_y
_atom_site_fract_z
Si Si1 0.252296 0.173491 0.590617
Si Si2 0.976719 0.313768 0.918313
Si Si3 0.895335 0.182386 0.504131
Si Si4 0.317429 0.186307 0.010501
Si Si5 0.737631 0.815125 0.772618
Si Si6 0.395854 0.316892 0.692802
Si Si7 0.021206 0.814293 0.721743
O O1 0.250000 0.250000 0.500000
O O2 0.333973 0.196095 0.556491
O O3 0.215314 0.252257 0.694038
O O4 0.228328 0.000000 0.600031
O O5 0.976545 0.500000 0.918788
O O6 0.028401 0.256818 0.811298
O O7 0.897166 0.262067 0.944022
O O8 0.000000 0.264293 0.000000
O O9 0.930225 0.193410 0.576924
O O10 0.928562 0.214265 0.391050
O O11 0.871852 0.000000 0.516370
O O12 0.306479 0.226125 0.117556
O O13 0.314905 0.000000 0.003265
O O14 0.250000 0.250000 0.000000
O O15 0.816867 0.759577 0.742832
O O16 0.739622 0.000000 0.764054
O O17 0.390906 0.500000 0.713763
O O18 0.447810 0.250435 0.730089
O O19 0.019536 0.000000 0.731778
#
# Coordination Sequence:
#
# PCOD9184080 Si02
#       7
#     8   8   8   8   8   8   8
#     4  11  22  36  54  77 107 142 181 226 278 336
#     4  10  23  41  56  77 115 157 194 236 291 349
#     4   9  18  33  53  80 112 143 178 217 265 331
#     4  10  21  38  62  88 114 150 196 246 296 346
#     4   9  18  34  55  79 108 144 187 232 279 331
#     4   8  14  28  52  80 109 138 170 216 271 326
#     4  10  19  33  57  84 109 144 187 227 269 324
#
# _framework density 21.590229000000001
#
# number of rings (size 3 to 8) (size 9 to 14) (size 15 to 20)
#    0.000    2.429    0.000    3.429    0.000    6.000 
#    0.000    5.714    0.000    4.286    0.000    0.000 
#    0.000    0.000    0.000    0.000    0.000    0.000 
#
# Total GULP energy -155890.258773 kJ/mol
# GULP energy per Si atom -5567.509242 kJ/mol
# Density = 2.154109 g / cm^3
# Si number density = 21.590229 Si / 1000 Ang^3
#
#
#
# Elastic Constant Matrix: (Units=GPa)
#
#
# Indices 1 2 3 4 5 6 
#
# 1 33.6657 5.0940 17.9857 0.0000 4.6775 0.0000
# 2 5.0940 14.9142 25.8205 0.0000 4.7158 -0.0001
# 3 17.9857 25.8205 155.5218 0.0000 12.6954 0.0000
# 4 0.0000 0.0000 0.0000 30.1564 0.0000 3.9102
# 5 4.6775 4.7158 12.6954 0.0000 37.5664 0.0000
# 6 0.0000 -0.0001 0.0000 3.9102 0.0000 15.9593
#
#
#
# Elastic Compliance Matrix: (Units=1/GPa)
#
#
# Indices 1 2 3 4 5 6 
#
# 1 0.032294 -0.005811 -0.002572 0.000000 -0.002422 0.000000
# 2 -0.005811 0.096821 -0.014880 0.000000 -0.006402 0.000001
# 3 -0.002572 -0.014880 0.009275 0.000000 -0.000946 0.000000
# 4 0.000000 0.000000 0.000000 0.034249 0.000000 -0.008391
# 5 -0.002422 -0.006402 -0.000946 0.000000 0.028045 0.000000
# 6 0.000000 0.000001 0.000000 -0.008391 0.000000 0.064715
#
#
# Mechanical properties :
#
#
# Convention : Reuss Voigt Hill
#
# Bulk Modulus (GPa) = 10.88575 33.54467 22.21521
# Shear Modulus (GPa) = 14.59659 27.08318 20.83988
#
# Velocity S-wave (km/s) = 2.60296 3.54562 3.11021
# Velocity P-wave (km/s) = 3.75324 5.68617 4.81764
#
# Compressibility (1/GPa) = 0.09186318
#
# Stress axis : x y z
#
# Youngs Moduli (GPa) = 30.96568 10.32837 107.81506
#
# Poissons Ratio (x) = 0.06002 0.27732
# Poissons Ratio (y) = 0.17994 1.60429
# Poissons Ratio (z) = 0.07965 0.15369
#
# Static dielectric constant tensor:
#      x y z
#    x 2.302040 0.000000 -0.071280 
#    y 0.000000 1.744090 0.000000 
#    z -0.071280 0.000000 1.861890 
# 
# From -- ./inp_files/237494.got.cif
#   From: 2010.05.17/outbox.cif.g08.bks.cpg/sg12_119_cif.got.tgz:237494.got - 2010.06.03 13:09:07.
