data_PCOD9184532
_publ_section_title
;
Structure prediction by ZEFSAII (Michael W. Deem and Ramdas Pophale) SiO2 
 PCOD9184532
Probable space group: C 2/M
;
_chemical_formula_sum "Si O2"
_cell_formula_units_Z 64
_cell_length_a 24.470570
_cell_length_b 7.634150
_cell_length_c 22.436288
_cell_angle_alpha 90.000000
_cell_angle_beta 47.137652
_cell_angle_gamma 90.000000
_cell_volume 3072.231065
_symmetry_space_group_name_H-M "C 2/M"
_symmetry_group_IT_number 12
_symmetry_cell_setting 'monoclinic'
loop_
_space_group_symop_operation_xyz
x,y,z
-x,y,-z
-x,-y,-z
x,-y,z
1/2+x,1/2+y,z
1/2-x,1/2+y,-z
1/2-x,1/2-y,-z
1/2+x,1/2-y,z
loop_
_atom_site_type_symbol
_atom_site_label
_atom_site_fract_x
_atom_site_fract_y
_atom_site_fract_z
Si Si1 0.993056 0.213610 0.101376
Si Si2 0.290339 0.296954 0.616858
Si Si3 0.543363 0.286250 0.527453
Si Si4 0.186354 0.804489 0.593749
Si Si5 0.027671 0.215630 0.748162
Si Si6 0.069069 0.788622 0.286700
Si Si7 0.778064 0.294090 0.762869
Si Si8 0.118845 0.213411 0.919893
O O1 0.980758 0.274249 0.177586
O O2 0.926922 0.264973 0.105407
O O3 0.993255 0.000000 0.102181
O O4 0.070097 0.270429 0.012776
O O5 0.284434 0.500000 0.603209
O O6 0.371249 0.227304 0.536799
O O7 0.224743 0.201690 0.630305
O O8 0.287060 0.287195 0.690634
O O9 0.500000 0.231462 0.500000
O O10 0.545816 0.500000 0.524880
O O11 0.494658 0.230670 0.619585
O O12 0.250000 0.750000 0.500000
O O13 0.105293 0.718824 0.661477
O O14 0.168321 0.000000 0.587768
O O15 0.958423 0.266353 0.757955
O O16 0.030049 0.000000 0.747672
O O17 0.148742 0.730151 0.251697
O O18 0.070090 0.000000 0.287464
O O19 0.767933 0.500000 0.759172
O O20 0.703650 0.227198 0.850614
O O21 0.118877 0.000000 0.921751
#
# Coordination Sequence:
#
# PCOD9184532 Si02
#       8
#     8   8   8   8   8   8   8   8
#     4   8  13  27  50  76  98 128 171 213 254 305
#     4  11  21  35  56  79 103 136 176 220 264 309
#     4   9  16  30  50  68  92 132 176 211 246 299
#     4  11  22  37  55  80 110 140 173 216 264 311
#     4   9  18  32  53  75 101 137 180 219 253 303
#     4  10  19  34  52  71  96 135 180 217 253 304
#     4  11  21  33  49  77 109 135 165 214 269 314
#     4   8  15  27  48  75 105 130 160 211 266 311
#
# _framework density 20.831768
#
# number of rings (size 3 to 8) (size 9 to 14) (size 15 to 20)
#    0.000    2.375    1.250    3.375    0.000    4.000 
#    0.000    5.000    0.000    0.000    0.000   19.250 
#    0.000    0.000    0.000    0.000    0.000    0.000 
#
# Total GULP energy -178648.494155 kJ/mol
# GULP energy per Si atom -5582.765442 kJ/mol
# Density = 2.078435 g / cm^3
# Si number density = 20.831768 Si / 1000 Ang^3
#
#
#
# Elastic Constant Matrix: (Units=GPa)
#
#
# Indices 1 2 3 4 5 6 
#
# 1 104.4724 -7.8521 66.4743 -0.0130 -7.0640 0.0093
# 2 -7.8521 39.6135 4.4533 -0.0010 0.9647 0.0181
# 3 66.4743 4.4533 145.7201 -0.0108 -6.8401 0.0055
# 4 -0.0130 -0.0010 -0.0108 -15.6839 0.0096 8.7487
# 5 -7.0640 0.9647 -6.8401 0.0096 39.6902 -0.0047
# 6 0.0093 0.0181 0.0055 8.7487 -0.0047 13.8537
#
#
#
# Elastic Compliance Matrix: (Units=1/GPa)
#
#
# Indices 1 2 3 4 5 6 
#
# 1 0.014018 0.003471 -0.006440 -0.000009 0.001301 -0.000005
# 2 0.003471 0.026213 -0.002405 -0.000017 -0.000434 -0.000025
# 3 -0.006440 -0.002405 0.009903 0.000001 0.000619 0.000003
# 4 -0.000009 -0.000017 0.000001 -0.047150 0.000014 0.029776
# 5 0.001301 -0.000434 0.000619 0.000014 0.025544 -0.000001
# 6 -0.000005 -0.000025 0.000003 0.029776 -0.000001 0.053380
#
#
# Mechanical properties :
#
#
# Convention : Reuss Voigt Hill
#
# Bulk Modulus (GPa) = 25.38943 46.21745 35.80344
# Shear Modulus (GPa) = 47.26643 22.68735 34.97689
#
# Velocity S-wave (km/s) = 4.76853 3.30369 4.10203
# Velocity P-wave (km/s) = 6.52171 6.06521 6.29760
#
# Compressibility (1/GPa) = 0.03938647
#
# Stress axis : x y z
#
# Youngs Moduli (GPa) = 71.33514 38.14922 100.98213
#
# Poissons Ratio (x) = -0.13241 0.65031
# Poissons Ratio (y) = -0.24760 0.24284
# Poissons Ratio (z) = 0.45939 0.09174
#
# Static dielectric constant tensor:
#      x y z
#    x 1.716180 0.000000 -0.009770 
#    y 0.000000 1.814060 0.000000 
#    z -0.009770 0.000000 1.741830 
# 
# From -- ./inp_files/324168.got.cif
#   From: 2010.05.17/outbox.cif.g08.bks.cpg/sg12_163_cif.got.tgz:324168.got - 2010.06.03 13:09:07.
