data_PCOD9184887
_publ_section_title
;
Structure prediction by ZEFSAII (Michael W. Deem and Ramdas Pophale) SiO2 
 PCOD9184887
Probable space group: C 2/M
;
_chemical_formula_sum "Si O2"
_cell_formula_units_Z 48
_cell_length_a 23.038210
_cell_length_b 8.700089
_cell_length_c 29.516054
_cell_angle_alpha 90.000000
_cell_angle_beta 151.545986
_cell_angle_gamma 90.000000
_cell_volume 2818.714105
_symmetry_space_group_name_H-M "C 2/M"
_symmetry_group_IT_number 12
_symmetry_cell_setting 'monoclinic'
loop_
_space_group_symop_operation_xyz
x,y,z
-x,y,-z
-x,-y,-z
x,-y,z
1/2+x,1/2+y,z
1/2-x,1/2+y,-z
1/2-x,1/2-y,-z
1/2+x,1/2-y,z
loop_
_atom_site_type_symbol
_atom_site_label
_atom_site_fract_x
_atom_site_fract_y
_atom_site_fract_z
Si Si1 0.041342 0.185201 0.275209
Si Si2 0.463364 0.684349 0.324485
Si Si3 0.385165 0.183239 0.086391
Si Si4 0.532657 0.315932 0.952636
Si Si5 0.795326 0.316625 0.483142
Si Si6 0.184529 0.685313 0.139134
O O1 0.185736 0.223974 0.373769
O O2 0.991348 0.226338 0.291129
O O3 0.966059 0.268356 0.184874
O O4 0.028576 0.000000 0.261553
O O5 0.473319 0.500000 0.333658
O O6 0.568385 0.754250 0.428234
O O7 0.325611 0.728434 0.241660
O O8 0.441456 0.255289 0.079594
O O9 0.379449 0.000000 0.078286
O O10 0.250000 0.250000 0.000000
O O11 0.536251 0.500000 0.956745
O O12 0.404158 0.255587 0.883938
O O13 0.633370 0.247722 0.056262
O O14 0.798517 0.500000 0.488260
O O15 0.750000 0.250000 0.500000
O O16 0.174433 0.500000 0.132370
#
# Coordination Sequence:
#
# PCOD9184887 Si02
#       6
#     8   8   8   8   8   8
#     4   9  18  33  50  74 106 138 168 204 251 302
#     4   9  18  31  51  77 105 134 167 206 250 298
#     4  12  24  37  54  76 102 135 170 208 253 305
#     4  11  22  36  53  75 103 136 172 211 252 301
#     4   9  17  29  48  72 102 134 166 206 251 296
#     4  10  19  34  55  78 105 136 169 211 254 297
#
# _framework density 17.029042
#
# number of rings (size 3 to 8) (size 9 to 14) (size 15 to 20)
#    0.000    2.000    0.000    7.000    0.000    6.000 
#    0.000    0.000    0.000    1.000    0.000    7.000 
#    0.000    0.000    0.000    0.000    0.000    0.000 
#
# Total GULP energy -133917.873118 kJ/mol
# GULP energy per Si atom -5579.911380 kJ/mol
# Density = 1.699028 g / cm^3
# Si number density = 17.029042 Si / 1000 Ang^3
#
#
#
# Elastic Constant Matrix: (Units=GPa)
#
#
# Indices 1 2 3 4 5 6 
#
# 1 55.9355 30.3534 56.1478 0.0000 2.6810 0.0000
# 2 30.3534 82.3252 57.0262 0.0000 5.8794 -0.0001
# 3 56.1478 57.0262 164.1343 -0.0001 23.5057 0.0000
# 4 0.0000 0.0000 -0.0001 34.4315 0.0000 0.8408
# 5 2.6810 5.8794 23.5057 0.0000 25.2999 0.0000
# 6 0.0000 -0.0001 0.0000 0.8408 0.0000 25.4218
#
#
#
# Elastic Compliance Matrix: (Units=1/GPa)
#
#
# Indices 1 2 3 4 5 6 
#
# 1 0.029657 -0.004899 -0.009408 0.000000 0.006736 0.000000
# 2 -0.004899 0.016867 -0.004265 0.000000 0.000562 0.000000
# 3 -0.009408 -0.004265 0.012121 0.000000 -0.009273 0.000000
# 4 0.000000 0.000000 0.000000 0.029067 0.000000 -0.000961
# 5 0.006736 0.000562 -0.009273 0.000000 0.047297 0.000000
# 6 0.000000 0.000000 0.000000 -0.000961 0.000000 0.039368
#
#
# Mechanical properties :
#
#
# Convention : Reuss Voigt Hill
#
# Bulk Modulus (GPa) = 46.50840 65.49442 56.00141
# Shear Modulus (GPa) = 22.86377 27.62181 25.24279
#
# Velocity S-wave (km/s) = 3.66817 4.03183 3.85429
# Velocity P-wave (km/s) = 6.73136 7.76003 7.26393
#
# Compressibility (1/GPa) = 0.02150149
#
# Stress axis : x y z
#
# Youngs Moduli (GPa) = 33.71922 59.28617 82.50390
#
# Poissons Ratio (x) = 0.29043 0.77618
# Poissons Ratio (y) = 0.16518 0.35188
# Poissons Ratio (z) = 0.31722 0.25286
#
# Static dielectric constant tensor:
#      x y z
#    x 1.551260 0.000000 0.018550 
#    y 0.000000 1.570100 0.000000 
#    z 0.018550 0.000000 1.590580 
# 
# From -- ./inp_files/365552.got.cif
#   From: 2010.05.17/outbox.cif.g08.bks.cpg/sg12_183_cif.got.tgz:365552.got - 2010.06.03 13:09:07.
