data_PCOD9184379
_publ_section_title
;
Structure prediction by ZEFSAII (Michael W. Deem and Ramdas Pophale) SiO2 
 PCOD9184379
Probable space group: C 2/M
;
_chemical_formula_sum "Si O2"
_cell_formula_units_Z 44
_cell_length_a 12.013169
_cell_length_b 20.147032
_cell_length_c 6.622066
_cell_angle_alpha 90.000000
_cell_angle_beta 90.330672
_cell_angle_gamma 90.000000
_cell_volume 1602.709957
_symmetry_space_group_name_H-M "C 2/M"
_symmetry_group_IT_number 12
_symmetry_cell_setting 'monoclinic'
loop_
_space_group_symop_operation_xyz
x,y,z
-x,y,-z
-x,-y,-z
x,-y,z
1/2+x,1/2+y,z
1/2-x,1/2+y,-z
1/2-x,1/2-y,-z
1/2+x,1/2-y,z
loop_
_atom_site_type_symbol
_atom_site_label
_atom_site_fract_x
_atom_site_fract_y
_atom_site_fract_z
Si Si1 0.086518 0.109144 0.840508
Si Si2 0.137560 0.000000 0.495172
Si Si3 0.171685 0.642234 0.158834
Si Si4 0.444860 0.733923 0.706626
Si Si5 0.036399 0.426344 0.737555
Si Si6 0.747848 0.132088 0.628356
O O1 0.091674 0.057871 0.655705
O O2 0.208971 0.123478 0.931980
O O3 0.036258 0.180634 0.779588
O O4 0.000000 0.081311 0.000000
O O5 0.195140 0.059904 0.365509
O O6 0.102257 0.710280 0.143320
O O7 0.078461 0.585816 0.147404
O O8 0.208388 0.643255 0.397026
O O9 0.500000 0.761893 0.500000
O O10 0.335676 0.689498 0.666253
O O11 0.078724 0.500000 0.773009
O O12 0.000000 0.424720 0.500000
O O13 0.134307 0.372043 0.757986
#
# Coordination Sequence:
#
# PCOD9184379 Si02
#       6
#     8   4   8   8   8   8
#     4  11  26  42  59  84 119 164 207 239 289 358
#     4  10  19  39  61  86 118 155 191 247 295 346
#     4  10  22  34  61  85 122 152 197 243 296 349
#     4  12  22  37  62  90 120 152 190 253 305 349
#     4   9  17  30  54  87 122 144 185 240 299 343
#     4  10  19  33  59  94 119 145 190 247 306 347
#
# _framework density 27.453500999999999
#
# number of rings (size 3 to 8) (size 9 to 14) (size 15 to 20)
#    0.000    1.636    4.545    2.455   10.182    2.182 
#    0.000    0.000    0.000    0.000    0.000    1.273 
#    0.000    0.000    0.000    0.000    0.000    0.000 
#
# Total GULP energy -122767.444664 kJ/mol
# GULP energy per Si atom -5580.338394 kJ/mol
# Density = 2.739102 g / cm^3
# Si number density = 27.453501 Si / 1000 Ang^3
#
#
#
# Elastic Constant Matrix: (Units=GPa)
#
#
# Indices 1 2 3 4 5 6 
#
# 1 220.3473 57.4728 48.7779 0.0000 -26.8432 0.0000
# 2 57.4728 166.6533 18.7216 0.0000 -11.8500 0.0000
# 3 48.7779 18.7216 84.0326 0.0000 -38.9934 0.0000
# 4 0.0000 0.0000 0.0000 51.9824 0.0000 5.5184
# 5 -26.8432 -11.8500 -38.9934 0.0000 71.9068 0.0000
# 6 0.0000 0.0000 0.0000 5.5184 0.0000 99.2159
#
#
#
# Elastic Compliance Matrix: (Units=1/GPa)
#
#
# Indices 1 2 3 4 5 6 
#
# 1 0.005603 -0.001601 -0.002736 0.000000 0.000344 0.000000
# 2 -0.001601 0.006619 -0.000423 0.000000 0.000264 0.000000
# 3 -0.002736 -0.000423 0.017473 0.000000 0.008384 0.000000
# 4 0.000000 0.000000 0.000000 0.019352 0.000000 -0.001076
# 5 0.000344 0.000264 0.008384 0.000000 0.018625 0.000000
# 6 0.000000 0.000000 0.000000 -0.001076 0.000000 0.010139
#
#
# Mechanical properties :
#
#
# Convention : Reuss Voigt Hill
#
# Bulk Modulus (GPa) = 49.56522 80.10867 64.83695
# Shear Modulus (GPa) = 53.15973 67.69174 60.42573
#
# Velocity S-wave (km/s) = 4.40518 4.97096 4.69659
# Velocity P-wave (km/s) = 6.63080 7.88608 7.28553
#
# Compressibility (1/GPa) = 0.02017544
#
# Stress axis : x y z
#
# Youngs Moduli (GPa) = 178.46248 151.08604 57.23062
#
# Poissons Ratio (x) = 0.24182 0.15660
# Poissons Ratio (y) = 0.28564 0.02422
# Poissons Ratio (z) = 0.48832 0.06393
#
# Static dielectric constant tensor:
#      x y z
#    x 2.161790 0.000000 0.060920 
#    y 0.000000 2.006330 0.000000 
#    z 0.060920 0.000000 2.421560 
# 
# From -- ./inp_files/49309.got.cif
#   From: 2010.05.17/outbox.cif.g08.bks.cpg/sg12_25_cif.got.tgz:49309.got - 2010.06.03 13:09:07.
