data_PCOD9184069
_publ_section_title
;
Structure prediction by ZEFSAII (Michael W. Deem and Ramdas Pophale) SiO2 
 PCOD9184069
Probable space group: C 2/M
;
_chemical_formula_sum "Si O2"
_cell_formula_units_Z 40
_cell_length_a 12.300109
_cell_length_b 14.983496
_cell_length_c 23.044220
_cell_angle_alpha 90.000000
_cell_angle_beta 26.175205
_cell_angle_gamma 90.000000
_cell_volume 1873.434161
_symmetry_space_group_name_H-M "C 2/M"
_symmetry_group_IT_number 12
_symmetry_cell_setting 'monoclinic'
loop_
_space_group_symop_operation_xyz
x,y,z
-x,y,-z
-x,-y,-z
x,-y,z
1/2+x,1/2+y,z
1/2-x,1/2+y,-z
1/2-x,1/2-y,-z
1/2+x,1/2-y,z
loop_
_atom_site_type_symbol
_atom_site_label
_atom_site_fract_x
_atom_site_fract_y
_atom_site_fract_z
Si Si1 0.130430 0.334771 0.690184
Si Si2 0.648777 0.656838 0.217538
Si Si3 0.160066 0.898076 0.973453
Si Si4 0.910554 0.166990 0.447225
Si Si5 0.190208 0.396419 0.979760
O O1 0.346883 0.306675 0.631235
O O2 0.246348 0.378373 0.576424
O O3 0.977937 0.249638 0.740013
O O4 0.938925 0.394502 0.817123
O O5 0.505706 0.620429 0.342752
O O6 0.937732 0.658496 0.095677
O O7 0.659539 0.604452 0.151774
O O8 0.155193 0.860121 0.040197
O O9 0.070733 0.000000 0.022039
O O10 0.000000 0.853647 0.000000
O O11 0.750000 0.250000 0.500000
O O12 0.119933 0.500000 0.025115
#
# Coordination Sequence:
#
# PCOD9184069 Si02
#       5
#     8   8   8   8   8
#     4  10  20  35  57  83 115 149 196 232 282 343
#     4  10  19  33  57  83 112 146 187 231 290 333
#     4  10  22  39  57  81 119 154 188 240 286 335
#     4   9  19  36  54  82 118 149 185 237 285 331
#     4  10  21  37  55  84 118 148 191 232 285 343
#
# _framework density 21.351164000000001
#
# number of rings (size 3 to 8) (size 9 to 14) (size 15 to 20)
#    0.000    2.200    2.000    1.200    2.800    4.000 
#    0.000    4.000    0.000    0.000    0.000   51.800 
#    0.000    0.000    0.000    0.000    0.000    0.000 
#
# Total GULP energy -111342.829639 kJ/mol
# GULP energy per Si atom -5567.141482 kJ/mol
# Density = 2.130257 g / cm^3
# Si number density = 21.351164 Si / 1000 Ang^3
#
#
#
# Elastic Constant Matrix: (Units=GPa)
#
#
# Indices 1 2 3 4 5 6 
#
# 1 183.7374 15.1435 56.2888 0.0128 26.0605 -0.0075
# 2 15.1435 40.5332 2.9910 0.0046 -4.5124 -0.0073
# 3 56.2888 2.9910 106.9889 0.0467 33.1113 -0.0386
# 4 0.0128 0.0046 0.0467 0.9637 -0.0135 6.7241
# 5 26.0605 -4.5124 33.1113 -0.0135 48.8492 0.0082
# 6 -0.0075 -0.0073 -0.0386 6.7241 0.0082 13.2836
#
#
#
# Elastic Compliance Matrix: (Units=1/GPa)
#
#
# Indices 1 2 3 4 5 6 
#
# 1 0.006818 -0.002540 -0.002933 -0.000028 -0.001884 0.000009
# 2 -0.002540 0.026146 -0.000710 0.000022 0.004252 -0.000003
# 3 -0.002933 -0.000710 0.013218 0.000390 -0.007461 -0.000157
# 4 -0.000028 0.000022 0.000390 -0.409824 -0.000396 0.207452
# 5 -0.001884 0.004252 -0.007461 -0.000396 0.026926 0.000163
# 6 0.000009 -0.000003 -0.000157 0.207452 0.000163 -0.029731
#
#
# Mechanical properties :
#
#
# Convention : Reuss Voigt Hill
#
# Bulk Modulus (GPa) = 29.57277 53.34511 41.45894
# Shear Modulus (GPa) = -14.58538 29.74171 7.57816
#
# Velocity S-wave (km/s) = -2.61649 3.73631 1.88600
# Velocity P-wave (km/s) = 2.18007 6.60698 4.91960
#
# Compressibility (1/GPa) = 0.03381489
#
# Stress axis : x y z
#
# Youngs Moduli (GPa) = 146.67899 38.24673 75.65252
#
# Poissons Ratio (x) = 0.09716 0.22187
# Poissons Ratio (y) = 0.37262 0.05374
# Poissons Ratio (z) = 0.43018 0.02717
#
# Static dielectric constant tensor:
#      x y z
#    x 1.820110 0.000000 0.026860 
#    y 0.000000 1.775460 0.000010 
#    z 0.026860 0.000010 1.804540 
# 
# From -- ./inp_files/129817.got.cif
#   From: 2010.05.17/outbox.cif.g08.bks.cpg/sg12_65_cif.got.tgz:129817.got - 2010.06.03 13:09:07.
