data_PCOD9184730
_publ_section_title
;
Structure prediction by ZEFSAII (Michael W. Deem and Ramdas Pophale) SiO2 
 PCOD9184730
Probable space group: C 2/M
;
_chemical_formula_sum "Si O2"
_cell_formula_units_Z 48
_cell_length_a 22.788907
_cell_length_b 16.923441
_cell_length_c 13.210859
_cell_angle_alpha 90.000000
_cell_angle_beta 23.068192
_cell_angle_gamma 90.000000
_cell_volume 1996.351148
_symmetry_space_group_name_H-M "C 2/M"
_symmetry_group_IT_number 12
_symmetry_cell_setting 'monoclinic'
loop_
_space_group_symop_operation_xyz
x,y,z
-x,y,-z
-x,-y,-z
x,-y,z
1/2+x,1/2+y,z
1/2-x,1/2+y,-z
1/2-x,1/2-y,-z
1/2+x,1/2-y,z
loop_
_atom_site_type_symbol
_atom_site_label
_atom_site_fract_x
_atom_site_fract_y
_atom_site_fract_z
Si Si1 0.804871 0.086571 0.644424
Si Si2 0.165487 0.902746 0.781165
Si Si3 0.929234 0.180203 0.721080
Si Si4 0.114711 0.410537 0.403470
Si Si5 0.375286 0.840122 0.900417
Si Si6 0.635088 0.091177 0.716717
O O1 0.769785 0.087811 0.582970
O O2 0.975240 0.107367 0.393085
O O3 0.770444 0.000000 0.740561
O O4 0.701328 0.146888 0.870489
O O5 0.232044 0.878005 0.786986
O O6 0.289298 0.873367 0.502663
O O7 0.168029 0.000000 0.777936
O O8 0.000000 0.880803 0.000000
O O9 0.942638 0.253667 0.774890
O O10 0.000000 0.202653 0.500000
O O11 0.759970 0.156769 0.966551
O O12 0.147241 0.500000 0.319528
O O13 0.000000 0.375899 0.500000
O O14 0.997609 0.405569 0.682522
O O15 0.588422 0.000000 0.767629
O O16 0.500000 0.125696 0.000000
#
# Coordination Sequence:
#
# PCOD9184730 Si02
#       6
#     8   8   8   8   8   8
#     4  10  20  34  57  87 113 146 200 258 299 345
#     4   9  18  33  51  76 116 161 198 239 302 372
#     4   9  20  35  52  77 112 157 198 237 301 377
#     4  10  20  32  52  83 114 149 199 254 297 344
#     4  10  19  34  54  77 113 155 193 239 304 370
#     4   9  17  31  54  82 111 147 195 247 301 363
#
# _framework density 24.043866999999999
#
# number of rings (size 3 to 8) (size 9 to 14) (size 15 to 20)
#    0.000    2.500    0.000    2.000    0.000    7.667 
#    0.000    3.333    0.000    5.000    0.000    0.000 
#    0.000    0.000    0.000    0.000    0.000    0.000 
#
# Total GULP energy -133736.051618 kJ/mol
# GULP energy per Si atom -5572.335484 kJ/mol
# Density = 2.398914 g / cm^3
# Si number density = 24.043867 Si / 1000 Ang^3
#
#
#
# Elastic Constant Matrix: (Units=GPa)
#
#
# Indices 1 2 3 4 5 6 
#
# 1 133.1262 21.8439 41.5571 0.0004 -30.1535 -0.0003
# 2 21.8439 36.0026 4.0938 0.0021 -6.4872 -0.0013
# 3 41.5571 4.0938 95.8101 0.0028 -6.0139 -0.0023
# 4 0.0004 0.0021 0.0028 -2.0072 -0.0006 23.2227
# 5 -30.1535 -6.4872 -6.0139 -0.0006 33.6170 0.0003
# 6 -0.0003 -0.0013 -0.0023 23.2227 0.0003 -3.5899
#
#
#
# Elastic Compliance Matrix: (Units=1/GPa)
#
#
# Indices 1 2 3 4 5 6 
#
# 1 0.011646 -0.005008 -0.004291 -0.000001 0.008712 0.000001
# 2 -0.005008 0.031006 0.000952 0.000001 0.001661 -0.000003
# 3 -0.004291 0.000952 0.012164 0.000001 -0.001489 -0.000001
# 4 -0.000001 0.000001 0.000001 0.006747 0.000000 0.043644
# 5 0.008712 0.001661 -0.001489 0.000000 0.037616 0.000001
# 6 0.000001 -0.000003 -0.000001 0.043644 0.000001 0.003772
#
#
# Mechanical properties :
#
#
# Convention : Reuss Voigt Hill
#
# Bulk Modulus (GPa) = 26.23184 44.43651 35.33418
# Shear Modulus (GPa) = 37.77793 18.76693 28.27243
#
# Velocity S-wave (km/s) = 3.96815 2.79683 3.43281
# Velocity P-wave (km/s) = 5.65054 5.38063 5.51724
#
# Compressibility (1/GPa) = 0.03812161
#
# Stress axis : x y z
#
# Youngs Moduli (GPa) = 85.86493 32.25226 82.20829
#
# Poissons Ratio (x) = 0.16153 0.35272
# Poissons Ratio (y) = 0.43005 -0.07825
# Poissons Ratio (z) = 0.36841 -0.03070
#
# Static dielectric constant tensor:
#      x y z
#    x 2.017250 0.000000 -0.015550 
#    y 0.000000 1.868120 0.000000 
#    z -0.015550 0.000000 1.964780 
# 
# From -- ./inp_files/241826.got.cif
#   From: 2010.05.17/outbox.cif.g08.bks.cpg/sg12_121_cif.got.tgz:241826.got - 2010.06.03 13:09:07.
