data_PCOD9184825
_publ_section_title
;
Structure prediction by ZEFSAII (Michael W. Deem and Ramdas Pophale) SiO2 
 PCOD9184825
Probable space group: C 2/M
;
_chemical_formula_sum "Si O2"
_cell_formula_units_Z 44
_cell_length_a 19.358534
_cell_length_b 7.630931
_cell_length_c 14.465871
_cell_angle_alpha 90.000000
_cell_angle_beta 60.408027
_cell_angle_gamma 90.000000
_cell_volume 1858.215987
_symmetry_space_group_name_H-M "C 2/M"
_symmetry_group_IT_number 12
_symmetry_cell_setting 'monoclinic'
loop_
_space_group_symop_operation_xyz
x,y,z
-x,y,-z
-x,-y,-z
x,-y,z
1/2+x,1/2+y,z
1/2-x,1/2+y,-z
1/2-x,1/2-y,-z
1/2+x,1/2-y,z
loop_
_atom_site_type_symbol
_atom_site_label
_atom_site_fract_x
_atom_site_fract_y
_atom_site_fract_z
Si Si1 0.435866 0.712764 0.355615
Si Si2 0.908255 0.785805 0.044711
Si Si3 0.500000 0.753932 0.500000
Si Si4 0.166005 0.804227 0.297684
Si Si5 0.104347 0.211337 0.150959
Si Si6 0.681856 0.703596 0.714664
O O1 0.432172 0.500000 0.380971
O O2 0.454275 0.814149 0.437629
O O3 0.511510 0.738631 0.237877
O O4 0.357845 0.773239 0.352280
O O5 0.857605 0.724266 0.165471
O O6 0.904958 0.000000 0.044225
O O7 0.879681 0.724160 0.962763
O O8 0.000000 0.738497 0.000000
O O9 0.422774 0.681057 0.604240
O O10 0.156531 0.719389 0.202381
O O11 0.224728 0.715510 0.330878
O O12 0.197527 0.000000 0.266078
O O13 0.114745 0.000000 0.145294
O O14 0.658306 0.500000 0.727644
#
# Coordination Sequence:
#
# PCOD9184825 Si02
#       6
#     8   8   4   8   8   8
#     4   9  15  27  48  74  97 121 161 208 240 274
#     4   9  14  25  47  75 100 125 159 200 239 277
#     4  10  19  34  55  72  91 128 173 206 237 282
#     4  10  20  34  51  72  98 129 165 202 239 286
#     4   8  14  26  47  72  96 126 166 201 229 274
#     4  10  20  31  49  78 105 123 154 204 249 285
#
# _framework density 23.678623000000002
#
# number of rings (size 3 to 8) (size 9 to 14) (size 15 to 20)
#    0.000    2.727    1.818    2.727    0.000    1.455 
#    0.000    0.455    0.000    4.909    0.000    0.000 
#    0.000    0.000    0.000    0.000    0.000    0.000 
#
# Total GULP energy -122510.847654 kJ/mol
# GULP energy per Si atom -5568.674893 kJ/mol
# Density = 2.362473 g / cm^3
# Si number density = 23.678623 Si / 1000 Ang^3
#
#
#
# Elastic Constant Matrix: (Units=GPa)
#
#
# Indices 1 2 3 4 5 6 
#
# 1 201.3638 18.2159 63.4409 0.0000 45.9709 0.0000
# 2 18.2159 52.2732 15.4373 0.0000 10.0624 0.0000
# 3 63.4409 15.4373 86.1028 0.0000 32.1550 0.0000
# 4 0.0000 0.0000 0.0000 -22.9331 0.0000 11.8520
# 5 45.9709 10.0624 32.1550 0.0000 50.6998 0.0000
# 6 0.0000 0.0000 0.0000 11.8520 0.0000 -28.0824
#
#
#
# Elastic Compliance Matrix: (Units=1/GPa)
#
#
# Indices 1 2 3 4 5 6 
#
# 1 0.007072 -0.000630 -0.003603 0.000000 -0.004002 0.000000
# 2 -0.000630 0.020453 -0.002490 0.000000 -0.001909 0.000000
# 3 -0.003603 -0.002490 0.017442 0.000000 -0.007301 0.000000
# 4 0.000000 0.000000 0.000000 -0.055769 0.000000 -0.023537
# 5 -0.004002 -0.001909 -0.007301 0.000000 0.028362 0.000000
# 6 0.000000 0.000000 0.000000 -0.023537 0.000000 -0.045543
#
#
# Mechanical properties :
#
#
# Convention : Reuss Voigt Hill
#
# Bulk Modulus (GPa) = 31.72561 59.32533 45.52547
# Shear Modulus (GPa) = -1240.16994 16.11323 -612.02836
#
# Velocity S-wave (km/s) = -22.91043 2.61146 -16.09454
# Velocity P-wave (km/s) = 26.19968 5.84823 18.05853
#
# Compressibility (1/GPa) = 0.03152028
#
# Stress axis : x y z
#
# Youngs Moduli (GPa) = 141.40280 48.89370 57.33398
#
# Poissons Ratio (x) = 0.03080 0.20658
# Poissons Ratio (y) = 0.08907 0.14276
# Poissons Ratio (z) = 0.50949 0.12174
#
# Static dielectric constant tensor:
#      x y z
#    x 1.913090 0.000000 0.040120 
#    y 0.000000 1.947040 0.000000 
#    z 0.040120 0.000000 1.867630 
# 
# From -- ./inp_files/222339.got.cif
#   From: 2010.05.17/outbox.cif.g08.bks.cpg/sg12_112_cif.got.tgz:222339.got - 2010.06.03 13:09:07.
