data_PCOD9184541
_publ_section_title
;
Structure prediction by ZEFSAII (Michael W. Deem and Ramdas Pophale) SiO2 
 PCOD9184541
Probable space group: C 2/M
;
_chemical_formula_sum "Si O2"
_cell_formula_units_Z 40
_cell_length_a 27.837770
_cell_length_b 8.055104
_cell_length_c 8.762803
_cell_angle_alpha 90.000000
_cell_angle_beta 67.769419
_cell_angle_gamma 90.000000
_cell_volume 1818.880895
_symmetry_space_group_name_H-M "C 2/M"
_symmetry_group_IT_number 12
_symmetry_cell_setting 'monoclinic'
loop_
_space_group_symop_operation_xyz
x,y,z
-x,y,-z
-x,-y,-z
x,-y,z
1/2+x,1/2+y,z
1/2-x,1/2+y,-z
1/2-x,1/2-y,-z
1/2+x,1/2-y,z
loop_
_atom_site_type_symbol
_atom_site_label
_atom_site_fract_x
_atom_site_fract_y
_atom_site_fract_z
Si Si1 0.048894 0.185273 0.825675
Si Si2 0.501041 0.000000 0.814632
Si Si3 0.439801 0.000000 0.620329
Si Si4 0.370244 0.690812 0.713926
Si Si5 0.647794 0.301673 0.901379
Si Si6 0.740788 0.799395 0.187903
O O1 0.030325 0.330536 0.738154
O O2 0.099490 0.249387 0.855624
O O3 0.058395 0.000000 0.751005
O O4 0.000000 0.166756 0.000000
O O5 0.446284 0.000000 0.797897
O O6 0.500000 0.000000 0.000000
O O7 0.500000 0.000000 0.500000
O O8 0.408633 0.165203 0.615867
O O9 0.387266 0.500000 0.673613
O O10 0.313918 0.717976 0.704402
O O11 0.362815 0.720709 0.905596
O O12 0.649753 0.500000 0.878786
O O13 0.706022 0.240571 0.795007
O O14 0.736298 0.000000 0.203152
O O15 0.750000 0.750000 0.000000
#
# Coordination Sequence:
#
# PCOD9184541 Si02
#       6
#     8   4   4   8   8   8
#     4   9  16  28  45  70 107 139 170 212 263 315
#     4  10  20  34  54  80 102 138 184 221 269 325
#     4  12  26  40  56  80 112 152 187 225 281 333
#     4  10  19  34  52  73 107 147 187 228 277 329
#     4   8  15  26  47  79 113 146 174 218 284 331
#     4   9  15  26  44  74 112 146 179 222 279 338
#
# _framework density 21.991544999999999
#
# number of rings (size 3 to 8) (size 9 to 14) (size 15 to 20)
#    0.000    2.600    1.000    4.200    0.000    2.800 
#    3.600    0.000    0.000    0.000    0.000    1.400 
#    0.000    0.000    0.000    0.000    0.000    0.000 
#
# Total GULP energy -111434.488832 kJ/mol
# GULP energy per Si atom -5571.724442 kJ/mol
# Density = 2.194149 g / cm^3
# Si number density = 21.991545 Si / 1000 Ang^3
#
#
#
# Elastic Constant Matrix: (Units=GPa)
#
#
# Indices 1 2 3 4 5 6 
#
# 1 125.7738 41.4376 24.7802 0.0000 -43.2802 0.0000
# 2 41.4376 156.6213 32.8005 0.0000 -27.6853 0.0000
# 3 24.7802 32.8005 53.5136 0.0000 -22.2793 0.0000
# 4 0.0000 0.0000 0.0000 -11.4466 0.0000 -8.7852
# 5 -43.2802 -27.6853 -22.2793 0.0000 33.3941 0.0000
# 6 0.0000 0.0000 0.0000 -8.7852 0.0000 28.3168
#
#
#
# Elastic Compliance Matrix: (Units=1/GPa)
#
#
# Indices 1 2 3 4 5 6 
#
# 1 0.014523 -0.000800 0.001835 0.000000 0.019383 0.000000
# 2 -0.000800 0.007835 -0.002990 0.000000 0.003464 0.000000
# 3 0.001835 -0.002990 0.027176 0.000000 0.018031 0.000000
# 4 0.000000 0.000000 0.000000 -0.070561 0.000000 -0.021891
# 5 0.019383 0.003464 0.018031 0.000000 0.069968 0.000000
# 6 0.000000 0.000000 0.000000 -0.021891 0.000000 0.028523
#
#
# Mechanical properties :
#
#
# Convention : Reuss Voigt Hill
#
# Bulk Modulus (GPa) = 21.91787 59.32724 40.62256
# Shear Modulus (GPa) = 51.76931 25.84556 38.80744
#
# Velocity S-wave (km/s) = 4.85712 3.43191 4.20533
# Velocity P-wave (km/s) = 6.43768 6.53757 6.48782
#
# Compressibility (1/GPa) = 0.04562487
#
# Stress axis : x y z
#
# Youngs Moduli (GPa) = 68.85696 127.63307 36.79656
#
# Poissons Ratio (x) = 0.10216 -0.06754
# Poissons Ratio (y) = 0.05512 0.11001
# Poissons Ratio (z) = -0.12638 0.38159
#
# Static dielectric constant tensor:
#      x y z
#    x 1.875680 0.000000 0.010200 
#    y 0.000000 1.780240 0.000000 
#    z 0.010200 0.000000 1.879900 
# 
# From -- ./inp_files/179422.got.cif
#   From: 2010.05.17/outbox.cif.g08.bks.cpg/sg12_90_cif.got.tgz:179422.got - 2010.06.03 13:09:07.
