data_PCOD9184180
_publ_section_title
;
Structure prediction by ZEFSAII (Michael W. Deem and Ramdas Pophale) SiO2 
 PCOD9184180
Probable space group: C 2/M
;
_chemical_formula_sum "Si O2"
_cell_formula_units_Z 64
_cell_length_a 10.796587
_cell_length_b 12.708192
_cell_length_c 23.425220
_cell_angle_alpha 90.000000
_cell_angle_beta 117.494533
_cell_angle_gamma 90.000000
_cell_volume 2851.047336
_symmetry_space_group_name_H-M "C 2/M"
_symmetry_group_IT_number 12
_symmetry_cell_setting 'monoclinic'
loop_
_space_group_symop_operation_xyz
x,y,z
-x,y,-z
-x,-y,-z
x,-y,z
1/2+x,1/2+y,z
1/2-x,1/2+y,-z
1/2-x,1/2-y,-z
1/2+x,1/2-y,z
loop_
_atom_site_type_symbol
_atom_site_label
_atom_site_fract_x
_atom_site_fract_y
_atom_site_fract_z
Si Si1 0.165973 0.258552 0.541482
Si Si2 0.613399 0.883029 0.365950
Si Si3 0.237795 0.620420 0.983816
Si Si4 0.178630 0.158612 0.120404
Si Si5 0.066536 0.879552 0.217210
Si Si6 0.983670 0.661061 0.218911
Si Si7 0.169430 0.376866 0.648982
Si Si8 0.411449 0.885465 0.882028
O O1 0.250000 0.250000 0.500000
O O2 0.238322 0.170365 0.595875
O O3 0.200000 0.358858 0.588826
O O4 0.000000 0.249301 0.500000
O O5 0.559169 0.881490 0.290150
O O6 0.483067 0.828207 0.370758
O O7 0.629096 0.000000 0.392376
O O8 0.267252 0.500000 0.017413
O O9 0.326773 0.615053 0.944125
O O10 0.070767 0.615464 0.938127
O O11 0.250000 0.750000 0.000000
O O12 0.075221 0.129197 0.150095
O O13 0.327858 0.121497 0.176462
O O14 0.167342 0.284770 0.110874
O O15 0.967222 0.787643 0.217897
O O16 0.211308 0.845738 0.280368
O O17 0.036231 0.000000 0.226291
O O18 0.072903 0.632194 0.182418
O O19 0.154525 0.500000 0.656862
O O20 0.349568 0.000000 0.880744
#
# Coordination Sequence:
#
# PCOD9184180 Si02
#       8
#     8   8   8   8   8   8   8   8
#     4  12  25  42  63  88 125 163 209 263 311 376
#     4  11  22  38  62  88 118 160 206 253 313 380
#     4  10  22  41  62  87 122 167 216 262 313 378
#     4  10  20  35  59  88 120 158 201 255 308 376
#     4  10  19  33  57  88 117 147 192 248 308 368
#     4  10  19  34  58  87 122 152 196 250 308 370
#     4  10  21  38  63  89 115 158 205 248 310 382
#     4   9  20  37  58  88 124 163 202 251 319 379
#
# _framework density 22.447890999999998
#
# number of rings (size 3 to 8) (size 9 to 14) (size 15 to 20)
#    0.000    1.750    3.750    0.750    0.000    3.500 
#    0.000    7.500    0.000    2.250    0.000    0.000 
#    0.000    0.000    0.000    0.000    0.000    0.000 
#
# Total GULP energy -178157.965325 kJ/mol
# GULP energy per Si atom -5567.436416 kJ/mol
# Density = 2.239680 g / cm^3
# Si number density = 22.447891 Si / 1000 Ang^3
#
#
#
# Elastic Constant Matrix: (Units=GPa)
#
#
# Indices 1 2 3 4 5 6 
#
# 1 45.8983 9.7729 20.7112 0.0000 -1.4760 0.0000
# 2 9.7729 133.5641 20.0596 0.0000 10.8376 0.0000
# 3 20.7112 20.0596 57.9145 0.0000 -11.5155 0.0000
# 4 0.0000 0.0000 0.0000 -4.9545 0.0000 -20.2319
# 5 -1.4760 10.8376 -11.5155 0.0000 33.0841 0.0000
# 6 0.0000 0.0000 0.0000 -20.2319 0.0000 -3.1535
#
#
#
# Elastic Compliance Matrix: (Units=1/GPa)
#
#
# Indices 1 2 3 4 5 6 
#
# 1 0.026144 -0.000290 -0.009667 0.000000 -0.002103 0.000000
# 2 -0.000290 0.008373 -0.003593 0.000000 -0.004006 0.000000
# 3 -0.009667 -0.003593 0.023761 0.000000 0.009016 0.000000
# 4 0.000000 0.000000 0.000000 0.008010 0.000000 -0.051388
# 5 -0.002103 -0.004006 0.009016 0.000000 0.034583 0.000000
# 6 0.000000 0.000000 0.000000 -0.051388 0.000000 0.012584
#
#
# Mechanical properties :
#
#
# Convention : Reuss Voigt Hill
#
# Bulk Modulus (GPa) = 32.07478 37.60713 34.84096
# Shear Modulus (GPa) = 33.12400 17.45074 25.28737
#
# Velocity S-wave (km/s) = 3.84552 2.79119 3.35997
# Velocity P-wave (km/s) = 5.83411 5.21317 5.53236
#
# Compressibility (1/GPa) = 0.03117714
#
# Stress axis : x y z
#
# Youngs Moduli (GPa) = 38.25012 119.43184 42.08547
#
# Poissons Ratio (x) = 0.03468 0.40684
# Poissons Ratio (y) = 0.01111 0.15121
# Poissons Ratio (z) = 0.36977 0.42910
#
# Static dielectric constant tensor:
#      x y z
#    x 1.877320 0.000000 0.000830 
#    y 0.000000 1.874300 0.000000 
#    z 0.000830 0.000000 1.856670 
# 
# From -- ./inp_files/335670.got.cif
#   From: 2010.05.17/outbox.cif.g08.bks.cpg/sg12_168_cif.got.tgz:335670.got - 2010.06.03 13:09:07.
