data_PCOD9184175
_publ_section_title
;
Structure prediction by ZEFSAII (Michael W. Deem and Ramdas Pophale) SiO2 
 PCOD9184175
Probable space group: C 2/M
;
_chemical_formula_sum "Si O2"
_cell_formula_units_Z 48
_cell_length_a 15.438628
_cell_length_b 20.656720
_cell_length_c 20.293827
_cell_angle_alpha 90.000000
_cell_angle_beta 157.408101
_cell_angle_gamma 90.000000
_cell_volume 2486.288800
_symmetry_space_group_name_H-M "C 2/M"
_symmetry_group_IT_number 12
_symmetry_cell_setting 'monoclinic'
loop_
_space_group_symop_operation_xyz
x,y,z
-x,y,-z
-x,-y,-z
x,-y,z
1/2+x,1/2+y,z
1/2-x,1/2+y,-z
1/2-x,1/2-y,-z
1/2+x,1/2-y,z
loop_
_atom_site_type_symbol
_atom_site_label
_atom_site_fract_x
_atom_site_fract_y
_atom_site_fract_z
Si Si1 0.356009 0.730120 0.834594
Si Si2 0.743558 0.425545 0.791546
Si Si3 0.334567 0.258942 0.485280
Si Si4 0.908486 0.652736 0.786537
Si Si5 0.748022 0.129406 0.659753
Si Si6 0.155936 0.075499 0.872037
O O1 0.472540 0.780226 0.867079
O O2 0.337943 0.659550 0.790711
O O3 0.105565 0.758014 0.671372
O O4 0.500000 0.729337 0.000000
O O5 0.677125 0.500000 0.732102
O O6 0.753103 0.386854 0.729789
O O7 0.618763 0.400314 0.769987
O O8 0.000000 0.424336 0.000000
O O9 0.250000 0.250000 0.500000
O O10 0.222878 0.321476 0.370418
O O11 0.275089 0.194114 0.401801
O O12 0.139893 0.611991 0.947089
O O13 0.500000 0.102353 0.500000
O O14 0.926995 0.083977 0.751111
O O15 0.218449 0.000000 0.910114
#
# Coordination Sequence:
#
# PCOD9184175 Si02
#       6
#     8   8   8   8   8   8
#     4  10  21  36  58  86 116 152 194 236 305 362
#     4   8  15  29  51  83 117 152 193 237 285 348
#     4  10  23  36  56  89 123 155 192 242 300 359
#     4  10  19  33  57  87 123 148 188 239 299 358
#     4   9  21  39  54  84 120 152 200 249 294 351
#     4  10  20  34  61  92 116 159 208 240 289 356
#
# _framework density 19.305883000000001
#
# number of rings (size 3 to 8) (size 9 to 14) (size 15 to 20)
#    0.000    2.500    0.000    4.500    7.000    1.667 
#    0.000    0.000    0.000   10.500    0.000    0.000 
#    0.000    0.000    0.000    0.000    0.000    0.000 
#
# Total GULP energy -133756.115465 kJ/mol
# GULP energy per Si atom -5573.171478 kJ/mol
# Density = 1.926194 g / cm^3
# Si number density = 19.305883 Si / 1000 Ang^3
#
#
#
# Elastic Constant Matrix: (Units=GPa)
#
#
# Indices 1 2 3 4 5 6 
#
# 1 115.6092 28.4216 52.4791 0.0012 -0.5912 0.0012
# 2 28.4216 43.0693 29.5607 -0.0503 -0.7693 -0.0135
# 3 52.4791 29.5607 76.5561 -0.0073 -6.9001 -0.0159
# 4 0.0012 -0.0503 -0.0073 22.3376 -0.0092 5.8903
# 5 -0.5912 -0.7693 -6.9001 -0.0092 38.6260 0.0032
# 6 0.0012 -0.0135 -0.0159 5.8903 0.0032 29.8789
#
#
#
# Elastic Compliance Matrix: (Units=1/GPa)
#
#
# Indices 1 2 3 4 5 6 
#
# 1 0.012957 -0.003264 -0.007734 -0.000010 -0.001248 -0.000004
# 2 -0.003264 0.032508 -0.010429 0.000071 -0.001265 -0.000005
# 3 -0.007734 -0.010429 0.022727 -0.000017 0.003734 0.000011
# 4 -0.000010 0.000071 -0.000017 0.047223 0.000010 -0.009309
# 5 -0.001248 -0.001265 0.003734 0.000010 0.026512 -0.000003
# 6 -0.000004 -0.000005 0.000011 -0.009309 -0.000003 0.035304
#
#
# Mechanical properties :
#
#
# Convention : Reuss Voigt Hill
#
# Bulk Modulus (GPa) = 39.46633 50.68415 45.07524
# Shear Modulus (GPa) = 21.87904 26.48671 24.18288
#
# Velocity S-wave (km/s) = 3.37008 3.70800 3.54307
# Velocity P-wave (km/s) = 5.96911 6.68151 6.33533
#
# Compressibility (1/GPa) = 0.02533805
#
# Stress axis : x y z
#
# Youngs Moduli (GPa) = 77.18075 30.76193 44.00014
#
# Poissons Ratio (x) = 0.10042 0.34029
# Poissons Ratio (y) = 0.25194 0.45886
# Poissons Ratio (z) = 0.59690 0.32080
#
# Static dielectric constant tensor:
#      x y z
#    x 1.723310 -0.000010 0.003240 
#    y -0.000010 1.691060 -0.000020 
#    z 0.003240 -0.000020 1.698230 
# 
# From -- ./inp_files/312491.got.cif
#   From: 2010.05.17/outbox.cif.g08.bks.cpg/sg12_157_cif.got.tgz:312491.got - 2010.06.03 13:09:07.
