data_PCOD9184629
_publ_section_title
;
Structure prediction by ZEFSAII (Michael W. Deem and Ramdas Pophale) SiO2 
 PCOD9184629
Probable space group: C 2/M
;
_chemical_formula_sum "Si O2"
_cell_formula_units_Z 64
_cell_length_a 14.947012
_cell_length_b 23.536273
_cell_length_c 12.244571
_cell_angle_alpha 90.000000
_cell_angle_beta 138.438380
_cell_angle_gamma 90.000000
_cell_volume 2857.772010
_symmetry_space_group_name_H-M "C 2/M"
_symmetry_group_IT_number 12
_symmetry_cell_setting 'monoclinic'
loop_
_space_group_symop_operation_xyz
x,y,z
-x,y,-z
-x,-y,-z
x,-y,z
1/2+x,1/2+y,z
1/2-x,1/2+y,-z
1/2-x,1/2-y,-z
1/2+x,1/2-y,z
loop_
_atom_site_type_symbol
_atom_site_label
_atom_site_fract_x
_atom_site_fract_y
_atom_site_fract_z
Si Si1 0.024609 0.587597 0.785295
Si Si2 0.820879 0.438153 0.404698
Si Si3 0.426743 0.751331 0.818631
Si Si4 0.407937 0.434542 0.628039
Si Si5 0.712680 0.436564 0.855269
Si Si6 0.188302 0.314052 0.655296
Si Si7 0.947953 0.713538 0.271139
Si Si8 0.788682 0.627100 0.710265
O O1 0.937636 0.564507 0.604184
O O2 0.917717 0.590267 0.787555
O O3 0.062759 0.652276 0.793606
O O4 0.164366 0.560693 0.947725
O O5 0.826799 0.500000 0.355591
O O6 0.679235 0.432822 0.340429
O O7 0.836382 0.380960 0.349090
O O8 0.332015 0.697065 0.736200
O O9 0.524085 0.745998 0.803849
O O10 0.332204 0.807933 0.725766
O O11 0.500000 0.757349 0.000000
O O12 0.390518 0.500000 0.572329
O O13 0.567836 0.424023 0.777635
O O14 0.335714 0.391674 0.479038
O O15 0.701594 0.500000 0.793853
O O16 0.750995 0.389998 0.798743
O O17 0.171938 0.279555 0.752818
O O18 0.079016 0.291529 0.468929
#
# Coordination Sequence:
#
# PCOD9184629 Si02
#       8
#     8   8   8   8   8   8   8   8
#     4   9  18  33  55  82 116 157 199 250 311 359
#     4   9  18  37  62  86 115 156 204 252 306 372
#     4  11  23  41  63  92 127 161 204 263 315 364
#     4   9  19  34  52  82 122 161 203 251 303 369
#     4  11  20  31  50  84 125 160 202 254 305 366
#     4  10  21  41  66  93 121 163 208 256 312 366
#     4   9  20  41  64  88 126 158 204 260 299 370
#     4  10  19  34  53  76 115 163 207 250 301 368
#
# _framework density 22.395067999999998
#
# number of rings (size 3 to 8) (size 9 to 14) (size 15 to 20)
#    0.000    2.250    0.000    4.125    0.000    3.500 
#    9.000    5.625    0.000    1.875    0.000    0.000 
#    0.000    0.000    0.000    0.000    0.000    0.000 
#
# Total GULP energy -178667.666039 kJ/mol
# GULP energy per Si atom -5583.364564 kJ/mol
# Density = 2.234410 g / cm^3
# Si number density = 22.395068 Si / 1000 Ang^3
#
#
#
# Elastic Constant Matrix: (Units=GPa)
#
#
# Indices 1 2 3 4 5 6 
#
# 1 -69.0260 -68.2298 100.1756 0.0000 -45.4783 0.0000
# 2 -68.2298 18.9340 37.4355 0.0000 -13.9992 0.0000
# 3 100.1756 37.4355 46.4277 0.0000 39.3083 0.0000
# 4 0.0000 0.0000 0.0000 43.2891 0.0000 -24.6888
# 5 -45.4783 -13.9992 39.3083 0.0000 21.5796 0.0000
# 6 0.0000 0.0000 0.0000 -24.6888 0.0000 53.3199
#
#
#
# Elastic Compliance Matrix: (Units=1/GPa)
#
#
# Indices 1 2 3 4 5 6 
#
# 1 0.002555 -0.005499 0.004829 0.000000 -0.006979 0.000000
# 2 -0.005499 0.017816 0.004560 0.000000 -0.008338 0.000000
# 3 0.004829 0.004560 0.006786 0.000000 0.000776 0.000000
# 4 0.000000 0.000000 0.000000 0.031390 0.000000 0.014535
# 5 -0.006979 -0.008338 0.000776 0.000000 0.024810 0.000000
# 6 0.000000 0.000000 0.000000 0.014535 0.000000 0.025485
#
#
# Mechanical properties :
#
#
# Convention : Reuss Voigt Hill
#
# Bulk Modulus (GPa) = 28.62304 15.01091 21.81698
# Shear Modulus (GPa) = 44.36224 18.76801 31.56513
#
# Velocity S-wave (km/s) = 4.45555 2.89804 3.75836
# Velocity P-wave (km/s) = 6.26721 4.23267 5.34759
#
# Compressibility (1/GPa) = 0.03493689
#
# Stress axis : x y z
#
# Youngs Moduli (GPa) = 391.32062 56.12781 147.37302
#
# Poissons Ratio (x) = 0.30867 -0.71170
# Poissons Ratio (y) = 2.15207 -0.67202
# Poissons Ratio (z) = -1.88979 -0.25594
#
# Static dielectric constant tensor:
#      x y z
#    x 1.858600 0.000000 0.002280 
#    y 0.000000 1.859940 0.000000 
#    z 0.002280 0.000000 1.792200 
# 
# From -- ./inp_files/149803.got.cif
#   From: 2010.05.17/outbox.cif.g08.bks.cpg/sg12_75_cif.got.tgz:149803.got - 2010.06.03 13:09:07.
