data_PCOD9184106
_publ_section_title
;
Structure prediction by ZEFSAII (Michael W. Deem and Ramdas Pophale) SiO2 
 PCOD9184106
Probable space group: C 2/M
;
_chemical_formula_sum "Si O2"
_cell_formula_units_Z 48
_cell_length_a 20.015621
_cell_length_b 7.620320
_cell_length_c 20.490652
_cell_angle_alpha 90.000000
_cell_angle_beta 43.867041
_cell_angle_gamma 90.000000
_cell_volume 2165.824599
_symmetry_space_group_name_H-M "C 2/M"
_symmetry_group_IT_number 12
_symmetry_cell_setting 'monoclinic'
loop_
_space_group_symop_operation_xyz
x,y,z
-x,y,-z
-x,-y,-z
x,-y,z
1/2+x,1/2+y,z
1/2-x,1/2+y,-z
1/2-x,1/2-y,-z
1/2+x,1/2-y,z
loop_
_atom_site_type_symbol
_atom_site_label
_atom_site_fract_x
_atom_site_fract_y
_atom_site_fract_z
Si Si1 0.518324 0.202686 0.775091
Si Si2 0.690163 0.788569 0.107227
Si Si3 0.392081 0.209027 0.583250
Si Si4 0.754930 0.285679 0.790501
Si Si5 0.269247 0.208730 0.410602
Si Si6 0.045432 0.787730 0.899293
O O1 0.419844 0.280578 0.815786
O O2 0.624098 0.279908 0.684570
O O3 0.502394 0.210638 0.864053
O O4 0.522595 0.000000 0.750233
O O5 0.740895 0.727160 0.137802
O O6 0.684190 0.000000 0.114560
O O7 0.750000 0.750000 0.000000
O O8 0.500000 0.280819 0.500000
O O9 0.341968 0.276889 0.684335
O O10 0.317994 0.232018 0.575098
O O11 0.401359 0.000000 0.585405
O O12 0.754988 0.500000 0.791373
O O13 0.656640 0.234728 0.824605
O O14 0.250000 0.250000 0.500000
O O15 0.272655 0.000000 0.400203
O O16 0.037206 0.000000 0.900509
O O17 0.000000 0.734915 0.000000
#
# Coordination Sequence:
#
# PCOD9184106 Si02
#       6
#     8   8   8   8   8   8
#     4  10  22  38  58  84 117 152 188 238 293 347
#     4  10  21  38  58  83 116 153 195 237 284 341
#     4  10  21  38  64  90 114 152 197 241 296 359
#     4   9  18  34  56  82 112 146 186 234 281 337
#     4  11  24  41  62  89 121 155 196 247 300 357
#     4  10  19  33  57  85 111 145 190 235 281 340
#
# _framework density 22.162461
#
# number of rings (size 3 to 8) (size 9 to 14) (size 15 to 20)
#    0.000    2.000    1.667    1.500    2.333    3.333 
#    0.000    1.667    0.000    0.000    0.000    0.000 
#    0.000    0.000    0.000    0.000    0.000    0.000 
#
# Total GULP energy -134019.897570 kJ/mol
# GULP energy per Si atom -5584.162399 kJ/mol
# Density = 2.211202 g / cm^3
# Si number density = 22.162461 Si / 1000 Ang^3
#
#
#
# Elastic Constant Matrix: (Units=GPa)
#
#
# Indices 1 2 3 4 5 6 
#
# 1 71.8155 -11.9483 -5.1397 -0.0003 2.1745 0.0003
# 2 -11.9483 43.7823 -4.5004 -0.0007 -7.7932 0.0008
# 3 -5.1397 -4.5004 86.5894 -0.0004 -0.7003 0.0005
# 4 -0.0003 -0.0007 -0.0004 13.0876 0.0001 5.6119
# 5 2.1745 -7.7932 -0.7003 0.0001 42.9043 -0.0001
# 6 0.0003 0.0008 0.0005 5.6119 -0.0001 19.9698
#
#
#
# Elastic Compliance Matrix: (Units=1/GPa)
#
#
# Indices 1 2 3 4 5 6 
#
# 1 0.014688 0.004124 0.001086 0.000001 0.000022 -0.000001
# 2 0.004124 0.024900 0.001574 0.000002 0.004340 -0.000002
# 3 0.001086 0.001574 0.011698 0.000001 0.000422 -0.000001
# 4 0.000001 0.000002 0.000001 0.086877 0.000000 -0.024414
# 5 0.000022 0.004340 0.000422 0.000000 0.024102 0.000000
# 6 -0.000001 -0.000002 -0.000001 -0.024414 0.000000 0.056936
#
#
# Mechanical properties :
#
#
# Convention : Reuss Voigt Hill
#
# Bulk Modulus (GPa) = 15.41902 17.66781 16.54341
# Shear Modulus (GPa) = 22.00217 30.11072 26.05644
#
# Velocity S-wave (km/s) = 3.15424 3.68997 3.43257
# Velocity P-wave (km/s) = 4.49867 5.11309 4.81569
#
# Compressibility (1/GPa) = 0.06485498
#
# Stress axis : x y z
#
# Youngs Moduli (GPa) = 68.08381 40.16068 85.48133
#
# Poissons Ratio (x) = -0.16562 -0.09286
# Poissons Ratio (y) = -0.28078 -0.13455
# Poissons Ratio (z) = -0.07396 -0.06321
#
# Static dielectric constant tensor:
#      x y z
#    x 1.804530 0.000000 -0.012490 
#    y 0.000000 1.892110 0.000000 
#    z -0.012490 0.000000 1.873790 
# 
# From -- ./inp_files/230382.got.cif
#   From: 2010.05.17/outbox.cif.g08.bks.cpg/sg12_116_cif.got.tgz:230382.got - 2010.06.03 13:09:07.
