data_PCOD9184837
_publ_section_title
;
Structure prediction by ZEFSAII (Michael W. Deem and Ramdas Pophale) SiO2 
 PCOD9184837
Probable space group: C 2/M
;
_chemical_formula_sum "Si O2"
_cell_formula_units_Z 64
_cell_length_a 29.155635
_cell_length_b 8.839550
_cell_length_c 14.362644
_cell_angle_alpha 90.000000
_cell_angle_beta 104.496030
_cell_angle_gamma 90.000000
_cell_volume 3583.739470
_symmetry_space_group_name_H-M "C 2/M"
_symmetry_group_IT_number 12
_symmetry_cell_setting 'monoclinic'
loop_
_space_group_symop_operation_xyz
x,y,z
-x,y,-z
-x,-y,-z
x,-y,z
1/2+x,1/2+y,z
1/2-x,1/2+y,-z
1/2-x,1/2-y,-z
1/2+x,1/2-y,z
loop_
_atom_site_type_symbol
_atom_site_label
_atom_site_fract_x
_atom_site_fract_y
_atom_site_fract_z
Si Si1 0.556641 0.680669 0.832120
Si Si2 0.823640 0.182524 0.409096
Si Si3 0.266092 0.682264 0.106112
Si Si4 0.643853 0.681789 0.370484
Si Si5 0.279472 0.180608 0.724146
Si Si6 0.053384 0.818225 0.219608
Si Si7 0.860564 0.680314 0.242402
Si Si8 0.557490 0.827592 0.027242
O O1 0.560657 0.500000 0.825472
O O2 0.501324 0.724436 0.791260
O O3 0.590757 0.762513 0.777360
O O4 0.571015 0.731910 0.943655
O O5 0.838111 0.233624 0.519457
O O6 0.768916 0.216232 0.356848
O O7 0.854197 0.260512 0.344235
O O8 0.829232 0.000000 0.404961
O O9 0.268407 0.500000 0.102859
O O10 0.230767 0.723263 0.173724
O O11 0.317174 0.746319 0.162364
O O12 0.250000 0.750000 0.000000
O O13 0.646365 0.500000 0.372371
O O14 0.677448 0.740961 0.305713
O O15 0.589907 0.724767 0.318980
O O16 0.286224 0.000000 0.724753
O O17 0.071053 0.745197 0.132194
O O18 0.053958 0.000000 0.208715
O O19 0.857096 0.500000 0.236863
O O20 0.574509 0.000000 0.027570
O O21 0.500000 0.829661 0.000000
#
# Coordination Sequence:
#
# PCOD9184837 Si02
#       8
#     8   8   8   8   8   8   8   8
#     4  10  19  34  55  75 102 141 180 219 262 314
#     4   9  19  37  56  76 104 136 173 217 264 317
#     4  10  21  38  57  81 114 147 178 215 259 309
#     4  10  20  34  55  80 105 135 173 218 265 314
#     4   9  19  34  53  78 107 138 172 210 256 312
#     4   9  19  34  51  76 107 139 177 217 262 316
#     4  11  22  36  56  80 104 136 180 223 265 316
#     4   9  17  30  49  73 101 133 169 211 257 305
#
# _framework density 17.858440000000002
#
# number of rings (size 3 to 8) (size 9 to 14) (size 15 to 20)
#    0.000    2.375    0.000    3.375    0.000    6.500 
#    0.000    3.125    0.000    3.750    0.000    0.000 
#    0.000    0.000    0.000    0.000    0.000    0.000 
#
# Total GULP energy -178553.129187 kJ/mol
# GULP energy per Si atom -5579.785287 kJ/mol
# Density = 1.781779 g / cm^3
# Si number density = 17.858440 Si / 1000 Ang^3
#
#
#
# Elastic Constant Matrix: (Units=GPa)
#
#
# Indices 1 2 3 4 5 6 
#
# 1 89.8792 36.7790 61.1653 0.0000 -15.7079 0.0000
# 2 36.7790 47.8252 34.7791 0.0000 -3.8089 0.0000
# 3 61.1653 34.7791 134.2216 0.0000 1.8269 0.0000
# 4 0.0000 0.0000 0.0000 20.8455 0.0000 -7.1704
# 5 -15.7079 -3.8089 1.8269 0.0000 16.5373 0.0000
# 6 0.0000 0.0000 0.0000 -7.1704 0.0000 26.8247
#
#
#
# Elastic Compliance Matrix: (Units=1/GPa)
#
#
# Indices 1 2 3 4 5 6 
#
# 1 0.026251 -0.011586 -0.009278 0.000000 0.023291 0.000000
# 2 -0.011586 0.031637 -0.002871 0.000000 -0.003401 0.000000
# 3 -0.009278 -0.002871 0.012570 0.000000 -0.010862 0.000000
# 4 0.000000 0.000000 0.000000 0.052830 0.000000 0.014122
# 5 0.023291 -0.003401 -0.010862 0.000000 0.083009 0.000000
# 6 0.000000 0.000000 0.000000 0.014122 0.000000 0.041054
#
#
# Mechanical properties :
#
#
# Convention : Reuss Voigt Hill
#
# Bulk Modulus (GPa) = 43.50165 59.70810 51.60487
# Shear Modulus (GPa) = 16.52977 22.12166 19.32571
#
# Velocity S-wave (km/s) = 3.04567 3.52337 3.29319
# Velocity P-wave (km/s) = 6.06466 7.07523 6.58935
#
# Compressibility (1/GPa) = 0.02298764
#
# Stress axis : x y z
#
# Youngs Moduli (GPa) = 38.09316 31.60853 79.55370
#
# Poissons Ratio (x) = 0.36623 0.73807
# Poissons Ratio (y) = 0.44136 0.22844
# Poissons Ratio (z) = 0.35342 0.09076
#
# Static dielectric constant tensor:
#      x y z
#    x 1.604240 0.000000 0.015280 
#    y 0.000000 1.599990 0.000000 
#    z 0.015280 0.000000 1.604450 
# 
# From -- ./inp_files/244018.got.cif
#   From: 2010.05.17/outbox.cif.g08.bks.cpg/sg12_123_cif.got.tgz:244018.got - 2010.06.03 13:09:07.
