data_PCOD9184247
_publ_section_title
;
Structure prediction by ZEFSAII (Michael W. Deem and Ramdas Pophale) SiO2 
 PCOD9184247
Probable space group: C 2/M
;
_chemical_formula_sum "Si O2"
_cell_formula_units_Z 64
_cell_length_a 14.905223
_cell_length_b 25.108543
_cell_length_c 12.129045
_cell_angle_alpha 90.000000
_cell_angle_beta 40.352629
_cell_angle_gamma 90.000000
_cell_volume 2939.136119
_symmetry_space_group_name_H-M "C 2/M"
_symmetry_group_IT_number 12
_symmetry_cell_setting 'monoclinic'
loop_
_space_group_symop_operation_xyz
x,y,z
-x,y,-z
-x,-y,-z
x,-y,z
1/2+x,1/2+y,z
1/2-x,1/2+y,-z
1/2-x,1/2-y,-z
1/2+x,1/2-y,z
loop_
_atom_site_type_symbol
_atom_site_label
_atom_site_fract_x
_atom_site_fract_y
_atom_site_fract_z
Si Si1 0.871314 0.822218 0.069864
Si Si2 0.587266 0.397428 0.308355
Si Si3 0.837126 0.716402 0.253970
Si Si4 0.352461 0.881260 0.601442
Si Si5 0.423418 0.772596 0.413046
Si Si6 0.811796 0.063004 0.442254
Si Si7 0.644796 0.291074 0.149788
Si Si8 0.346921 0.092667 0.187139
O O1 0.855736 0.765627 0.151057
O O2 0.735914 0.858174 0.212696
O O3 0.923047 0.811539 0.899243
O O4 0.000000 0.853222 0.000000
O O5 0.500000 0.383568 0.500000
O O6 0.465650 0.417243 0.339229
O O7 0.667336 0.346646 0.185531
O O8 0.720721 0.429908 0.228701
O O9 0.691072 0.728713 0.450210
O O10 0.934862 0.718174 0.270606
O O11 0.847868 0.657877 0.193505
O O12 0.500000 0.906440 0.500000
O O13 0.393028 0.827693 0.497542
O O14 0.252734 0.912426 0.609730
O O15 0.564866 0.744709 0.312748
O O16 0.702001 0.076172 0.643714
O O17 0.821543 0.000000 0.420911
O O18 0.750000 0.250000 0.000000
O O19 0.500000 0.076849 0.000000
#
# Coordination Sequence:
#
# PCOD9184247 Si02
#       8
#     8   8   8   8   8   8   8   8
#     4  11  21  34  57  89 128 173 210 251 296 369
#     4  10  24  43  66  95 131 178 223 259 307 395
#     4  10  19  33  58  85 129 180 214 241 298 380
#     4  11  24  41  63  92 124 164 213 266 324 383
#     4  10  20  34  55  84 130 179 217 246 293 378
#     4  11  25  48  72  89 116 166 222 276 333 397
#     4  12  23  33  55  94 137 172 208 249 305 369
#     4  11  23  38  67 100 134 160 205 273 338 383
#
# _framework density 21.775106999999998
#
# number of rings (size 3 to 8) (size 9 to 14) (size 15 to 20)
#    0.000    1.250    2.500    4.125    3.500    6.250 
#    0.000    0.000    0.000    3.375    0.000    0.000 
#    0.000    0.000    0.000    0.000    0.000    0.000 
#
# Total GULP energy -178195.255742 kJ/mol
# GULP energy per Si atom -5568.601742 kJ/mol
# Density = 2.172555 g / cm^3
# Si number density = 21.775107 Si / 1000 Ang^3
#
#
#
# Elastic Constant Matrix: (Units=GPa)
#
#
# Indices 1 2 3 4 5 6 
#
# 1 117.0446 22.3148 14.4088 0.0000 -6.8198 0.0000
# 2 22.3148 74.0889 14.7725 0.0000 2.4593 0.0000
# 3 14.4088 14.7725 64.7517 0.0000 -16.7927 0.0000
# 4 0.0000 0.0000 0.0000 6.3967 0.0000 -0.6581
# 5 -6.8198 2.4593 -16.7927 0.0000 30.0809 0.0000
# 6 0.0000 0.0000 0.0000 -0.6581 0.0000 1.3706
#
#
#
# Elastic Compliance Matrix: (Units=1/GPa)
#
#
# Indices 1 2 3 4 5 6 
#
# 1 0.009275 -0.002652 -0.001002 0.000000 0.001760 0.000000
# 2 -0.002652 0.015213 -0.003928 0.000000 -0.004038 0.000000
# 3 -0.001002 -0.003928 0.019395 0.000000 0.010921 0.000000
# 4 0.000000 0.000000 0.000000 0.164454 0.000000 0.078965
# 5 0.001760 -0.004038 0.010921 0.000000 0.040070 0.000000
# 6 0.000000 0.000000 0.000000 0.078965 0.000000 0.767501
#
#
# Mechanical properties :
#
#
# Convention : Reuss Voigt Hill
#
# Bulk Modulus (GPa) = 34.82025 39.87526 37.34776
# Shear Modulus (GPa) = 4.80471 21.19559 13.00015
#
# Velocity S-wave (km/s) = 1.48705 3.12330 2.44605
# Velocity P-wave (km/s) = 4.35591 5.59989 5.01661
#
# Compressibility (1/GPa) = 0.02871892
#
# Stress axis : x y z
#
# Youngs Moduli (GPa) = 107.81250 65.73200 51.55952
#
# Poissons Ratio (x) = 0.17433 0.05169
# Poissons Ratio (y) = 0.28594 0.20251
# Poissons Ratio (z) = 0.10808 0.25818
#
# Static dielectric constant tensor:
#      x y z
#    x 1.847100 0.000000 -0.206220 
#    y 0.000000 1.793260 0.000000 
#    z -0.206220 0.000000 1.903710 
# 
# From -- ./inp_files/150243.got.cif
#   From: 2010.05.17/outbox.cif.g08.bks.cpg/sg12_76_cif.got.tgz:150243.got - 2010.06.03 13:09:07.
