data_PCOD9184613
_publ_section_title
;
Structure prediction by ZEFSAII (Michael W. Deem and Ramdas Pophale) SiO2 
 PCOD9184613
Probable space group: C 2/M
;
_chemical_formula_sum "Si O2"
_cell_formula_units_Z 56
_cell_length_a 10.851442
_cell_length_b 11.639997
_cell_length_c 19.601893
_cell_angle_alpha 90.000000
_cell_angle_beta 90.719484
_cell_angle_gamma 90.000000
_cell_volume 2475.734643
_symmetry_space_group_name_H-M "C 2/M"
_symmetry_group_IT_number 12
_symmetry_cell_setting 'monoclinic'
loop_
_space_group_symop_operation_xyz
x,y,z
-x,y,-z
-x,-y,-z
x,-y,z
1/2+x,1/2+y,z
1/2-x,1/2+y,-z
1/2-x,1/2-y,-z
1/2+x,1/2-y,z
loop_
_atom_site_type_symbol
_atom_site_label
_atom_site_fract_x
_atom_site_fract_y
_atom_site_fract_z
Si Si1 0.581884 0.877364 0.152599
Si Si2 0.758576 0.126631 0.282045
Si Si3 0.729064 0.309605 0.097706
Si Si4 0.167025 0.372421 0.764585
Si Si5 0.872065 0.120824 0.037917
Si Si6 0.115187 0.297352 0.410410
Si Si7 0.341362 0.133609 0.435898
O O1 0.691424 0.878809 0.208717
O O2 0.612896 0.775365 0.102449
O O3 0.463379 0.866178 0.198767
O O4 0.573572 0.000000 0.116176
O O5 0.820922 0.254032 0.277892
O O6 0.660633 0.137604 0.343065
O O7 0.822552 0.000000 0.291293
O O8 0.739224 0.370618 0.170090
O O9 0.842595 0.223582 0.087523
O O10 0.721314 0.376249 0.027037
O O11 0.178346 0.500000 0.732067
O O12 0.863135 0.000000 0.075708
O O13 0.000000 0.124555 0.000000
O O14 0.207043 0.185312 0.413837
O O15 0.151090 0.358763 0.481587
O O16 0.964611 0.295343 0.411742
O O17 0.355647 0.000000 0.417318
#
# Coordination Sequence:
#
# PCOD9184613 Si02
#       7
#     8   8   8   8   8   8   8
#     4   9  19  35  55  77 104 146 190 231 285 350
#     4  10  21  37  58  83 114 152 195 242 296 362
#     4  10  19  34  53  75 107 140 182 230 279 341
#     4  10  21  37  57  81 110 144 189 242 293 345
#     4  10  20  32  50  77 106 140 178 223 280 341
#     4  10  21  38  64  94 125 165 218 261 315 393
#     4  10  21  40  64  91 128 171 211 265 327 382
#
# _framework density 22.61955
#
# number of rings (size 3 to 8) (size 9 to 14) (size 15 to 20)
#    0.000    2.143    0.000    3.429    2.000    1.143 
#    0.000   10.714    0.000    6.857    0.000    0.000 
#    0.000    0.000    0.000    0.000    0.000    0.000 
#
# Total GULP energy -155872.092324 kJ/mol
# GULP energy per Si atom -5566.860440 kJ/mol
# Density = 2.256807 g / cm^3
# Si number density = 22.619550 Si / 1000 Ang^3
#
#
#
# Elastic Constant Matrix: (Units=GPa)
#
#
# Indices 1 2 3 4 5 6 
#
# 1 89.0900 50.4194 1.9512 0.0000 -18.0611 0.0000
# 2 50.4194 167.1221 29.9596 0.0000 -16.3365 0.0000
# 3 1.9512 29.9596 81.8681 0.0000 -4.8335 0.0000
# 4 0.0000 0.0000 0.0000 69.0212 0.0000 -41.3632
# 5 -18.0611 -16.3365 -4.8335 0.0000 33.1074 0.0000
# 6 0.0000 0.0000 0.0000 -41.3632 0.0000 20.6420
#
#
#
# Elastic Compliance Matrix: (Units=1/GPa)
#
#
# Indices 1 2 3 4 5 6 
#
# 1 0.014795 -0.004125 0.001527 0.000000 0.006258 0.000000
# 2 -0.004125 0.007831 -0.002695 0.000000 0.001220 0.000000
# 3 0.001527 -0.002695 0.013250 0.000000 0.001437 0.000000
# 4 0.000000 0.000000 0.000000 -0.072130 0.000000 -0.144536
# 5 0.006258 0.001220 0.001437 0.000000 0.034431 0.000000
# 6 0.000000 0.000000 0.000000 -0.144536 0.000000 -0.241182
#
#
# Mechanical properties :
#
#
# Convention : Reuss Voigt Hill
#
# Bulk Modulus (GPa) = 39.54651 55.86006 47.70329
# Shear Modulus (GPa) = -22.32253 41.60413 9.64080
#
# Velocity S-wave (km/s) = -3.14486 4.29336 2.06674
# Velocity P-wave (km/s) = 2.08194 7.02327 5.17981
#
# Compressibility (1/GPa) = 0.02528668
#
# Stress axis : x y z
#
# Youngs Moduli (GPa) = 67.59245 127.70328 75.47411
#
# Poissons Ratio (x) = 0.52682 -0.11521
# Poissons Ratio (y) = 0.27884 0.20342
# Poissons Ratio (z) = -0.10318 0.34420
#
# Static dielectric constant tensor:
#      x y z
#    x 1.904630 0.000000 0.025020 
#    y 0.000000 1.916070 0.000000 
#    z 0.025020 0.000000 1.806500 
# 
# From -- ./inp_files/304203.got.cif
#   From: 2010.05.17/outbox.cif.g08.bks.cpg/sg12_153_cif.got.tgz:304203.got - 2010.06.03 13:09:07.
