data_PCOD9184047
_publ_section_title
;
Structure prediction by ZEFSAII (Michael W. Deem and Ramdas Pophale) SiO2 
 PCOD9184047
Probable space group: C 2/M
;
_chemical_formula_sum "Si O2"
_cell_formula_units_Z 48
_cell_length_a 14.964458
_cell_length_b 20.068848
_cell_length_c 12.986529
_cell_angle_alpha 90.000000
_cell_angle_beta 47.804001
_cell_angle_gamma 90.000000
_cell_volume 2889.400145
_symmetry_space_group_name_H-M "C 2/M"
_symmetry_group_IT_number 12
_symmetry_cell_setting 'monoclinic'
loop_
_space_group_symop_operation_xyz
x,y,z
-x,y,-z
-x,-y,-z
x,-y,z
1/2+x,1/2+y,z
1/2-x,1/2+y,-z
1/2-x,1/2-y,-z
1/2+x,1/2-y,z
loop_
_atom_site_type_symbol
_atom_site_label
_atom_site_fract_x
_atom_site_fract_y
_atom_site_fract_z
Si Si1 0.286200 0.688564 0.339255
Si Si2 0.468383 0.078452 0.904661
Si Si3 0.085238 0.314731 0.665128
Si Si4 0.788808 0.142140 0.944362
Si Si5 0.328155 0.229614 0.786580
Si Si6 0.522451 0.423086 0.860184
O O1 0.192434 0.671520 0.502341
O O2 0.372503 0.749438 0.305566
O O3 0.215638 0.713662 0.293368
O O4 0.368347 0.625328 0.251863
O O5 0.550564 0.125228 0.768468
O O6 0.484911 0.000000 0.870052
O O7 0.500000 0.090356 0.000000
O O8 0.329592 0.099453 0.991357
O O9 0.963941 0.295144 0.698669
O O10 0.817184 0.193522 0.829899
O O11 0.903941 0.099426 0.888904
O O12 0.754046 0.187914 0.069628
O O13 0.549816 0.500000 0.817049
O O14 0.500000 0.416558 0.000000
#
# Coordination Sequence:
#
# PCOD9184047 Si02
#       6
#     8   8   8   8   8   8
#     4  11  21  37  55  82 115 148 189 232 278 339
#     4  10  21  37  58  83 110 143 186 234 282 335
#     4  10  22  36  56  82 109 149 186 232 281 329
#     4  10  19  34  57  84 107 143 184 233 277 325
#     4  10  19  33  57  82 109 141 186 233 276 321
#     4  11  22  36  56  82 116 153 188 229 281 337
#
# _framework density 16.612445000000001
#
# number of rings (size 3 to 8) (size 9 to 14) (size 15 to 20)
#    0.000    1.667    3.333    2.000    0.000    1.333 
#    0.000    0.000    0.000    3.000    0.000    5.833 
#    0.000    0.000    0.000    0.000    0.000    0.000 
#
# Total GULP energy -133966.202241 kJ/mol
# GULP energy per Si atom -5581.925093 kJ/mol
# Density = 1.657463 g / cm^3
# Si number density = 16.612445 Si / 1000 Ang^3
#
#
#
# Elastic Constant Matrix: (Units=GPa)
#
#
# Indices 1 2 3 4 5 6 
#
# 1 118.8210 72.4996 42.1232 0.0001 9.4663 -0.0001
# 2 72.4996 150.5334 85.6334 0.0000 -0.5490 0.0000
# 3 42.1232 85.6334 67.1288 0.0000 -2.5993 0.0000
# 4 0.0001 0.0000 0.0000 15.7935 0.0000 6.4622
# 5 9.4663 -0.5490 -2.5993 0.0000 20.4738 0.0000
# 6 -0.0001 0.0000 0.0000 6.4622 0.0000 24.8409
#
#
#
# Elastic Compliance Matrix: (Units=1/GPa)
#
#
# Indices 1 2 3 4 5 6 
#
# 1 0.012648 -0.005334 -0.001370 0.000000 -0.006165 0.000000
# 2 -0.005334 0.026688 -0.030726 0.000000 -0.000719 0.000000
# 3 -0.001370 -0.030726 0.055217 0.000000 0.006820 0.000000
# 4 0.000000 0.000000 0.000000 0.070860 0.000000 -0.018434
# 5 -0.006165 -0.000719 0.006820 0.000000 0.052540 0.000000
# 6 0.000000 0.000000 0.000000 -0.018434 0.000000 0.045052
#
#
# Mechanical properties :
#
#
# Convention : Reuss Voigt Hill
#
# Bulk Modulus (GPa) = 50.78343 81.88837 66.33590
# Shear Modulus (GPa) = 14.51679 21.30345 17.91012
#
# Velocity S-wave (km/s) = 2.95930 3.58492 3.28703
# Velocity P-wave (km/s) = 6.50481 8.15695 7.37728
#
# Compressibility (1/GPa) = 0.01969146
#
# Stress axis : x y z
#
# Youngs Moduli (GPa) = 79.06548 37.46936 18.11051
#
# Poissons Ratio (x) = 0.19987 0.02482
# Poissons Ratio (y) = 0.42176 0.55646
# Poissons Ratio (z) = 0.10835 1.15128
#
# Static dielectric constant tensor:
#      x y z
#    x 1.539020 0.000000 0.001630 
#    y 0.000000 1.539680 0.000000 
#    z 0.001630 0.000000 1.541440 
# 
# From -- ./inp_files/132679.got.cif
#   From: 2010.05.17/outbox.cif.g08.bks.cpg/sg12_67_cif.got.tgz:132679.got - 2010.06.03 13:09:07.
