data_PCOD9184139
_publ_section_title
;
Structure prediction by ZEFSAII (Michael W. Deem and Ramdas Pophale) SiO2 
 PCOD9184139
Probable space group: C 2/M
;
_chemical_formula_sum "Si O2"
_cell_formula_units_Z 48
_cell_length_a 28.391676
_cell_length_b 16.531576
_cell_length_c 14.500229
_cell_angle_alpha 90.000000
_cell_angle_beta 15.761537
_cell_angle_gamma 90.000000
_cell_volume 1848.692447
_symmetry_space_group_name_H-M "C 2/M"
_symmetry_group_IT_number 12
_symmetry_cell_setting 'monoclinic'
loop_
_space_group_symop_operation_xyz
x,y,z
-x,y,-z
-x,-y,-z
x,-y,z
1/2+x,1/2+y,z
1/2-x,1/2+y,-z
1/2-x,1/2-y,-z
1/2+x,1/2-y,z
loop_
_atom_site_type_symbol
_atom_site_label
_atom_site_fract_x
_atom_site_fract_y
_atom_site_fract_z
Si Si1 0.115688 0.404613 0.916219
Si Si2 0.750997 0.155050 0.479546
Si Si3 0.242393 0.593155 0.996874
Si Si4 0.498478 0.342289 0.358578
Si Si5 0.623769 0.593828 0.938745
Si Si6 0.982914 0.344829 0.347553
O O1 0.114037 0.500000 0.940957
O O2 0.253054 0.387794 0.575617
O O3 0.117509 0.353783 0.007488
O O4 0.931133 0.377733 0.219453
O O5 0.750000 0.250000 0.500000
O O6 0.881763 0.139895 0.148184
O O7 0.255676 0.500000 0.000272
O O8 0.313208 0.648996 0.945847
O O9 0.374089 0.612599 0.664369
O O10 0.060395 0.611145 0.290831
O O11 0.459962 0.248512 0.415946
O O12 0.500008 0.383647 0.256310
O O13 0.614280 0.500000 0.934871
O O14 0.810477 0.614939 0.632675
#
# Coordination Sequence:
#
# PCOD9184139 Si02
#       6
#     8   8   8   8   8   8
#     4  10  20  38  59  85 117 155 195 240 293 354
#     4  10  19  33  57  86 115 148 187 235 289 346
#     4  11  23  42  61  83 118 166 202 235 298 375
#     4  11  23  39  59  87 123 157 194 246 305 357
#     4  11  22  39  61  91 120 151 197 254 297 339
#     4  11  22  38  62  90 116 152 204 253 291 346
#
# _framework density 25.964296999999998
#
# number of rings (size 3 to 8) (size 9 to 14) (size 15 to 20)
#    0.000    1.333    0.000    9.000    0.000    3.333 
#    0.000    1.667    0.000    0.000    0.000   24.500 
#    0.000    0.000    0.000    0.000    0.000    0.000 
#
# Total GULP energy -134543.337213 kJ/mol
# GULP energy per Si atom -5605.972384 kJ/mol
# Density = 2.590520 g / cm^3
# Si number density = 25.964297 Si / 1000 Ang^3
#
#
#
# Elastic Constant Matrix: (Units=GPa)
#
#
# Indices 1 2 3 4 5 6 
#
# 1 181.1146 15.1820 20.7477 -0.0032 22.4358 0.0017
# 2 15.1820 172.6626 -1.3524 -0.0046 13.8116 0.0026
# 3 20.7477 -1.3524 87.4623 -0.0044 22.6967 0.0028
# 4 -0.0032 -0.0046 -0.0044 24.4850 0.0028 7.6279
# 5 22.4358 13.8116 22.6967 0.0028 54.2660 -0.0019
# 6 0.0017 0.0026 0.0028 7.6279 -0.0019 41.0516
#
#
#
# Elastic Compliance Matrix: (Units=1/GPa)
#
#
# Indices 1 2 3 4 5 6 
#
# 1 0.005899 -0.000368 -0.000893 0.000001 -0.001971 0.000000
# 2 -0.000368 0.005958 0.000598 0.000002 -0.001615 -0.000001
# 3 -0.000893 0.000598 0.013010 0.000003 -0.005225 -0.000002
# 4 0.000001 0.000002 0.000003 0.043351 -0.000005 -0.008055
# 5 -0.001971 -0.001615 -0.005225 -0.000005 0.021839 0.000002
# 6 0.000000 -0.000001 -0.000002 -0.008055 0.000002 0.025856
#
#
# Mechanical properties :
#
#
# Convention : Reuss Voigt Hill
#
# Bulk Modulus (GPa) = 42.47885 56.71046 49.59465
# Shear Modulus (GPa) = 39.97248 51.07132 45.52190
#
# Velocity S-wave (km/s) = 3.92792 4.43988 4.19173
# Velocity P-wave (km/s) = 6.08009 6.94064 6.52457
#
# Compressibility (1/GPa) = 0.02354113
#
# Stress axis : x y z
#
# Youngs Moduli (GPa) = 169.52673 167.84628 76.86120
#
# Poissons Ratio (x) = 0.06176 0.06867
# Poissons Ratio (y) = 0.06238 -0.04599
# Poissons Ratio (z) = 0.15145 -0.10044
#
# Static dielectric constant tensor:
#      x y z
#    x 1.915220 -0.000010 0.141400 
#    y -0.000010 1.859090 0.000010 
#    z 0.141400 0.000010 1.926880 
# 
# From -- ./inp_files/251434.got.cif
#   From: 2010.05.17/outbox.cif.g08.bks.cpg/sg12_126_cif.got.tgz:251434.got - 2010.06.03 13:09:07.
