data_PCOD9184018
_publ_section_title
;
Structure prediction by ZEFSAII (Michael W. Deem and Ramdas Pophale) SiO2 
 PCOD9184018
Probable space group: C 2/M
;
_chemical_formula_sum "Si O2"
_cell_formula_units_Z 42
_cell_length_a 14.511431
_cell_length_b 23.024434
_cell_length_c 5.399097
_cell_angle_alpha 90.000000
_cell_angle_beta 70.126959
_cell_angle_gamma 90.000000
_cell_volume 1696.505235
_symmetry_space_group_name_H-M "C 2/M"
_symmetry_group_IT_number 12
_symmetry_cell_setting 'monoclinic'
loop_
_space_group_symop_operation_xyz
x,y,z
-x,y,-z
-x,-y,-z
x,-y,z
1/2+x,1/2+y,z
1/2-x,1/2+y,-z
1/2-x,1/2-y,-z
1/2+x,1/2-y,z
loop_
_atom_site_type_symbol
_atom_site_label
_atom_site_fract_x
_atom_site_fract_y
_atom_site_fract_z
Si Si1 0.554395 0.914332 0.702184
Si Si2 0.405512 0.779471 0.230708
Si Si3 0.307412 0.695992 0.688830
Si Si4 0.500000 0.500000 0.500000
Si Si5 0.276864 0.580732 0.455421
Si Si6 0.879722 0.915930 0.857466
O O1 0.500000 0.928738 0.500000
O O2 0.563526 0.844379 0.721019
O O3 0.664594 0.935331 0.577471
O O4 0.500000 0.934199 0.000000
O O5 0.374038 0.744819 0.505240
O O6 0.304885 0.783362 0.155266
O O7 0.500000 0.754706 0.000000
O O8 0.287314 0.650377 0.481505
O O9 0.363152 0.653596 0.831731
O O10 0.482431 0.447439 0.728199
O O11 0.328233 0.558806 0.656841
O O12 0.323636 0.566172 0.153148
#
# Coordination Sequence:
#
# PCOD9184018 Si02
#       6
#     8   8   8   2   8   8
#     4  10  19  33  56  92 123 161 211 240 294 381
#     4   9  17  33  56  87 123 170 209 248 306 376
#     4   8  19  38  53  86 128 163 204 261 310 369
#     4  12  28  46  72  98 116 166 220 266 320 400
#     4   9  20  39  61  85 125 163 197 261 319 363
#     4  10  23  42  62  87 121 158 208 262 321 372
#
# _framework density 24.756775000000001
#
# number of rings (size 3 to 8) (size 9 to 14) (size 15 to 20)
#    1.143    1.524    0.000    1.143    2.667    3.810 
#    8.571    2.857    0.000    0.000    0.000   18.000 
#    0.000    0.000    0.000    0.000    0.000    0.000 
#
# Total GULP energy -116964.258612 kJ/mol
# GULP energy per Si atom -5569.726601 kJ/mol
# Density = 2.470043 g / cm^3
# Si number density = 24.756775 Si / 1000 Ang^3
#
#
#
# Elastic Constant Matrix: (Units=GPa)
#
#
# Indices 1 2 3 4 5 6 
#
# 1 119.1961 15.6423 79.9468 0.0000 -2.0998 0.0000
# 2 15.6423 121.3930 22.9954 0.0000 -13.5204 0.0000
# 3 79.9468 22.9954 241.7861 0.0000 -17.5015 0.0000
# 4 0.0000 0.0000 0.0000 11.7682 0.0000 -58.9488
# 5 -2.0998 -13.5204 -17.5015 0.0000 44.4669 0.0000
# 6 0.0000 0.0000 0.0000 -58.9488 0.0000 51.5601
#
#
#
# Elastic Compliance Matrix: (Units=1/GPa)
#
#
# Indices 1 2 3 4 5 6 
#
# 1 0.010900 -0.000851 -0.003608 0.000000 -0.001164 0.000000
# 2 -0.000851 0.008691 -0.000367 0.000000 0.002458 0.000000
# 3 -0.003608 -0.000367 0.005500 0.000000 0.001883 0.000000
# 4 0.000000 0.000000 0.000000 -0.017977 0.000000 -0.020553
# 5 -0.001164 0.002458 0.001883 0.000000 0.023922 0.000000
# 6 0.000000 0.000000 0.000000 -0.020553 0.000000 -0.004103
#
#
# Mechanical properties :
#
#
# Convention : Reuss Voigt Hill
#
# Bulk Modulus (GPa) = 64.76867 79.94936 72.35902
# Shear Modulus (GPa) = 119.81441 45.81173 82.81307
#
# Velocity S-wave (km/s) = 6.96431 4.30638 5.78993
# Velocity P-wave (km/s) = 9.53350 7.55583 8.60169
#
# Compressibility (1/GPa) = 0.01543956
#
# Stress axis : x y z
#
# Youngs Moduli (GPa) = 91.74044 115.06613 181.82062
#
# Poissons Ratio (x) = 0.09790 0.65592
# Poissons Ratio (y) = 0.07806 0.06678
# Poissons Ratio (z) = 0.33096 0.04226
#
# Static dielectric constant tensor:
#      x y z
#    x 2.538550 0.000000 -0.260920 
#    y 0.000000 2.047810 0.000000 
#    z -0.260920 0.000000 2.040250 
# 
# From -- ./inp_files/12758.got.cif
#   From: 2010.05.17/outbox.cif.g08.bks.cpg/sg12_7_cif.got.tgz:12758.got - 2010.06.03 13:09:07.
