data_PCOD9184987
_publ_section_title
;
Structure prediction by ZEFSAII (Michael W. Deem and Ramdas Pophale) SiO2 
 PCOD9184987
Probable space group: C 2/M
;
_chemical_formula_sum "Si O2"
_cell_formula_units_Z 64
_cell_length_a 20.699616
_cell_length_b 8.805378
_cell_length_c 33.011826
_cell_angle_alpha 90.000000
_cell_angle_beta 143.327316
_cell_angle_gamma 90.000000
_cell_volume 3593.608688
_symmetry_space_group_name_H-M "C 2/M"
_symmetry_group_IT_number 12
_symmetry_cell_setting 'monoclinic'
loop_
_space_group_symop_operation_xyz
x,y,z
-x,y,-z
-x,-y,-z
x,-y,z
1/2+x,1/2+y,z
1/2-x,1/2+y,-z
1/2-x,1/2-y,-z
1/2+x,1/2-y,z
loop_
_atom_site_type_symbol
_atom_site_label
_atom_site_fract_x
_atom_site_fract_y
_atom_site_fract_z
Si Si1 0.578601 0.674928 0.500069
Si Si2 0.023209 0.819171 0.211998
Si Si3 0.445768 0.819637 0.860714
Si Si4 0.685190 0.818032 0.850094
Si Si5 0.255657 0.816961 0.649558
Si Si6 0.099248 0.680204 0.640015
Si Si7 0.797558 0.181314 0.230367
Si Si8 0.574667 0.317886 0.998875
O O1 0.500000 0.676209 0.500000
O O2 0.585056 0.500000 0.489453
O O3 0.692997 0.724052 0.576498
O O4 0.518378 0.774825 0.436544
O O5 0.035233 0.766795 0.171590
O O6 0.124232 0.746093 0.286653
O O7 0.911735 0.757186 0.173970
O O8 0.028089 0.000000 0.217249
O O9 0.325165 0.786974 0.816579
O O10 0.529659 0.766605 0.937030
O O11 0.453826 0.000000 0.857630
O O12 0.684669 0.757524 0.804000
O O13 0.673562 0.000000 0.844370
O O14 0.801725 0.780957 0.928285
O O15 0.186236 0.750001 0.652054
O O16 0.254242 0.000000 0.652229
O O17 0.112184 0.500000 0.647693
O O18 0.123989 0.752161 0.695896
O O19 0.810326 0.000000 0.233790
O O20 0.565763 0.500000 0.988222
O O21 0.500000 0.278645 0.000000
#
# Coordination Sequence:
#
# PCOD9184987 Si02
#       8
#     8   8   8   8   8   8   8   8
#     4   8  16  30  49  76 113 152 189 236 289 342
#     4  12  25  40  60  86 120 156 197 243 291 349
#     4  11  23  38  62  89 117 154 195 240 290 345
#     4  11  24  42  63  86 118 154 193 240 295 354
#     4  10  19  34  55  80 114 155 195 237 292 346
#     4  11  20  30  52  85 118 152 193 242 290 339
#     4  11  22  37  59  86 118 154 196 243 290 344
#     4  10  21  39  63  89 117 150 190 240 293 346
#
# _framework density 17.809396
#
# number of rings (size 3 to 8) (size 9 to 14) (size 15 to 20)
#    0.000    1.500    2.500    4.500    0.000    5.500 
#    0.000    0.000    0.000    0.750    0.000    0.000 
#    0.000    0.000    0.000    0.000    0.000    0.000 
#
# Total GULP energy -178780.000637 kJ/mol
# GULP energy per Si atom -5586.875020 kJ/mol
# Density = 1.776886 g / cm^3
# Si number density = 17.809396 Si / 1000 Ang^3
#
#
#
# Elastic Constant Matrix: (Units=GPa)
#
#
# Indices 1 2 3 4 5 6 
#
# 1 63.9646 36.2492 39.2103 0.0000 9.1920 0.0001
# 2 36.2492 76.5800 52.0187 0.0000 0.8466 0.0001
# 3 39.2103 52.0187 137.3906 0.0000 1.5140 -0.0001
# 4 0.0000 0.0000 0.0000 19.7339 0.0000 -9.4116
# 5 9.1920 0.8466 1.5140 0.0000 23.8198 -0.0001
# 6 0.0001 0.0001 -0.0001 -9.4116 -0.0001 24.3753
#
#
#
# Elastic Compliance Matrix: (Units=1/GPa)
#
#
# Indices 1 2 3 4 5 6 
#
# 1 0.024054 -0.009009 -0.003358 0.000000 -0.008749 0.000000
# 2 -0.009009 0.020954 -0.005397 0.000000 0.003075 0.000000
# 3 -0.003358 -0.005397 0.010271 0.000000 0.000835 0.000000
# 4 0.000000 0.000000 0.000000 0.062112 0.000000 0.023982
# 5 -0.008749 0.003075 0.000835 0.000000 0.045196 0.000000
# 6 0.000000 0.000000 0.000000 0.023982 0.000000 0.050285
#
#
# Mechanical properties :
#
#
# Convention : Reuss Voigt Hill
#
# Bulk Modulus (GPa) = 50.62351 59.21017 54.91684
# Shear Modulus (GPa) = 19.60917 23.61627 21.61272
#
# Velocity S-wave (km/s) = 3.32182 3.64546 3.48739
# Velocity P-wave (km/s) = 6.57263 7.14408 6.86431
#
# Compressibility (1/GPa) = 0.01975367
#
# Stress axis : x y z
#
# Youngs Moduli (GPa) = 41.57231 47.72307 97.36327
#
# Poissons Ratio (x) = 0.42992 0.32692
# Poissons Ratio (y) = 0.37451 0.52542
# Poissons Ratio (z) = 0.13959 0.25754
#
# Static dielectric constant tensor:
#      x y z
#    x 1.576270 0.000000 0.009190 
#    y 0.000000 1.591260 0.000000 
#    z 0.009190 0.000000 1.616750 
# 
# From -- ./inp_files/378522.got.cif
#   From: 2010.05.17/outbox.cif.g08.bks.cpg/sg12_190_cif.got.tgz:378522.got - 2010.06.03 13:09:07.
