data_PCOD9184995
_publ_section_title
;
Structure prediction by ZEFSAII (Michael W. Deem and Ramdas Pophale) SiO2 
 PCOD9184995
Probable space group: C 2/M
;
_chemical_formula_sum "Si O2"
_cell_formula_units_Z 56
_cell_length_a 12.546649
_cell_length_b 30.351823
_cell_length_c 9.549773
_cell_angle_alpha 90.000000
_cell_angle_beta 123.600540
_cell_angle_gamma 90.000000
_cell_volume 3029.052466
_symmetry_space_group_name_H-M "C 2/M"
_symmetry_group_IT_number 12
_symmetry_cell_setting 'monoclinic'
loop_
_space_group_symop_operation_xyz
x,y,z
-x,y,-z
-x,-y,-z
x,-y,z
1/2+x,1/2+y,z
1/2-x,1/2+y,-z
1/2-x,1/2-y,-z
1/2+x,1/2-y,z
loop_
_atom_site_type_symbol
_atom_site_label
_atom_site_fract_x
_atom_site_fract_y
_atom_site_fract_z
Si Si1 0.865926 0.500000 0.318842
Si Si2 0.864334 0.596402 0.321823
Si Si3 0.080056 0.778131 0.328545
Si Si4 0.461384 0.902374 0.808744
Si Si5 0.360285 0.657935 0.877712
Si Si6 0.684669 0.812918 0.322285
Si Si7 0.292577 0.294610 0.105900
Si Si8 0.536713 0.000000 0.187931
O O1 0.808776 0.547428 0.308894
O O2 0.000000 0.500000 0.500000
O O3 0.908882 0.500000 0.188672
O O4 0.752995 0.630361 0.274645
O O5 0.000000 0.602155 0.500000
O O6 0.912135 0.599781 0.195910
O O7 0.109642 0.799909 0.198220
O O8 0.181037 0.800780 0.506019
O O9 0.096015 0.725622 0.322692
O O10 0.936154 0.788204 0.267029
O O11 0.370746 0.861815 0.699462
O O12 0.402788 0.951695 0.739672
O O13 0.500000 0.898812 0.000000
O O14 0.500000 0.635831 0.000000
O O15 0.307179 0.670865 0.991021
O O16 0.701462 0.806375 0.167820
O O17 0.250000 0.250000 0.000000
O O18 0.500000 0.000000 0.000000
#
# Coordination Sequence:
#
# PCOD9184995 Si02
#       8
#     4   8   8   8   8   8   8   4
#     4   8  16  30  51  77 108 135 168 219 273 312
#     4  10  19  34  55  81 107 139 178 222 267 317
#     4  10  23  37  50  74 109 139 175 222 260 309
#     4  10  20  31  55  82 109 137 179 222 271 321
#     4  10  21  37  52  74 107 145 175 218 266 312
#     4  11  22  35  54  79 103 140 181 215 261 319
#     4  11  22  37  54  71 104 142 176 215 267 309
#     4   8  16  32  46  77 113 135 161 225 280 309
#
# _framework density 18.487628999999998
#
# number of rings (size 3 to 8) (size 9 to 14) (size 15 to 20)
#    0.000    2.000    1.429    2.143    4.000    0.000 
#    0.000    0.357    0.000    0.000    0.000    4.000 
#    0.000    0.000    0.000    4.000    0.000    0.000 
#
# Total GULP energy -155996.624589 kJ/mol
# GULP energy per Si atom -5571.308021 kJ/mol
# Density = 1.844555 g / cm^3
# Si number density = 18.487629 Si / 1000 Ang^3
#
#
#
# Elastic Constant Matrix: (Units=GPa)
#
#
# Indices 1 2 3 4 5 6 
#
# 1 34.2354 34.4423 7.0301 0.0000 -2.3992 0.0000
# 2 34.4423 147.4117 20.6722 0.0000 22.6889 0.0000
# 3 7.0301 20.6722 53.2186 0.0000 -3.3920 0.0000
# 4 0.0000 0.0000 0.0000 20.5364 0.0000 2.1615
# 5 -2.3992 22.6889 -3.3920 0.0000 27.8968 0.0000
# 6 0.0000 0.0000 0.0000 2.1615 0.0000 11.7942
#
#
#
# Elastic Compliance Matrix: (Units=1/GPa)
#
#
# Indices 1 2 3 4 5 6 
#
# 1 0.042091 -0.011859 -0.000109 0.000000 0.013252 0.000000
# 2 -0.011859 0.011776 -0.003712 0.000000 -0.011048 0.000000
# 3 -0.000109 -0.003712 0.020598 0.000000 0.005514 0.000000
# 4 0.000000 0.000000 0.000000 0.049652 0.000000 -0.009099
# 5 0.013252 -0.011048 0.005514 0.000000 0.046642 0.000000
# 6 0.000000 0.000000 0.000000 -0.009099 0.000000 0.086455
#
#
# Mechanical properties :
#
#
# Convention : Reuss Voigt Hill
#
# Bulk Modulus (GPa) = 23.19899 39.90610 31.55254
# Shear Modulus (GPa) = 16.50484 23.56021 20.03252
#
# Velocity S-wave (km/s) = 2.99113 3.57371 3.29532
# Velocity P-wave (km/s) = 4.95023 6.21778 5.61986
#
# Compressibility (1/GPa) = 0.04310533
#
# Stress axis : x y z
#
# Youngs Moduli (GPa) = 23.75803 84.92201 48.54824
#
# Poissons Ratio (x) = 1.00707 0.00530
# Poissons Ratio (y) = 0.28174 0.18020
# Poissons Ratio (z) = 0.00259 0.31521
#
# Static dielectric constant tensor:
#      x y z
#    x 1.616460 0.000000 -0.013370 
#    y 0.000000 1.676160 0.000000 
#    z -0.013370 0.000000 1.698570 
# 
# From -- ./inp_files/54843.got.cif
#   From: 2010.05.17/outbox.cif.g08.bks.cpg/sg12_28_cif.got.tgz:54843.got - 2010.06.03 13:09:07.
