data_PCOD9184351
_publ_section_title
;
Structure prediction by ZEFSAII (Michael W. Deem and Ramdas Pophale) SiO2 
 PCOD9184351
Probable space group: C 2/M
;
_chemical_formula_sum "Si O2"
_cell_formula_units_Z 64
_cell_length_a 16.905815
_cell_length_b 14.527547
_cell_length_c 18.083105
_cell_angle_alpha 90.000000
_cell_angle_beta 41.089453
_cell_angle_gamma 90.000000
_cell_volume 2918.926047
_symmetry_space_group_name_H-M "C 2/M"
_symmetry_group_IT_number 12
_symmetry_cell_setting 'monoclinic'
loop_
_space_group_symop_operation_xyz
x,y,z
-x,y,-z
-x,-y,-z
x,-y,z
1/2+x,1/2+y,z
1/2-x,1/2+y,-z
1/2-x,1/2-y,-z
1/2+x,1/2-y,z
loop_
_atom_site_type_symbol
_atom_site_label
_atom_site_fract_x
_atom_site_fract_y
_atom_site_fract_z
Si Si1 0.299279 0.895029 0.253284
Si Si2 0.586361 0.601488 0.010457
Si Si3 0.428585 0.104045 0.875622
Si Si4 0.027471 0.286399 0.299642
Si Si5 0.137245 0.704089 0.936678
Si Si6 0.469581 0.394426 0.254551
Si Si7 0.626728 0.236836 0.387446
Si Si8 0.681131 0.106597 0.474230
O O1 0.433191 0.893728 0.192131
O O2 0.300547 0.861570 0.167128
O O3 0.225474 0.811452 0.340944
O O4 0.253855 0.000000 0.292888
O O5 0.642651 0.500000 0.980336
O O6 0.510070 0.621633 0.139946
O O7 0.500000 0.594030 0.000000
O O8 0.666089 0.689438 0.932966
O O9 0.427782 0.148736 0.796788
O O10 0.388345 0.000000 0.902060
O O11 0.355512 0.157606 0.988962
O O12 0.023231 0.184439 0.268333
O O13 0.896187 0.326664 0.417627
O O14 0.110679 0.284760 0.313053
O O15 0.000000 0.706540 0.000000
O O16 0.504564 0.500000 0.247225
O O17 0.325778 0.387045 0.370201
O O18 0.500000 0.279742 0.500000
O O19 0.643972 0.142743 0.419531
O O20 0.648650 0.000000 0.511285
#
# Coordination Sequence:
#
# PCOD9184351 Si02
#       8
#     8   8   8   8   8   8   8   8
#     4  10  21  38  60  85 114 150 192 233 278 337
#     4   9  17  29  51  85 119 149 182 226 283 337
#     4  10  19  33  59  88 114 144 184 236 286 333
#     4  11  21  37  55  83 115 150 186 236 289 343
#     4   9  17  31  55  85 115 145 181 234 284 330
#     4  10  20  35  58  87 116 148 189 240 290 334
#     4  10  24  40  57  80 112 155 195 232 283 340
#     4  10  22  39  60  82 109 149 196 242 286 335
#
# _framework density 21.925872999999999
#
# number of rings (size 3 to 8) (size 9 to 14) (size 15 to 20)
#    0.000    2.125    1.250    1.875    3.500    6.000 
#    0.000    5.000    0.000    0.000    0.000    0.000 
#    0.000    0.000    0.000    0.000    0.000    0.000 
#
# Total GULP energy -178560.493429 kJ/mol
# GULP energy per Si atom -5580.015420 kJ/mol
# Density = 2.187597 g / cm^3
# Si number density = 21.925873 Si / 1000 Ang^3
#
#
#
# Elastic Constant Matrix: (Units=GPa)
#
#
# Indices 1 2 3 4 5 6 
#
# 1 50.0626 31.2584 22.2503 0.0000 28.6078 0.0000
# 2 31.2584 131.3667 20.6339 0.0000 15.8385 0.0000
# 3 22.2503 20.6339 53.6071 0.0000 16.7979 -0.0001
# 4 0.0000 0.0000 0.0000 356.3296 0.0000 -769.1889
# 5 28.6078 15.8385 16.7979 0.0000 31.9787 0.0000
# 6 0.0000 0.0000 -0.0001 -769.1889 0.0000 1788.0045
#
#
#
# Elastic Compliance Matrix: (Units=1/GPa)
#
#
# Indices 1 2 3 4 5 6 
#
# 1 0.046715 -0.005873 -0.005920 0.000000 -0.035772 0.000000
# 2 -0.005873 0.009062 -0.001545 0.000000 0.001577 0.000000
# 3 -0.005920 -0.001545 0.023709 0.000000 -0.006393 0.000000
# 4 0.000000 0.000000 0.000000 0.039325 0.000000 0.016917
# 5 -0.035772 0.001577 -0.006393 0.000000 0.065849 0.000000
# 6 0.000000 0.000000 0.000000 0.016917 0.000000 0.007837
#
#
# Mechanical properties :
#
#
# Convention : Reuss Voigt Hill
#
# Bulk Modulus (GPa) = 18.93529 42.59130 30.76330
# Shear Modulus (GPa) = 21.11704 445.98880 233.55292
#
# Velocity S-wave (km/s) = 3.10677 14.27757 10.33202
# Velocity P-wave (km/s) = 4.63941 17.06652 12.50580
#
# Compressibility (1/GPa) = 0.05281144
#
# Stress axis : x y z
#
# Youngs Moduli (GPa) = 21.40661 110.34817 42.17773
#
# Poissons Ratio (x) = 0.64806 0.24968
# Poissons Ratio (y) = 0.12572 0.06515
# Poissons Ratio (z) = 0.12672 0.17045
#
# Static dielectric constant tensor:
#      x y z
#    x 1.849570 0.000000 -0.033780 
#    y 0.000000 1.770880 0.000000 
#    z -0.033780 0.000000 1.862390 
# 
# From -- ./inp_files/278143.got.cif
#   From: 2010.05.17/outbox.cif.g08.bks.cpg/sg12_140_cif.got.tgz:278143.got - 2010.06.03 13:09:07.
