data_PCOD9184683
_publ_section_title
;
Structure prediction by ZEFSAII (Michael W. Deem and Ramdas Pophale) SiO2 
 PCOD9184683
Probable space group: C 2/M
;
_chemical_formula_sum "Si O2"
_cell_formula_units_Z 64
_cell_length_a 30.060523
_cell_length_b 13.952288
_cell_length_c 9.357379
_cell_angle_alpha 90.000000
_cell_angle_beta 115.785991
_cell_angle_gamma 90.000000
_cell_volume 3533.814970
_symmetry_space_group_name_H-M "C 2/M"
_symmetry_group_IT_number 12
_symmetry_cell_setting 'monoclinic'
loop_
_space_group_symop_operation_xyz
x,y,z
-x,y,-z
-x,-y,-z
x,-y,z
1/2+x,1/2+y,z
1/2-x,1/2+y,-z
1/2-x,1/2-y,-z
1/2+x,1/2-y,z
loop_
_atom_site_type_symbol
_atom_site_label
_atom_site_fract_x
_atom_site_fract_y
_atom_site_fract_z
Si Si1 0.308810 0.774150 0.415709
Si Si2 0.955270 0.611670 0.530240
Si Si3 0.865945 0.614199 0.923680
Si Si4 0.481133 0.604487 0.815161
Si Si5 0.735152 0.109424 0.401926
Si Si6 0.449486 0.613292 0.336460
Si Si7 0.587565 0.781762 0.272892
Si Si8 0.126852 0.288732 0.756949
O O1 0.279603 0.858948 0.457159
O O2 0.276776 0.680393 0.402493
O O3 0.360398 0.771900 0.573419
O O4 0.323765 0.782205 0.270660
O O5 0.963489 0.500000 0.560239
O O6 0.947902 0.656983 0.674097
O O7 0.906708 0.632517 0.370246
O O8 0.000000 0.653438 0.500000
O O9 0.877091 0.500000 0.960455
O O10 0.813190 0.618587 0.767324
O O11 0.903474 0.665958 0.865251
O O12 0.865210 0.673425 0.071008
O O13 0.465283 0.500000 0.736004
O O14 0.528324 0.634780 0.788452
O O15 0.436988 0.678368 0.760067
O O16 0.500000 0.595453 0.000000
O O17 0.751292 0.000000 0.422882
O O18 0.500000 0.624603 0.500000
O O19 0.434598 0.500000 0.325422
O O20 0.405499 0.689587 0.302080
#
# Coordination Sequence:
#
# PCOD9184683 Si02
#       8
#     8   8   8   8   8   8   8   8
#     4   9  20  34  55  81  98 128 171 209 255 308
#     4  10  20  33  50  74 104 139 178 215 251 292
#     4  10  21  35  53  76 103 137 170 206 259 318
#     4  10  20  33  50  72 101 138 174 207 251 303
#     4   9  19  38  57  75 103 132 163 208 260 312
#     4  10  20  34  52  75 104 139 176 211 253 301
#     4  10  19  34  54  75 103 135 174 217 256 301
#     4  11  20  33  54  78 107 134 169 215 255 301
#
# _framework density 18.110738999999999
#
# number of rings (size 3 to 8) (size 9 to 14) (size 15 to 20)
#    0.000    2.125    0.000    4.125    0.000    5.000 
#    0.000    0.000    0.000    6.750    0.000    0.000 
#    0.000    0.000    0.000    0.000    0.000    0.000 
#
# Total GULP energy -178288.624777 kJ/mol
# GULP energy per Si atom -5571.519524 kJ/mol
# Density = 1.806952 g / cm^3
# Si number density = 18.110739 Si / 1000 Ang^3
#
#
#
# Elastic Constant Matrix: (Units=GPa)
#
#
# Indices 1 2 3 4 5 6 
#
# 1 104.9828 34.8759 31.9432 0.0000 -33.6601 0.0000
# 2 34.8759 92.0400 24.9762 0.0000 -7.2265 0.0000
# 3 31.9432 24.9762 62.0495 0.0000 -37.2994 0.0000
# 4 0.0000 0.0000 0.0000 19.7874 0.0000 2.5590
# 5 -33.6601 -7.2265 -37.2994 0.0000 31.0953 0.0000
# 6 0.0000 0.0000 0.0000 2.5590 0.0000 14.9370
#
#
#
# Elastic Compliance Matrix: (Units=1/GPa)
#
#
# Indices 1 2 3 4 5 6 
#
# 1 0.020788 -0.009701 0.019269 0.000000 0.043362 0.000000
# 2 -0.009701 0.017862 -0.021556 0.000000 -0.032208 0.000000
# 3 0.019269 -0.021556 0.087476 0.000000 0.120778 0.000000
# 4 0.000000 0.000000 0.000000 0.051682 0.000000 -0.008854
# 5 0.043362 -0.032208 0.120778 0.000000 0.216489 0.000000
# 6 0.000000 0.000000 0.000000 -0.008854 0.000000 0.068465
#
#
# Mechanical properties :
#
#
# Convention : Reuss Voigt Hill
#
# Bulk Modulus (GPa) = 9.78967 49.18477 29.48722
# Shear Modulus (GPa) = 9.60083 24.31572 16.95827
#
# Velocity S-wave (km/s) = 2.30493 3.66814 3.06333
# Velocity P-wave (km/s) = 3.53564 6.71990 5.36926
#
# Compressibility (1/GPa) = 0.10214854
#
# Stress axis : x y z
#
# Youngs Moduli (GPa) = 48.10422 55.98566 11.43176
#
# Poissons Ratio (x) = 0.54314 -0.22028
# Poissons Ratio (y) = 0.46668 0.24643
# Poissons Ratio (z) = -0.92693 1.20684
#
# Static dielectric constant tensor:
#      x y z
#    x 1.581290 0.000000 0.030530 
#    y 0.000000 1.661460 0.000000 
#    z 0.030530 0.000000 1.567160 
# 
# From -- ./inp_files/111648.got.cif
#   From: 2010.05.17/outbox.cif.g08.bks.cpg/sg12_56_cif.got.tgz:111648.got - 2010.06.03 13:09:07.
