data_PCOD9184188
_publ_section_title
;
Structure prediction by ZEFSAII (Michael W. Deem and Ramdas Pophale) SiO2 
 PCOD9184188
Probable space group: C 2/M
;
_chemical_formula_sum "Si O2"
_cell_formula_units_Z 48
_cell_length_a 27.558723
_cell_length_b 12.325100
_cell_length_c 21.824199
_cell_angle_alpha 90.000000
_cell_angle_beta 18.221674
_cell_angle_gamma 90.000000
_cell_volume 2317.969703
_symmetry_space_group_name_H-M "C 2/M"
_symmetry_group_IT_number 12
_symmetry_cell_setting 'monoclinic'
loop_
_space_group_symop_operation_xyz
x,y,z
-x,y,-z
-x,-y,-z
x,-y,z
1/2+x,1/2+y,z
1/2-x,1/2+y,-z
1/2-x,1/2-y,-z
1/2+x,1/2-y,z
loop_
_atom_site_type_symbol
_atom_site_label
_atom_site_fract_x
_atom_site_fract_y
_atom_site_fract_z
Si Si1 0.669612 0.619180 0.032870
Si Si2 0.677760 0.665234 0.167144
Si Si3 0.893780 0.615496 0.009727
Si Si4 0.677915 0.372949 0.604047
Si Si5 0.832174 0.120428 0.608866
Si Si6 0.111020 0.209096 0.810205
O O1 0.721599 0.500000 0.953238
O O2 0.666967 0.632530 0.109373
O O3 0.495305 0.633452 0.216707
O O4 0.789815 0.707543 0.865313
O O5 0.828819 0.618224 0.019397
O O6 0.515603 0.632669 0.390604
O O7 0.969526 0.500000 0.932122
O O8 0.743832 0.623737 0.233162
O O9 0.004287 0.709959 0.898332
O O10 0.733734 0.500000 0.519915
O O11 0.750000 0.250000 0.500000
O O12 0.671401 0.372258 0.686117
O O13 0.749522 0.216518 0.670626
O O14 0.796787 0.000000 0.625294
O O15 0.000000 0.171072 0.000000
#
# Coordination Sequence:
#
# PCOD9184188 Si02
#       6
#     8   8   8   8   8   8
#     4  10  22  39  58  81 117 158 197 251 313 361
#     4  11  20  35  57  84 112 153 204 244 300 366
#     4  10  19  33  57  88 119 156 203 250 304 369
#     4  11  24  44  66  94 128 167 210 259 316 372
#     4  10  20  34  56  87 126 159 193 254 315 360
#     4  10  21  39  61  91 124 165 208 254 310 374
#
# _framework density 20.707777
#
# number of rings (size 3 to 8) (size 9 to 14) (size 15 to 20)
#    0.000    1.667    1.667    3.500    0.000    6.333 
#    0.000    5.000    0.000    3.000    0.000    0.000 
#    0.000    0.000    0.000    0.000    0.000    0.000 
#
# Total GULP energy -133700.520993 kJ/mol
# GULP energy per Si atom -5570.855041 kJ/mol
# Density = 2.066065 g / cm^3
# Si number density = 20.707777 Si / 1000 Ang^3
#
#
#
# Elastic Constant Matrix: (Units=GPa)
#
#
# Indices 1 2 3 4 5 6 
#
# 1 95.0226 14.0844 -2.4766 0.0001 -7.5180 -0.0024
# 2 14.0844 131.2996 23.0245 0.0010 7.6173 -0.0052
# 3 -2.4766 23.0245 40.1900 0.0024 2.9701 -0.0110
# 4 0.0001 0.0010 0.0024 36.2133 -0.0004 -50.1841
# 5 -7.5180 7.6173 2.9701 -0.0004 23.2557 0.0034
# 6 -0.0024 -0.0052 -0.0110 -50.1841 0.0034 167.7577
#
#
#
# Elastic Compliance Matrix: (Units=1/GPa)
#
#
# Indices 1 2 3 4 5 6 
#
# 1 0.011118 -0.001658 0.001342 0.000000 0.003966 0.000000
# 2 -0.001658 0.008824 -0.004951 0.000000 -0.002794 0.000000
# 3 0.001342 -0.004951 0.027912 0.000001 -0.001509 0.000002
# 4 0.000000 0.000000 0.000001 0.047168 -0.000001 0.014110
# 5 0.003966 -0.002794 -0.001509 -0.000001 0.045390 -0.000001
# 6 0.000000 0.000000 0.000002 0.014110 -0.000001 0.010182
#
#
# Mechanical properties :
#
#
# Convention : Reuss Voigt Hill
#
# Bulk Modulus (GPa) = 26.79474 37.30852 32.05163
# Shear Modulus (GPa) = 28.80685 60.90400 44.85543
#
# Velocity S-wave (km/s) = 3.73381 5.42909 4.65920
# Velocity P-wave (km/s) = 5.61747 7.57336 6.66753
#
# Compressibility (1/GPa) = 0.03732076
#
# Stress axis : x y z
#
# Youngs Moduli (GPa) = 89.94153 113.32293 35.82629
#
# Poissons Ratio (x) = 0.18790 -0.04808
# Poissons Ratio (y) = 0.14913 0.17738
# Poissons Ratio (z) = -0.12070 0.56107
#
# Static dielectric constant tensor:
#      x y z
#    x 1.753340 0.000000 0.041030 
#    y 0.000000 1.945190 0.000000 
#    z 0.041030 0.000000 1.734960 
# 
# From -- ./inp_files/327951.got.cif
#   From: 2010.05.17/outbox.cif.g08.bks.cpg/sg12_164_cif.got.tgz:327951.got - 2010.06.03 13:09:07.
