data_PCOD9184755
_publ_section_title
;
Structure prediction by ZEFSAII (Michael W. Deem and Ramdas Pophale) SiO2 
 PCOD9184755
Probable space group: C 2/M
;
_chemical_formula_sum "Si O2"
_cell_formula_units_Z 48
_cell_length_a 12.828881
_cell_length_b 24.558606
_cell_length_c 9.604798
_cell_angle_alpha 90.000000
_cell_angle_beta 129.079986
_cell_angle_gamma 90.000000
_cell_volume 2349.046742
_symmetry_space_group_name_H-M "C 2/M"
_symmetry_group_IT_number 12
_symmetry_cell_setting 'monoclinic'
loop_
_space_group_symop_operation_xyz
x,y,z
-x,y,-z
-x,-y,-z
x,-y,z
1/2+x,1/2+y,z
1/2-x,1/2+y,-z
1/2-x,1/2-y,-z
1/2+x,1/2-y,z
loop_
_atom_site_type_symbol
_atom_site_label
_atom_site_fract_x
_atom_site_fract_y
_atom_site_fract_z
Si Si1 0.199027 0.669525 0.751649
Si Si2 0.073739 0.176768 0.712186
Si Si3 0.991455 0.940467 0.324204
Si Si4 0.350982 0.561310 0.805969
Si Si5 0.061810 0.288534 0.352416
Si Si6 0.345278 0.774425 0.851230
O O1 0.253513 0.609354 0.772308
O O2 0.077204 0.676597 0.759135
O O3 0.321767 0.711510 0.873999
O O4 0.133465 0.695644 0.556255
O O5 0.077205 0.116134 0.774942
O O6 0.990278 0.226385 0.707312
O O7 0.225941 0.195804 0.828686
O O8 0.000000 0.172624 0.500000
O O9 0.000000 0.940993 0.500000
O O10 0.125744 0.936883 0.342604
O O11 0.931702 0.000000 0.236102
O O12 0.304352 0.500000 0.801147
O O13 0.500000 0.567654 0.000000
O O14 0.170022 0.293163 0.322167
O O15 0.500000 0.788977 0.000000
#
# Coordination Sequence:
#
# PCOD9184755 Si02
#       6
#     8   8   8   8   8   8
#     4  10  20  35  56  77 105 148 181 221 271 329
#     4  10  19  34  54  79 106 145 180 224 276 318
#     4   9  19  33  54  83 105 136 187 229 265 321
#     4  10  21  36  56  82 110 141 181 232 279 316
#     4  10  20  35  52  79 108 145 184 218 271 334
#     4  11  22  32  52  83 113 143 180 225 274 326
#
# _framework density 20.433821999999999
#
# number of rings (size 3 to 8) (size 9 to 14) (size 15 to 20)
#    0.000    2.000    3.333    2.000    4.667    4.000 
#    0.000    1.667    0.000    1.500    0.000    0.000 
#    0.000    0.000    0.000    0.000    0.000    0.000 
#
# Total GULP energy -133661.224129 kJ/mol
# GULP energy per Si atom -5569.217672 kJ/mol
# Density = 2.038731 g / cm^3
# Si number density = 20.433822 Si / 1000 Ang^3
#
#
#
# Elastic Constant Matrix: (Units=GPa)
#
#
# Indices 1 2 3 4 5 6 
#
# 1 77.8638 49.8251 8.9876 0.0000 3.6120 0.0000
# 2 49.8251 199.7942 8.6478 0.0000 20.6330 0.0000
# 3 8.9876 8.6478 68.8002 0.0000 8.1588 0.0000
# 4 0.0000 0.0000 0.0000 3.5357 0.0000 8.7135
# 5 3.6120 20.6330 8.1588 0.0000 34.1666 0.0000
# 6 0.0000 0.0000 0.0000 8.7135 0.0000 21.4337
#
#
#
# Elastic Compliance Matrix: (Units=1/GPa)
#
#
# Indices 1 2 3 4 5 6 
#
# 1 0.015482 -0.003904 -0.001664 0.000000 0.001119 0.000000
# 2 -0.003904 0.006329 0.000122 0.000000 -0.003438 0.000000
# 3 -0.001664 0.000122 0.015154 0.000000 -0.003517 0.000000
# 4 0.000000 0.000000 0.000000********** 0.000000 60.937722
# 5 0.001119 -0.003438 -0.003517 0.000000 0.032066 0.000000
# 6 0.000000 0.000000 0.000000 60.937722 0.000000-24.726612
#
#
# Mechanical properties :
#
#
# Convention : Reuss Voigt Hill
#
# Bulk Modulus (GPa) = 38.35619 53.48659 45.92139
# Shear Modulus (GPa) = -0.02865 30.42705 15.19920
#
# Velocity S-wave (km/s) = -0.11853 3.86301 2.73028
# Velocity P-wave (km/s) = 4.33508 6.79187 5.69747
#
# Compressibility (1/GPa) = 0.02607141
#
# Stress axis : x y z
#
# Youngs Moduli (GPa) = 64.59318 158.01305 65.98959
#
# Poissons Ratio (x) = 0.61693 0.10983
# Poissons Ratio (y) = 0.25219 -0.00807
# Poissons Ratio (z) = 0.10750 -0.01932
#
# Static dielectric constant tensor:
#      x y z
#    x 1.754490 0.000000 -0.109030 
#    y 0.000000 1.746220 0.000000 
#    z -0.109030 0.000000 1.870260 
# 
# From -- ./inp_files/135561.got.cif
#   From: 2010.05.17/outbox.cif.g08.bks.cpg/sg12_68_cif.got.tgz:135561.got - 2010.06.03 13:09:07.
