data_PCOD9184523
_publ_section_title
;
Structure prediction by ZEFSAII (Michael W. Deem and Ramdas Pophale) SiO2 
 PCOD9184523
Probable space group: C 2/M
;
_chemical_formula_sum "Si O2"
_cell_formula_units_Z 44
_cell_length_a 6.302951
_cell_length_b 28.734716
_cell_length_c 14.438153
_cell_angle_alpha 90.000000
_cell_angle_beta 73.238162
_cell_angle_gamma 90.000000
_cell_volume 2503.840226
_symmetry_space_group_name_H-M "C 2/M"
_symmetry_group_IT_number 12
_symmetry_cell_setting 'monoclinic'
loop_
_space_group_symop_operation_xyz
x,y,z
-x,y,-z
-x,-y,-z
x,-y,z
1/2+x,1/2+y,z
1/2-x,1/2+y,-z
1/2-x,1/2-y,-z
1/2+x,1/2-y,z
loop_
_atom_site_type_symbol
_atom_site_label
_atom_site_fract_x
_atom_site_fract_y
_atom_site_fract_z
Si Si1 0.465030 0.812845 0.606308
Si Si2 0.284830 0.000000 0.453869
Si Si3 0.499664 0.350124 0.269934
Si Si4 0.295243 0.600198 0.596834
Si Si5 0.358662 0.684946 0.110075
Si Si6 0.086373 0.717367 0.788553
O O1 0.500000 0.791847 0.500000
O O2 0.624073 0.858016 0.596806
O O3 0.516673 0.780462 0.688557
O O4 0.214611 0.830607 0.649527
O O5 0.500000 0.000000 0.500000
O O6 0.312364 0.049750 0.401402
O O7 0.000000 0.000000 0.500000
O O8 0.602245 0.392155 0.314426
O O9 0.423845 0.355405 0.173663
O O10 0.689723 0.311443 0.241686
O O11 0.500000 0.604621 0.500000
O O12 0.094861 0.686419 0.134078
O O13 0.396315 0.734577 0.158103
O O14 0.500000 0.683792 0.000000
#
# Coordination Sequence:
#
# PCOD9184523 Si02
#       6
#     8   4   8   8   8   8
#     4  10  19  34  52  69 106 148 183 223 272 331
#     4  10  22  34  58  94 117 151 195 230 280 345
#     4  10  21  34  51  78 105 143 189 226 284 333
#     4  10  19  34  56  78 113 147 178 229 275 335
#     4  11  21  36  55  73 101 140 185 245 293 335
#     4  10  21  32  51  75  98 137 187 233 281 335
#
# _framework density 17.573007
#
# number of rings (size 3 to 8) (size 9 to 14) (size 15 to 20)
#    0.000    1.818    3.636    1.091    2.545    0.000 
#    0.000    4.545    0.000    0.000    0.000    0.636 
#    0.000   13.091    0.000    0.364    0.000    0.000 
#
# Total GULP energy -122488.874947 kJ/mol
# GULP energy per Si atom -5567.676134 kJ/mol
# Density = 1.753301 g / cm^3
# Si number density = 17.573007 Si / 1000 Ang^3
#
#
#
# Elastic Constant Matrix: (Units=GPa)
#
#
# Indices 1 2 3 4 5 6 
#
# 1 95.3474 20.0829 25.1095 0.0000 -18.9688 0.0000
# 2 20.0829 66.2655 19.0524 0.0000 0.3046 0.0000
# 3 25.1095 19.0524 114.1526 0.0000 -18.6402 0.0000
# 4 0.0000 0.0000 0.0000 9.9769 0.0000 7.2846
# 5 -18.9688 0.3046 -18.6402 0.0000 20.2391 0.0000
# 6 0.0000 0.0000 0.0000 7.2846 0.0000 29.4356
#
#
#
# Elastic Compliance Matrix: (Units=1/GPa)
#
#
# Indices 1 2 3 4 5 6 
#
# 1 0.014030 -0.004237 -0.000261 0.000000 0.012973 0.000000
# 2 -0.004237 0.017303 -0.003116 0.000000 -0.007101 0.000000
# 3 -0.000261 -0.003116 0.010952 0.000000 0.009890 0.000000
# 4 0.000000 0.000000 0.000000 0.122337 0.000000 -0.030275
# 5 0.012973 -0.007101 0.009890 0.000000 0.070784 0.000000
# 6 0.000000 0.000000 0.000000 -0.030275 0.000000 0.041465
#
#
# Mechanical properties :
#
#
# Convention : Reuss Voigt Hill
#
# Bulk Modulus (GPa) = 36.95496 44.91726 40.93611
# Shear Modulus (GPa) = 16.60486 26.03170 21.31828
#
# Velocity S-wave (km/s) = 3.07727 3.85300 3.48678
# Velocity P-wave (km/s) = 5.80527 6.73870 6.28932
#
# Compressibility (1/GPa) = 0.02705996
#
# Stress axis : x y z
#
# Youngs Moduli (GPa) = 71.27643 57.79268 91.30392
#
# Poissons Ratio (x) = 0.24485 0.02379
# Poissons Ratio (y) = 0.30198 0.28446
# Poissons Ratio (z) = 0.01857 0.18005
#
# Static dielectric constant tensor:
#      x y z
#    x 1.737670 0.000000 0.018560 
#    y 0.000000 1.578870 0.000000 
#    z 0.018560 0.000000 1.615910 
# 
# From -- ./inp_files/192334.got.cif
#   From: 2010.05.17/outbox.cif.g08.bks.cpg/sg12_97_cif.got.tgz:192334.got - 2010.06.03 13:09:07.
