data_PCOD9184856
_publ_section_title
;
Structure prediction by ZEFSAII (Michael W. Deem and Ramdas Pophale) SiO2 
 PCOD9184856
Probable space group: C 2/M
;
_chemical_formula_sum "Si O2"
_cell_formula_units_Z 36
_cell_length_a 19.219028
_cell_length_b 13.208999
_cell_length_c 7.842212
_cell_angle_alpha 90.000000
_cell_angle_beta 105.981350
_cell_angle_gamma 90.000000
_cell_volume 1913.912386
_symmetry_space_group_name_H-M "C 2/M"
_symmetry_group_IT_number 12
_symmetry_cell_setting 'monoclinic'
loop_
_space_group_symop_operation_xyz
x,y,z
-x,y,-z
-x,-y,-z
x,-y,z
1/2+x,1/2+y,z
1/2-x,1/2+y,-z
1/2-x,1/2-y,-z
1/2+x,1/2-y,z
loop_
_atom_site_type_symbol
_atom_site_label
_atom_site_fract_x
_atom_site_fract_y
_atom_site_fract_z
Si Si1 0.170857 0.204006 0.974119
Si Si2 0.500000 0.802506 0.500000
Si Si3 0.349876 0.297958 0.411994
Si Si4 0.559980 0.886774 0.892252
Si Si5 0.264210 0.613430 0.661714
O O1 0.149764 0.156604 0.778308
O O2 0.116863 0.297745 0.966590
O O3 0.250000 0.250000 0.000000
O O4 0.181315 0.133763 0.144213
O O5 0.568722 0.734944 0.490799
O O6 0.525638 0.865665 0.682578
O O7 0.310002 0.367210 0.521743
O O8 0.300955 0.194885 0.375410
O O9 0.592514 0.000000 0.915399
O O10 0.500000 0.883228 0.000000
O O11 0.235309 0.500000 0.649332
#
# Coordination Sequence:
#
# PCOD9184856 Si02
#       5
#     8   4   8   8   8
#     4   9  19  34  51  75 107 138 172 210 251 304
#     4  10  19  34  55  76 110 140 167 212 263 312
#     4   9  20  36  54  80 107 135 172 216 260 307
#     4  10  20  33  53  81 109 137 169 210 263 316
#     4  10  20  36  56  77 104 138 176 215 258 307
#
# _framework density 18.809639000000001
#
# number of rings (size 3 to 8) (size 9 to 14) (size 15 to 20)
#    0.000    2.444    0.000    1.667    0.000    9.778 
#    0.000   13.889    0.000   12.667    0.000    0.000 
#    0.000    0.000    0.000    0.000    0.000    0.000 
#
# Total GULP energy -100354.676209 kJ/mol
# GULP energy per Si atom -5575.259789 kJ/mol
# Density = 1.876683 g / cm^3
# Si number density = 18.809639 Si / 1000 Ang^3
#
#
#
# Elastic Constant Matrix: (Units=GPa)
#
#
# Indices 1 2 3 4 5 6 
#
# 1 73.7500 7.2989 14.9505 0.0000 3.8268 0.0000
# 2 7.2989 43.5591 27.4263 0.0000 1.4339 0.0000
# 3 14.9505 27.4263 52.7458 0.0000 -4.8243 0.0000
# 4 0.0000 0.0000 0.0000 10.7014 0.0000 12.3325
# 5 3.8268 1.4339 -4.8243 0.0000 24.3753 0.0000
# 6 0.0000 0.0000 0.0000 12.3325 0.0000 5.2082
#
#
#
# Elastic Compliance Matrix: (Units=1/GPa)
#
#
# Indices 1 2 3 4 5 6 
#
# 1 0.014636 0.000680 -0.004803 0.000000 -0.003288 0.000000
# 2 0.000680 0.034937 -0.018899 0.000000 -0.005902 0.000000
# 3 -0.004803 -0.018899 0.030877 0.000000 0.007977 0.000000
# 4 0.000000 0.000000 0.000000 -0.054051 0.000000 0.127988
# 5 -0.003288 -0.005902 0.007977 0.000000 0.043467 0.000000
# 6 0.000000 0.000000 0.000000 0.127988 0.000000 -0.111060
#
#
# Mechanical properties :
#
#
# Convention : Reuss Voigt Hill
#
# Bulk Modulus (GPa) = 29.06447 29.93404 29.49925
# Shear Modulus (GPa) = 306.38263 16.08224 161.23243
#
# Velocity S-wave (km/s) = 12.77652 2.92721 9.26844
# Velocity P-wave (km/s) = 15.26886 5.23197 11.41297
#
# Compressibility (1/GPa) = 0.03440627
#
# Stress axis : x y z
#
# Youngs Moduli (GPa) = 68.32331 28.62294 32.38701
#
# Poissons Ratio (x) = -0.01946 0.15555
# Poissons Ratio (y) = -0.04644 0.61207
# Poissons Ratio (z) = 0.32814 0.54094
#
# Static dielectric constant tensor:
#      x y z
#    x 1.625220 0.000000 -0.016550 
#    y 0.000000 1.638080 0.000000 
#    z -0.016550 0.000000 1.694810 
# 
# From -- ./inp_files/71504.got.cif
#   From: 2010.05.17/outbox.cif.g08.bks.cpg/sg12_36_cif.got.tgz:71504.got - 2010.06.03 13:09:07.
