data_PCOD9184404
_publ_section_title
;
Structure prediction by ZEFSAII (Michael W. Deem and Ramdas Pophale) SiO2 
 PCOD9184404
Probable space group: C 2/M
;
_chemical_formula_sum "Si O2"
_cell_formula_units_Z 64
_cell_length_a 26.346255
_cell_length_b 14.440945
_cell_length_c 10.986501
_cell_angle_alpha 90.000000
_cell_angle_beta 42.802722
_cell_angle_gamma 90.000000
_cell_volume 2840.194808
_symmetry_space_group_name_H-M "C 2/M"
_symmetry_group_IT_number 12
_symmetry_cell_setting 'monoclinic'
loop_
_space_group_symop_operation_xyz
x,y,z
-x,y,-z
-x,-y,-z
x,-y,z
1/2+x,1/2+y,z
1/2-x,1/2+y,-z
1/2-x,1/2-y,-z
1/2+x,1/2-y,z
loop_
_atom_site_type_symbol
_atom_site_label
_atom_site_fract_x
_atom_site_fract_y
_atom_site_fract_z
Si Si1 0.804064 0.892297 0.860558
Si Si2 0.423208 0.601389 0.102984
Si Si3 0.310640 0.110006 0.123307
Si Si4 0.028964 0.610780 0.082255
Si Si5 0.568215 0.392982 0.198959
Si Si6 0.940891 0.396375 0.492991
Si Si7 0.909980 0.202324 0.499714
Si Si8 0.301202 0.322962 0.476872
O O1 0.729344 0.852485 0.929093
O O2 0.853244 0.856548 0.885960
O O3 0.865334 0.878639 0.646205
O O4 0.788860 0.000000 0.913051
O O5 0.431940 0.500000 0.147287
O O6 0.343874 0.629380 0.292262
O O7 0.500000 0.653547 0.000000
O O8 0.422888 0.599767 0.959946
O O9 0.253342 0.122271 0.336088
O O10 0.321161 0.000000 0.083788
O O11 0.390202 0.151251 0.022762
O O12 0.038920 0.500000 0.049730
O O13 0.977880 0.619272 0.293465
O O14 0.000000 0.642095 0.000000
O O15 0.555335 0.500000 0.266355
O O16 0.496531 0.328154 0.350356
O O17 0.905807 0.500000 0.553576
O O18 0.000000 0.398197 0.500000
O O19 0.895843 0.301328 0.589033
O O20 0.870814 0.210600 0.437558
O O21 0.250000 0.250000 0.500000
#
# Coordination Sequence:
#
# PCOD9184404 Si02
#       8
#     8   8   8   8   8   8   8   8
#     4   9  18  33  58  92 125 154 192 240 309 387
#     4  10  20  38  62  89 124 165 207 255 320 388
#     4   9  19  37  60  83 116 156 193 247 310 366
#     4   9  19  37  63  88 110 150 213 266 303 356
#     4  10  19  33  60  94 123 153 197 250 311 384
#     4  10  22  40  61  87 118 155 208 266 314 356
#     4  11  21  36  58  84 119 160 200 252 304 364
#     4  11  24  38  53  85 123 162 204 251 307 376
#
# _framework density 22.533664999999999
#
# number of rings (size 3 to 8) (size 9 to 14) (size 15 to 20)
#    0.000    2.125    1.250    1.875    1.750    3.000 
#    0.000    1.875    0.000    6.750    0.000    0.000 
#    0.000    0.000    0.000    0.000    0.000    0.000 
#
# Total GULP energy -178229.348500 kJ/mol
# GULP energy per Si atom -5569.667141 kJ/mol
# Density = 2.248238 g / cm^3
# Si number density = 22.533665 Si / 1000 Ang^3
#
#
#
# Elastic Constant Matrix: (Units=GPa)
#
#
# Indices 1 2 3 4 5 6 
#
# 1 171.2344 4.3520 12.3653 0.0000 -7.0170 0.0000
# 2 4.3520 67.0189 0.3930 0.0000 -10.8702 0.0000
# 3 12.3653 0.3930 33.8991 0.0000 -7.9147 0.0000
# 4 0.0000 0.0000 0.0000 5.3484 0.0000 -7.1376
# 5 -7.0170 -10.8702 -7.9147 0.0000 33.7201 0.0000
# 6 0.0000 0.0000 0.0000 -7.1376 0.0000 12.4848
#
#
#
# Elastic Compliance Matrix: (Units=1/GPa)
#
#
# Indices 1 2 3 4 5 6 
#
# 1 0.006022 -0.000267 -0.002032 0.000000 0.000690 0.000000
# 2 -0.000267 0.015792 0.001153 0.000000 0.005306 0.000000
# 3 -0.002032 0.001153 0.031967 0.000000 0.007452 0.000000
# 4 0.000000 0.000000 0.000000 0.788781 0.000000 0.450952
# 5 0.000690 0.005306 0.007452 0.000000 0.033259 0.000000
# 6 0.000000 0.000000 0.000000 0.450952 0.000000 0.337911
#
#
# Mechanical properties :
#
#
# Convention : Reuss Voigt Hill
#
# Bulk Modulus (GPa) = 19.42180 34.04145 26.73163
# Shear Modulus (GPa) = 4.05453 27.31347 15.68400
#
# Velocity S-wave (km/s) = 1.34284 3.48533 2.64109
# Velocity P-wave (km/s) = 3.32295 5.59789 4.60317
#
# Compressibility (1/GPa) = 0.05148854
#
# Stress axis : x y z
#
# Youngs Moduli (GPa) = 166.06401 63.32179 31.28207
#
# Poissons Ratio (x) = 0.01692 0.06358
# Poissons Ratio (y) = 0.04437 -0.03607
# Poissons Ratio (z) = 0.33750 -0.07302
#
# Static dielectric constant tensor:
#      x y z
#    x 1.771950 0.000000 -0.061360 
#    y 0.000000 1.901750 0.000000 
#    z -0.061360 0.000000 1.825050 
# 
# From -- ./inp_files/183780.got.cif
#   From: 2010.05.17/outbox.cif.g08.bks.cpg/sg12_92_cif.got.tgz:183780.got - 2010.06.03 13:09:07.
