data_PCOD9184172
_publ_section_title
;
Structure prediction by ZEFSAII (Michael W. Deem and Ramdas Pophale) SiO2 
 PCOD9184172
Probable space group: C 2/M
;
_chemical_formula_sum "Si O2"
_cell_formula_units_Z 56
_cell_length_a 29.519229
_cell_length_b 9.717135
_cell_length_c 20.275373
_cell_angle_alpha 90.000000
_cell_angle_beta 26.627396
_cell_angle_gamma 90.000000
_cell_volume 2606.579314
_symmetry_space_group_name_H-M "C 2/M"
_symmetry_group_IT_number 12
_symmetry_cell_setting 'monoclinic'
loop_
_space_group_symop_operation_xyz
x,y,z
-x,y,-z
-x,-y,-z
x,-y,z
1/2+x,1/2+y,z
1/2-x,1/2+y,-z
1/2-x,1/2-y,-z
1/2+x,1/2-y,z
loop_
_atom_site_type_symbol
_atom_site_label
_atom_site_fract_x
_atom_site_fract_y
_atom_site_fract_z
Si Si1 0.276781 0.152968 0.025327
Si Si2 0.507051 0.154503 0.688571
Si Si3 0.079737 0.657348 0.835737
Si Si4 0.471206 0.341471 0.461749
Si Si5 0.046346 0.843848 0.752108
Si Si6 0.767670 0.347539 0.255263
Si Si7 0.689315 0.652388 0.910136
O O1 0.397541 0.138190 0.864598
O O2 0.232885 0.000000 0.079077
O O3 0.250000 0.250000 0.000000
O O4 0.250087 0.237235 0.125315
O O5 0.488070 0.233316 0.644532
O O6 0.569010 0.252218 0.657931
O O7 0.549260 0.000000 0.624227
O O8 0.059442 0.500000 0.839281
O O9 0.073710 0.762105 0.783132
O O10 0.190001 0.660391 0.726137
O O11 0.000000 0.683406 0.000000
O O12 0.500000 0.309508 0.500000
O O13 0.503563 0.500000 0.407145
O O14 0.351077 0.338495 0.603297
O O15 0.087224 0.000000 0.695621
O O16 0.924091 0.857733 0.914705
O O17 0.800967 0.500000 0.186770
O O18 0.816466 0.220984 0.153299
O O19 0.734400 0.500000 0.851942
#
# Coordination Sequence:
#
# PCOD9184172 Si02
#       7
#     8   8   8   8   8   8   8
#     4  10  21  35  54  81 112 146 187 237 293 350
#     4  10  22  40  60  83 114 152 196 242 291 347
#     4  10  19  33  57  87 122 157 190 234 292 352
#     4  10  23  42  62  84 113 154 200 245 291 339
#     4  10  20  35  58  87 120 154 189 233 289 349
#     4  10  21  37  57  84 117 155 196 237 288 350
#     4  10  20  33  52  82 117 151 185 231 286 344
#
# _framework density 21.484095
#
# number of rings (size 3 to 8) (size 9 to 14) (size 15 to 20)
#    0.000    2.000    1.429    1.714    2.000    4.571 
#    0.000    0.714    0.000    0.000    0.000    0.000 
#    0.000    0.000    0.000    0.000    0.000    0.000 
#
# Total GULP energy -156194.103023 kJ/mol
# GULP energy per Si atom -5578.360822 kJ/mol
# Density = 2.143520 g / cm^3
# Si number density = 21.484095 Si / 1000 Ang^3
#
#
#
# Elastic Constant Matrix: (Units=GPa)
#
#
# Indices 1 2 3 4 5 6 
#
# 1 130.7427 90.5076 13.7091 0.0001 8.4021 -0.0001
# 2 90.5076 209.7741 19.1626 0.0012 28.2942 -0.0006
# 3 13.7091 19.1626 39.0922 0.0014 -3.2792 -0.0005
# 4 0.0001 0.0012 0.0014 13.8081 -0.0003 -0.8518
# 5 8.4021 28.2942 -3.2792 -0.0003 29.1213 0.0000
# 6 -0.0001 -0.0006 -0.0005 -0.8518 0.0000 21.4470
#
#
#
# Elastic Compliance Matrix: (Units=1/GPa)
#
#
# Indices 1 2 3 4 5 6 
#
# 1 0.011044 -0.004818 -0.001399 0.000000 0.001337 0.000000
# 2 -0.004818 0.008005 -0.002797 0.000000 -0.006703 0.000000
# 3 -0.001399 -0.002797 0.027968 -0.000002 0.006270 0.000000
# 4 0.000000 0.000000 -0.000002 0.072599 0.000001 0.002883
# 5 0.001337 -0.006703 0.006270 0.000001 0.041172 0.000000
# 6 0.000000 0.000000 0.000000 0.002883 0.000000 0.046741
#
#
# Mechanical properties :
#
#
# Convention : Reuss Voigt Hill
#
# Bulk Modulus (GPa) = 34.49453 69.59639 52.04546
# Shear Modulus (GPa) = 21.25656 29.95724 25.60690
#
# Velocity S-wave (km/s) = 3.14890 3.73821 3.45614
# Velocity P-wave (km/s) = 5.41401 7.14821 6.34068
#
# Compressibility (1/GPa) = 0.02899010
#
# Stress axis : x y z
#
# Youngs Moduli (GPa) = 90.54293 124.91956 35.75478
#
# Poissons Ratio (x) = 0.60181 0.05004
# Poissons Ratio (y) = 0.43620 0.10000
# Poissons Ratio (z) = 0.12671 0.34938
#
# Static dielectric constant tensor:
#      x y z
#    x 1.790100 0.000000 -0.020450 
#    y 0.000000 1.822320 0.000000 
#    z -0.020450 0.000000 1.839130 
# 
# From -- ./inp_files/329506.got.cif
#   From: 2010.05.17/outbox.cif.g08.bks.cpg/sg12_165_cif.got.tgz:329506.got - 2010.06.03 13:09:07.
