data_PCOD9184044
_publ_section_title
;
Structure prediction by ZEFSAII (Michael W. Deem and Ramdas Pophale) SiO2 
 PCOD9184044
Probable space group: C 2/M
;
_chemical_formula_sum "Si O2"
_cell_formula_units_Z 40
_cell_length_a 10.152935
_cell_length_b 23.474513
_cell_length_c 9.052600
_cell_angle_alpha 90.000000
_cell_angle_beta 136.038755
_cell_angle_gamma 90.000000
_cell_volume 1497.712313
_symmetry_space_group_name_H-M "C 2/M"
_symmetry_group_IT_number 12
_symmetry_cell_setting 'monoclinic'
loop_
_space_group_symop_operation_xyz
x,y,z
-x,y,-z
-x,-y,-z
x,-y,z
1/2+x,1/2+y,z
1/2-x,1/2+y,-z
1/2-x,1/2-y,-z
1/2+x,1/2-y,z
loop_
_atom_site_type_symbol
_atom_site_label
_atom_site_fract_x
_atom_site_fract_y
_atom_site_fract_z
Si Si1 0.415815 0.733088 0.249360
Si Si2 0.143869 0.315578 0.257858
Si Si3 0.295247 0.066836 0.270265
Si Si4 0.203037 0.561157 0.247376
Si Si5 0.447548 0.394600 0.183182
O O1 0.314807 0.720711 0.323966
O O2 0.559145 0.783775 0.328770
O O3 0.486664 0.671127 0.252057
O O4 0.250000 0.750000 0.000000
O O5 0.197535 0.380619 0.333516
O O6 0.000000 0.318368 0.000000
O O7 0.500000 0.082075 0.500000
O O8 0.124498 0.076012 0.247582
O O9 0.301903 0.000000 0.232174
O O10 0.228195 0.102877 0.074765
O O11 0.225930 0.500000 0.341636
O O12 0.367242 0.572072 0.259569
O O13 0.000000 0.558747 0.000000
#
# Coordination Sequence:
#
# PCOD9184044 Si02
#       5
#     8   8   8   8   8
#     4   9  17  27  47  79 106 137 187 221 270 338
#     4   8  15  25  39  70 103 136 176 220 268 318
#     4  10  21  35  54  83 113 142 183 232 281 333
#     4   9  16  28  47  77 111 139 183 229 267 334
#     4  10  19  33  57  82 108 148 182 226 283 333
#
# _framework density 26.707398999999999
#
# number of rings (size 3 to 8) (size 9 to 14) (size 15 to 20)
#    0.000    2.800    0.000    3.600    8.400    0.000 
#    0.000    0.000    0.000    2.400    0.000    5.600 
#    0.000    0.000    0.000    0.000    0.000    0.000 
#
# Total GULP energy -112156.512909 kJ/mol
# GULP energy per Si atom -5607.825645 kJ/mol
# Density = 2.664661 g / cm^3
# Si number density = 26.707399 Si / 1000 Ang^3
#
#
#
# Elastic Constant Matrix: (Units=GPa)
#
#
# Indices 1 2 3 4 5 6 
#
# 1 117.7686 89.1295 29.4650 0.0000 12.3959 0.0000
# 2 89.1295 233.9166 42.8209 0.0000 -8.5071 0.0000
# 3 29.4650 42.8209 125.3404 0.0000 1.5862 0.0000
# 4 0.0000 0.0000 0.0000 35.4425 0.0000 -1.1814
# 5 12.3959 -8.5071 1.5862 0.0000 41.6098 0.0000
# 6 0.0000 0.0000 0.0000 -1.1814 0.0000 40.7460
#
#
#
# Elastic Compliance Matrix: (Units=1/GPa)
#
#
# Indices 1 2 3 4 5 6 
#
# 1 0.013043 -0.004902 -0.001330 0.000000 -0.004837 0.000000
# 2 -0.004902 0.006444 -0.001085 0.000000 0.002819 0.000000
# 3 -0.001330 -0.001085 0.008664 0.000000 -0.000156 0.000000
# 4 0.000000 0.000000 0.000000 0.028242 0.000000 0.000819
# 5 -0.004837 0.002819 -0.000156 0.000000 0.026056 0.000000
# 6 0.000000 0.000000 0.000000 0.000819 0.000000 0.024566
#
#
# Mechanical properties :
#
#
# Convention : Reuss Voigt Hill
#
# Bulk Modulus (GPa) = 73.98429 88.87291 81.42860
# Shear Modulus (GPa) = 39.63365 44.60033 42.11699
#
# Velocity S-wave (km/s) = 3.85645 4.09095 3.97543
# Velocity P-wave (km/s) = 6.89866 7.46078 7.18522
#
# Compressibility (1/GPa) = 0.01351638
#
# Stress axis : x y z
#
# Youngs Moduli (GPa) = 76.66717 155.18098 115.42622
#
# Poissons Ratio (x) = 0.76075 0.15354
# Poissons Ratio (y) = 0.37585 0.12521
# Poissons Ratio (z) = 0.10198 0.16834
#
# Static dielectric constant tensor:
#      x y z
#    x 2.038150 0.000000 -0.007340 
#    y 0.000000 1.970270 0.000000 
#    z -0.007340 0.000000 2.378470 
# 
# From -- ./inp_files/135610.got.cif
#   From: 2010.05.17/outbox.cif.g08.bks.cpg/sg12_68_cif.got.tgz:135610.got - 2010.06.03 13:09:07.
