data_PCOD9184595
_publ_section_title
;
Structure prediction by ZEFSAII (Michael W. Deem and Ramdas Pophale) SiO2 
 PCOD9184595
Probable space group: C 2/M
;
_chemical_formula_sum "Si O2"
_cell_formula_units_Z 64
_cell_length_a 18.418793
_cell_length_b 12.738208
_cell_length_c 15.486123
_cell_angle_alpha 90.000000
_cell_angle_beta 94.076715
_cell_angle_gamma 90.000000
_cell_volume 3624.198235
_symmetry_space_group_name_H-M "C 2/M"
_symmetry_group_IT_number 12
_symmetry_cell_setting 'monoclinic'
loop_
_space_group_symop_operation_xyz
x,y,z
-x,y,-z
-x,-y,-z
x,-y,z
1/2+x,1/2+y,z
1/2-x,1/2+y,-z
1/2-x,1/2-y,-z
1/2+x,1/2-y,z
loop_
_atom_site_type_symbol
_atom_site_label
_atom_site_fract_x
_atom_site_fract_y
_atom_site_fract_z
Si Si1 0.414118 0.121289 0.486080
Si Si2 0.827185 0.759360 0.120007
Si Si3 0.477217 0.623816 0.098628
Si Si4 0.686224 0.123729 0.050116
Si Si5 0.783401 0.738732 0.407438
Si Si6 0.165902 0.381129 0.335066
Si Si7 0.884114 0.767836 0.819819
Si Si8 0.757830 0.380369 0.244977
O O1 0.500000 0.143786 0.500000
O O2 0.367435 0.205522 0.427199
O O3 0.377185 0.122013 0.577885
O O4 0.406234 0.000000 0.452552
O O5 0.903705 0.814066 0.112162
O O6 0.763529 0.844479 0.099098
O O7 0.815695 0.701015 0.209818
O O8 0.814936 0.669942 0.046331
O O9 0.467857 0.500000 0.113384
O O10 0.541404 0.671410 0.162089
O O11 0.500000 0.636592 0.000000
O O12 0.628445 0.190304 0.100533
O O13 0.674307 0.000000 0.051115
O O14 0.750000 0.750000 0.500000
O O15 0.748686 0.840091 0.356934
O O16 0.750996 0.644765 0.345972
O O17 0.166202 0.500000 0.302545
O O18 0.126255 0.304070 0.265200
O O19 0.817478 0.850483 0.808856
O O20 0.777545 0.500000 0.231764
#
# Coordination Sequence:
#
# PCOD9184595 Si02
#       8
#     8   8   8   8   8   8   8   8
#     4   9  17  30  51  79 109 140 175 218 276 331
#     4  10  21  35  52  80 106 139 184 224 271 331
#     4  11  22  38  57  77 106 144 184 228 277 330
#     4  10  19  34  53  73 104 142 180 226 272 319
#     4   9  18  33  54  80 109 142 183 223 264 327
#     4   9  18  33  53  76 104 143 183 226 273 320
#     4  10  20  35  54  79 105 138 186 228 270 329
#     4  10  20  35  57  82 109 140 181 233 277 318
#
# _framework density 17.659078999999998
#
# number of rings (size 3 to 8) (size 9 to 14) (size 15 to 20)
#    0.000    2.250    1.250    1.875    0.000    1.500 
#    0.000    5.000    0.000    0.375    0.000    0.000 
#    0.000    0.000    0.000    0.000    0.000    0.000 
#
# Total GULP energy -178298.752951 kJ/mol
# GULP energy per Si atom -5571.836030 kJ/mol
# Density = 1.761889 g / cm^3
# Si number density = 17.659079 Si / 1000 Ang^3
#
#
#
# Elastic Constant Matrix: (Units=GPa)
#
#
# Indices 1 2 3 4 5 6 
#
# 1 111.0327 57.3934 10.5837 0.0000 5.7419 0.0000
# 2 57.3934 104.2781 33.2560 0.0000 2.3246 0.0000
# 3 10.5837 33.2560 57.6243 0.0000 5.3937 0.0000
# 4 0.0000 0.0000 0.0000 16.8144 0.0000 -0.6604
# 5 5.7419 2.3246 5.3937 0.0000 20.1534 0.0000
# 6 0.0000 0.0000 0.0000 -0.6604 0.0000 20.5613
#
#
#
# Elastic Compliance Matrix: (Units=1/GPa)
#
#
# Indices 1 2 3 4 5 6 
#
# 1 0.013023 -0.007882 0.002481 0.000000 -0.003465 0.000000
# 2 -0.007882 0.016527 -0.008331 0.000000 0.002569 0.000000
# 3 0.002481 -0.008331 0.022239 0.000000 -0.005698 0.000000
# 4 0.000000 0.000000 0.000000 0.059548 0.000000 0.001912
# 5 -0.003465 0.002569 -0.005698 0.000000 0.051835 0.000000
# 6 0.000000 0.000000 0.000000 0.001912 0.000000 0.048696
#
#
# Mechanical properties :
#
#
# Convention : Reuss Voigt Hill
#
# Bulk Modulus (GPa) = 41.10735 52.82236 46.96485
# Shear Modulus (GPa) = 20.20673 22.95263 21.57968
#
# Velocity S-wave (km/s) = 3.38637 3.60913 3.49953
# Velocity P-wave (km/s) = 6.21441 6.88077 6.55606
#
# Compressibility (1/GPa) = 0.02432655
#
# Stress axis : x y z
#
# Youngs Moduli (GPa) = 76.78588 60.50532 44.96521
#
# Poissons Ratio (x) = 0.47689 -0.11157
# Poissons Ratio (y) = 0.60522 0.37461
# Poissons Ratio (z) = -0.19052 0.50408
#
# Static dielectric constant tensor:
#      x y z
#    x 1.591300 0.000000 -0.002750 
#    y 0.000000 1.586910 0.000000 
#    z -0.002750 0.000000 1.642960 
# 
# From -- ./inp_files/223853.got.cif
#   From: 2010.05.17/outbox.cif.g08.bks.cpg/sg12_112_cif.got.tgz:223853.got - 2010.06.03 13:09:07.
