data_PCOD9184762
_publ_section_title
;
Structure prediction by ZEFSAII (Michael W. Deem and Ramdas Pophale) SiO2 
 PCOD9184762
Probable space group: C 2/M
;
_chemical_formula_sum "Si O2"
_cell_formula_units_Z 64
_cell_length_a 32.369597
_cell_length_b 8.803212
_cell_length_c 18.445867
_cell_angle_alpha 90.000000
_cell_angle_beta 139.210498
_cell_angle_gamma 90.000000
_cell_volume 3433.824912
_symmetry_space_group_name_H-M "C 2/M"
_symmetry_group_IT_number 12
_symmetry_cell_setting 'monoclinic'
loop_
_space_group_symop_operation_xyz
x,y,z
-x,y,-z
-x,-y,-z
x,-y,z
1/2+x,1/2+y,z
1/2-x,1/2+y,-z
1/2-x,1/2-y,-z
1/2+x,1/2-y,z
loop_
_atom_site_type_symbol
_atom_site_label
_atom_site_fract_x
_atom_site_fract_y
_atom_site_fract_z
Si Si1 0.039776 0.818344 0.481459
Si Si2 0.294842 0.818203 0.662293
Si Si3 0.398980 0.817086 0.076839
Si Si4 0.181947 0.682656 0.890761
Si Si5 0.192318 0.181715 0.164477
Si Si6 0.028868 0.318092 0.313539
Si Si7 0.843229 0.818297 0.579203
Si Si8 0.832807 0.316877 0.293920
O O1 0.014138 0.743298 0.374213
O O2 0.111712 0.763053 0.588184
O O3 0.000000 0.773167 0.500000
O O4 0.037744 0.000000 0.472143
O O5 0.315188 0.753996 0.766531
O O6 0.220975 0.778700 0.549763
O O7 0.333163 0.746599 0.646480
O O8 0.300812 0.000000 0.668283
O O9 0.365512 0.774337 0.108291
O O10 0.472327 0.775596 0.183620
O O11 0.394495 0.000000 0.063174
O O12 0.360502 0.740839 0.961101
O O13 0.186774 0.500000 0.896125
O O14 0.161683 0.729322 0.783177
O O15 0.250000 0.750000 0.000000
O O16 0.262373 0.222505 0.227440
O O17 0.189512 0.000000 0.165371
O O18 0.032192 0.500000 0.321013
O O19 0.095270 0.251286 0.375933
O O20 0.848190 0.000000 0.588009
O O21 0.840103 0.500000 0.309195
#
# Coordination Sequence:
#
# PCOD9184762 Si02
#       8
#     8   8   8   8   8   8   8   8
#     4  11  24  39  56  83 116 152 195 243 291 337
#     4  10  21  38  62  90 121 152 185 231 288 346
#     4  10  22  38  57  81 114 155 197 238 286 345
#     4  10  19  34  54  79 110 148 193 238 283 335
#     4  11  22  36  57  86 117 149 190 240 290 338
#     4  11  23  40  62  85 115 157 197 235 286 348
#     4  10  21  39  64  93 120 149 188 234 286 342
#     4  10  21  36  56  83 114 150 193 238 291 350
#
# _framework density 18.638107000000002
#
# number of rings (size 3 to 8) (size 9 to 14) (size 15 to 20)
#    0.000    1.625    1.250    3.375    0.000    8.000 
#    0.000    0.625    0.000    3.750    0.000    0.000 
#    0.000    0.000    0.000    0.000    0.000    0.000 
#
# Total GULP energy -178858.288011 kJ/mol
# GULP energy per Si atom -5589.321500 kJ/mol
# Density = 1.859569 g / cm^3
# Si number density = 18.638107 Si / 1000 Ang^3
#
#
#
# Elastic Constant Matrix: (Units=GPa)
#
#
# Indices 1 2 3 4 5 6 
#
# 1 96.6657 36.1987 48.5813 0.0000 -6.1495 0.0000
# 2 36.1987 39.8042 37.7941 0.0000 -1.6704 0.0000
# 3 48.5813 37.7941 113.8771 0.0000 -12.6010 0.0000
# 4 0.0000 0.0000 0.0000 25.6819 0.0000 -5.6187
# 5 -6.1495 -1.6704 -12.6010 0.0000 33.1370 0.0000
# 6 0.0000 0.0000 0.0000 -5.6187 0.0000 25.2738
#
#
#
# Elastic Compliance Matrix: (Units=1/GPa)
#
#
# Indices 1 2 3 4 5 6 
#
# 1 0.016410 -0.012210 -0.002797 0.000000 0.001366 0.000000
# 2 -0.012210 0.046038 -0.010506 0.000000 -0.003940 0.000000
# 3 -0.002797 -0.010506 0.013932 0.000000 0.004249 0.000000
# 4 0.000000 0.000000 0.000000 0.040929 0.000000 0.009099
# 5 0.001366 -0.003940 0.004249 0.000000 0.031848 0.000000
# 6 0.000000 0.000000 0.000000 0.009099 0.000000 0.041589
#
#
# Mechanical properties :
#
#
# Convention : Reuss Voigt Hill
#
# Bulk Modulus (GPa) = 39.44451 55.05501 47.24976
# Shear Modulus (GPa) = 19.98209 25.33673 22.65941
#
# Velocity S-wave (km/s) = 3.27786 3.69101 3.49055
# Velocity P-wave (km/s) = 5.96114 6.91143 6.45380
#
# Compressibility (1/GPa) = 0.02535207
#
# Stress axis : x y z
#
# Youngs Moduli (GPa) = 60.93819 21.72133 71.77888
#
# Poissons Ratio (x) = 0.26523 0.20077
# Poissons Ratio (y) = 0.74409 0.75412
# Poissons Ratio (z) = 0.17045 0.22821
#
# Static dielectric constant tensor:
#      x y z
#    x 1.633350 0.000000 -0.000360 
#    y 0.000000 1.619600 0.000000 
#    z -0.000360 0.000000 1.626630 
# 
# From -- ./inp_files/295689.got.cif
#   From: 2010.05.17/outbox.cif.g08.bks.cpg/sg12_148_cif.got.tgz:295689.got - 2010.06.03 13:09:07.
