data_PCOD9184115
_publ_section_title
;
Structure prediction by ZEFSAII (Michael W. Deem and Ramdas Pophale) SiO2 
 PCOD9184115
Probable space group: C 2/M
;
_chemical_formula_sum "Si O2"
_cell_formula_units_Z 56
_cell_length_a 26.873735
_cell_length_b 7.529790
_cell_length_c 11.874435
_cell_angle_alpha 90.000000
_cell_angle_beta 80.474626
_cell_angle_gamma 90.000000
_cell_volume 2369.705154
_symmetry_space_group_name_H-M "C 2/M"
_symmetry_group_IT_number 12
_symmetry_cell_setting 'monoclinic'
loop_
_space_group_symop_operation_xyz
x,y,z
-x,y,-z
-x,-y,-z
x,-y,z
1/2+x,1/2+y,z
1/2-x,1/2+y,-z
1/2-x,1/2-y,-z
1/2+x,1/2-y,z
loop_
_atom_site_type_symbol
_atom_site_label
_atom_site_fract_x
_atom_site_fract_y
_atom_site_fract_z
Si Si1 0.568028 0.212001 0.676273
Si Si2 0.445005 0.287242 0.059425
Si Si3 0.867811 0.284419 0.538587
Si Si4 0.540314 0.791803 0.344105
Si Si5 0.772765 0.214134 0.866660
Si Si6 0.615773 0.714440 0.121898
Si Si7 0.257946 0.305192 0.628830
O O1 0.565825 0.247747 0.807971
O O2 0.618898 0.268262 0.594208
O O3 0.515687 0.284409 0.642937
O O4 0.566226 0.000000 0.660378
O O5 0.447213 0.500000 0.045808
O O6 0.500000 0.218165 0.000000
O O7 0.399631 0.225033 0.996749
O O8 0.861505 0.500000 0.550903
O O9 0.917908 0.224901 0.585406
O O10 0.818785 0.196220 0.607051
O O11 0.568430 0.770665 0.215106
O O12 0.535079 0.000000 0.372689
O O13 0.830672 0.281284 0.853739
O O14 0.747148 0.279859 0.757737
O O15 0.773375 0.000000 0.854811
O O16 0.750000 0.250000 0.000000
O O17 0.618504 0.500000 0.123806
O O18 0.234352 0.500000 0.641674
O O19 0.250000 0.250000 0.500000
#
# Coordination Sequence:
#
# PCOD9184115 Si02
#       7
#     8   8   8   8   8   8   8
#     4  10  21  35  54  84 122 158 198 244 288 344
#     4  10  20  34  54  79 113 155 195 239 292 347
#     4  10  21  38  59  86 120 156 197 245 296 352
#     4  10  19  33  57  85 114 153 195 235 284 341
#     4  10  23  42  65  91 120 153 198 253 308 367
#     4  10  20  37  58  82 113 148 189 240 291 344
#     4  11  24  43  67  94 124 159 202 254 312 372
#
# _framework density 23.631632
#
# number of rings (size 3 to 8) (size 9 to 14) (size 15 to 20)
#    0.000    1.857    2.857    0.857    0.000    6.000 
#    0.000    2.857    0.000    2.571    0.000    0.000 
#    0.000    0.000    0.000    0.000    0.000    0.000 
#
# Total GULP energy -156150.869673 kJ/mol
# GULP energy per Si atom -5576.816774 kJ/mol
# Density = 2.357785 g / cm^3
# Si number density = 23.631632 Si / 1000 Ang^3
#
#
#
# Elastic Constant Matrix: (Units=GPa)
#
#
# Indices 1 2 3 4 5 6 
#
# 1 38.9801 1.6474 25.3492 0.0000 11.5738 0.0000
# 2 1.6474 59.6044 -5.5988 0.0000 11.6781 0.0000
# 3 25.3492 -5.5988 138.7637 0.0000 15.1719 0.0000
# 4 0.0000 0.0000 0.0000 38.3121 0.0000 4.5473
# 5 11.5738 11.6781 15.1719 0.0000 34.4150 0.0000
# 6 0.0000 0.0000 0.0000 4.5473 0.0000 11.7132
#
#
#
# Elastic Compliance Matrix: (Units=1/GPa)
#
#
# Indices 1 2 3 4 5 6 
#
# 1 0.031273 0.000361 -0.004765 0.000000 -0.008539 0.000000
# 2 0.000361 0.018263 0.001431 0.000000 -0.006950 0.000000
# 3 -0.004765 0.001431 0.008418 0.000000 -0.002594 0.000000
# 4 0.000000 0.000000 0.000000 0.027362 0.000000 -0.010622
# 5 -0.008539 -0.006950 -0.002594 0.000000 0.035431 0.000000
# 6 0.000000 0.000000 0.000000 -0.010622 0.000000 0.089497
#
#
# Mechanical properties :
#
#
# Convention : Reuss Voigt Hill
#
# Bulk Modulus (GPa) = 19.22754 31.12710 25.17732
# Shear Modulus (GPa) = 21.41086 31.28477 26.34781
#
# Velocity S-wave (km/s) = 3.01329 3.64242 3.34269
# Velocity P-wave (km/s) = 4.50118 5.55788 5.05720
#
# Compressibility (1/GPa) = 0.05200873
#
# Stress axis : x y z
#
# Youngs Moduli (GPa) = 31.97675 54.75468 118.78916
#
# Poissons Ratio (x) = -0.01977 0.56599
# Poissons Ratio (y) = -0.01155 -0.16996
# Poissons Ratio (z) = 0.15236 -0.07834
#
# Static dielectric constant tensor:
#      x y z
#    x 2.074500 0.000000 0.074180 
#    y 0.000000 1.969920 0.000000 
#    z 0.074180 0.000000 1.964890 
# 
# From -- ./inp_files/180808.got.cif
#   From: 2010.05.17/outbox.cif.g08.bks.cpg/sg12_91_cif.got.tgz:180808.got - 2010.06.03 13:09:07.
