data_PCOD9184548
_publ_section_title
;
Structure prediction by ZEFSAII (Michael W. Deem and Ramdas Pophale) SiO2 
 PCOD9184548
Probable space group: C 2/M
;
_chemical_formula_sum "Si O2"
_cell_formula_units_Z 48
_cell_length_a 18.967314
_cell_length_b 14.647936
_cell_length_c 20.466501
_cell_angle_alpha 90.000000
_cell_angle_beta 150.103639
_cell_angle_gamma 90.000000
_cell_volume 2834.212297
_symmetry_space_group_name_H-M "C 2/M"
_symmetry_group_IT_number 12
_symmetry_cell_setting 'monoclinic'
loop_
_space_group_symop_operation_xyz
x,y,z
-x,y,-z
-x,-y,-z
x,-y,z
1/2+x,1/2+y,z
1/2-x,1/2+y,-z
1/2-x,1/2-y,-z
1/2+x,1/2-y,z
loop_
_atom_site_type_symbol
_atom_site_label
_atom_site_fract_x
_atom_site_fract_y
_atom_site_fract_z
Si Si1 0.082996 0.099906 0.297963
Si Si2 0.095501 0.605586 0.392479
Si Si3 0.133073 0.290128 0.287070
Si Si4 0.965269 0.747999 0.545973
Si Si5 0.545900 0.894525 0.961804
Si Si6 0.363037 0.393777 0.239798
O O1 0.238102 0.103520 0.455310
O O2 0.077749 0.186475 0.247214
O O3 0.969866 0.108930 0.264732
O O4 0.066035 0.000000 0.253191
O O5 0.046840 0.500000 0.350061
O O6 0.087907 0.657505 0.317252
O O7 0.025058 0.666273 0.393100
O O8 0.303654 0.285170 0.419987
O O9 0.060935 0.339071 0.168567
O O10 0.000000 0.718704 0.500000
O O11 0.071758 0.828201 0.653191
O O12 0.708769 0.863424 0.091688
O O13 0.542604 0.000000 0.937304
O O14 0.500000 0.890735 0.000000
O O15 0.351515 0.500000 0.252631
#
# Coordination Sequence:
#
# PCOD9184548 Si02
#       6
#     8   8   8   8   8   8
#     4   9  17  32  54  79 104 131 173 220 262 304
#     4  10  19  34  55  80 109 139 176 220 261 308
#     4  11  19  35  58  79 101 141 180 219 256 308
#     4  11  21  34  54  82 109 138 178 217 262 314
#     4  10  22  36  50  75 110 141 167 209 274 325
#     4  10  19  34  52  75 107 136 170 217 264 310
#
# _framework density 16.935922000000001
#
# number of rings (size 3 to 8) (size 9 to 14) (size 15 to 20)
#    0.000    1.833    3.333    2.500    0.000    2.000 
#    0.000    0.000    0.000    0.500    0.000    0.000 
#    0.000    0.000    0.000    0.000    0.000    0.000 
#
# Total GULP energy -133849.378716 kJ/mol
# GULP energy per Si atom -5577.057447 kJ/mol
# Density = 1.689738 g / cm^3
# Si number density = 16.935922 Si / 1000 Ang^3
#
#
#
# Elastic Constant Matrix: (Units=GPa)
#
#
# Indices 1 2 3 4 5 6 
#
# 1 47.4139 26.4239 12.2220 0.0001 -16.3714 0.0002
# 2 26.4239 101.3837 46.0880 0.0001 -12.2688 0.0001
# 3 12.2220 46.0880 50.5943 0.0001 -12.7455 0.0001
# 4 0.0001 0.0001 0.0001 8.6158 0.0001 -1.4932
# 5 -16.3714 -12.2688 -12.7455 0.0001 18.0861 0.0001
# 6 0.0002 0.0001 0.0001 -1.4932 0.0001 17.9262
#
#
#
# Elastic Compliance Matrix: (Units=1/GPa)
#
#
# Indices 1 2 3 4 5 6 
#
# 1 0.034551 -0.008556 0.007130 -0.000001 0.030496 -0.000001
# 2 -0.008556 0.018962 -0.016921 0.000000 -0.006806 0.000000
# 3 0.007130 -0.016921 0.039139 -0.000001 0.022557 0.000000
# 4 -0.000001 0.000000 -0.000001 0.117766 -0.000002 0.009809
# 5 0.030496 -0.006806 0.022557 -0.000002 0.094175 -0.000001
# 6 -0.000001 0.000000 0.000000 0.009809 -0.000001 0.056601
#
#
# Mechanical properties :
#
#
# Convention : Reuss Voigt Hill
#
# Bulk Modulus (GPa) = 17.87043 40.98441 29.42742
# Shear Modulus (GPa) = 12.00364 16.56949 14.28656
#
# Velocity S-wave (km/s) = 2.66516 3.13127 2.90757
# Velocity P-wave (km/s) = 4.47721 6.10945 5.35588
#
# Compressibility (1/GPa) = 0.05595835
#
# Stress axis : x y z
#
# Youngs Moduli (GPa) = 28.94263 52.73764 25.55003
#
# Poissons Ratio (x) = 0.45122 -0.18217
# Poissons Ratio (y) = 0.24763 0.43232
# Poissons Ratio (z) = -0.20636 0.89236
#
# Static dielectric constant tensor:
#      x y z
#    x 1.566270 0.000000 0.012220 
#    y 0.000000 1.598010 0.000000 
#    z 0.012220 0.000000 1.544450 
# 
# From -- ./inp_files/73588.got.cif
#   From: 2010.05.17/outbox.cif.g08.bks.cpg/sg12_37_cif.got.tgz:73588.got - 2010.06.03 13:09:07.
