data_PCOD9184620
_publ_section_title
;
Structure prediction by ZEFSAII (Michael W. Deem and Ramdas Pophale) SiO2 
 PCOD9184620
Probable space group: C 2/M
;
_chemical_formula_sum "Si O2"
_cell_formula_units_Z 56
_cell_length_a 28.232280
_cell_length_b 14.835792
_cell_length_c 27.736211
_cell_angle_alpha 90.000000
_cell_angle_beta 16.635313
_cell_angle_gamma 90.000000
_cell_volume 3325.777900
_symmetry_space_group_name_H-M "C 2/M"
_symmetry_group_IT_number 12
_symmetry_cell_setting 'monoclinic'
loop_
_space_group_symop_operation_xyz
x,y,z
-x,y,-z
-x,-y,-z
x,-y,z
1/2+x,1/2+y,z
1/2-x,1/2+y,-z
1/2-x,1/2-y,-z
1/2+x,1/2-y,z
loop_
_atom_site_type_symbol
_atom_site_label
_atom_site_fract_x
_atom_site_fract_y
_atom_site_fract_z
Si Si1 0.033710 0.161154 0.717455
Si Si2 0.185868 0.399146 0.008265
Si Si3 0.925007 0.608756 0.523582
Si Si4 0.606375 0.291539 0.044645
Si Si5 0.081660 0.398827 0.274156
Si Si6 0.105510 0.369052 0.632210
Si Si7 0.537075 0.607659 0.907187
O O1 0.072227 0.262017 0.662050
O O2 0.205250 0.110578 0.538420
O O3 0.862943 0.124766 0.860882
O O4 0.009882 0.172623 0.798575
O O5 0.198764 0.500000 0.974420
O O6 0.133527 0.315757 0.024674
O O7 0.037811 0.402044 0.192083
O O8 0.945272 0.500000 0.503434
O O9 0.731106 0.624735 0.710009
O O10 0.000000 0.643726 0.500000
O O11 0.025104 0.641569 0.379910
O O12 0.781995 0.337779 0.883332
O O13 0.554244 0.330556 0.043333
O O14 0.148527 0.500000 0.215758
O O15 0.927485 0.404020 0.389036
O O16 0.502800 0.500000 0.932886
O O17 0.500000 0.625552 0.000000
#
# Coordination Sequence:
#
# PCOD9184620 Si02
#       7
#     8   8   8   8   8   8   8
#     4  10  20  35  54  75 107 142 180 226 268 314
#     4  11  22  37  53  75 110 145 185 227 266 311
#     4   9  18  31  46  72 106 136 167 206 257 318
#     4  11  20  35  52  78 107 140 178 218 267 318
#     4  11  19  29  49  73 102 138 172 212 262 316
#     4  10  19  34  53  76 103 139 180 225 268 316
#     4  10  20  34  54  80 107 136 171 214 267 325
#
# _framework density 16.838166000000001
#
# number of rings (size 3 to 8) (size 9 to 14) (size 15 to 20)
#    0.000    1.714    2.857    3.429    0.000    4.000 
#    0.000    0.000    0.000    0.429    0.000    0.000 
#    0.000    2.286    0.000    0.000    0.000    0.000 
#
# Total GULP energy -155981.495717 kJ/mol
# GULP energy per Si atom -5570.767704 kJ/mol
# Density = 1.679984 g / cm^3
# Si number density = 16.838166 Si / 1000 Ang^3
#
#
#
# Elastic Constant Matrix: (Units=GPa)
#
#
# Indices 1 2 3 4 5 6 
#
# 1 93.1941 36.7818 26.4382 -0.0004 -5.4898 0.0006
# 2 36.7818 90.4327 27.8464 0.0005 -1.5211 0.0005
# 3 26.4382 27.8464 99.9132 0.0002 -7.6495 -0.0007
# 4 -0.0004 0.0005 0.0002 13.1520 0.0025 -3.0726
# 5 -5.4898 -1.5211 -7.6495 0.0025 26.3174 -0.0014
# 6 0.0006 0.0005 -0.0007 -3.0726 -0.0014 22.5343
#
#
#
# Elastic Compliance Matrix: (Units=1/GPa)
#
#
# Indices 1 2 3 4 5 6 
#
# 1 0.013297 -0.004745 -0.002050 0.000000 0.001903 0.000000
# 2 -0.004745 0.013791 -0.002662 -0.000001 -0.000966 0.000000
# 3 -0.002050 -0.002662 0.011505 -0.000001 0.002762 0.000001
# 4 0.000000 -0.000001 -0.000001 0.078536 -0.000007 0.010708
# 5 0.001903 -0.000966 0.002762 -0.000007 0.039142 0.000002
# 6 0.000000 0.000000 0.000001 0.010708 0.000002 0.045837
#
#
# Mechanical properties :
#
#
# Convention : Reuss Voigt Hill
#
# Bulk Modulus (GPa) = 50.81795 51.74139 51.27967
# Shear Modulus (GPa) = 21.97017 25.23233 23.60125
#
# Velocity S-wave (km/s) = 3.61610 3.87527 3.74793
# Velocity P-wave (km/s) = 6.90512 7.12874 7.01782
#
# Compressibility (1/GPa) = 0.01967809
#
# Stress axis : x y z
#
# Youngs Moduli (GPa) = 75.20624 72.50946 86.92107
#
# Poissons Ratio (x) = 0.34405 0.17822
# Poissons Ratio (y) = 0.35684 0.23140
# Poissons Ratio (z) = 0.15420 0.19303
#
# Static dielectric constant tensor:
#      x y z
#    x 1.581260 0.000000 -0.020460 
#    y 0.000000 1.586100 0.000000 
#    z -0.020460 0.000000 1.608130 
# 
# From -- ./inp_files/349726.got.cif
#   From: 2010.05.17/outbox.cif.g08.bks.cpg/sg12_175_cif.got.tgz:349726.got - 2010.06.03 13:09:07.
