data_PCOD9184094
_publ_section_title
;
Structure prediction by ZEFSAII (Michael W. Deem and Ramdas Pophale) SiO2 
 PCOD9184094
Probable space group: C 2/M
;
_chemical_formula_sum "Si O2"
_cell_formula_units_Z 40
_cell_length_a 11.274769
_cell_length_b 14.220984
_cell_length_c 12.114951
_cell_angle_alpha 90.000000
_cell_angle_beta 70.374757
_cell_angle_gamma 90.000000
_cell_volume 1829.650641
_symmetry_space_group_name_H-M "C 2/M"
_symmetry_group_IT_number 12
_symmetry_cell_setting 'monoclinic'
loop_
_space_group_symop_operation_xyz
x,y,z
-x,y,-z
-x,-y,-z
x,-y,z
1/2+x,1/2+y,z
1/2-x,1/2+y,-z
1/2-x,1/2-y,-z
1/2+x,1/2-y,z
loop_
_atom_site_type_symbol
_atom_site_label
_atom_site_fract_x
_atom_site_fract_y
_atom_site_fract_z
Si Si1 0.031531 0.398285 0.330832
Si Si2 0.643007 0.613086 0.915764
Si Si3 0.597634 0.890351 0.057982
Si Si4 0.755771 0.893794 0.541362
Si Si5 0.757732 0.782274 0.325993
O O1 0.093725 0.500000 0.332426
O O2 0.030718 0.386720 0.198670
O O3 0.117151 0.317813 0.349978
O O4 0.894881 0.400901 0.424940
O O5 0.660219 0.500000 0.887559
O O6 0.757452 0.640621 0.964168
O O7 0.665542 0.676654 0.800648
O O8 0.500000 0.624182 0.000000
O O9 0.612314 0.000000 0.021379
O O10 0.500000 0.847283 0.000000
O O11 0.807410 0.833691 0.422060
O O12 0.758349 0.828107 0.648342
O O13 0.805886 0.000000 0.533948
#
# Coordination Sequence:
#
# PCOD9184094 Si02
#       5
#     8   8   8   8   8
#     4   9  17  32  56  83 111 146 192 244 296 351
#     4   9  17  31  54  86 123 158 192 238 303 368
#     4   8  14  27  50  80 111 146 192 242 289 344
#     4  10  20  34  56  85 115 150 194 244 297 351
#     4  10  19  33  57  84 115 149 193 243 293 355
#
# _framework density 21.862098
#
# number of rings (size 3 to 8) (size 9 to 14) (size 15 to 20)
#    0.000    2.800    0.000    3.600    0.000    1.600 
#    0.000    3.000    0.000   21.000    0.000    0.000 
#    0.000   12.800    0.000    0.000    0.000    0.000 
#
# Total GULP energy -111462.807076 kJ/mol
# GULP energy per Si atom -5573.140354 kJ/mol
# Density = 2.181234 g / cm^3
# Si number density = 21.862098 Si / 1000 Ang^3
#
#
#
# Elastic Constant Matrix: (Units=GPa)
#
#
# Indices 1 2 3 4 5 6 
#
# 1 93.3881 16.9162 58.2460 0.0000 -0.6652 0.0000
# 2 16.9162 126.2380 29.0883 0.0000 22.7870 0.0000
# 3 58.2460 29.0883 75.8977 0.0000 0.9239 0.0000
# 4 0.0000 0.0000 0.0000 23.3174 0.0000 1.2988
# 5 -0.6652 22.7870 0.9239 0.0000 22.7841 0.0000
# 6 0.0000 0.0000 0.0000 1.2988 0.0000 2.6335
#
#
#
# Elastic Compliance Matrix: (Units=1/GPa)
#
#
# Indices 1 2 3 4 5 6 
#
# 1 0.020649 0.000900 -0.016196 0.000000 0.000360 0.000000
# 2 0.000900 0.010793 -0.004698 0.000000 -0.010577 0.000000
# 3 -0.016196 -0.004698 0.027367 0.000000 0.003116 0.000000
# 4 0.000000 0.000000 0.000000 0.044098 0.000000 -0.021749
# 5 0.000360 -0.010577 0.003116 0.000000 0.054353 0.000000
# 6 0.000000 0.000000 0.000000 -0.021749 0.000000 0.390452
#
#
# Mechanical properties :
#
#
# Convention : Reuss Voigt Hill
#
# Bulk Modulus (GPa) = 53.13254 56.00278 54.56766
# Shear Modulus (GPa) = 8.41788 22.49854 15.45821
#
# Velocity S-wave (km/s) = 1.96438 3.21146 2.66198
# Velocity P-wave (km/s) = 5.43151 6.27880 5.87046
#
# Compressibility (1/GPa) = 0.01882086
#
# Stress axis : x y z
#
# Youngs Moduli (GPa) = 48.42887 92.65372 36.53970
#
# Poissons Ratio (x) = -0.08339 0.59179
# Poissons Ratio (y) = -0.04359 0.17168
# Poissons Ratio (z) = 0.78434 0.43532
#
# Static dielectric constant tensor:
#      x y z
#    x 1.824560 0.000000 0.023310 
#    y 0.000000 1.862040 0.000000 
#    z 0.023310 0.000000 1.841430 
# 
# From -- ./inp_files/129586.got.cif
#   From: 2010.05.17/outbox.cif.g08.bks.cpg/sg12_65_cif.got.tgz:129586.got - 2010.06.03 13:09:07.
