data_PCOD9184851
_publ_section_title
;
Structure prediction by ZEFSAII (Michael W. Deem and Ramdas Pophale) SiO2 
 PCOD9184851
Probable space group: C 2/M
;
_chemical_formula_sum "Si O2"
_cell_formula_units_Z 56
_cell_length_a 22.122886
_cell_length_b 8.492507
_cell_length_c 28.521330
_cell_angle_alpha 90.000000
_cell_angle_beta 149.740724
_cell_angle_gamma 90.000000
_cell_volume 2700.248540
_symmetry_space_group_name_H-M "C 2/M"
_symmetry_group_IT_number 12
_symmetry_cell_setting 'monoclinic'
loop_
_space_group_symop_operation_xyz
x,y,z
-x,y,-z
-x,-y,-z
x,-y,z
1/2+x,1/2+y,z
1/2-x,1/2+y,-z
1/2-x,1/2-y,-z
1/2+x,1/2-y,z
loop_
_atom_site_type_symbol
_atom_site_label
_atom_site_fract_x
_atom_site_fract_y
_atom_site_fract_z
Si Si1 0.621949 0.186200 0.785827
Si Si2 0.739179 0.188780 0.772643
Si Si3 0.016030 0.814489 0.564945
Si Si4 0.628312 0.688246 0.895679
Si Si5 0.870766 0.818945 0.602702
Si Si6 0.890000 0.192664 0.790165
Si Si7 0.271511 0.818006 0.401430
O O1 0.716652 0.247636 0.810436
O O2 0.625193 0.261864 0.839221
O O3 0.490568 0.220248 0.676165
O O4 0.638465 0.000000 0.802667
O O5 0.620154 0.228432 0.662836
O O6 0.852094 0.243873 0.816977
O O7 0.748123 0.000000 0.781892
O O8 0.883395 0.779200 0.495703
O O9 0.000000 0.761873 0.500000
O O10 0.041078 0.000000 0.582337
O O11 0.625673 0.500000 0.895741
O O12 0.514218 0.745932 0.850099
O O13 0.750000 0.750000 0.000000
O O14 0.750000 0.750000 0.500000
O O15 0.838963 0.817400 0.636721
O O16 0.890253 0.000000 0.601545
O O17 0.781899 0.242561 0.683120
O O18 0.890465 0.000000 0.789655
O O19 0.310738 0.000000 0.422821
#
# Coordination Sequence:
#
# PCOD9184851 Si02
#       7
#     8   8   8   8   8   8   8
#     4  11  23  39  61  92 124 157 200 251 307 364
#     4  10  21  38  60  84 115 161 208 247 289 349
#     4  11  22  32  46  79 122 161 201 250 302 351
#     4  11  23  44  71  97 121 153 196 250 310 369
#     4  11  22  36  54  81 118 162 207 252 300 354
#     4   9  18  37  63  86 110 149 201 245 286 346
#     4  10  19  34  55  76 104 153 209 248 283 341
#
# _framework density 20.738833
#
# number of rings (size 3 to 8) (size 9 to 14) (size 15 to 20)
#    0.000    1.571    2.857    2.571    0.000    6.286 
#    0.000    2.143    0.000    4.286    0.000    0.000 
#    0.000    0.000    0.000    0.000    0.000    0.000 
#
# Total GULP energy -156336.022839 kJ/mol
# GULP energy per Si atom -5583.429387 kJ/mol
# Density = 2.069163 g / cm^3
# Si number density = 20.738833 Si / 1000 Ang^3
#
#
#
# Elastic Constant Matrix: (Units=GPa)
#
#
# Indices 1 2 3 4 5 6 
#
# 1 172.6625 19.4093 54.0579 -0.0001 14.5192 0.0000
# 2 19.4093 21.3930 1.4961 0.0001 -1.3115 -0.0001
# 3 54.0579 1.4961 82.3580 0.0002 5.7471 0.0000
# 4 -0.0001 0.0001 0.0002 26.4862 0.0000 -1.9994
# 5 14.5192 -1.3115 5.7471 0.0000 21.0267 0.0000
# 6 0.0000 -0.0001 0.0000 -1.9994 0.0000 24.7898
#
#
#
# Elastic Compliance Matrix: (Units=1/GPa)
#
#
# Indices 1 2 3 4 5 6 
#
# 1 0.008748 -0.007883 -0.005243 0.000000 -0.005099 0.000000
# 2 -0.007883 0.054121 0.003645 0.000000 0.007823 0.000000
# 3 -0.005243 0.003645 0.015545 0.000000 -0.000401 0.000000
# 4 0.000000 0.000000 0.000000 0.037987 0.000000 0.003064
# 5 -0.005099 0.007823 -0.000401 0.000000 0.051677 0.000000
# 6 0.000000 0.000000 0.000000 0.003064 0.000000 0.040586
#
#
# Mechanical properties :
#
#
# Convention : Reuss Voigt Hill
#
# Bulk Modulus (GPa) = 16.82005 47.37111 32.09558
# Shear Modulus (GPa) = 20.20662 27.89056 24.04859
#
# Velocity S-wave (km/s) = 3.12482 3.67119 3.40897
# Velocity P-wave (km/s) = 4.59863 6.39230 5.56817
#
# Compressibility (1/GPa) = 0.05945284
#
# Stress axis : x y z
#
# Youngs Moduli (GPa) = 114.31077 18.47713 64.32818
#
# Poissons Ratio (x) = 0.14565 0.33727
# Poissons Ratio (y) = 0.90110 -0.23449
# Poissons Ratio (z) = 0.59933 -0.06735
#
# Static dielectric constant tensor:
#      x y z
#    x 1.883860 0.000000 0.006070 
#    y 0.000000 1.713500 0.000000 
#    z 0.006070 0.000000 1.698450 
# 
# From -- ./inp_files/380778.got.cif
#   From: 2010.05.17/outbox.cif.g08.bks.cpg/sg12_191_cif.got.tgz:380778.got - 2010.06.03 13:09:07.
