data_PCOD9184953
_publ_section_title
;
Structure prediction by ZEFSAII (Michael W. Deem and Ramdas Pophale) SiO2 
 PCOD9184953
Probable space group: C 2/M
;
_chemical_formula_sum "Si O2"
_cell_formula_units_Z 40
_cell_length_a 7.495617
_cell_length_b 23.543381
_cell_length_c 16.171806
_cell_angle_alpha 90.000000
_cell_angle_beta 136.222404
_cell_angle_gamma 90.000000
_cell_volume 1974.483578
_symmetry_space_group_name_H-M "C 2/M"
_symmetry_group_IT_number 12
_symmetry_cell_setting 'monoclinic'
loop_
_space_group_symop_operation_xyz
x,y,z
-x,y,-z
-x,-y,-z
x,-y,z
1/2+x,1/2+y,z
1/2-x,1/2+y,-z
1/2-x,1/2-y,-z
1/2+x,1/2-y,z
loop_
_atom_site_type_symbol
_atom_site_label
_atom_site_fract_x
_atom_site_fract_y
_atom_site_fract_z
Si Si1 0.136492 0.107852 0.169404
Si Si2 0.853225 0.434991 0.076502
Si Si3 0.396132 0.793600 0.338911
Si Si4 0.102285 0.175913 0.409265
Si Si5 0.953435 0.934964 0.280464
O O1 0.304089 0.074608 0.157568
O O2 0.255610 0.170324 0.221632
O O3 0.118983 0.078416 0.253448
O O4 0.846123 0.105981 0.036493
O O5 0.780711 0.500000 0.030363
O O6 0.152042 0.427473 0.156638
O O7 0.696172 0.812151 0.449615
O O8 0.257830 0.812100 0.376853
O O9 0.389992 0.725506 0.334956
O O10 0.012740 0.111519 0.370483
O O11 0.992772 0.000000 0.319277
#
# Coordination Sequence:
#
# PCOD9184953 Si02
#       5
#     8   8   8   8   8
#     4  10  19  34  55  80 107 140 183 221 261 317
#     4  10  20  34  55  80 109 149 182 214 268 325
#     4   9  19  35  57  79 104 143 179 222 274 319
#     4   9  19  36  56  81 105 140 182 219 274 325
#     4  10  20  35  56  80 110 142 178 223 269 320
#
# _framework density 20.258461
#
# number of rings (size 3 to 8) (size 9 to 14) (size 15 to 20)
#    0.000    2.400    0.000    3.000    2.800    1.600 
#    0.000   11.000    4.400    2.400    0.000    0.000 
#    0.000    0.000    0.000    0.000    0.000    0.000 
#
# Total GULP energy -111537.226610 kJ/mol
# GULP energy per Si atom -5576.861330 kJ/mol
# Density = 2.021235 g / cm^3
# Si number density = 20.258461 Si / 1000 Ang^3
#
#
#
# Elastic Constant Matrix: (Units=GPa)
#
#
# Indices 1 2 3 4 5 6 
#
# 1 41.1683 23.1645 10.7727 0.0001 4.6159 0.0000
# 2 23.1645 165.7362 62.0468 0.0001 5.5831 0.0000
# 3 10.7727 62.0468 54.6294 -0.0006 -5.7899 0.0001
# 4 0.0001 0.0001 -0.0006 34.9567 -0.0003 1.7669
# 5 4.6159 5.5831 -5.7899 -0.0003 14.7008 0.0001
# 6 0.0000 0.0000 0.0001 1.7669 0.0001 23.6251
#
#
#
# Elastic Compliance Matrix: (Units=1/GPa)
#
#
# Indices 1 2 3 4 5 6 
#
# 1 0.027570 -0.001938 -0.004252 0.000000 -0.009595 0.000000
# 2 -0.001938 0.011933 -0.014179 0.000000 -0.009507 0.000000
# 3 -0.004252 -0.014179 0.037526 0.000001 0.021499 0.000000
# 4 0.000000 0.000000 0.000001 0.028715 0.000001 -0.002148
# 5 -0.009595 -0.009507 0.021499 0.000001 0.083115 0.000000
# 6 0.000000 0.000000 0.000000 -0.002148 0.000000 0.042488
#
#
# Mechanical properties :
#
#
# Convention : Reuss Voigt Hill
#
# Bulk Modulus (GPa) = 27.55534 50.38908 38.97221
# Shear Modulus (GPa) = 17.59437 25.69318 21.64378
#
# Velocity S-wave (km/s) = 2.95022 3.56514 3.27216
# Velocity P-wave (km/s) = 5.02359 6.47102 5.79269
#
# Compressibility (1/GPa) = 0.03629061
#
# Stress axis : x y z
#
# Youngs Moduli (GPa) = 36.27179 83.80202 26.64822
#
# Poissons Ratio (x) = 0.16243 0.11331
# Poissons Ratio (y) = 0.07030 0.37783
# Poissons Ratio (z) = 0.15423 1.18819
#
# Static dielectric constant tensor:
#      x y z
#    x 1.771720 0.000000 -0.007120 
#    y 0.000000 1.727040 0.000000 
#    z -0.007120 0.000000 1.735260 
# 
# From -- ./inp_files/120418.got.cif
#   From: 2010.05.17/outbox.cif.g08.bks.cpg/sg12_61_cif.got.tgz:120418.got - 2010.06.03 13:09:07.
