data_PCOD9184674
_publ_section_title
;
Structure prediction by ZEFSAII (Michael W. Deem and Ramdas Pophale) SiO2 
 PCOD9184674
Probable space group: C 2/M
;
_chemical_formula_sum "Si O2"
_cell_formula_units_Z 36
_cell_length_a 11.424116
_cell_length_b 25.221679
_cell_length_c 9.961606
_cell_angle_alpha 90.000000
_cell_angle_beta 137.661804
_cell_angle_gamma 90.000000
_cell_volume 1933.156723
_symmetry_space_group_name_H-M "C 2/M"
_symmetry_group_IT_number 12
_symmetry_cell_setting 'monoclinic'
loop_
_space_group_symop_operation_xyz
x,y,z
-x,y,-z
-x,-y,-z
x,-y,z
1/2+x,1/2+y,z
1/2-x,1/2+y,-z
1/2-x,1/2-y,-z
1/2+x,1/2-y,z
loop_
_atom_site_type_symbol
_atom_site_label
_atom_site_fract_x
_atom_site_fract_y
_atom_site_fract_z
Si Si1 0.914969 0.149090 0.277685
Si Si2 0.693406 0.764854 0.194270
Si Si3 0.216665 0.649176 0.447855
Si Si4 0.701551 0.060786 0.211899
Si Si5 0.500000 0.181921 0.500000
O O1 0.767990 0.193860 0.145729
O O2 0.820808 0.092538 0.206230
O O3 0.000000 0.157289 0.500000
O O4 0.084518 0.154415 0.330086
O O5 0.683220 0.800298 0.322090
O O6 0.837359 0.719822 0.328088
O O7 0.500000 0.746570 0.000000
O O8 0.215269 0.596090 0.357475
O O9 0.069971 0.648425 0.435100
O O10 0.755652 0.000000 0.273906
O O11 0.500000 0.062386 0.000000
#
# Coordination Sequence:
#
# PCOD9184674 Si02
#       5
#     8   8   8   8   4
#     4   8  15  30  50  75 101 123 168 219 248 292
#     4  10  19  34  54  74 100 140 178 219 252 287
#     4  10  20  34  51  75 109 132 174 217 249 306
#     4   9  17  33  58  81  99 125 167 221 267 300
#     4  12  22  36  47  74 111 148 172 202 252 314
#
# _framework density 18.622389999999999
#
# number of rings (size 3 to 8) (size 9 to 14) (size 15 to 20)
#    0.000    2.889    3.333    3.333    0.000    4.889 
#    4.000    0.556    0.000    0.000    0.000    3.111 
#    0.000    0.000    0.000    0.000    0.000    0.000 
#
# Total GULP energy -100299.541376 kJ/mol
# GULP energy per Si atom -5572.196743 kJ/mol
# Density = 1.858000 g / cm^3
# Si number density = 18.622390 Si / 1000 Ang^3
#
#
#
# Elastic Constant Matrix: (Units=GPa)
#
#
# Indices 1 2 3 4 5 6 
#
# 1 98.0778 15.1797 26.2002 0.0000 23.2454 0.0000
# 2 15.1797 71.0807 25.3230 0.0000 8.5809 0.0000
# 3 26.2002 25.3230 73.9560 0.0000 38.2928 0.0000
# 4 0.0000 0.0000 0.0000 21.4947 0.0000 11.9446
# 5 23.2454 8.5809 38.2928 0.0000 26.4067 0.0000
# 6 0.0000 0.0000 0.0000 11.9446 0.0000 14.4682
#
#
#
# Elastic Compliance Matrix: (Units=1/GPa)
#
#
# Indices 1 2 3 4 5 6 
#
# 1 0.013935 -0.003026 0.007793 0.000000 -0.022585 0.000000
# 2 -0.003026 0.017523 -0.013481 0.000000 0.016518 0.000000
# 3 0.007793 -0.013481 0.066866 0.000000 -0.099443 0.000000
# 4 0.000000 0.000000 0.000000 0.085958 0.000000 -0.070965
# 5 -0.022585 0.016518 -0.099443 0.000000 0.196587 0.000000
# 6 0.000000 0.000000 0.000000 -0.070965 0.000000 0.127704
#
#
# Mechanical properties :
#
#
# Convention : Reuss Voigt Hill
#
# Bulk Modulus (GPa) = 12.36136 41.83559 27.09848
# Shear Modulus (GPa) = 9.04215 24.23468 16.63841
#
# Velocity S-wave (km/s) = 2.20592 3.61137 2.99233
# Velocity P-wave (km/s) = 3.62497 6.31691 5.14994
#
# Compressibility (1/GPa) = 0.08089722
#
# Stress axis : x y z
#
# Youngs Moduli (GPa) = 71.76028 57.06702 14.95529
#
# Poissons Ratio (x) = 0.17268 -0.11655
# Poissons Ratio (y) = 0.21714 0.20161
# Poissons Ratio (z) = -0.55923 0.76931
#
# Static dielectric constant tensor:
#      x y z
#    x 1.721510 0.000000 0.009710 
#    y 0.000000 1.646290 0.000000 
#    z 0.009710 0.000000 1.710400 
# 
# From -- ./inp_files/124018.got.cif
#   From: 2010.05.17/outbox.cif.g08.bks.cpg/sg12_63_cif.got.tgz:124018.got - 2010.06.03 13:09:07.
