data_PCOD9184820
_publ_section_title
;
Structure prediction by ZEFSAII (Michael W. Deem and Ramdas Pophale) SiO2 
 PCOD9184820
Probable space group: C 2/M
;
_chemical_formula_sum "Si O2"
_cell_formula_units_Z 52
_cell_length_a 21.719980
_cell_length_b 19.412904
_cell_length_c 13.872897
_cell_angle_alpha 90.000000
_cell_angle_beta 150.512095
_cell_angle_gamma 90.000000
_cell_volume 2879.345846
_symmetry_space_group_name_H-M "C 2/M"
_symmetry_group_IT_number 12
_symmetry_cell_setting 'monoclinic'
loop_
_space_group_symop_operation_xyz
x,y,z
-x,y,-z
-x,-y,-z
x,-y,z
1/2+x,1/2+y,z
1/2-x,1/2+y,-z
1/2-x,1/2-y,-z
1/2+x,1/2-y,z
loop_
_atom_site_type_symbol
_atom_site_label
_atom_site_fract_x
_atom_site_fract_y
_atom_site_fract_z
Si Si1 0.033498 0.420429 0.823710
Si Si2 0.753226 0.346956 0.758968
Si Si3 0.000000 0.806161 0.500000
Si Si4 0.809521 0.352295 0.616003
Si Si5 0.104299 0.689209 0.775454
Si Si6 0.680861 0.716749 0.053015
Si Si7 0.434064 0.297823 0.807472
O O1 0.055138 0.500000 0.832593
O O2 0.032850 0.374497 0.725093
O O3 0.903722 0.408297 0.702619
O O4 0.142965 0.390996 0.042767
O O5 0.618959 0.350364 0.628722
O O6 0.759459 0.366062 0.655371
O O7 0.784291 0.264290 0.807988
O O8 0.971145 0.752324 0.374409
O O9 0.691334 0.339544 0.385703
O O10 0.892989 0.281902 0.735594
O O11 0.169344 0.724119 0.956314
O O12 0.207802 0.670063 0.835762
O O13 0.545640 0.685038 0.884695
O O14 0.500000 0.307992 0.000000
#
# Coordination Sequence:
#
# PCOD9184820 Si02
#       7
#     8   8   4   8   8   8   8
#     4  11  23  39  55  78 118 159 193 226 272 349
#     4  10  19  34  54  86 116 146 183 236 292 338
#     4  10  20  32  58  86 116 136 186 246 300 330
#     4  11  21  31  54  84 116 148 186 226 284 342
#     4   9  18  31  51  78 106 146 182 229 282 327
#     4   9  16  30  50  76 114 139 176 232 288 331
#     4  11  19  31  53  84 119 139 177 239 291 336
#
# _framework density 18.059657999999999
#
# number of rings (size 3 to 8) (size 9 to 14) (size 15 to 20)
#    0.000    1.846    4.615    2.308    2.154    1.231 
#    0.000    0.769    0.000    3.231    0.000    0.000 
#    0.000    0.000    0.000    0.000    0.000    0.000 
#
# Total GULP energy -144777.149420 kJ/mol
# GULP energy per Si atom -5568.351901 kJ/mol
# Density = 1.801855 g / cm^3
# Si number density = 18.059658 Si / 1000 Ang^3
#
#
#
# Elastic Constant Matrix: (Units=GPa)
#
#
# Indices 1 2 3 4 5 6 
#
# 1 94.8484 27.9211 35.9020 0.0000 18.6171 0.0000
# 2 27.9211 39.1700 6.3451 0.0000 7.4401 0.0000
# 3 35.9020 6.3451 80.8585 0.0000 19.6931 0.0000
# 4 0.0000 0.0000 0.0000 8.7551 0.0000 1.8456
# 5 18.6171 7.4401 19.6931 0.0000 35.0548 0.0000
# 6 0.0000 0.0000 0.0000 1.8456 0.0000 13.7459
#
#
#
# Elastic Compliance Matrix: (Units=1/GPa)
#
#
# Indices 1 2 3 4 5 6 
#
# 1 0.016296 -0.010067 -0.005628 0.000000 -0.003356 0.000000
# 2 -0.010067 0.032869 0.002650 0.000000 -0.003119 0.000000
# 3 -0.005628 0.002650 0.016297 0.000000 -0.006729 0.000000
# 4 0.000000 0.000000 0.000000 0.117547 0.000000 -0.015783
# 5 -0.003356 -0.003119 -0.006729 0.000000 0.034751 0.000000
# 6 0.000000 0.000000 0.000000 -0.015783 0.000000 0.074868
#
#
# Mechanical properties :
#
#
# Convention : Reuss Voigt Hill
#
# Bulk Modulus (GPa) = 25.39899 39.46814 32.43357
# Shear Modulus (GPa) = 15.06748 21.15840 18.11294
#
# Velocity S-wave (km/s) = 2.89159 3.42655 3.17037
# Velocity P-wave (km/s) = 5.02423 6.12836 5.60355
#
# Compressibility (1/GPa) = 0.03937164
#
# Stress axis : x y z
#
# Youngs Moduli (GPa) = 61.36621 30.42424 61.36063
#
# Poissons Ratio (x) = 0.30627 0.34534
# Poissons Ratio (y) = 0.61775 -0.16261
# Poissons Ratio (z) = 0.34538 -0.08062
#
# Static dielectric constant tensor:
#      x y z
#    x 1.714660 0.000000 -0.005880 
#    y 0.000000 1.587190 0.000000 
#    z -0.005880 0.000000 1.694500 
# 
# From -- ./inp_files/234474.got.cif
#   From: 2010.05.17/outbox.cif.g08.bks.cpg/sg12_118_cif.got.tgz:234474.got - 2010.06.03 13:09:07.
