data_PCOD9184437
_publ_section_title
;
Structure prediction by ZEFSAII (Michael W. Deem and Ramdas Pophale) SiO2 
 PCOD9184437
Probable space group: C 2/M
;
_chemical_formula_sum "Si O2"
_cell_formula_units_Z 50
_cell_length_a 5.359540
_cell_length_b 28.218512
_cell_length_c 14.544953
_cell_angle_alpha 90.000000
_cell_angle_beta 96.229414
_cell_angle_gamma 90.000000
_cell_volume 2186.764462
_symmetry_space_group_name_H-M "C 2/M"
_symmetry_group_IT_number 12
_symmetry_cell_setting 'monoclinic'
loop_
_space_group_symop_operation_xyz
x,y,z
-x,y,-z
-x,-y,-z
x,-y,z
1/2+x,1/2+y,z
1/2-x,1/2+y,-z
1/2-x,1/2-y,-z
1/2+x,1/2-y,z
loop_
_atom_site_type_symbol
_atom_site_label
_atom_site_fract_x
_atom_site_fract_y
_atom_site_fract_z
Si Si1 0.135023 0.555113 0.782096
Si Si2 0.344897 0.123814 0.649065
Si Si3 0.412802 0.230884 0.126753
Si Si4 0.266677 0.128515 0.060625
Si Si5 0.322985 0.418695 0.598254
Si Si6 0.000000 0.500000 0.500000
Si Si7 0.412056 0.767697 0.662030
O O1 0.071073 0.500000 0.795059
O O2 0.241128 0.582940 0.873293
O O3 0.319615 0.558002 0.701276
O O4 0.905310 0.588010 0.736144
O O5 0.599230 0.119254 0.600247
O O6 0.321654 0.178532 0.670526
O O7 0.090677 0.104782 0.594693
O O8 0.678595 0.236926 0.086351
O O9 0.321900 0.176710 0.119843
O O10 0.492960 0.247537 0.232317
O O11 0.500000 0.123223 0.000000
O O12 0.000000 0.133748 0.000000
O O13 0.211618 0.459123 0.529354
O O14 0.672725 0.761665 0.617682
#
# Coordination Sequence:
#
# PCOD9184437 Si02
#       7
#     8   8   8   8   8   2   8
#     4  10  24  45  64  91 126 176 219 266 326 378
#     4  10  21  40  63  97 131 178 203 262 325 385
#     4  10  20  36  59  84 120 159 206 274 346 380
#     4  12  27  41  60  87 123 171 226 278 312 382
#     4  10  23  38  69  94 140 160 202 258 325 394
#     4  12  24  46  68 122 128 168 208 266 324 410
#     4  10  19  33  62  95 124 164 221 270 307 384
#
# _framework density 22.864832
#
# number of rings (size 3 to 8) (size 9 to 14) (size 15 to 20)
#    0.960    0.640    2.400    1.920    3.360    5.120 
#    0.000    0.000    0.000    0.000    0.000   11.200 
#    0.000    0.000    0.000    0.000    0.000    0.000 
#
# Total GULP energy -139186.040039 kJ/mol
# GULP energy per Si atom -5567.441602 kJ/mol
# Density = 2.281279 g / cm^3
# Si number density = 22.864832 Si / 1000 Ang^3
#
#
#
# Elastic Constant Matrix: (Units=GPa)
#
#
# Indices 1 2 3 4 5 6 
#
# 1 158.9505 46.2026 37.6539 0.0000 49.9970 0.0000
# 2 46.2026 166.3226 27.0065 0.0000 25.2847 0.0000
# 3 37.6539 27.0065 41.0798 0.0000 23.7275 0.0000
# 4 0.0000 0.0000 0.0000 12.9782 0.0000 21.6957
# 5 49.9970 25.2847 23.7275 0.0000 39.9640 0.0000
# 6 0.0000 0.0000 0.0000 21.6957 0.0000 9.0068
#
#
#
# Elastic Compliance Matrix: (Units=1/GPa)
#
#
# Indices 1 2 3 4 5 6 
#
# 1 0.010728 -0.000816 -0.002805 0.000000 -0.011240 0.000000
# 2 -0.000816 0.006959 -0.002851 0.000000 -0.001689 0.000000
# 3 -0.002805 -0.002851 0.039143 0.000000 -0.017927 0.000000
# 4 0.000000 0.000000 0.000000 -0.025456 0.000000 0.061320
# 5 -0.011240 -0.001689 -0.017927 0.000000 0.050797 0.000000
# 6 0.000000 0.000000 0.000000 0.061320 0.000000 -0.036681
#
#
# Mechanical properties :
#
#
# Convention : Reuss Voigt Hill
#
# Bulk Modulus (GPa) = 22.78661 65.34209 44.06435
# Shear Modulus (GPa) = 68.43423 29.42245 48.92834
#
# Velocity S-wave (km/s) = 5.47676 3.59109 4.63092
# Velocity P-wave (km/s) = 7.06970 6.77009 6.92152
#
# Compressibility (1/GPa) = 0.04388543
#
# Stress axis : x y z
#
# Youngs Moduli (GPa) = 93.20979 143.70209 25.54746
#
# Poissons Ratio (x) = 0.11727 0.07166
# Poissons Ratio (y) = 0.07606 0.07284
# Poissons Ratio (z) = 0.26146 0.40974
#
# Static dielectric constant tensor:
#      x y z
#    x 1.939680 0.000000 -0.088330 
#    y 0.000000 1.784390 0.000000 
#    z -0.088330 0.000000 1.931030 
# 
# From -- ./inp_files/253671.got.cif
#   From: 2010.05.17/outbox.cif.g08.bks.cpg/sg12_127_cif.got.tgz:253671.got - 2010.06.03 13:09:07.
