data_PCOD9184464
_publ_section_title
;
Structure prediction by ZEFSAII (Michael W. Deem and Ramdas Pophale) SiO2 
 PCOD9184464
Probable space group: C 2/M
;
_chemical_formula_sum "Si O2"
_cell_formula_units_Z 64
_cell_length_a 19.287573
_cell_length_b 23.483373
_cell_length_c 27.843241
_cell_angle_alpha 90.000000
_cell_angle_beta 18.615158
_cell_angle_gamma 90.000000
_cell_volume 4025.634895
_symmetry_space_group_name_H-M "C 2/M"
_symmetry_group_IT_number 12
_symmetry_cell_setting 'monoclinic'
loop_
_space_group_symop_operation_xyz
x,y,z
-x,y,-z
-x,-y,-z
x,-y,z
1/2+x,1/2+y,z
1/2-x,1/2+y,-z
1/2-x,1/2-y,-z
1/2+x,1/2-y,z
loop_
_atom_site_type_symbol
_atom_site_label
_atom_site_fract_x
_atom_site_fract_y
_atom_site_fract_z
Si Si1 0.116819 0.749077 0.136210
Si Si2 0.740911 0.561531 0.662670
Si Si3 0.441182 0.601919 0.115318
Si Si4 0.488627 0.252883 0.629878
Si Si5 0.597737 0.176583 0.648153
Si Si6 0.349572 0.066723 0.784022
Si Si7 0.015161 0.765745 0.933227
Si Si8 0.812423 0.322512 0.582114
O O1 0.015568 0.691888 0.226666
O O2 0.904061 0.786539 0.266920
O O3 0.250000 0.750000 0.000000
O O4 0.305699 0.765944 0.050087
O O5 0.657950 0.500000 0.701585
O O6 0.629103 0.579160 0.786486
O O7 0.728035 0.613148 0.634163
O O8 0.000000 0.556905 0.500000
O O9 0.258831 0.584858 0.195683
O O10 0.467835 0.670355 0.099659
O O11 0.661266 0.576141 0.947984
O O12 0.501212 0.223484 0.673905
O O13 0.649342 0.306295 0.518803
O O14 0.243757 0.265084 0.775104
O O15 0.581246 0.203355 0.534857
O O16 0.533870 0.113357 0.674417
O O17 0.409576 0.000000 0.743347
O O18 0.000000 0.774865 0.000000
O O19 0.000000 0.319037 0.500000
#
# Coordination Sequence:
#
# PCOD9184464 Si02
#       8
#     8   8   8   8   8   8   8   8
#     4  11  20  32  51  74 101 131 172 211 253 308
#     4  10  20  31  43  65  99 138 170 199 246 308
#     4  11  17  31  46  70 103 134 172 207 250 309
#     4  10  19  34  50  68 101 133 176 212 260 302
#     4  10  20  33  49  73  99 137 170 215 257 304
#     4  11  20  30  48  74 101 137 177 211 253 309
#     4  12  18  32  54  76 104 136 172 215 260 309
#     4  10  21  33  48  70 101 138 169 210 255 302
#
# _framework density 15.898114
#
# number of rings (size 3 to 8) (size 9 to 14) (size 15 to 20)
#    0.000    1.375    5.000    4.500    0.000    0.000 
#    0.000    0.000    0.000    0.000    0.000    0.875 
#    0.000   18.000    0.000    0.000    0.000    0.000 
#
# Total GULP energy -178238.493464 kJ/mol
# GULP energy per Si atom -5569.952921 kJ/mol
# Density = 1.586193 g / cm^3
# Si number density = 15.898114 Si / 1000 Ang^3
#
#
#
# Elastic Constant Matrix: (Units=GPa)
#
#
# Indices 1 2 3 4 5 6 
#
# 1 35.6381 22.4015 23.5122 0.0325 -1.3452 -0.0292
# 2 22.4015 96.2222 33.5806 0.0044 -12.8457 -0.0614
# 3 23.5122 33.5806 96.1306 -0.0299 -8.9961 0.0109
# 4 0.0325 0.0044 -0.0299 14.2720 0.0316 -4.0260
# 5 -1.3452 -12.8457 -8.9961 0.0316 29.0135 0.0097
# 6 -0.0292 -0.0614 0.0109 -4.0260 0.0097 10.3302
#
#
#
# Elastic Compliance Matrix: (Units=1/GPa)
#
#
# Indices 1 2 3 4 5 6 
#
# 1 0.036661 -0.006543 -0.006996 -0.000076 -0.003366 0.000046
# 2 -0.006543 0.013491 -0.002659 0.000013 0.004845 0.000065
# 3 -0.006996 -0.002659 0.013288 0.000027 0.002618 -0.000041
# 4 -0.000076 0.000013 0.000027 0.078722 -0.000085 0.030680
# 5 -0.003366 0.004845 0.002618 -0.000085 0.037268 -0.000052
# 6 0.000046 0.000065 -0.000041 0.030680 -0.000052 0.108761
#
#
# Mechanical properties :
#
#
# Convention : Reuss Voigt Hill
#
# Bulk Modulus (GPa) = 32.21289 42.99770 37.60529
# Shear Modulus (GPa) = 15.10872 20.62291 17.86582
#
# Velocity S-wave (km/s) = 3.08611 3.60556 3.35590
# Velocity P-wave (km/s) = 5.74499 6.66618 6.22265
#
# Compressibility (1/GPa) = 0.03104348
#
# Stress axis : x y z
#
# Youngs Moduli (GPa) = 27.27662 74.12542 75.25821
#
# Poissons Ratio (x) = 0.48499 0.52653
# Poissons Ratio (y) = 0.17847 0.20010
# Poissons Ratio (z) = 0.19084 0.19709
#
# Static dielectric constant tensor:
#      x y z
#    x 1.574330 0.000010 0.016730 
#    y 0.000010 1.541250 0.000050 
#    z 0.016730 0.000050 1.578210 
# 
# From -- ./inp_files/364892.got.cif
#   From: 2010.05.17/outbox.cif.g08.bks.cpg/sg12_183_cif.got.tgz:364892.got - 2010.06.03 13:09:07.
