data_PCOD9184155
_publ_section_title
;
Structure prediction by ZEFSAII (Michael W. Deem and Ramdas Pophale) SiO2 
 PCOD9184155
Probable space group: C 2/M
;
_chemical_formula_sum "Si O2"
_cell_formula_units_Z 64
_cell_length_a 19.037781
_cell_length_b 20.198237
_cell_length_c 12.612154
_cell_angle_alpha 90.000000
_cell_angle_beta 44.210354
_cell_angle_gamma 90.000000
_cell_volume 3381.702399
_symmetry_space_group_name_H-M "C 2/M"
_symmetry_group_IT_number 12
_symmetry_cell_setting 'monoclinic'
loop_
_space_group_symop_operation_xyz
x,y,z
-x,y,-z
-x,-y,-z
x,-y,z
1/2+x,1/2+y,z
1/2-x,1/2+y,-z
1/2-x,1/2-y,-z
1/2+x,1/2-y,z
loop_
_atom_site_type_symbol
_atom_site_label
_atom_site_fract_x
_atom_site_fract_y
_atom_site_fract_z
Si Si1 0.953886 0.425133 0.162950
Si Si2 0.742301 0.194720 0.876648
Si Si3 0.303266 0.573705 0.948608
Si Si4 0.308505 0.810834 0.309494
Si Si5 0.426839 0.072805 0.751338
Si Si6 0.585385 0.218751 0.236680
Si Si7 0.097963 0.801229 0.655492
Si Si8 0.000928 0.077603 0.124475
O O1 0.915527 0.500000 0.192427
O O2 0.866727 0.375107 0.288656
O O3 0.037377 0.425827 0.164591
O O4 0.000000 0.405184 0.000000
O O5 0.796018 0.129853 0.867577
O O6 0.698049 0.184826 0.809286
O O7 0.829376 0.250486 0.779550
O O8 0.651617 0.211473 0.056240
O O9 0.320878 0.500000 0.884634
O O10 0.388654 0.586819 0.943082
O O11 0.193919 0.572897 0.121426
O O12 0.196518 0.806707 0.476589
O O13 0.371869 0.748318 0.281996
O O14 0.454605 0.146669 0.682501
O O15 0.461996 0.000000 0.671592
O O16 0.493998 0.267898 0.309538
O O17 0.068194 0.871558 0.736854
O O18 0.973264 0.000000 0.167617
O O19 0.000000 0.091950 0.000000
#
# Coordination Sequence:
#
# PCOD9184155 Si02
#       8
#     8   8   8   8   8   8   8   8
#     4  10  19  33  57  87 114 148 191 232 282 350
#     4  10  21  34  59  87 111 150 198 241 291 348
#     4   9  17  33  55  88 121 143 183 240 291 347
#     4  11  25  38  55  87 119 160 194 237 303 363
#     4   9  17  30  53  80 113 143 175 236 295 332
#     4  10  19  35  57  85 113 148 196 243 287 349
#     4  11  24  40  56  81 123 156 196 242 298 356
#     4  10  22  39  63  88 113 155 204 244 289 345
#
# _framework density 18.925380000000001
#
# number of rings (size 3 to 8) (size 9 to 14) (size 15 to 20)
#    0.000    2.000    2.500    1.500    1.750    2.500 
#    0.000    0.000    0.000    1.500    0.000    0.875 
#    0.000    0.500    0.000    0.000    0.000    0.000 
#
# Total GULP energy -178418.313813 kJ/mol
# GULP energy per Si atom -5575.572307 kJ/mol
# Density = 1.888230 g / cm^3
# Si number density = 18.925380 Si / 1000 Ang^3
#
#
#
# Elastic Constant Matrix: (Units=GPa)
#
#
# Indices 1 2 3 4 5 6 
#
# 1 73.4363 12.9868 22.1175 0.0000 -13.9230 0.0000
# 2 12.9868 80.7331 17.0287 0.0000 -12.6416 0.0000
# 3 22.1175 17.0287 18.1645 0.0000 -10.3017 0.0000
# 4 0.0000 0.0000 0.0000 20.6246 0.0000 -14.0121
# 5 -13.9230 -12.6416 -10.3017 0.0000 21.8463 0.0000
# 6 0.0000 0.0000 0.0000 -14.0121 0.0000 44.2024
#
#
#
# Elastic Compliance Matrix: (Units=1/GPa)
#
#
# Indices 1 2 3 4 5 6 
#
# 1 0.022032 0.002747 -0.028034 0.000000 0.002411 0.000000
# 2 0.002747 0.015916 -0.016447 0.000000 0.003204 0.000000
# 3 -0.028034 -0.016447 0.121595 0.000000 0.029955 0.000000
# 4 0.000000 0.000000 0.000000 0.061794 0.000000 0.019589
# 5 0.002411 0.003204 0.029955 0.000000 0.063290 0.000000
# 6 0.000000 0.000000 0.000000 0.019589 0.000000 0.028833
#
#
# Mechanical properties :
#
#
# Convention : Reuss Voigt Hill
#
# Bulk Modulus (GPa) = 13.14536 30.73332 21.93934
# Shear Modulus (GPa) = 11.84031 25.34806 18.59419
#
# Velocity S-wave (km/s) = 2.50398 3.66371 3.13789
# Velocity P-wave (km/s) = 3.91418 5.84564 4.97455
#
# Compressibility (1/GPa) = 0.07607245
#
# Stress axis : x y z
#
# Youngs Moduli (GPa) = 45.38872 62.83144 8.22405
#
# Poissons Ratio (x) = -0.17257 0.23055
# Poissons Ratio (y) = -0.12466 0.13526
# Poissons Ratio (z) = 1.27243 1.03341
#
# Static dielectric constant tensor:
#      x y z
#    x 1.636110 0.000000 -0.004360 
#    y 0.000000 1.728010 0.000000 
#    z -0.004360 0.000000 1.625570 
# 
# From -- ./inp_files/159549.got.cif
#   From: 2010.05.17/outbox.cif.g08.bks.cpg/sg12_80_cif.got.tgz:159549.got - 2010.06.03 13:09:07.
