data_PCOD9184546
_publ_section_title
;
Structure prediction by ZEFSAII (Michael W. Deem and Ramdas Pophale) SiO2 
 PCOD9184546
Probable space group: C 2/M
;
_chemical_formula_sum "Si O2"
_cell_formula_units_Z 48
_cell_length_a 25.860893
_cell_length_b 7.738793
_cell_length_c 24.963135
_cell_angle_alpha 90.000000
_cell_angle_beta 144.554221
_cell_angle_gamma 90.000000
_cell_volume 2897.297878
_symmetry_space_group_name_H-M "C 2/M"
_symmetry_group_IT_number 12
_symmetry_cell_setting 'monoclinic'
loop_
_space_group_symop_operation_xyz
x,y,z
-x,y,-z
-x,-y,-z
x,-y,z
1/2+x,1/2+y,z
1/2-x,1/2+y,-z
1/2-x,1/2-y,-z
1/2+x,1/2-y,z
loop_
_atom_site_type_symbol
_atom_site_label
_atom_site_fract_x
_atom_site_fract_y
_atom_site_fract_z
Si Si1 0.218231 0.199020 0.220096
Si Si2 0.951145 0.000000 0.543519
Si Si3 0.576256 0.203893 0.023498
Si Si4 0.859940 0.000000 0.350335
Si Si5 0.859376 0.698445 0.529916
Si Si6 0.151867 0.790981 0.358168
Si Si7 0.564556 0.707835 0.175739
O O1 0.299207 0.331094 0.290513
O O2 0.144219 0.257281 0.201871
O O3 0.242650 0.000000 0.251935
O O4 0.166964 0.209849 0.119739
O O5 0.897714 0.000000 0.442476
O O6 0.921589 0.831773 0.551760
O O7 0.055215 0.000000 0.617146
O O8 0.530250 0.231865 0.927459
O O9 0.587484 0.000000 0.041784
O O10 0.500000 0.271124 0.000000
O O11 0.871525 0.500000 0.523075
O O12 0.872147 0.713123 0.604730
O O13 0.755492 0.748899 0.433098
O O14 0.091121 0.733538 0.257412
O O15 0.146751 0.000000 0.358794
O O16 0.563212 0.500000 0.174654
#
# Coordination Sequence:
#
# PCOD9184546 Si02
#       7
#     8   4   8   4   8   8   8
#     4  10  19  34  52  74 106 141 175 211 252 306
#     4  11  24  40  54  74 106 132 173 229 256 290
#     4   9  16  27  44  71 108 141 169 203 253 308
#     4  11  24  38  55  76  96 138 185 214 258 301
#     4  10  20  35  54  75 104 140 170 208 260 309
#     4   9  17  31  50  78 110 137 170 203 252 317
#     4   9  17  27  46  77 111 142 168 206 255 307
#
# _framework density 16.567160999999999
#
# number of rings (size 3 to 8) (size 9 to 14) (size 15 to 20)
#    0.000    2.333    1.667    1.500    2.333    5.333 
#    0.000    1.667    0.000    0.000    0.000    1.167 
#    0.000    0.000    0.000    0.000    0.000    0.000 
#
# Total GULP energy -133839.359799 kJ/mol
# GULP energy per Si atom -5576.639992 kJ/mol
# Density = 1.652945 g / cm^3
# Si number density = 16.567161 Si / 1000 Ang^3
#
#
#
# Elastic Constant Matrix: (Units=GPa)
#
#
# Indices 1 2 3 4 5 6 
#
# 1 57.9500 33.5996 27.6533 0.0000 4.6043 0.0000
# 2 33.5996 80.5806 27.8722 -0.0001 14.2643 0.0000
# 3 27.6533 27.8722 93.2958 0.0000 -7.7626 0.0000
# 4 0.0000 -0.0001 0.0000 19.1589 0.0000 -0.1188
# 5 4.6043 14.2643 -7.7626 0.0000 25.4573 0.0000
# 6 0.0000 0.0000 0.0000 -0.1188 0.0000 17.5892
#
#
#
# Elastic Compliance Matrix: (Units=1/GPa)
#
#
# Indices 1 2 3 4 5 6 
#
# 1 0.024503 -0.008301 -0.004889 0.000000 -0.001271 0.000000
# 2 -0.008301 0.019160 -0.004137 0.000000 -0.010496 0.000000
# 3 -0.004889 -0.004137 0.014026 0.000000 0.007479 0.000000
# 4 0.000000 0.000000 0.000000 0.052197 0.000000 0.000353
# 5 -0.001271 -0.010496 0.007479 0.000000 0.047673 0.000000
# 6 0.000000 0.000000 0.000000 0.000353 0.000000 0.056855
#
#
# Mechanical properties :
#
#
# Convention : Reuss Voigt Hill
#
# Bulk Modulus (GPa) = 43.41078 45.56404 44.48741
# Shear Modulus (GPa) = 19.47445 21.95450 20.71447
#
# Velocity S-wave (km/s) = 3.43225 3.64425 3.53984
# Velocity P-wave (km/s) = 6.47819 6.72828 6.60442
#
# Compressibility (1/GPa) = 0.02303575
#
# Stress axis : x y z
#
# Youngs Moduli (GPa) = 40.81123 52.19168 71.29708
#
# Poissons Ratio (x) = 0.43325 0.34855
# Poissons Ratio (y) = 0.33878 0.29495
# Poissons Ratio (z) = 0.19951 0.21591
#
# Static dielectric constant tensor:
#      x y z
#    x 1.533890 0.000000 -0.034200 
#    y 0.000000 1.583380 0.000000 
#    z -0.034200 0.000000 1.582010 
# 
# From -- ./inp_files/345731.got.cif
#   From: 2010.05.17/outbox.cif.g08.bks.cpg/sg12_173_cif.got.tgz:345731.got - 2010.06.03 13:09:07.
