data_PCOD9184728
_publ_section_title
;
Structure prediction by ZEFSAII (Michael W. Deem and Ramdas Pophale) SiO2 
 PCOD9184728
Probable space group: C 2/M
;
_chemical_formula_sum "Si O2"
_cell_formula_units_Z 56
_cell_length_a 20.699299
_cell_length_b 8.295390
_cell_length_c 16.577852
_cell_angle_alpha 90.000000
_cell_angle_beta 121.068837
_cell_angle_gamma 90.000000
_cell_volume 2438.217022
_symmetry_space_group_name_H-M "C 2/M"
_symmetry_group_IT_number 12
_symmetry_cell_setting 'monoclinic'
loop_
_space_group_symop_operation_xyz
x,y,z
-x,y,-z
-x,-y,-z
x,-y,z
1/2+x,1/2+y,z
1/2-x,1/2+y,-z
1/2-x,1/2-y,-z
1/2+x,1/2-y,z
loop_
_atom_site_type_symbol
_atom_site_label
_atom_site_fract_x
_atom_site_fract_y
_atom_site_fract_z
Si Si1 0.685047 0.678073 0.403060
Si Si2 0.938973 0.811636 0.396733
Si Si3 0.731511 0.682642 0.681959
Si Si4 0.738709 0.693120 0.121158
Si Si5 0.912889 0.306252 0.929735
Si Si6 0.054543 0.692175 0.225827
Si Si7 0.599345 0.807222 0.807996
O O1 0.666844 0.500000 0.419043
O O2 0.750000 0.750000 0.500000
O O3 0.726989 0.686880 0.344457
O O4 0.607085 0.769057 0.336128
O O5 0.857832 0.808379 0.387910
O O6 0.924944 0.728311 0.300920
O O7 0.000000 0.746475 0.500000
O O8 0.957754 0.000000 0.392164
O O9 0.757656 0.500000 0.678135
O O10 0.746227 0.716641 0.784594
O O11 0.743701 0.500000 0.132522
O O12 0.650884 0.735987 0.052275
O O13 0.813834 0.746654 0.120010
O O14 0.905945 0.500000 0.931449
O O15 0.905636 0.253626 0.831319
O O16 0.000000 0.264863 0.000000
O O17 0.048423 0.500000 0.214256
O O18 0.970132 0.758445 0.183964
O O19 0.600186 0.000000 0.819322
#
# Coordination Sequence:
#
# PCOD9184728 Si02
#       7
#     8   8   8   8   8   8   8
#     4  12  25  38  55  81 115 154 197 242 293 344
#     4   9  19  33  50  75 107 145 189 238 284 334
#     4  10  19  34  54  77 109 148 190 235 285 339
#     4  10  19  35  58  84 114 148 188 234 287 343
#     4  10  21  38  63  90 116 152 196 241 293 354
#     4  10  21  40  61  84 118 154 195 243 293 350
#     4   9  20  36  55  80 110 150 190 234 292 345
#
# _framework density 22.967603
#
# number of rings (size 3 to 8) (size 9 to 14) (size 15 to 20)
#    0.000    2.000    1.429    2.143    2.000    2.286 
#    0.000    0.714    0.000    0.000    0.000    0.000 
#    0.000    0.000    0.000    0.000    0.000    0.000 
#
# Total GULP energy -156145.351575 kJ/mol
# GULP energy per Si atom -5576.619699 kJ/mol
# Density = 2.291533 g / cm^3
# Si number density = 22.967603 Si / 1000 Ang^3
#
#
#
# Elastic Constant Matrix: (Units=GPa)
#
#
# Indices 1 2 3 4 5 6 
#
# 1 162.8452 16.0114 32.1347 0.0000 30.3240 0.0000
# 2 16.0114 34.1024 2.8583 0.0000 7.1311 0.0000
# 3 32.1347 2.8583 68.9650 0.0000 26.2072 0.0000
# 4 0.0000 0.0000 0.0000 12.4898 0.0000 9.7520
# 5 30.3240 7.1311 26.2072 0.0000 33.0839 0.0000
# 6 0.0000 0.0000 0.0000 9.7520 0.0000 23.7368
#
#
#
# Elastic Compliance Matrix: (Units=1/GPa)
#
#
# Indices 1 2 3 4 5 6 
#
# 1 0.007655 -0.002349 -0.001424 0.000000 -0.005382 0.000000
# 2 -0.002349 0.031582 0.002224 0.000000 -0.006415 0.000000
# 3 -0.001424 0.002224 0.021113 0.000000 -0.015898 0.000000
# 4 0.000000 0.000000 0.000000 0.117878 0.000000 -0.048429
# 5 -0.005382 -0.006415 -0.015898 0.000000 0.049135 0.000000
# 6 0.000000 0.000000 0.000000 -0.048429 0.000000 0.062025
#
#
# Mechanical properties :
#
#
# Convention : Reuss Voigt Hill
#
# Bulk Modulus (GPa) = 17.46744 40.88018 29.17381
# Shear Modulus (GPa) = 16.04767 28.18931 22.11849
#
# Velocity S-wave (km/s) = 2.64618 3.50716 3.10664
# Velocity P-wave (km/s) = 4.11802 5.85132 5.05945
#
# Compressibility (1/GPa) = 0.05724938
#
# Stress axis : x y z
#
# Youngs Moduli (GPa) = 130.63306 31.66402 47.36387
#
# Poissons Ratio (x) = 0.07439 0.06747
# Poissons Ratio (y) = 0.30690 -0.10532
# Poissons Ratio (z) = 0.18608 -0.07041
#
# Static dielectric constant tensor:
#      x y z
#    x 1.951210 0.000000 0.044870 
#    y 0.000000 1.840770 0.000000 
#    z 0.044870 0.000000 1.962040 
# 
# From -- ./inp_files/281603.got.cif
#   From: 2010.05.17/outbox.cif.g08.bks.cpg/sg12_141_cif.got.tgz:281603.got - 2010.06.03 13:09:07.
