data_PCOD9184040
_publ_section_title
;
Structure prediction by ZEFSAII (Michael W. Deem and Ramdas Pophale) SiO2 
 PCOD9184040
Probable space group: C 2/M
;
_chemical_formula_sum "Si O2"
_cell_formula_units_Z 48
_cell_length_a 17.000315
_cell_length_b 18.590887
_cell_length_c 15.654157
_cell_angle_alpha 90.000000
_cell_angle_beta 30.739987
_cell_angle_gamma 90.000000
_cell_volume 2528.885043
_symmetry_space_group_name_H-M "C 2/M"
_symmetry_group_IT_number 12
_symmetry_cell_setting 'monoclinic'
loop_
_space_group_symop_operation_xyz
x,y,z
-x,y,-z
-x,-y,-z
x,-y,z
1/2+x,1/2+y,z
1/2-x,1/2+y,-z
1/2-x,1/2-y,-z
1/2+x,1/2-y,z
loop_
_atom_site_type_symbol
_atom_site_label
_atom_site_fract_x
_atom_site_fract_y
_atom_site_fract_z
Si Si1 0.974391 0.586908 0.800257
Si Si2 0.635384 0.661151 0.940451
Si Si3 0.361012 0.704054 0.690968
Si Si4 0.557820 0.915757 0.356206
Si Si5 0.345901 0.916502 0.201564
Si Si6 0.833288 0.825285 0.901781
O O1 0.966179 0.500000 0.808349
O O2 0.007288 0.613644 0.672905
O O3 0.098082 0.607235 0.756399
O O4 0.806432 0.618168 0.979518
O O5 0.735388 0.732889 0.824837
O O6 0.760380 0.597871 0.817294
O O7 0.500000 0.654664 0.000000
O O8 0.578831 0.660188 0.091695
O O9 0.500000 0.725896 0.500000
O O10 0.276070 0.636982 0.725723
O O11 0.418015 0.681840 0.732694
O O12 0.500000 0.885830 0.500000
O O13 0.521645 0.000000 0.389535
O O14 0.294043 0.000000 0.252715
O O15 0.500000 0.914362 0.000000
O O16 0.750000 0.750000 0.000000
#
# Coordination Sequence:
#
# PCOD9184040 Si02
#       6
#     8   8   8   8   8   8
#     4   9  17  32  56  81 104 139 181 214 255 316
#     4  10  21  37  57  77 103 142 185 221 254 312
#     4  11  22  36  53  78 112 141 171 218 272 316
#     4   9  18  35  58  81 110 141 172 221 274 312
#     4  10  19  33  57  82 105 139 181 217 254 318
#     4   9  19  34  54  75 105 139 176 213 259 314
#
# _framework density 18.980695999999998
#
# number of rings (size 3 to 8) (size 9 to 14) (size 15 to 20)
#    0.000    2.333    1.667    1.000    2.333    0.667 
#    3.000    0.833    0.000    0.000    0.000    0.000 
#    0.000    0.000    0.000    0.000    0.000    0.000 
#
# Total GULP energy -133710.053708 kJ/mol
# GULP energy per Si atom -5571.252238 kJ/mol
# Density = 1.893749 g / cm^3
# Si number density = 18.980696 Si / 1000 Ang^3
#
#
#
# Elastic Constant Matrix: (Units=GPa)
#
#
# Indices 1 2 3 4 5 6 
#
# 1 169.5217 12.7851 49.3366 -0.0021 32.8440 0.0008
# 2 12.7851 37.1130 4.0198 -0.0010 2.0313 0.0000
# 3 49.3366 4.0198 48.8626 0.0004 30.0489 -0.0006
# 4 -0.0021 -0.0010 0.0004 10.0444 -0.0001 -3.6236
# 5 32.8440 2.0313 30.0489 -0.0001 35.7489 0.0000
# 6 0.0008 0.0000 -0.0006 -3.6236 0.0000 18.5426
#
#
#
# Elastic Compliance Matrix: (Units=1/GPa)
#
#
# Indices 1 2 3 4 5 6 
#
# 1 0.008529 -0.002039 -0.007652 0.000002 -0.001289 0.000000
# 2 -0.002039 0.027683 -0.000835 0.000003 0.001002 0.000001
# 3 -0.007652 -0.000835 0.049490 -0.000003 -0.034521 0.000001
# 4 0.000002 0.000003 -0.000003 0.107109 0.000001 0.020931
# 5 -0.001289 0.001002 -0.034521 0.000001 0.058117 -0.000001
# 6 0.000000 0.000001 0.000001 0.020931 -0.000001 0.058020
#
#
# Mechanical properties :
#
#
# Convention : Reuss Voigt Hill
#
# Bulk Modulus (GPa) = 15.46780 43.08670 29.27725
# Shear Modulus (GPa) = 14.22274 25.49090 19.85682
#
# Velocity S-wave (km/s) = 2.74035 3.66866 3.23795
# Velocity P-wave (km/s) = 4.26376 6.37926 5.42562
#
# Compressibility (1/GPa) = 0.06465042
#
# Stress axis : x y z
#
# Youngs Moduli (GPa) = 117.24228 36.12362 20.20616
#
# Poissons Ratio (x) = 0.07365 0.15462
# Poissons Ratio (y) = 0.23905 0.01687
# Poissons Ratio (z) = 0.89713 0.03016
#
# Static dielectric constant tensor:
#      x y z
#    x 1.703030 0.000000 0.054390 
#    y 0.000000 1.684300 0.000000 
#    z 0.054390 0.000000 1.639050 
# 
# From -- ./inp_files/218433.got.cif
#   From: 2010.05.17/outbox.cif.g08.bks.cpg/sg12_110_cif.got.tgz:218433.got - 2010.06.03 13:09:07.
