data_PCOD9184397
_publ_section_title
;
Structure prediction by ZEFSAII (Michael W. Deem and Ramdas Pophale) SiO2 
 PCOD9184397
Probable space group: C 2/M
;
_chemical_formula_sum "Si O2"
_cell_formula_units_Z 64
_cell_length_a 24.594370
_cell_length_b 16.763423
_cell_length_c 15.025891
_cell_angle_alpha 90.000000
_cell_angle_beta 148.743131
_cell_angle_gamma 90.000000
_cell_volume 3214.415488
_symmetry_space_group_name_H-M "C 2/M"
_symmetry_group_IT_number 12
_symmetry_cell_setting 'monoclinic'
loop_
_space_group_symop_operation_xyz
x,y,z
-x,y,-z
-x,-y,-z
x,-y,z
1/2+x,1/2+y,z
1/2-x,1/2+y,-z
1/2-x,1/2-y,-z
1/2+x,1/2-y,z
loop_
_atom_site_type_symbol
_atom_site_label
_atom_site_fract_x
_atom_site_fract_y
_atom_site_fract_z
Si Si1 0.889212 0.086778 0.295800
Si Si2 0.897242 0.838697 0.801040
Si Si3 0.807149 0.908618 0.364445
Si Si4 0.441336 0.304739 0.670850
Si Si5 0.158687 0.367166 0.473082
Si Si6 0.391599 0.144369 0.800543
Si Si7 0.373047 0.253079 0.163387
Si Si8 0.483911 0.088339 0.370581
O O1 0.802088 0.097994 0.251004
O O2 0.895223 0.167954 0.251248
O O3 0.000000 0.079404 0.500000
O O4 0.870598 0.000000 0.224389
O O5 0.919374 0.853772 0.728429
O O6 0.783324 0.875301 0.663570
O O7 0.889882 0.741513 0.796115
O O8 0.000000 0.863599 0.000000
O O9 0.902057 0.856151 0.533585
O O10 0.703529 0.883021 0.270790
O O11 0.830177 0.000000 0.416999
O O12 0.368434 0.226848 0.564421
O O13 0.560782 0.273562 0.833134
O O14 0.125640 0.388681 0.324576
O O15 0.087478 0.404074 0.452205
O O16 0.500000 0.120268 0.000000
O O17 0.417598 0.167482 0.255862
O O18 0.250000 0.250000 0.000000
O O19 0.500000 0.090949 0.500000
O O20 0.437804 0.000000 0.286488
#
# Coordination Sequence:
#
# PCOD9184397 Si02
#       8
#     8   8   8   8   8   8   8   8
#     4  10  21  37  60  90 120 157 205 254 311 379
#     4  10  19  33  60  90 119 160 205 261 314 367
#     4  11  21  34  58  86 119 159 198 253 318 380
#     4  10  19  37  55  84 121 155 209 255 307 376
#     4  10  19  37  62  86 119 165 208 260 314 369
#     4  10  20  35  57  89 124 158 202 256 319 385
#     4  11  24  38  63  94 125 168 210 259 326 382
#     4  10  24  43  64  90 122 167 220 266 317 381
#
# _framework density 19.910308000000001
#
# number of rings (size 3 to 8) (size 9 to 14) (size 15 to 20)
#    0.000    1.750    3.750    1.125    1.750    6.250 
#    0.000    1.250    0.000    1.500    0.000    0.000 
#    0.000    0.000    0.000    0.000    0.000    0.000 
#
# Total GULP energy -178204.989359 kJ/mol
# GULP energy per Si atom -5568.905917 kJ/mol
# Density = 1.986499 g / cm^3
# Si number density = 19.910308 Si / 1000 Ang^3
#
#
#
# Elastic Constant Matrix: (Units=GPa)
#
#
# Indices 1 2 3 4 5 6 
#
# 1 118.2881 29.7932 51.7045 0.0000 26.2562 0.0000
# 2 29.7932 95.8861 28.5502 0.0000 3.9137 0.0000
# 3 51.7045 28.5502 101.6246 0.0000 31.3083 0.0000
# 4 0.0000 0.0000 0.0000 14.5524 0.0000 -11.1758
# 5 26.2562 3.9137 31.3083 0.0000 30.9687 0.0000
# 6 0.0000 0.0000 0.0000 -11.1758 0.0000 26.4139
#
#
#
# Elastic Compliance Matrix: (Units=1/GPa)
#
#
# Indices 1 2 3 4 5 6 
#
# 1 0.011991 -0.002437 -0.003455 0.000000 -0.006365 0.000000
# 2 -0.002437 0.012023 -0.003349 0.000000 0.003933 0.000000
# 3 -0.003455 -0.003349 0.016711 0.000000 -0.013541 0.000000
# 4 0.000000 0.000000 0.000000 0.101793 0.000000 0.043069
# 5 -0.006365 0.003933 -0.013541 0.000000 0.050880 0.000000
# 6 0.000000 0.000000 0.000000 0.043069 0.000000 0.056081
#
#
# Mechanical properties :
#
#
# Convention : Reuss Voigt Hill
#
# Bulk Modulus (GPa) = 44.96102 59.54386 52.25244
# Shear Modulus (GPa) = 18.15699 28.10372 23.13035
#
# Velocity S-wave (km/s) = 3.02311 3.76109 3.41211
# Velocity P-wave (km/s) = 5.90054 6.98799 6.46716
#
# Compressibility (1/GPa) = 0.02224149
#
# Stress axis : x y z
#
# Youngs Moduli (GPa) = 83.39658 83.17330 59.84169
#
# Poissons Ratio (x) = 0.20271 0.20675
# Poissons Ratio (y) = 0.20326 0.20044
# Poissons Ratio (z) = 0.28813 0.27858
#
# Static dielectric constant tensor:
#      x y z
#    x 1.777260 0.000000 0.015180 
#    y 0.000000 1.841350 0.000000 
#    z 0.015180 0.000000 1.712910 
# 
# From -- ./inp_files/241543.got.cif
#   From: 2010.05.17/outbox.cif.g08.bks.cpg/sg12_121_cif.got.tgz:241543.got - 2010.06.03 13:09:07.
