data_PCOD9184684
_publ_section_title
;
Structure prediction by ZEFSAII (Michael W. Deem and Ramdas Pophale) SiO2 
 PCOD9184684
Probable space group: C 2/M
;
_chemical_formula_sum "Si O2"
_cell_formula_units_Z 56
_cell_length_a 30.282229
_cell_length_b 7.669829
_cell_length_c 15.570298
_cell_angle_alpha 90.000000
_cell_angle_beta 133.019537
_cell_angle_gamma 90.000000
_cell_volume 2643.989754
_symmetry_space_group_name_H-M "C 2/M"
_symmetry_group_IT_number 12
_symmetry_cell_setting 'monoclinic'
loop_
_space_group_symop_operation_xyz
x,y,z
-x,y,-z
-x,-y,-z
x,-y,z
1/2+x,1/2+y,z
1/2-x,1/2+y,-z
1/2-x,1/2-y,-z
1/2+x,1/2-y,z
loop_
_atom_site_type_symbol
_atom_site_label
_atom_site_fract_x
_atom_site_fract_y
_atom_site_fract_z
Si Si1 0.894627 0.714273 0.619765
Si Si2 0.347516 0.209275 0.120044
Si Si3 0.756424 0.710165 0.145272
Si Si4 0.546043 0.701599 0.988476
Si Si5 0.725684 0.210738 0.636890
Si Si6 0.644019 0.794735 0.244074
Si Si7 0.026436 0.701203 0.769988
O O1 0.895494 0.500000 0.621765
O O2 0.836962 0.769585 0.488057
O O3 0.884840 0.770198 0.705365
O O4 0.959338 0.776325 0.671280
O O5 0.308290 0.274917 0.148544
O O6 0.415080 0.280394 0.198718
O O7 0.351720 0.000000 0.134037
O O8 0.307423 0.244067 0.982371
O O9 0.759993 0.500000 0.151778
O O10 0.765397 0.773872 0.253709
O O11 0.530316 0.500000 0.951754
O O12 0.611690 0.711063 0.119102
O O13 0.500000 0.771352 0.000000
O O14 0.540623 0.795193 0.890703
O O15 0.784587 0.264515 0.661898
O O16 0.724459 0.000000 0.636438
O O17 0.632433 0.000000 0.222601
O O18 0.022444 0.500000 0.736593
#
# Coordination Sequence:
#
# PCOD9184684 Si02
#       7
#     8   8   8   8   8   8   8
#     4   9  19  34  51  72 101 138 171 208 252 298
#     4   9  18  32  53  78 100 127 164 207 253 303
#     4   9  18  33  52  75 102 129 162 208 257 300
#     4  11  22  34  50  75 105 133 165 207 253 299
#     4  10  20  35  53  73 102 136 172 211 254 298
#     4  11  21  34  53  75 101 135 175 211 251 299
#     4  10  19  34  54  75 103 136 171 206 250 305
#
# _framework density 21.180112000000001
#
# number of rings (size 3 to 8) (size 9 to 14) (size 15 to 20)
#    0.000    2.143    1.429    2.143    0.000    4.000 
#    0.000    2.143    0.000    4.286    0.000    0.000 
#    0.000    6.857    0.000    0.000    0.000    0.000 
#
# Total GULP energy -156410.247532 kJ/mol
# GULP energy per Si atom -5586.080269 kJ/mol
# Density = 2.113191 g / cm^3
# Si number density = 21.180112 Si / 1000 Ang^3
#
#
#
# Elastic Constant Matrix: (Units=GPa)
#
#
# Indices 1 2 3 4 5 6 
#
# 1 112.3232 0.6991 28.8445 0.0000 38.7363 0.0000
# 2 0.6991 44.3485 -1.8712 0.0000 -0.8124 0.0000
# 3 28.8445 -1.8712 61.9890 0.0000 29.0559 0.0000
# 4 0.0000 0.0000 0.0000 5.0631 0.0000 7.4209
# 5 38.7363 -0.8124 29.0559 0.0000 39.5381 0.0000
# 6 0.0000 0.0000 0.0000 7.4209 0.0000 14.0020
#
#
#
# Elastic Compliance Matrix: (Units=1/GPa)
#
#
# Indices 1 2 3 4 5 6 
#
# 1 0.013456 -0.000458 -0.000139 0.000000 -0.013090 0.000000
# 2 -0.000458 0.022593 0.000713 0.000000 0.000389 0.000000
# 3 -0.000139 0.000713 0.024632 0.000000 -0.017950 0.000000
# 4 0.000000 0.000000 0.000000 0.884899 0.000000 -0.468988
# 5 -0.013090 0.000389 -0.017950 0.000000 0.051316 0.000000
# 6 0.000000 0.000000 0.000000 -0.468988 0.000000 0.319977
#
#
# Mechanical properties :
#
#
# Convention : Reuss Voigt Hill
#
# Bulk Modulus (GPa) = 16.41715 30.44504 23.43109
# Shear Modulus (GPa) = 3.73987 24.45319 14.09653
#
# Velocity S-wave (km/s) = 1.33025 3.40153 2.58263
# Velocity P-wave (km/s) = 3.18237 5.46194 4.46991
#
# Compressibility (1/GPa) = 0.06091192
#
# Stress axis : x y z
#
# Youngs Moduli (GPa) = 74.31767 44.26129 40.59733
#
# Poissons Ratio (x) = 0.02026 0.00566
# Poissons Ratio (y) = 0.03402 -0.02893
# Poissons Ratio (z) = 0.01037 -0.03155
#
# Static dielectric constant tensor:
#      x y z
#    x 1.784980 0.000000 0.021070 
#    y 0.000000 1.804320 0.000000 
#    z 0.021070 0.000000 1.732130 
# 
# From -- ./inp_files/243595.got.cif
#   From: 2010.05.17/outbox.cif.g08.bks.cpg/sg12_122_cif.got.tgz:243595.got - 2010.06.03 13:09:07.
