data_PCOD9184097
_publ_section_title
;
Structure prediction by ZEFSAII (Michael W. Deem and Ramdas Pophale) SiO2 
 PCOD9184097
Probable space group: C 2/M
;
_chemical_formula_sum "Si O2"
_cell_formula_units_Z 56
_cell_length_a 14.147412
_cell_length_b 14.207769
_cell_length_c 29.734151
_cell_angle_alpha 90.000000
_cell_angle_beta 26.832340
_cell_angle_gamma 90.000000
_cell_volume 2697.751698
_symmetry_space_group_name_H-M "C 2/M"
_symmetry_group_IT_number 12
_symmetry_cell_setting 'monoclinic'
loop_
_space_group_symop_operation_xyz
x,y,z
-x,y,-z
-x,-y,-z
x,-y,z
1/2+x,1/2+y,z
1/2-x,1/2+y,-z
1/2-x,1/2-y,-z
1/2+x,1/2-y,z
loop_
_atom_site_type_symbol
_atom_site_label
_atom_site_fract_x
_atom_site_fract_y
_atom_site_fract_z
Si Si1 0.739504 0.391737 0.879715
Si Si2 0.742285 0.890266 0.393417
Si Si3 0.718509 0.142106 0.502090
Si Si4 0.765050 0.297793 0.687859
Si Si5 0.557579 0.397300 0.424064
Si Si6 0.859373 0.612371 0.927953
Si Si7 0.081768 0.211715 0.864085
O O1 0.784133 0.500000 0.847037
O O2 0.872812 0.368600 0.868038
O O3 0.737077 0.322273 0.837941
O O4 0.500000 0.390421 0.000000
O O5 0.500000 0.854380 0.500000
O O6 0.823433 0.878786 0.409520
O O7 0.852984 0.835765 0.306223
O O8 0.736552 0.000000 0.385487
O O9 0.750000 0.250000 0.500000
O O10 0.469709 0.133403 0.604386
O O11 0.839331 0.093223 0.490436
O O12 0.829361 0.190938 0.647409
O O13 0.663725 0.305506 0.779214
O O14 0.500000 0.375926 0.500000
O O15 0.666235 0.500000 0.375716
O O16 0.879244 0.500000 0.925888
O O17 0.016364 0.678003 0.889878
O O18 0.628865 0.649905 0.039542
#
# Coordination Sequence:
#
# PCOD9184097 Si02
#       7
#     8   8   8   8   8   8   8
#     4   8  15  32  56  78 104 141 184 226 272 331
#     4   9  17  30  49  72 102 137 173 211 263 319
#     4   9  17  33  53  71 102 145 178 210 264 319
#     4  10  20  33  51  83 108 134 177 233 270 313
#     4  10  20  36  55  74 107 149 184 217 265 325
#     4   9  19  37  59  81 111 149 186 228 283 341
#     4  10  19  33  57  85 109 144 185 232 282 328
#
# _framework density 20.758026000000001
#
# number of rings (size 3 to 8) (size 9 to 14) (size 15 to 20)
#    0.000    2.714    0.000    3.857    0.000    2.286 
#    7.714    0.000    0.000   11.571    0.000    0.000 
#    0.000    0.000    0.000    0.000    0.000    0.000 
#
# Total GULP energy -155941.212212 kJ/mol
# GULP energy per Si atom -5569.329008 kJ/mol
# Density = 2.071078 g / cm^3
# Si number density = 20.758026 Si / 1000 Ang^3
#
#
#
# Elastic Constant Matrix: (Units=GPa)
#
#
# Indices 1 2 3 4 5 6 
#
# 1 111.2358 61.3784 45.6002 0.0003 39.1916 0.0000
# 2 61.3784 146.4542 35.8547 0.0043 27.3705 -0.0015
# 3 45.6002 35.8547 82.9057 0.0043 39.3941 -0.0016
# 4 0.0003 0.0043 0.0043 16.5137 -0.0031 15.9993
# 5 39.1916 27.3705 39.3941 -0.0031 33.6535 0.0017
# 6 0.0000 -0.0015 -0.0016 15.9993 0.0017 34.8120
#
#
#
# Elastic Compliance Matrix: (Units=1/GPa)
#
#
# Indices 1 2 3 4 5 6 
#
# 1 0.017080 -0.004075 0.000551 -0.000006 -0.017222 0.000003
# 2 -0.004075 0.009050 -0.000969 -0.000005 -0.001481 0.000003
# 3 0.000551 -0.000969 0.027285 -0.000028 -0.031792 0.000016
# 4 -0.000006 -0.000005 -0.000028 0.109164 0.000056 -0.050171
# 5 -0.017222 -0.001481 -0.031792 0.000056 0.088190 -0.000031
# 6 0.000003 0.000003 0.000016 -0.050171 -0.000031 0.051784
#
#
# Mechanical properties :
#
#
# Convention : Reuss Voigt Hill
#
# Bulk Modulus (GPa) = 22.50787 69.58470 46.04628
# Shear Modulus (GPa) = 15.32109 30.18000 22.75054
#
# Velocity S-wave (km/s) = 2.71971 3.81713 3.31416
# Velocity P-wave (km/s) = 4.55291 7.28162 6.07252
#
# Compressibility (1/GPa) = 0.04442890
#
# Stress axis : x y z
#
# Youngs Moduli (GPa) = 58.54766 110.50129 36.65076
#
# Poissons Ratio (x) = 0.45024 -0.02019
# Poissons Ratio (y) = 0.23855 0.03552
# Poissons Ratio (z) = -0.03226 0.10709
#
# Static dielectric constant tensor:
#      x y z
#    x 1.828410 0.000000 -0.035900 
#    y 0.000000 1.745310 0.000000 
#    z -0.035900 0.000000 1.770740 
# 
# From -- ./inp_files/361412.got.cif
#   From: 2010.05.17/outbox.cif.g08.bks.cpg/sg12_181_cif.got.tgz:361412.got - 2010.06.03 13:09:07.
