data_PCOD9184631
_publ_section_title
;
Structure prediction by ZEFSAII (Michael W. Deem and Ramdas Pophale) SiO2 
 PCOD9184631
Probable space group: C 2/M
;
_chemical_formula_sum "Si O2"
_cell_formula_units_Z 50
_cell_length_a 28.365622
_cell_length_b 7.792569
_cell_length_c 15.795988
_cell_angle_alpha 90.000000
_cell_angle_beta 130.682340
_cell_angle_gamma 90.000000
_cell_volume 2647.774721
_symmetry_space_group_name_H-M "C 2/M"
_symmetry_group_IT_number 12
_symmetry_cell_setting 'monoclinic'
loop_
_space_group_symop_operation_xyz
x,y,z
-x,y,-z
-x,-y,-z
x,-y,z
1/2+x,1/2+y,z
1/2-x,1/2+y,-z
1/2-x,1/2-y,-z
1/2+x,1/2-y,z
loop_
_atom_site_type_symbol
_atom_site_label
_atom_site_fract_x
_atom_site_fract_y
_atom_site_fract_z
Si Si1 0.583502 0.301757 0.022133
Si Si2 0.498614 0.706873 0.228030
Si Si3 0.336561 0.199176 0.456911
Si Si4 0.500000 0.000000 0.000000
Si Si5 0.868639 0.198631 0.677843
Si Si6 0.470001 0.706145 0.551036
Si Si7 0.296225 0.803459 0.756512
O O1 0.563666 0.500000 0.016610
O O2 0.656609 0.289989 0.125040
O O3 0.551606 0.153914 0.040673
O O4 0.559907 0.258918 0.899679
O O5 0.505757 0.500000 0.241117
O O6 0.561463 0.769880 0.254498
O O7 0.499358 0.770861 0.325173
O O8 0.337931 0.294169 0.549087
O O9 0.396914 0.256513 0.475174
O O10 0.272388 0.228533 0.333864
O O11 0.343517 0.000000 0.485658
O O12 0.828515 0.290501 0.701705
O O13 0.873370 0.000000 0.710591
O O14 0.500000 0.774606 0.500000
O O15 0.477638 0.500000 0.559111
O O16 0.290939 0.000000 0.775800
#
# Coordination Sequence:
#
# PCOD9184631 Si02
#       7
#     8   8   8   2   8   8   8
#     4  11  22  37  54  79 116 154 198 243 277 328
#     4   8  17  33  55  80 112 146 181 232 285 332
#     4  11  22  36  53  78 112 148 185 233 288 337
#     4  12  22  36  52  82 110 156 208 228 276 320
#     4  10  19  34  53  77 108 149 191 233 281 329
#     4   9  18  37  64  89 109 136 177 230 292 352
#     4  12  23  36  52  77 110 153 200 234 278 338
#
# _framework density 18.883780999999999
#
# number of rings (size 3 to 8) (size 9 to 14) (size 15 to 20)
#    0.000    1.760    0.800    6.000    0.000    1.600 
#    5.760    0.000    0.000    0.960    0.000    0.000 
#    0.000    0.000    0.000    0.000    0.000    0.000 
#
# Total GULP energy -139296.064799 kJ/mol
# GULP energy per Si atom -5571.842592 kJ/mol
# Density = 1.884080 g / cm^3
# Si number density = 18.883781 Si / 1000 Ang^3
#
#
#
# Elastic Constant Matrix: (Units=GPa)
#
#
# Indices 1 2 3 4 5 6 
#
# 1 81.7249 4.1778 59.6005 0.0000 -7.8894 0.0000
# 2 4.1778 72.9121 -3.2585 0.0000 -9.0113 0.0000
# 3 59.6005 -3.2585 155.5842 0.0000 3.0728 0.0000
# 4 0.0000 0.0000 0.0000 -20.8897 0.0000 20.6123
# 5 -7.8894 -9.0113 3.0728 0.0000 10.2501 0.0000
# 6 0.0000 0.0000 0.0000 20.6123 0.0000 9.7828
#
#
#
# Elastic Compliance Matrix: (Units=1/GPa)
#
#
# Indices 1 2 3 4 5 6 
#
# 1 0.019713 0.000769 -0.007895 0.000000 0.018216 0.000000
# 2 0.000769 0.015417 -0.000253 0.000000 0.014222 0.000000
# 3 -0.007895 -0.000253 0.009628 0.000000 -0.009185 0.000000
# 4 0.000000 0.000000 0.000000 -0.015547 0.000000 0.032758
# 5 0.018216 0.014222 -0.009185 0.000000 0.126837 0.000000
# 6 0.000000 0.000000 0.000000 0.032758 0.000000 0.033199
#
#
# Mechanical properties :
#
#
# Convention : Reuss Voigt Hill
#
# Bulk Modulus (GPa) = 33.33236 47.91787 40.62512
# Shear Modulus (GPa) = 23.36388 16.47540 19.91964
#
# Velocity S-wave (km/s) = 3.52127 2.95695 3.25138
# Velocity P-wave (km/s) = 5.84996 6.09002 5.97120
#
# Compressibility (1/GPa) = 0.03000088
#
# Stress axis : x y z
#
# Youngs Moduli (GPa) = 50.72727 64.86143 103.86360
#
# Poissons Ratio (x) = -0.04987 0.82004
# Poissons Ratio (y) = -0.03901 0.02623
# Poissons Ratio (z) = 0.40051 0.01638
#
# Static dielectric constant tensor:
#      x y z
#    x 1.633040 0.000000 -0.018340 
#    y 0.000000 1.671650 0.000000 
#    z -0.018340 0.000000 1.703270 
# 
# From -- ./inp_files/292304.got.cif
#   From: 2010.05.17/outbox.cif.g08.bks.cpg/sg12_147_cif.got.tgz:292304.got - 2010.06.03 13:09:07.
