data_PCOD9184724
_publ_section_title
;
Structure prediction by ZEFSAII (Michael W. Deem and Ramdas Pophale) SiO2 
 PCOD9184724
Probable space group: C 2/M
;
_chemical_formula_sum "Si O2"
_cell_formula_units_Z 40
_cell_length_a 14.210404
_cell_length_b 24.772291
_cell_length_c 10.267697
_cell_angle_alpha 90.000000
_cell_angle_beta 27.777840
_cell_angle_gamma 90.000000
_cell_volume 1684.507741
_symmetry_space_group_name_H-M "C 2/M"
_symmetry_group_IT_number 12
_symmetry_cell_setting 'monoclinic'
loop_
_space_group_symop_operation_xyz
x,y,z
-x,y,-z
-x,-y,-z
x,-y,z
1/2+x,1/2+y,z
1/2-x,1/2+y,-z
1/2-x,1/2-y,-z
1/2+x,1/2-y,z
loop_
_atom_site_type_symbol
_atom_site_label
_atom_site_fract_x
_atom_site_fract_y
_atom_site_fract_z
Si Si1 0.289687 0.205530 0.100474
Si Si2 0.266967 0.835126 0.413481
Si Si3 0.112164 0.940067 0.498096
Si Si4 0.332621 0.329093 0.016028
Si Si5 0.668805 0.558756 0.905649
O O1 0.526288 0.190590 0.790840
O O2 0.250199 0.269333 0.139502
O O3 0.230994 0.192707 0.318823
O O4 0.186421 0.168847 0.117595
O O5 0.271341 0.897647 0.362767
O O6 0.075301 0.828197 0.742534
O O7 0.000000 0.926247 0.500000
O O8 0.943249 0.942747 0.817958
O O9 0.199870 0.000000 0.374330
O O10 0.237148 0.380976 0.203685
O O11 0.773766 0.500000 0.760647
O O12 0.500000 0.560208 0.000000
#
# Coordination Sequence:
#
# PCOD9184724 Si02
#       5
#     8   8   8   8   8
#     4  10  21  33  52  82 108 141 187 221 275 334
#     4  10  19  34  54  77 108 137 178 234 272 318
#     4   9  17  32  56  81 107 145 184 225 279 326
#     4  10  20  36  54  75 111 144 180 226 274 327
#     4   9  18  32  55  82 107 143 187 225 273 329
#
# _framework density 23.745809999999999
#
# number of rings (size 3 to 8) (size 9 to 14) (size 15 to 20)
#    0.000    2.400    0.000    3.600    2.800    0.000 
#    0.000    3.000    0.000    0.000    0.000   12.600 
#    0.000    0.000    0.000    0.000    0.000    0.000 
#
# Total GULP energy -111494.118682 kJ/mol
# GULP energy per Si atom -5574.705934 kJ/mol
# Density = 2.369176 g / cm^3
# Si number density = 23.745810 Si / 1000 Ang^3
#
#
#
# Elastic Constant Matrix: (Units=GPa)
#
#
# Indices 1 2 3 4 5 6 
#
# 1 68.9505 13.4120 9.3130 -0.0047 -7.1774 -0.0076
# 2 13.4120 207.6365 -2.5634 0.0082 -14.3001 -0.0100
# 3 9.3130 -2.5634 53.3625 0.0101 -15.6335 -0.0183
# 4 -0.0047 0.0082 0.0101 -25.2933 0.0169 36.1161
# 5 -7.1774 -14.3001 -15.6335 0.0169 17.2725 0.0052
# 6 -0.0076 -0.0100 -0.0183 36.1161 0.0052 18.0045
#
#
#
# Elastic Compliance Matrix: (Units=1/GPa)
#
#
# Indices 1 2 3 4 5 6 
#
# 1 0.015296 -0.000692 -0.001372 0.000001 0.004541 0.000001
# 2 -0.000692 0.005304 0.002147 0.000003 0.006047 -0.000003
# 3 -0.001372 0.002147 0.026450 0.000015 0.025147 -0.000009
# 4 0.000001 0.000003 0.000015 -0.010231 0.000020 0.020523
# 5 0.004541 0.006047 0.025147 0.000020 0.087549 -0.000035
# 6 0.000001 -0.000003 -0.000009 0.020523 -0.000035 0.014373
#
#
# Mechanical properties :
#
#
# Convention : Reuss Voigt Hill
#
# Bulk Modulus (GPa) = 21.18012 41.14141 31.16077
# Shear Modulus (GPa) = 32.40153 22.64928 27.52540
#
# Velocity S-wave (km/s) = 3.69794 3.09175 3.40835
# Velocity P-wave (km/s) = 5.21267 5.48713 5.35166
#
# Compressibility (1/GPa) = 0.04721408
#
# Stress axis : x y z
#
# Youngs Moduli (GPa) = 65.37720 188.54507 37.80762
#
# Poissons Ratio (x) = 0.13052 0.05189
# Poissons Ratio (y) = 0.04526 -0.08118
# Poissons Ratio (z) = 0.08973 -0.40482
#
# Static dielectric constant tensor:
#      x y z
#    x 1.885620 0.000000 -0.009200 
#    y 0.000000 2.020730 0.000010 
#    z -0.009200 0.000010 1.936050 
# 
# From -- ./inp_files/149252.got.cif
#   From: 2010.05.17/outbox.cif.g08.bks.cpg/sg12_75_cif.got.tgz:149252.got - 2010.06.03 13:09:07.
