data_PCOD9184445
_publ_section_title
;
Structure prediction by ZEFSAII (Michael W. Deem and Ramdas Pophale) SiO2 
 PCOD9184445
Probable space group: C 2/M
;
_chemical_formula_sum "Si O2"
_cell_formula_units_Z 64
_cell_length_a 23.972586
_cell_length_b 23.619035
_cell_length_c 9.030423
_cell_angle_alpha 90.000000
_cell_angle_beta 39.411757
_cell_angle_gamma 90.000000
_cell_volume 3246.257567
_symmetry_space_group_name_H-M "C 2/M"
_symmetry_group_IT_number 12
_symmetry_cell_setting 'monoclinic'
loop_
_space_group_symop_operation_xyz
x,y,z
-x,y,-z
-x,-y,-z
x,-y,z
1/2+x,1/2+y,z
1/2-x,1/2+y,-z
1/2-x,1/2-y,-z
1/2+x,1/2-y,z
loop_
_atom_site_type_symbol
_atom_site_label
_atom_site_fract_x
_atom_site_fract_y
_atom_site_fract_z
Si Si1 0.193589 0.181188 0.781529
Si Si2 0.471784 0.143282 0.893789
Si Si3 0.054370 0.263276 0.521939
Si Si4 0.374977 0.063441 0.491537
Si Si5 0.285583 0.562673 0.396615
Si Si6 0.231655 0.366283 0.756522
Si Si7 0.282816 0.160437 0.875934
Si Si8 0.847114 0.237189 0.406367
O O1 0.173115 0.117770 0.768163
O O2 0.200025 0.179913 0.945220
O O3 0.134959 0.223747 0.802833
O O4 0.294471 0.203657 0.537842
O O5 0.499127 0.184765 0.704127
O O6 0.531143 0.087741 0.747844
O O7 0.500000 0.165570 0.000000
O O8 0.369451 0.132890 0.085486
O O9 0.145492 0.289191 0.271810
O O10 0.078882 0.230505 0.621912
O O11 0.000000 0.236391 0.500000
O O12 0.310798 0.061575 0.481329
O O13 0.329025 0.107633 0.697193
O O14 0.380873 0.000000 0.540698
O O15 0.324148 0.500000 0.295954
O O16 0.276778 0.580078 0.585736
O O17 0.277498 0.310997 0.594216
O O18 0.239856 0.359398 0.914339
#
# Coordination Sequence:
#
# PCOD9184445 Si02
#       8
#     8   8   8   8   8   8   8   8
#     4   8  16  31  47  66  88 122 162 190 232 285
#     4  11  21  31  45  64  96 125 163 209 240 276
#     4  10  19  34  47  65  92 125 154 194 250 294
#     4   9  18  31  46  62  89 137 178 198 227 273
#     4   9  17  30  46  65  92 125 163 201 231 271
#     4  11  20  31  45  73  94 121 163 204 246 279
#     4   9  18  31  46  64  95 125 159 203 235 275
#     4   9  19  31  52  68  90 126 164 196 238 294
#
# _framework density 19.715009999999999
#
# number of rings (size 3 to 8) (size 9 to 14) (size 15 to 20)
#    0.000    2.500    2.500    0.750    5.250    3.250 
#    0.000    0.625    0.000    0.000    0.000    0.000 
#    0.000    8.000    0.000    9.000    1.000    0.875 
#
# Total GULP energy -178289.423467 kJ/mol
# GULP energy per Si atom -5571.544483 kJ/mol
# Density = 1.967014 g / cm^3
# Si number density = 19.715010 Si / 1000 Ang^3
#
#
#
# Elastic Constant Matrix: (Units=GPa)
#
#
# Indices 1 2 3 4 5 6 
#
# 1 124.7076 5.0439 12.1687 0.0000 39.7622 0.0000
# 2 5.0439 77.8897 4.6954 0.0000 4.5239 0.0000
# 3 12.1687 4.6954 35.6335 0.0000 20.9995 0.0000
# 4 0.0000 0.0000 0.0000 13.1920 0.0000 4.3288
# 5 39.7622 4.5239 20.9995 0.0000 30.1984 0.0000
# 6 0.0000 0.0000 0.0000 4.3288 0.0000 16.8164
#
#
#
# Elastic Compliance Matrix: (Units=1/GPa)
#
#
# Indices 1 2 3 4 5 6 
#
# 1 0.016405 -0.000049 0.012080 0.000000 -0.029994 0.000000
# 2 -0.000049 0.012971 -0.000991 0.000000 -0.001190 0.000000
# 3 0.012080 -0.000991 0.056514 0.000000 -0.055056 0.000000
# 4 0.000000 0.000000 0.000000 0.082797 0.000000 -0.021313
# 5 -0.029994 -0.001190 -0.055056 0.000000 0.111070 0.000000
# 6 0.000000 0.000000 0.000000 -0.021313 0.000000 0.064952
#
#
# Mechanical properties :
#
#
# Convention : Reuss Voigt Hill
#
# Bulk Modulus (GPa) = 9.26181 31.33856 20.30018
# Shear Modulus (GPa) = 13.94232 26.46288 20.20260
#
# Velocity S-wave (km/s) = 2.66220 3.66768 3.20462
# Velocity P-wave (km/s) = 3.76268 5.81946 4.90020
#
# Compressibility (1/GPa) = 0.10797023
#
# Stress axis : x y z
#
# Youngs Moduli (GPa) = 60.95602 77.09694 17.69458
#
# Poissons Ratio (x) = 0.00374 -0.21375
# Poissons Ratio (y) = 0.00296 0.01754
# Poissons Ratio (z) = -0.73634 0.07644
#
# Static dielectric constant tensor:
#      x y z
#    x 1.759850 0.000000 0.029610 
#    y 0.000000 1.715200 0.000000 
#    z 0.029610 0.000000 1.737010 
# 
# From -- ./inp_files/90141.got.cif
#   From: 2010.05.17/outbox.cif.g08.bks.cpg/sg12_46_cif.got.tgz:90141.got - 2010.06.03 13:09:07.
