data_PCOD9184410
_publ_section_title
;
Structure prediction by ZEFSAII (Michael W. Deem and Ramdas Pophale) SiO2 
 PCOD9184410
Probable space group: C 2/M
;
_chemical_formula_sum "Si O2"
_cell_formula_units_Z 52
_cell_length_a 11.327345
_cell_length_b 22.495843
_cell_length_c 11.873138
_cell_angle_alpha 90.000000
_cell_angle_beta 50.342305
_cell_angle_gamma 90.000000
_cell_volume 2329.238014
_symmetry_space_group_name_H-M "C 2/M"
_symmetry_group_IT_number 12
_symmetry_cell_setting 'monoclinic'
loop_
_space_group_symop_operation_xyz
x,y,z
-x,y,-z
-x,-y,-z
x,-y,z
1/2+x,1/2+y,z
1/2-x,1/2+y,-z
1/2-x,1/2-y,-z
1/2+x,1/2-y,z
loop_
_atom_site_type_symbol
_atom_site_label
_atom_site_fract_x
_atom_site_fract_y
_atom_site_fract_z
Si Si1 0.992739 0.113884 0.258604
Si Si2 0.831246 0.338482 0.274204
Si Si3 0.525928 0.067954 0.239231
Si Si4 0.500000 0.657797 0.500000
Si Si5 0.660942 0.429394 0.845486
Si Si6 0.304164 0.934718 0.097954
Si Si7 0.931591 0.763869 0.913358
O O1 0.851400 0.087523 0.277269
O O2 0.982523 0.118608 0.398605
O O3 0.136979 0.071567 0.144742
O O4 0.027990 0.178705 0.185895
O O5 0.663835 0.309661 0.392793
O O6 0.817073 0.376423 0.167133
O O7 0.881490 0.388661 0.333323
O O8 0.967229 0.291827 0.188406
O O9 0.679027 0.093893 0.203470
O O10 0.497153 0.000000 0.293113
O O11 0.575801 0.066102 0.076679
O O12 0.666856 0.500000 0.858513
O O13 0.500000 0.408586 0.000000
O O14 0.309144 0.000000 0.151191
O O15 0.750000 0.750000 0.000000
O O16 0.000000 0.772629 0.000000
#
# Coordination Sequence:
#
# PCOD9184410 Si02
#       7
#     8   8   8   4   8   8   8
#     4  11  22  40  64  92 129 170 223 262 324 397
#     4  11  23  42  62  92 133 172 224 265 321 402
#     4  10  19  33  60  95 129 163 206 271 342 393
#     4  10  26  48  63  84 126 184 231 264 306 392
#     4  10  19  34  60  96 132 163 206 269 341 404
#     4  10  19  36  64  96 133 171 212 275 341 396
#     4  12  26  42  71 107 136 167 212 288 357 400
#
# _framework density 22.324895999999999
#
# number of rings (size 3 to 8) (size 9 to 14) (size 15 to 20)
#    0.000    1.385    1.538    5.538    2.154    1.846 
#    0.000   14.615    0.000    1.846    0.000    0.000 
#    0.000    0.000    0.000    0.000    0.000    0.000 
#
# Total GULP energy -145066.009846 kJ/mol
# GULP energy per Si atom -5579.461917 kJ/mol
# Density = 2.227408 g / cm^3
# Si number density = 22.324896 Si / 1000 Ang^3
#
#
#
# Elastic Constant Matrix: (Units=GPa)
#
#
# Indices 1 2 3 4 5 6 
#
# 1 165.8294 34.1479 43.8005 0.0000 -24.4877 0.0000
# 2 34.1479 85.9899 14.9388 0.0000 -17.6966 0.0000
# 3 43.8005 14.9388 50.3243 0.0000 -7.0402 0.0000
# 4 0.0000 0.0000 0.0000 4.1168 0.0000 -3.1542
# 5 -24.4877 -17.6966 -7.0402 0.0000 41.8015 0.0000
# 6 0.0000 0.0000 0.0000 -3.1542 0.0000 36.1508
#
#
#
# Elastic Compliance Matrix: (Units=1/GPa)
#
#
# Indices 1 2 3 4 5 6 
#
# 1 0.008561 -0.001600 -0.006523 0.000000 0.003239 0.000000
# 2 -0.001600 0.013529 -0.002001 0.000000 0.004453 0.000000
# 3 -0.006523 -0.002001 0.026105 0.000000 -0.000272 0.000000
# 4 0.000000 0.000000 0.000000 0.260309 0.000000 0.022712
# 5 0.003239 0.004453 -0.000272 0.000000 0.027660 0.000000
# 6 0.000000 0.000000 0.000000 0.022712 0.000000 0.029644
#
#
# Mechanical properties :
#
#
# Convention : Reuss Voigt Hill
#
# Bulk Modulus (GPa) = 35.78195 54.21312 44.99754
# Shear Modulus (GPa) = 12.64641 30.36425 21.50533
#
# Velocity S-wave (km/s) = 2.38265 3.69196 3.10706
# Velocity P-wave (km/s) = 4.86127 6.52001 5.75076
#
# Compressibility (1/GPa) = 0.02794705
#
# Stress axis : x y z
#
# Youngs Moduli (GPa) = 116.80842 73.91750 38.30756
#
# Poissons Ratio (x) = 0.11826 0.24989
# Poissons Ratio (y) = 0.18688 0.07664
# Poissons Ratio (z) = 0.76196 0.14788
#
# Static dielectric constant tensor:
#      x y z
#    x 1.912620 0.000000 0.002020 
#    y 0.000000 1.804760 0.000000 
#    z 0.002020 0.000000 1.881850 
# 
# From -- ./inp_files/135848.got.cif
#   From: 2010.05.17/outbox.cif.g08.bks.cpg/sg12_68_cif.got.tgz:135848.got - 2010.06.03 13:09:07.
