data_PCOD9184242
_publ_section_title
;
Structure prediction by ZEFSAII (Michael W. Deem and Ramdas Pophale) SiO2 
 PCOD9184242
Probable space group: C 2/M
;
_chemical_formula_sum "Si O2"
_cell_formula_units_Z 56
_cell_length_a 31.207772
_cell_length_b 18.997222
_cell_length_c 8.994032
_cell_angle_alpha 90.000000
_cell_angle_beta 145.811732
_cell_angle_gamma 90.000000
_cell_volume 2996.243826
_symmetry_space_group_name_H-M "C 2/M"
_symmetry_group_IT_number 12
_symmetry_cell_setting 'monoclinic'
loop_
_space_group_symop_operation_xyz
x,y,z
-x,y,-z
-x,-y,-z
x,-y,z
1/2+x,1/2+y,z
1/2-x,1/2+y,-z
1/2-x,1/2-y,-z
1/2+x,1/2-y,z
loop_
_atom_site_type_symbol
_atom_site_label
_atom_site_fract_x
_atom_site_fract_y
_atom_site_fract_z
Si Si1 0.996490 0.583289 0.320038
Si Si2 0.575812 0.296543 0.525053
Si Si3 0.078659 0.323639 0.317911
Si Si4 0.656886 0.853242 0.246118
Si Si5 0.604690 0.711442 0.945483
Si Si6 0.177872 0.917386 0.322906
Si Si7 0.574106 0.582097 0.304978
O O1 0.009353 0.500000 0.356295
O O2 0.055480 0.620461 0.377936
O O3 0.000000 0.609679 0.500000
O O4 0.912775 0.601949 0.020789
O O5 0.605514 0.244900 0.482551
O O6 0.485534 0.279431 0.281720
O O7 0.613493 0.286409 0.793082
O O8 0.583332 0.374264 0.480832
O O9 0.139851 0.347834 0.372901
O O10 0.000000 0.309161 0.000000
O O11 0.735861 0.890529 0.438051
O O12 0.649009 0.775011 0.153473
O O13 0.630395 0.636279 0.083640
O O14 0.144110 0.910619 0.392262
O O15 0.170880 0.000000 0.261386
O O16 0.561520 0.500000 0.300881
O O17 0.500000 0.608328 0.000000
#
# Coordination Sequence:
#
# PCOD9184242 Si02
#       7
#     8   8   8   8   8   8   8
#     4  10  20  35  57  86 117 153 198 241 286 342
#     4  11  20  36  61  90 117 147 192 252 292 342
#     4  10  19  33  58  85 114 151 193 240 281 341
#     4  11  22  38  59  86 119 156 195 239 290 346
#     4  11  22  36  61  88 119 152 191 242 299 349
#     4  11  24  41  59  84 119 157 195 242 294 348
#     4  10  20  37  61  85 113 154 201 244 290 346
#
# _framework density 18.690068
#
# number of rings (size 3 to 8) (size 9 to 14) (size 15 to 20)
#    0.000    1.429    4.286    3.000    0.000    3.714 
#    0.000    5.714    0.000    0.000    0.000    0.000 
#    0.000    0.000    0.000    0.000    0.000    0.000 
#
# Total GULP energy -156389.824306 kJ/mol
# GULP energy per Si atom -5585.350868 kJ/mol
# Density = 1.864753 g / cm^3
# Si number density = 18.690068 Si / 1000 Ang^3
#
#
#
# Elastic Constant Matrix: (Units=GPa)
#
#
# Indices 1 2 3 4 5 6 
#
# 1 111.4452 34.6519 31.0956 0.0000 -16.0845 0.0000
# 2 34.6519 85.7776 14.9633 0.0000 -13.0688 0.0000
# 3 31.0956 14.9633 29.0874 0.0000 -4.8333 0.0000
# 4 0.0000 0.0000 0.0000 14.3461 0.0000 -4.4923
# 5 -16.0845 -13.0688 -4.8333 0.0000 35.2321 0.0000
# 6 0.0000 0.0000 0.0000 -4.4923 0.0000 31.4183
#
#
#
# Elastic Compliance Matrix: (Units=1/GPa)
#
#
# Indices 1 2 3 4 5 6 
#
# 1 0.013964 -0.002855 -0.012869 0.000000 0.003550 0.000000
# 2 -0.002855 0.013948 -0.003561 0.000000 0.003382 0.000000
# 3 -0.012869 -0.003561 0.049911 0.000000 -0.000349 0.000000
# 4 0.000000 0.000000 0.000000 0.072973 0.000000 0.010434
# 5 0.003550 0.003382 -0.000349 0.000000 0.031211 0.000000
# 6 0.000000 0.000000 0.000000 0.010434 0.000000 0.033320
#
#
# Mechanical properties :
#
#
# Convention : Reuss Voigt Hill
#
# Bulk Modulus (GPa) = 25.47654 43.08132 34.27893
# Shear Modulus (GPa) = 18.72789 25.90591 22.31690
#
# Velocity S-wave (km/s) = 3.16891 3.72705 3.45925
# Velocity P-wave (km/s) = 5.20096 6.45148 5.85967
#
# Compressibility (1/GPa) = 0.03925179
#
# Stress axis : x y z
#
# Youngs Moduli (GPa) = 71.61242 71.69548 20.03574
#
# Poissons Ratio (x) = 0.20471 0.25785
# Poissons Ratio (y) = 0.20447 0.07134
# Poissons Ratio (z) = 0.92161 0.25530
#
# Static dielectric constant tensor:
#      x y z
#    x 1.643800 0.000000 -0.001050 
#    y 0.000000 1.664930 0.000000 
#    z -0.001050 0.000000 1.632850 
# 
# From -- ./inp_files/106012.got.cif
#   From: 2010.05.17/outbox.cif.g08.bks.cpg/sg12_54_cif.got.tgz:106012.got - 2010.06.03 13:09:07.
