data_PCOD9184156
_publ_section_title
;
Structure prediction by ZEFSAII (Michael W. Deem and Ramdas Pophale) SiO2 
 PCOD9184156
Probable space group: C 2/M
;
_chemical_formula_sum "Si O2"
_cell_formula_units_Z 64
_cell_length_a 9.050096
_cell_length_b 25.261276
_cell_length_c 16.403877
_cell_angle_alpha 90.000000
_cell_angle_beta 101.097602
_cell_angle_gamma 90.000000
_cell_volume 3680.078578
_symmetry_space_group_name_H-M "C 2/M"
_symmetry_group_IT_number 12
_symmetry_cell_setting 'monoclinic'
loop_
_space_group_symop_operation_xyz
x,y,z
-x,y,-z
-x,-y,-z
x,-y,z
1/2+x,1/2+y,z
1/2-x,1/2+y,-z
1/2-x,1/2-y,-z
1/2+x,1/2-y,z
loop_
_atom_site_type_symbol
_atom_site_label
_atom_site_fract_x
_atom_site_fract_y
_atom_site_fract_z
Si Si1 0.529178 0.332391 0.163876
Si Si2 0.890485 0.564090 0.414693
Si Si3 0.244578 0.692220 0.038532
Si Si4 0.103722 0.712377 0.201582
Si Si5 0.039808 0.060859 0.409420
Si Si6 0.320321 0.629309 0.282650
Si Si7 0.021401 0.437288 0.251851
Si Si8 0.843539 0.362184 0.131081
O O1 0.414654 0.323106 0.077642
O O2 0.577572 0.274803 0.204062
O O3 0.433465 0.364379 0.219297
O O4 0.677258 0.360825 0.149260
O O5 0.898943 0.500000 0.416335
O O6 0.714431 0.576320 0.411813
O O7 0.000000 0.582786 0.500000
O O8 0.950166 0.580977 0.331575
O O9 0.161980 0.698197 0.116419
O O10 0.250000 0.750000 0.000000
O O11 0.168975 0.653296 0.965167
O O12 0.226357 0.685032 0.274361
O O13 0.943350 0.682898 0.187285
O O14 0.000000 0.057392 0.500000
O O15 0.926587 0.104943 0.362835
O O16 0.018145 0.000000 0.373908
O O17 0.185859 0.587518 0.258301
O O18 0.028309 0.500000 0.254304
O O19 0.923202 0.415848 0.166320
#
# Coordination Sequence:
#
# PCOD9184156 Si02
#       8
#     8   8   8   8   8   8   8   8
#     4  11  20  33  51  80 109 140 176 231 284 325
#     4   9  17  31  54  82 109 140 180 224 270 313
#     4  11  19  31  53  79 111 136 171 231 278 324
#     4  10  20  33  51  78 111 142 174 221 284 328
#     4  10  19  33  57  87 116 145 180 227 272 316
#     4  10  21  34  53  79 111 144 186 222 276 333
#     4  10  21  37  53  74 111 152 186 225 272 330
#     4  11  20  30  52  79 108 141 181 222 277 328
#
# _framework density 17.390933
#
# number of rings (size 3 to 8) (size 9 to 14) (size 15 to 20)
#    0.000    1.750    2.500    3.375    0.000    2.000 
#    0.000    0.625    0.000   18.750    0.000    4.375 
#    0.000    0.000    0.000    0.000    0.000    0.000 
#
# Total GULP energy -178325.247365 kJ/mol
# GULP energy per Si atom -5572.663980 kJ/mol
# Density = 1.735135 g / cm^3
# Si number density = 17.390933 Si / 1000 Ang^3
#
#
#
# Elastic Constant Matrix: (Units=GPa)
#
#
# Indices 1 2 3 4 5 6 
#
# 1 134.2910 32.8030 41.2875 0.0000 2.9629 0.0000
# 2 32.8030 55.8174 43.4706 0.0000 0.4222 0.0000
# 3 41.2875 43.4706 81.7516 0.0000 8.5776 0.0000
# 4 0.0000 0.0000 0.0000 20.9576 0.0000 -2.3930
# 5 2.9629 0.4222 8.5776 0.0000 32.5150 0.0000
# 6 0.0000 0.0000 0.0000 -2.3930 0.0000 23.2232
#
#
#
# Elastic Compliance Matrix: (Units=1/GPa)
#
#
# Indices 1 2 3 4 5 6 
#
# 1 0.009104 -0.003020 -0.002992 0.000000 -0.000001 0.000000
# 2 -0.003020 0.032096 -0.015969 0.000000 0.004071 0.000000
# 3 -0.002992 -0.015969 0.022815 0.000000 -0.005539 0.000000
# 4 0.000000 0.000000 0.000000 0.048284 0.000000 0.004975
# 5 -0.000001 0.004071 -0.005539 0.000000 0.032163 0.000000
# 6 0.000000 0.000000 0.000000 0.004975 0.000000 0.043573
#
#
# Mechanical properties :
#
#
# Convention : Reuss Voigt Hill
#
# Bulk Modulus (GPa) = 49.86462 56.33137 53.09799
# Shear Modulus (GPa) = 20.94839 25.62574 23.28707
#
# Velocity S-wave (km/s) = 3.47444 3.84280 3.66325
# Velocity P-wave (km/s) = 6.69557 7.22157 6.96354
#
# Compressibility (1/GPa) = 0.02005430
#
# Stress axis : x y z
#
# Youngs Moduli (GPa) = 109.84031 31.15642 43.83005
#
# Poissons Ratio (x) = 0.09410 0.13113
# Poissons Ratio (y) = 0.33176 0.69990
# Poissons Ratio (z) = 0.32861 0.49752
#
# Static dielectric constant tensor:
#      x y z
#    x 1.627030 0.000000 0.008650 
#    y 0.000000 1.599410 0.000000 
#    z 0.008650 0.000000 1.536980 
# 
# From -- ./inp_files/199867.got.cif
#   From: 2010.05.17/outbox.cif.g08.bks.cpg/sg12_100_cif.got.tgz:199867.got - 2010.06.03 13:09:07.
