data_PCOD9184476
_publ_section_title
;
Structure prediction by ZEFSAII (Michael W. Deem and Ramdas Pophale) SiO2 
 PCOD9184476
Probable space group: C 2/M
;
_chemical_formula_sum "Si O2"
_cell_formula_units_Z 64
_cell_length_a 16.026040
_cell_length_b 21.437698
_cell_length_c 11.716823
_cell_angle_alpha 90.000000
_cell_angle_beta 60.112878
_cell_angle_gamma 90.000000
_cell_volume 3490.098871
_symmetry_space_group_name_H-M "C 2/M"
_symmetry_group_IT_number 12
_symmetry_cell_setting 'monoclinic'
loop_
_space_group_symop_operation_xyz
x,y,z
-x,y,-z
-x,-y,-z
x,-y,z
1/2+x,1/2+y,z
1/2-x,1/2+y,-z
1/2-x,1/2-y,-z
1/2+x,1/2-y,z
loop_
_atom_site_type_symbol
_atom_site_label
_atom_site_fract_x
_atom_site_fract_y
_atom_site_fract_z
Si Si1 0.099332 0.708351 0.003056
Si Si2 0.396164 0.568529 0.869399
Si Si3 0.913232 0.748569 0.723896
Si Si4 0.249348 0.851654 0.440560
Si Si5 0.269227 0.366805 0.802941
Si Si6 0.374882 0.773207 0.505359
Si Si7 0.377570 0.426326 0.300764
Si Si8 0.116844 0.157995 0.919288
O O1 0.176038 0.653801 0.937031
O O2 0.146806 0.770342 0.911765
O O3 0.087576 0.723940 0.145526
O O4 0.000000 0.697445 0.000000
O O5 0.395295 0.500000 0.923780
O O6 0.325401 0.573866 0.811702
O O7 0.507099 0.581022 0.760780
O O8 0.359141 0.618735 0.985306
O O9 0.850670 0.811957 0.759794
O O10 0.875885 0.709382 0.639211
O O11 0.024697 0.753496 0.611640
O O12 0.266344 0.874262 0.301537
O O13 0.340919 0.831489 0.453016
O O14 0.194678 0.785829 0.461045
O O15 0.182658 0.900133 0.552932
O O16 0.360086 0.500000 0.290998
O O17 0.352860 0.380689 0.211735
O O18 0.000000 0.160340 0.000000
#
# Coordination Sequence:
#
# PCOD9184476 Si02
#       8
#     8   8   8   8   8   8   8   8
#     4  11  22  33  55  80 115 143 174 222 281 323
#     4  10  20  35  53  76 110 146 180 225 270 317
#     4  10  19  34  50  78 108 139 176 216 266 326
#     4  10  21  33  52  72 108 142 181 218 270 322
#     4  11  22  34  50  82 108 142 182 225 267 332
#     4   9  20  33  52  75 107 142 176 220 268 316
#     4  10  21  35  54  78 106 146 187 223 267 320
#     4   9  19  32  52  77 108 143 180 223 271 324
#
# _framework density 18.337589999999999
#
# number of rings (size 3 to 8) (size 9 to 14) (size 15 to 20)
#    0.000    2.000    1.250    2.250    8.750    3.500 
#    0.000    1.250    0.000    0.375    0.000    2.625 
#    0.000    0.000    0.000    0.000    0.000    0.000 
#
# Total GULP energy -178309.417465 kJ/mol
# GULP energy per Si atom -5572.169296 kJ/mol
# Density = 1.829585 g / cm^3
# Si number density = 18.337590 Si / 1000 Ang^3
#
#
#
# Elastic Constant Matrix: (Units=GPa)
#
#
# Indices 1 2 3 4 5 6 
#
# 1 73.1647 12.5720 19.2841 0.0000 13.9973 0.0000
# 2 12.5720 32.5453 4.8216 0.0000 -0.7609 0.0000
# 3 19.2841 4.8216 71.9078 0.0000 20.7240 0.0000
# 4 0.0000 0.0000 0.0000 14.6642 0.0000 -5.8844
# 5 13.9973 -0.7609 20.7240 0.0000 25.9485 0.0000
# 6 0.0000 0.0000 0.0000 -5.8844 0.0000 18.7722
#
#
#
# Elastic Compliance Matrix: (Units=1/GPa)
#
#
# Indices 1 2 3 4 5 6 
#
# 1 0.016727 -0.006372 -0.001824 0.000000 -0.007753 0.000000
# 2 -0.006372 0.033687 -0.002371 0.000000 0.006319 0.000000
# 3 -0.001824 -0.002371 0.018564 0.000000 -0.013912 0.000000
# 4 0.000000 0.000000 0.000000 0.078005 0.000000 0.024452
# 5 -0.007753 0.006319 -0.013912 0.000000 0.054016 0.000000
# 6 0.000000 0.000000 0.000000 0.024452 0.000000 0.060935
#
#
# Mechanical properties :
#
#
# Convention : Reuss Voigt Hill
#
# Bulk Modulus (GPa) = 20.90161 27.88591 24.39376
# Shear Modulus (GPa) = 16.72140 21.27297 18.99719
#
# Velocity S-wave (km/s) = 3.02299 3.40968 3.22214
# Velocity P-wave (km/s) = 4.85876 5.54448 5.21291
#
# Compressibility (1/GPa) = 0.04784320
#
# Stress axis : x y z
#
# Youngs Moduli (GPa) = 59.78434 29.68499 53.86667
#
# Poissons Ratio (x) = 0.18917 0.09826
# Poissons Ratio (y) = 0.38097 0.12772
# Poissons Ratio (z) = 0.10905 0.07038
#
# Static dielectric constant tensor:
#      x y z
#    x 1.689650 0.000000 0.039730 
#    y 0.000000 1.627180 0.000000 
#    z 0.039730 0.000000 1.642050 
# 
# From -- ./inp_files/160293.got.cif
#   From: 2010.05.17/outbox.cif.g08.bks.cpg/sg12_81_cif.got.tgz:160293.got - 2010.06.03 13:09:07.
