data_PCOD9184367
_publ_section_title
;
Structure prediction by ZEFSAII (Michael W. Deem and Ramdas Pophale) SiO2 
 PCOD9184367
Probable space group: C 2/M
;
_chemical_formula_sum "Si O2"
_cell_formula_units_Z 56
_cell_length_a 20.522536
_cell_length_b 18.367658
_cell_length_c 7.994618
_cell_angle_alpha 90.000000
_cell_angle_beta 50.375465
_cell_angle_gamma 90.000000
_cell_volume 2321.179457
_symmetry_space_group_name_H-M "C 2/M"
_symmetry_group_IT_number 12
_symmetry_cell_setting 'monoclinic'
loop_
_space_group_symop_operation_xyz
x,y,z
-x,y,-z
-x,-y,-z
x,-y,z
1/2+x,1/2+y,z
1/2-x,1/2+y,-z
1/2-x,1/2-y,-z
1/2+x,1/2-y,z
loop_
_atom_site_type_symbol
_atom_site_label
_atom_site_fract_x
_atom_site_fract_y
_atom_site_fract_z
Si Si1 0.358850 0.771465 0.615610
Si Si2 0.204292 0.856898 0.469222
Si Si3 0.036211 0.086371 0.611167
Si Si4 0.281893 0.079530 0.837184
Si Si5 0.616557 0.414885 0.927979
Si Si6 0.035116 0.302769 0.272183
Si Si7 0.364170 0.081953 0.069830
O O1 0.293099 0.720158 0.629551
O O2 0.324450 0.853099 0.674339
O O3 0.448589 0.761387 0.371814
O O4 0.387628 0.759086 0.764260
O O5 0.160836 0.863749 0.720097
O O6 0.295390 0.893913 0.317841
O O7 0.134204 0.898766 0.473335
O O8 0.000000 0.118504 0.500000
O O9 0.023615 0.000000 0.627419
O O10 0.974822 0.109807 0.861664
O O11 0.181218 0.084136 0.978367
O O12 0.307468 0.000000 0.727471
O O13 0.311941 0.082381 0.979414
O O14 0.612922 0.500000 0.871573
O O15 0.000000 0.344433 0.500000
O O16 0.065800 0.357069 0.080982
O O17 0.395425 0.000000 0.047119
#
# Coordination Sequence:
#
# PCOD9184367 Si02
#       7
#     8   8   8   8   8   8   8
#     4   8  19  35  54  82 114 150 194 233 298 339
#     4  12  22  33  54  85 122 152 182 237 293 355
#     4  10  21  37  58  83 112 152 197 234 273 339
#     4   9  18  36  58  81 109 147 197 240 279 335
#     4  10  21  37  56  81 116 157 188 226 286 343
#     4   7  17  36  53  81 112 148 195 239 290 333
#     4  10  19  33  59  90 113 147 196 245 287 339
#
# _framework density 24.125665999999999
#
# number of rings (size 3 to 8) (size 9 to 14) (size 15 to 20)
#    0.857    1.571    0.000    2.571    2.000    7.143 
#    2.571    0.000    3.143    0.000    0.000    3.000 
#    0.000    0.000    0.000    0.000    0.000    0.143 
#
# Total GULP energy -156195.543878 kJ/mol
# GULP energy per Si atom -5578.412281 kJ/mol
# Density = 2.407075 g / cm^3
# Si number density = 24.125666 Si / 1000 Ang^3
#
#
#
# Elastic Constant Matrix: (Units=GPa)
#
#
# Indices 1 2 3 4 5 6 
#
# 1 37.1154 -8.3136 -7.9040 0.0000 1.3229 0.0000
# 2 -8.3136 85.2083 27.5250 0.0000 3.7928 0.0000
# 3 -7.9040 27.5250 82.0991 0.0000 -0.0433 0.0000
# 4 0.0000 0.0000 0.0000 35.5922 0.0000 -17.3008
# 5 1.3229 3.7928 -0.0433 0.0000 22.2083 0.0000
# 6 0.0000 0.0000 0.0000 -17.3008 0.0000 6.7674
#
#
#
# Elastic Compliance Matrix: (Units=1/GPa)
#
#
# Indices 1 2 3 4 5 6 
#
# 1 0.027921 0.002183 0.001955 0.000000 -0.002032 0.000000
# 2 0.002183 0.013446 -0.004299 0.000000 -0.002435 0.000000
# 3 0.001955 -0.004299 0.013810 0.000000 0.000645 0.000000
# 4 0.000000 0.000000 0.000000 -0.115780 0.000000 -0.295989
# 5 -0.002032 -0.002435 0.000645 0.000000 0.045566 0.000000
# 6 0.000000 0.000000 0.000000 -0.295989 0.000000 -0.608926
#
#
# Mechanical properties :
#
#
# Convention : Reuss Voigt Hill
#
# Bulk Modulus (GPa) = 18.22980 25.22640 21.72810
# Shear Modulus (GPa) = -8.25962 25.78793 8.76416
#
# Velocity S-wave (km/s) = -1.85230 3.27295 1.90803
# Velocity P-wave (km/s) = 1.73145 4.97613 3.72557
#
# Compressibility (1/GPa) = 0.05485523
#
# Stress axis : x y z
#
# Youngs Moduli (GPa) = 35.81559 74.37107 72.40962
#
# Poissons Ratio (x) = -0.16236 -0.14156
# Poissons Ratio (y) = -0.07819 0.31130
# Poissons Ratio (z) = -0.07002 0.31973
#
# Static dielectric constant tensor:
#      x y z
#    x 1.998230 0.000000 0.013280 
#    y 0.000000 1.984460 0.000000 
#    z 0.013280 0.000000 1.928000 
# 
# From -- ./inp_files/105952.got.cif
#   From: 2010.05.17/outbox.cif.g08.bks.cpg/sg12_53_cif.got.tgz:105952.got - 2010.06.03 13:09:07.
