data_PCOD9184660
_publ_section_title
;
Structure prediction by ZEFSAII (Michael W. Deem and Ramdas Pophale) SiO2 
 PCOD9184660
Probable space group: C 2/M
;
_chemical_formula_sum "Si O2"
_cell_formula_units_Z 64
_cell_length_a 15.558106
_cell_length_b 23.107871
_cell_length_c 14.835074
_cell_angle_alpha 90.000000
_cell_angle_beta 40.355191
_cell_angle_gamma 90.000000
_cell_volume 3453.522860
_symmetry_space_group_name_H-M "C 2/M"
_symmetry_group_IT_number 12
_symmetry_cell_setting 'monoclinic'
loop_
_space_group_symop_operation_xyz
x,y,z
-x,y,-z
-x,-y,-z
x,-y,z
1/2+x,1/2+y,z
1/2-x,1/2+y,-z
1/2-x,1/2-y,-z
1/2+x,1/2-y,z
loop_
_atom_site_type_symbol
_atom_site_label
_atom_site_fract_x
_atom_site_fract_y
_atom_site_fract_z
Si Si1 0.483697 0.380181 0.791626
Si Si2 0.068076 0.066420 0.543825
Si Si3 0.081736 0.291978 0.561809
Si Si4 0.355788 0.566953 0.065701
Si Si5 0.762494 0.856527 0.293016
Si Si6 0.262641 0.678843 0.586603
Si Si7 0.151702 0.764858 0.160667
Si Si8 0.853593 0.730641 0.153735
O O1 0.480934 0.417250 0.701909
O O2 0.630323 0.381074 0.720031
O O3 0.447689 0.314389 0.794835
O O4 0.381788 0.402555 0.949124
O O5 0.180714 0.114993 0.457574
O O6 0.000000 0.072277 0.500000
O O7 0.112082 0.000000 0.517539
O O8 0.125999 0.337191 0.449667
O O9 0.184914 0.307058 0.558166
O O10 0.121233 0.227391 0.495452
O O11 0.937771 0.285799 0.722511
O O12 0.319370 0.500000 0.083170
O O13 0.258550 0.600408 0.211518
O O14 0.500000 0.569052 0.000000
O O15 0.825370 0.796563 0.206445
O O16 0.163805 0.690287 0.746871
O O17 0.245777 0.786578 0.165532
O O18 0.250000 0.750000 0.000000
O O19 0.000000 0.727716 0.000000
#
# Coordination Sequence:
#
# PCOD9184660 Si02
#       8
#     8   8   8   8   8   8   8   8
#     4  11  19  36  56  81 120 156 196 248 296 348
#     4  11  22  35  55  86 118 155 204 255 296 338
#     4  10  19  34  53  82 113 157 188 230 304 357
#     4   9  18  31  52  83 118 157 201 244 290 343
#     4  10  19  34  55  81 120 154 189 241 290 362
#     4  10  19  35  55  76 117 152 187 240 285 356
#     4  12  22  33  54  84 117 154 193 240 300 369
#     4  11  22  35  54  83 114 149 188 238 301 361
#
# _framework density 18.531801000000002
#
# number of rings (size 3 to 8) (size 9 to 14) (size 15 to 20)
#    0.000    1.500    2.500    6.000    0.000    2.000 
#    0.000    0.000    0.000    0.375    0.000   17.500 
#    0.000    0.000    0.000    0.000    0.000    0.000 
#
# Total GULP energy -178577.098009 kJ/mol
# GULP energy per Si atom -5580.534313 kJ/mol
# Density = 1.848962 g / cm^3
# Si number density = 18.531801 Si / 1000 Ang^3
#
#
#
# Elastic Constant Matrix: (Units=GPa)
#
#
# Indices 1 2 3 4 5 6 
#
# 1 63.3245 24.3205 28.4455 -0.0020 16.4926 0.0013
# 2 24.3205 95.0071 45.9916 -0.0039 14.3369 0.0028
# 3 28.4455 45.9916 136.6935 -0.0105 26.9888 0.0070
# 4 -0.0020 -0.0039 -0.0105 67.6566 0.0017 -22.6351
# 5 16.4926 14.3369 26.9888 0.0017 33.7953 -0.0008
# 6 0.0013 0.0028 0.0070 -22.6351 -0.0008 38.7555
#
#
#
# Elastic Compliance Matrix: (Units=1/GPa)
#
#
# Indices 1 2 3 4 5 6 
#
# 1 0.019538 -0.003169 -0.001641 0.000000 -0.006880 0.000000
# 2 -0.003169 0.013243 -0.003552 0.000000 -0.001235 0.000000
# 3 -0.001641 -0.003552 0.009969 0.000001 -0.005653 -0.000001
# 4 0.000000 0.000000 0.000001 0.018370 -0.000002 0.010729
# 5 -0.006880 -0.001235 -0.005653 -0.000002 0.037985 0.000001
# 6 0.000000 0.000000 -0.000001 0.010729 0.000001 0.032069
#
#
# Mechanical properties :
#
#
# Convention : Reuss Voigt Hill
#
# Bulk Modulus (GPa) = 38.42599 54.72670 46.57634
# Shear Modulus (GPa) = 31.93402 41.12597 36.52999
#
# Velocity S-wave (km/s) = 4.15565 4.71596 4.44464
# Velocity P-wave (km/s) = 6.61862 7.69734 7.17827
#
# Compressibility (1/GPa) = 0.02602405
#
# Stress axis : x y z
#
# Youngs Moduli (GPa) = 51.18305 75.51354 100.31584
#
# Poissons Ratio (x) = 0.23928 0.16465
# Poissons Ratio (y) = 0.16218 0.35637
# Poissons Ratio (z) = 0.08401 0.26826
#
# Static dielectric constant tensor:
#      x y z
#    x 1.688830 0.000000 0.012540 
#    y 0.000000 1.626290 0.000000 
#    z 0.012540 0.000000 1.678140 
# 
# From -- ./inp_files/218497.got.cif
#   From: 2010.05.17/outbox.cif.g08.bks.cpg/sg12_110_cif.got.tgz:218497.got - 2010.06.03 13:09:07.
