data_PCOD9184697
_publ_section_title
;
Structure prediction by ZEFSAII (Michael W. Deem and Ramdas Pophale) SiO2 
 PCOD9184697
Probable space group: C 2/M
;
_chemical_formula_sum "Si O2"
_cell_formula_units_Z 56
_cell_length_a 19.603618
_cell_length_b 8.807902
_cell_length_c 19.878040
_cell_angle_alpha 90.000000
_cell_angle_beta 113.182234
_cell_angle_gamma 90.000000
_cell_volume 3155.145720
_symmetry_space_group_name_H-M "C 2/M"
_symmetry_group_IT_number 12
_symmetry_cell_setting 'monoclinic'
loop_
_space_group_symop_operation_xyz
x,y,z
-x,y,-z
-x,-y,-z
x,-y,z
1/2+x,1/2+y,z
1/2-x,1/2+y,-z
1/2-x,1/2-y,-z
1/2+x,1/2-y,z
loop_
_atom_site_type_symbol
_atom_site_label
_atom_site_fract_x
_atom_site_fract_y
_atom_site_fract_z
Si Si1 0.003559 0.321836 0.797418
Si Si2 0.923947 0.815663 0.505558
Si Si3 0.692971 0.678171 0.061925
Si Si4 0.892488 0.818468 0.648104
Si Si5 0.739934 0.317374 0.571009
Si Si6 0.952807 0.178935 0.915393
Si Si7 0.846924 0.178661 0.106108
O O1 0.997216 0.500000 0.783449
O O2 0.955054 0.233633 0.723910
O O3 0.973734 0.276246 0.859488
O O4 0.088905 0.269539 0.831906
O O5 0.916171 0.771313 0.581202
O O6 0.844404 0.773740 0.440833
O O7 0.000000 0.760699 0.500000
O O8 0.926821 0.000000 0.505494
O O9 0.714037 0.500000 0.065518
O O10 0.632274 0.695881 0.095861
O O11 0.765612 0.777461 0.100153
O O12 0.656311 0.716386 0.975161
O O13 0.812540 0.746716 0.636145
O O14 0.884682 0.000000 0.644951
O O15 0.743510 0.500000 0.570440
O O16 0.750000 0.250000 0.500000
O O17 0.967826 0.000000 0.906836
O O18 0.000000 0.218449 0.000000
O O19 0.861204 0.000000 0.117841
#
# Coordination Sequence:
#
# PCOD9184697 Si02
#       7
#     8   8   8   8   8   8   8
#     4  12  24  36  53  78 109 143 185 231 275 326
#     4   8  15  30  55  85 109 133 171 216 259 308
#     4   9  18  33  54  78 103 132 172 223 274 326
#     4  10  20  35  55  77 106 144 179 217 273 329
#     4   9  16  29  52  79 108 140 174 214 256 311
#     4  10  19  36  57  78 105 137 176 225 279 329
#     4  10  19  34  54  76 104 139 177 218 273 330
#
# _framework density 17.748783
#
# number of rings (size 3 to 8) (size 9 to 14) (size 15 to 20)
#    0.000    2.286    1.429    3.429    0.000    1.429 
#    0.000    1.429    0.000   20.571    0.000    0.000 
#    0.000    0.000    0.000    0.000    0.000    0.000 
#
# Total GULP energy -156111.400515 kJ/mol
# GULP energy per Si atom -5575.407161 kJ/mol
# Density = 1.770839 g / cm^3
# Si number density = 17.748783 Si / 1000 Ang^3
#
#
#
# Elastic Constant Matrix: (Units=GPa)
#
#
# Indices 1 2 3 4 5 6 
#
# 1 108.4912 30.2173 35.8425 0.0000 18.8525 0.0000
# 2 30.2173 47.8156 22.1611 0.0000 7.6958 0.0000
# 3 35.8425 22.1611 66.9813 0.0000 21.8781 0.0000
# 4 0.0000 0.0000 0.0000 21.9340 0.0000 4.1622
# 5 18.8525 7.6958 21.8781 0.0000 21.6882 0.0000
# 6 0.0000 0.0000 0.0000 4.1622 0.0000 26.8475
#
#
#
# Elastic Compliance Matrix: (Units=1/GPa)
#
#
# Indices 1 2 3 4 5 6 
#
# 1 0.012874 -0.005769 -0.002974 0.000000 -0.006144 0.000000
# 2 -0.005769 0.027295 -0.006589 0.000000 0.001976 0.000000
# 3 -0.002974 -0.006589 0.025492 0.000000 -0.020793 0.000000
# 4 0.000000 0.000000 0.000000 0.046973 0.000000 -0.007282
# 5 -0.006144 0.001976 -0.020793 0.000000 0.071722 0.000000
# 6 0.000000 0.000000 0.000000 -0.007282 0.000000 0.038376
#
#
# Mechanical properties :
#
#
# Convention : Reuss Voigt Hill
#
# Bulk Modulus (GPa) = 28.57274 44.41442 36.49358
# Shear Modulus (GPa) = 18.86344 23.09841 20.98093
#
# Velocity S-wave (km/s) = 3.26360 3.61142 3.44191
# Velocity P-wave (km/s) = 5.50771 6.51675 6.03336
#
# Compressibility (1/GPa) = 0.03499840
#
# Stress axis : x y z
#
# Youngs Moduli (GPa) = 77.67503 36.63654 39.22763
#
# Poissons Ratio (x) = 0.21135 0.11665
# Poissons Ratio (y) = 0.44809 0.25848
# Poissons Ratio (z) = 0.23097 0.24141
#
# Static dielectric constant tensor:
#      x y z
#    x 1.628970 0.000000 0.018510 
#    y 0.000000 1.599900 0.000000 
#    z 0.018510 0.000000 1.607670 
# 
# From -- ./inp_files/319318.got.cif
#   From: 2010.05.17/outbox.cif.g08.bks.cpg/sg12_160_cif.got.tgz:319318.got - 2010.06.03 13:09:07.
