data_PCOD9184225
_publ_section_title
;
Structure prediction by ZEFSAII (Michael W. Deem and Ramdas Pophale) SiO2 
 PCOD9184225
Probable space group: C 2/M
;
_chemical_formula_sum "Si O2"
_cell_formula_units_Z 56
_cell_length_a 8.269154
_cell_length_b 34.217043
_cell_length_c 18.256770
_cell_angle_alpha 90.000000
_cell_angle_beta 32.669353
_cell_angle_gamma 90.000000
_cell_volume 2788.383065
_symmetry_space_group_name_H-M "C 2/M"
_symmetry_group_IT_number 12
_symmetry_cell_setting 'monoclinic'
loop_
_space_group_symop_operation_xyz
x,y,z
-x,y,-z
-x,-y,-z
x,-y,z
1/2+x,1/2+y,z
1/2-x,1/2+y,-z
1/2-x,1/2-y,-z
1/2+x,1/2-y,z
loop_
_atom_site_type_symbol
_atom_site_label
_atom_site_fract_x
_atom_site_fract_y
_atom_site_fract_z
Si Si1 0.313696 0.500000 0.423322
Si Si2 0.289540 0.799570 0.732769
Si Si3 0.549878 0.000000 0.893755
Si Si4 0.278034 0.837082 0.015989
Si Si5 0.040073 0.415926 0.897041
Si Si6 0.816892 0.085732 0.421602
Si Si7 0.110626 0.169620 0.541069
Si Si8 0.453226 0.214956 0.203864
O O1 0.595824 0.500000 0.260093
O O2 0.329279 0.542694 0.455033
O O3 0.000000 0.500000 0.500000
O O4 0.571198 0.808998 0.574305
O O5 0.409597 0.793371 0.769175
O O6 0.122697 0.760365 0.772473
O O7 0.055620 0.835033 0.825612
O O8 0.432383 0.041670 0.909512
O O9 0.500000 0.000000 0.000000
O O10 0.361101 0.877191 0.942604
O O11 0.328756 0.801157 0.941717
O O12 0.500000 0.832840 0.000000
O O13 0.389588 0.412234 0.742646
O O14 0.000000 0.416917 0.000000
O O15 0.500000 0.087866 0.500000
O O16 0.847203 0.124006 0.459240
O O17 0.000000 0.174318 0.500000
O O18 0.855574 0.190248 0.686560
#
# Coordination Sequence:
#
# PCOD9184225 Si02
#       8
#     4   8   4   8   8   8   8   8
#     4   8  16  30  49  83 111 140 178 226 272 314
#     4  11  24  38  60  79 108 144 181 228 276 324
#     4   8  14  28  48  75 110 145 171 217 270 315
#     4  11  22  36  56  84 114 141 183 223 269 328
#     4   9  18  31  52  82 113 141 180 222 270 320
#     4  10  19  33  58  82 113 145 184 228 272 320
#     4  10  23  39  56  80 112 144 182 224 276 328
#     4  11  22  42  58  81 107 142 183 227 277 325
#
# _framework density 20.083323
#
# number of rings (size 3 to 8) (size 9 to 14) (size 15 to 20)
#    0.000    2.000    1.429    2.143    4.000    1.143 
#    0.000    0.357    0.000    0.000    0.000    3.000 
#    0.000    0.000    0.000    0.000    0.000    0.000 
#
# Total GULP energy -156124.280147 kJ/mol
# GULP energy per Si atom -5575.867148 kJ/mol
# Density = 2.003761 g / cm^3
# Si number density = 20.083323 Si / 1000 Ang^3
#
#
#
# Elastic Constant Matrix: (Units=GPa)
#
#
# Indices 1 2 3 4 5 6 
#
# 1 22.4624 -4.1919 2.9625 0.0000 -7.6276 0.0000
# 2 -4.1919 112.7949 13.6659 0.0000 -15.0894 0.0000
# 3 2.9625 13.6659 61.7455 0.0000 -18.8502 0.0000
# 4 0.0000 0.0000 0.0000 23.5528 0.0000 -5.5417
# 5 -7.6276 -15.0894 -18.8502 0.0000 21.5544 0.0000
# 6 0.0000 0.0000 0.0000 -5.5417 0.0000 19.8636
#
#
#
# Elastic Compliance Matrix: (Units=1/GPa)
#
#
# Indices 1 2 3 4 5 6 
#
# 1 0.053828 0.004999 0.004358 0.000000 0.026359 0.000000
# 2 0.004999 0.010246 0.000303 0.000000 0.009207 0.000000
# 3 0.004358 0.000303 0.022448 0.000000 0.021387 0.000000
# 4 0.000000 0.000000 0.000000 0.045441 0.000000 0.012677
# 5 0.026359 0.009207 0.021387 0.000000 0.080871 0.000000
# 6 0.000000 0.000000 0.000000 0.012677 0.000000 0.053880
#
#
# Mechanical properties :
#
#
# Convention : Reuss Voigt Hill
#
# Bulk Modulus (GPa) = 9.44800 24.65287 17.05043
# Shear Modulus (GPa) = 17.68817 25.29860 21.49339
#
# Velocity S-wave (km/s) = 2.97095 3.55305 3.27496
# Velocity P-wave (km/s) = 4.05996 5.39761 4.77585
#
# Compressibility (1/GPa) = 0.10584252
#
# Stress axis : x y z
#
# Youngs Moduli (GPa) = 18.57783 97.59539 44.54667
#
# Poissons Ratio (x) = -0.48784 -0.19414
# Poissons Ratio (y) = -0.09286 -0.01351
# Poissons Ratio (z) = -0.08097 -0.02959
#
# Static dielectric constant tensor:
#      x y z
#    x 1.678140 0.000000 -0.013560 
#    y 0.000000 1.778400 0.000000 
#    z -0.013560 0.000000 1.708180 
# 
# From -- ./inp_files/303015.got.cif
#   From: 2010.05.17/outbox.cif.g08.bks.cpg/sg12_152_cif.got.tgz:303015.got - 2010.06.03 13:09:07.
