data_PCOD9184742
_publ_section_title
;
Structure prediction by ZEFSAII (Michael W. Deem and Ramdas Pophale) SiO2 
 PCOD9184742
Probable space group: C 2/M
;
_chemical_formula_sum "Si O2"
_cell_formula_units_Z 56
_cell_length_a 34.693160
_cell_length_b 8.577038
_cell_length_c 12.923642
_cell_angle_alpha 90.000000
_cell_angle_beta 120.727067
_cell_angle_gamma 90.000000
_cell_volume 3305.735274
_symmetry_space_group_name_H-M "C 2/M"
_symmetry_group_IT_number 12
_symmetry_cell_setting 'monoclinic'
loop_
_space_group_symop_operation_xyz
x,y,z
-x,y,-z
-x,-y,-z
x,-y,z
1/2+x,1/2+y,z
1/2-x,1/2+y,-z
1/2-x,1/2-y,-z
1/2+x,1/2-y,z
loop_
_atom_site_type_symbol
_atom_site_label
_atom_site_fract_x
_atom_site_fract_y
_atom_site_fract_z
Si Si1 0.946695 0.311617 0.811416
Si Si2 0.804836 0.810246 0.742719
Si Si3 0.952032 0.312416 0.059219
Si Si4 0.704287 0.186981 0.659927
Si Si5 0.637202 0.687831 0.978837
Si Si6 0.644595 0.686706 0.396131
Si Si7 0.203433 0.187357 0.889511
O O1 0.944039 0.500000 0.803529
O O2 0.942343 0.265205 0.926585
O O3 0.906318 0.239571 0.691956
O O4 0.996889 0.264892 0.846230
O O5 0.753487 0.760419 0.687141
O O6 0.834336 0.758809 0.881553
O O7 0.827049 0.758656 0.665823
O O8 0.805256 0.000000 0.743420
O O9 0.950816 0.500000 0.059926
O O10 0.913202 0.247022 0.077945
O O11 0.667047 0.244528 0.529015
O O12 0.697486 0.251198 0.765666
O O13 0.704533 0.000000 0.664122
O O14 0.636792 0.500000 0.980230
O O15 0.663565 0.737221 0.912181
O O16 0.646720 0.500000 0.402874
O O17 0.205086 0.000000 0.891266
O O18 0.250000 0.250000 0.000000
#
# Coordination Sequence:
#
# PCOD9184742 Si02
#       7
#     8   8   8   8   8   8   8
#     4   9  18  33  51  76 110 142 172 214 264 314
#     4   9  18  33  51  76 109 142 174 213 260 314
#     4   9  18  32  52  79 108 138 176 216 261 317
#     4  11  22  38  55  74 107 146 183 221 265 311
#     4  10  19  34  54  78 109 139 173 219 266 310
#     4  11  21  34  53  79 109 142 181 217 259 319
#     4  11  22  37  56  78 106 141 181 224 264 308
#
# _framework density 16.940256000000002
#
# number of rings (size 3 to 8) (size 9 to 14) (size 15 to 20)
#    0.000    2.000    2.857    2.571    0.000    1.714 
#    0.000    3.571    0.000    0.857    0.000    6.000 
#    0.000    0.000    0.000    0.000    0.000    0.000 
#
# Total GULP energy -156288.088814 kJ/mol
# GULP energy per Si atom -5581.717458 kJ/mol
# Density = 1.690170 g / cm^3
# Si number density = 16.940256 Si / 1000 Ang^3
#
#
#
# Elastic Constant Matrix: (Units=GPa)
#
#
# Indices 1 2 3 4 5 6 
#
# 1 162.1112 35.2777 90.4063 0.0000 11.5946 0.0000
# 2 35.2777 31.6356 32.6093 0.0000 0.3345 0.0000
# 3 90.4063 32.6093 142.3394 0.0000 0.2673 0.0000
# 4 0.0000 0.0000 0.0000 24.9865 0.0000 1.6201
# 5 11.5946 0.3345 0.2673 0.0000 22.1557 0.0000
# 6 0.0000 0.0000 0.0000 1.6201 0.0000 26.2710
#
#
#
# Elastic Compliance Matrix: (Units=1/GPa)
#
#
# Indices 1 2 3 4 5 6 
#
# 1 0.011088 -0.006620 -0.005515 0.000000 -0.005636 0.000000
# 2 -0.006620 0.045340 -0.006188 0.000000 0.002854 0.000000
# 3 -0.005515 -0.006188 0.011941 0.000000 0.002836 0.000000
# 4 0.000000 0.000000 0.000000 0.040182 0.000000 -0.002478
# 5 -0.005636 0.002854 0.002836 0.000000 0.048007 0.000000
# 6 0.000000 0.000000 0.000000 -0.002478 0.000000 0.038218
#
#
# Mechanical properties :
#
#
# Convention : Reuss Voigt Hill
#
# Bulk Modulus (GPa) = 31.52324 72.51921 52.02123
# Shear Modulus (GPa) = 20.66138 26.53550 23.59844
#
# Velocity S-wave (km/s) = 3.49615 3.96209 3.73639
# Velocity P-wave (km/s) = 5.91154 7.98953 7.02777
#
# Compressibility (1/GPa) = 0.03172263
#
# Stress axis : x y z
#
# Youngs Moduli (GPa) = 90.18637 22.05546 83.74588
#
# Poissons Ratio (x) = 0.14600 0.46189
# Poissons Ratio (y) = 0.59702 0.51822
# Poissons Ratio (z) = 0.49742 0.13648
#
# Static dielectric constant tensor:
#      x y z
#    x 1.573530 0.000000 0.002960 
#    y 0.000000 1.578090 0.000000 
#    z 0.002960 0.000000 1.542500 
# 
# From -- ./inp_files/186862.got.cif
#   From: 2010.05.17/outbox.cif.g08.bks.cpg/sg12_94_cif.got.tgz:186862.got - 2010.06.03 13:09:07.
