data_PCOD9184176
_publ_section_title
;
Structure prediction by ZEFSAII (Michael W. Deem and Ramdas Pophale) SiO2 
 PCOD9184176
Probable space group: C 2/M
;
_chemical_formula_sum "Si O2"
_cell_formula_units_Z 64
_cell_length_a 17.895396
_cell_length_b 14.486698
_cell_length_c 11.881622
_cell_angle_alpha 90.000000
_cell_angle_beta 86.456016
_cell_angle_gamma 90.000000
_cell_volume 3074.362886
_symmetry_space_group_name_H-M "C 2/M"
_symmetry_group_IT_number 12
_symmetry_cell_setting 'monoclinic'
loop_
_space_group_symop_operation_xyz
x,y,z
-x,y,-z
-x,-y,-z
x,-y,z
1/2+x,1/2+y,z
1/2-x,1/2+y,-z
1/2-x,1/2-y,-z
1/2+x,1/2-y,z
loop_
_atom_site_type_symbol
_atom_site_label
_atom_site_fract_x
_atom_site_fract_y
_atom_site_fract_z
Si Si1 0.129765 0.609247 0.745100
Si Si2 0.560677 0.387671 0.650420
Si Si3 0.903484 0.110548 0.613101
Si Si4 0.220613 0.103538 0.693159
Si Si5 0.247501 0.651754 0.555388
Si Si6 0.243984 0.890508 0.076684
Si Si7 0.320703 0.797534 0.855024
Si Si8 0.979251 0.388901 0.870373
O O1 0.120188 0.500000 0.733395
O O2 0.170497 0.640799 0.628444
O O3 0.187633 0.621849 0.842149
O O4 0.048841 0.645155 0.788419
O O5 0.561134 0.500000 0.656983
O O6 0.578372 0.364155 0.518503
O O7 0.475069 0.356092 0.678868
O O8 0.634802 0.359853 0.711885
O O9 0.817014 0.136848 0.633842
O O10 0.904727 0.000000 0.621068
O O11 0.239092 0.093246 0.558851
O O12 0.277448 0.173327 0.745990
O O13 0.225885 0.000000 0.742198
O O14 0.250000 0.750000 0.500000
O O15 0.184373 0.811258 0.115673
O O16 0.222539 0.000000 0.079202
O O17 0.276176 0.856229 0.954449
O O18 0.404382 0.835261 0.847156
O O19 0.968191 0.500000 0.856159
O O20 0.000000 0.376048 0.000000
#
# Coordination Sequence:
#
# PCOD9184176 Si02
#       8
#     8   8   8   8   8   8   8   8
#     4  10  20  37  63  90 120 161 216 271 314 362
#     4   7  12  24  47  78 104 138 189 244 290 344
#     4   8  13  26  49  74 103 146 205 247 282 345
#     4  10  19  33  57  87 124 159 200 256 323 384
#     4  11  21  33  53  81 125 168 211 252 312 379
#     4  10  21  38  63  94 126 162 210 265 318 376
#     4  11  21  36  65  99 125 162 208 262 325 389
#     4  10  19  36  65  98 123 155 216 280 322 368
#
# _framework density 20.817319999999999
#
# number of rings (size 3 to 8) (size 9 to 14) (size 15 to 20)
#    0.000    2.375    1.250    4.500    0.000    0.000 
#    0.000    0.625   27.500    2.625    0.000    0.875 
#    0.000    0.125    0.000    0.125    0.000    0.250 
#
# Total GULP energy -178421.414743 kJ/mol
# GULP energy per Si atom -5575.669211 kJ/mol
# Density = 2.076994 g / cm^3
# Si number density = 20.817320 Si / 1000 Ang^3
#
#
#
# Elastic Constant Matrix: (Units=GPa)
#
#
# Indices 1 2 3 4 5 6 
#
# 1 184.0215 56.8587 49.9619 0.0000 -5.3082 0.0000
# 2 56.8587 98.4902 17.1290 0.0000 6.3792 0.0000
# 3 49.9619 17.1290 73.7789 0.0000 -5.7393 0.0000
# 4 0.0000 0.0000 0.0000 14.1789 0.0000 -39.6211
# 5 -5.3082 6.3792 -5.7393 0.0000 27.5861 0.0000
# 6 0.0000 0.0000 0.0000 -39.6211 0.0000 -115.3212
#
#
#
# Elastic Compliance Matrix: (Units=1/GPa)
#
#
# Indices 1 2 3 4 5 6 
#
# 1 0.007841 -0.003878 -0.004292 0.000000 0.001513 0.000000
# 2 -0.003878 0.012750 -0.000631 0.000000 -0.003826 0.000000
# 3 -0.004292 -0.000631 0.016826 0.000000 0.002821 0.000000
# 4 0.000000 0.000000 0.000000 0.035982 0.000000 -0.012362
# 5 0.001513 -0.003826 0.002821 0.000000 0.038013 0.000000
# 6 0.000000 0.000000 0.000000 -0.012362 0.000000 -0.004424
#
#
# Mechanical properties :
#
#
# Convention : Reuss Voigt Hill
#
# Bulk Modulus (GPa) = 50.46837 67.13220 58.80029
# Shear Modulus (GPa) = 38.11062 0.77815 19.44438
#
# Velocity S-wave (km/s) = 4.28333 0.61205 3.05954
# Velocity P-wave (km/s) = 6.98274 5.72868 6.38656
#
# Compressibility (1/GPa) = 0.01981439
#
# Stress axis : x y z
#
# Youngs Moduli (GPa) = 127.52822 78.43179 59.43017
#
# Poissons Ratio (x) = 0.30419 0.25507
# Poissons Ratio (y) = 0.49461 0.03752
# Poissons Ratio (z) = 0.54735 0.04952
#
# Static dielectric constant tensor:
#      x y z
#    x 1.792800 0.000000 -0.087110 
#    y 0.000000 1.797760 0.000000 
#    z -0.087110 0.000000 1.900710 
# 
# From -- ./inp_files/156641.got.cif
#   From: 2010.05.17/outbox.cif.g08.bks.cpg/sg12_79_cif.got.tgz:156641.got - 2010.06.03 13:09:07.
