data_PCOD9184907
_publ_section_title
;
Structure prediction by ZEFSAII (Michael W. Deem and Ramdas Pophale) SiO2 
 PCOD9184907
Probable space group: C 2/M
;
_chemical_formula_sum "Si O2"
_cell_formula_units_Z 44
_cell_length_a 16.895447
_cell_length_b 12.821662
_cell_length_c 30.570084
_cell_angle_alpha 90.000000
_cell_angle_beta 163.472049
_cell_angle_gamma 90.000000
_cell_volume 1883.939930
_symmetry_space_group_name_H-M "C 2/M"
_symmetry_group_IT_number 12
_symmetry_cell_setting 'monoclinic'
loop_
_space_group_symop_operation_xyz
x,y,z
-x,y,-z
-x,-y,-z
x,-y,z
1/2+x,1/2+y,z
1/2-x,1/2+y,-z
1/2-x,1/2-y,-z
1/2+x,1/2-y,z
loop_
_atom_site_type_symbol
_atom_site_label
_atom_site_fract_x
_atom_site_fract_y
_atom_site_fract_z
Si Si1 0.410368 0.612502 0.388318
Si Si2 0.261881 0.884767 0.240379
Si Si3 0.500000 0.788295 0.000000
Si Si4 0.096542 0.837011 0.716261
Si Si5 0.306659 0.115932 0.111859
Si Si6 0.947078 0.339435 0.520697
O O1 0.528576 0.500000 0.463897
O O2 0.388436 0.616913 0.324132
O O3 0.572126 0.713628 0.490025
O O4 0.101605 0.623092 0.244726
O O5 0.420142 0.788180 0.302130
O O6 0.304510 0.869091 0.314660
O O7 0.943718 0.877706 0.056207
O O8 0.366370 0.000000 0.283635
O O9 0.367725 0.851386 0.890040
O O10 0.739079 0.710051 0.108737
O O11 0.831951 0.875563 0.603045
O O12 0.286091 0.000000 0.121663
O O13 0.000000 0.376823 0.500000
#
# Coordination Sequence:
#
# PCOD9184907 Si02
#       6
#     8   8   4   8   8   8
#     4  10  21  38  57  77 107 143 178 219 263 311
#     4   9  19  36  57  79 107 142 176 214 259 313
#     4  10  19  34  55  78 112 140 168 224 268 300
#     4  10  22  36  55  81 105 140 182 215 263 321
#     4   9  18  33  56  83 106 138 180 215 260 315
#     4  11  23  36  53  81 109 137 179 221 265 320
#
# _framework density 23.355308999999998
#
# number of rings (size 3 to 8) (size 9 to 14) (size 15 to 20)
#    0.000    2.182    0.000    3.545    0.000   12.364 
#    0.000    0.455    0.000    0.000    0.000    0.000 
#    0.000    0.000    0.000    0.000    0.000    0.000 
#
# Total GULP energy -123048.310567 kJ/mol
# GULP energy per Si atom -5593.105026 kJ/mol
# Density = 2.330215 g / cm^3
# Si number density = 23.355309 Si / 1000 Ang^3
#
#
#
# Elastic Constant Matrix: (Units=GPa)
#
#
# Indices 1 2 3 4 5 6 
#
# 1 151.6766 -2.0566 31.0516 0.0003 -5.9250 -0.0060
# 2 -2.0566 100.3700 6.8964 0.0094 3.6780 -0.0638
# 3 31.0516 6.8964 47.6544 0.0193 5.8050 -0.0121
# 4 0.0003 0.0094 0.0193 12.8876 -0.0009 3.4955
# 5 -5.9250 3.6780 5.8050 -0.0009 51.0031 -0.1204
# 6 -0.0060 -0.0638 -0.0121 3.4955 -0.1204 -62.7883
#
#
#
# Elastic Compliance Matrix: (Units=1/GPa)
#
#
# Indices 1 2 3 4 5 6 
#
# 1 0.007740 0.000468 -0.005290 0.000008 0.001467 -0.000003
# 2 0.000468 0.010108 -0.001709 -0.000002 -0.000480 -0.000009
# 3 -0.005290 -0.001709 0.025086 -0.000037 -0.003346 0.000002
# 4 0.000008 -0.000002 -0.000037 0.076440 0.000017 0.004255
# 5 0.001467 -0.000480 -0.003346 0.000017 0.020193 -0.000037
# 6 -0.000003 -0.000009 0.000002 0.004255 -0.000037 -0.015690
#
#
# Mechanical properties :
#
#
# Convention : Reuss Voigt Hill
#
# Bulk Modulus (GPa) = 33.47622 41.27600 37.37611
# Shear Modulus (GPa) = 34.03793 17.80780 25.92286
#
# Velocity S-wave (km/s) = 3.82173 2.76429 3.33518
# Velocity P-wave (km/s) = 5.81710 5.28203 5.55601
#
# Compressibility (1/GPa) = 0.02987195
#
# Stress axis : x y z
#
# Youngs Moduli (GPa) = 129.20652 98.93385 39.86262
#
# Poissons Ratio (x) = -0.04633 0.21086
# Poissons Ratio (y) = -0.06050 0.06814
# Poissons Ratio (z) = 0.68345 0.16912
#
# Static dielectric constant tensor:
#      x y z
#    x 1.853150 0.000000 -0.021540 
#    y 0.000000 1.929120 0.000000 
#    z -0.021540 0.000000 1.853440 
# 
# From -- ./inp_files/376527.got.cif
#   From: 2010.05.17/outbox.cif.g08.bks.cpg/sg12_189_cif.got.tgz:376527.got - 2010.06.03 13:09:07.
