data_PCOD9184589
_publ_section_title
;
Structure prediction by ZEFSAII (Michael W. Deem and Ramdas Pophale) SiO2 
 PCOD9184589
Probable space group: C 2/M
;
_chemical_formula_sum "Si O2"
_cell_formula_units_Z 56
_cell_length_a 20.494626
_cell_length_b 7.481123
_cell_length_c 14.365480
_cell_angle_alpha 90.000000
_cell_angle_beta 77.766535
_cell_angle_gamma 90.000000
_cell_volume 2152.540893
_symmetry_space_group_name_H-M "C 2/M"
_symmetry_group_IT_number 12
_symmetry_cell_setting 'monoclinic'
loop_
_space_group_symop_operation_xyz
x,y,z
-x,y,-z
-x,-y,-z
x,-y,z
1/2+x,1/2+y,z
1/2-x,1/2+y,-z
1/2-x,1/2-y,-z
1/2+x,1/2-y,z
loop_
_atom_site_type_symbol
_atom_site_label
_atom_site_fract_x
_atom_site_fract_y
_atom_site_fract_z
Si Si1 0.040504 0.205870 0.609180
Si Si2 0.748244 0.785639 0.272074
Si Si3 0.181400 0.785407 0.572672
Si Si4 0.398671 0.286062 0.678619
Si Si5 0.447089 0.210696 0.176650
Si Si6 0.096023 0.215906 0.111170
Si Si7 0.823892 0.794730 0.082788
O O1 0.111114 0.286563 0.556367
O O2 0.046534 0.209136 0.720897
O O3 0.967018 0.283618 0.612028
O O4 0.040059 0.000000 0.577277
O O5 0.803416 0.718599 0.327753
O O6 0.675450 0.746076 0.334705
O O7 0.764995 0.714266 0.164084
O O8 0.754063 0.000000 0.265945
O O9 0.250000 0.750000 0.500000
O O10 0.173937 0.000000 0.578282
O O11 0.407217 0.500000 0.678835
O O12 0.394998 0.217988 0.786197
O O13 0.519824 0.238698 0.108552
O O14 0.388641 0.292021 0.131464
O O15 0.435354 0.000000 0.189027
O O16 0.100637 0.000000 0.110657
O O17 0.149840 0.286434 0.021174
O O18 0.805661 0.000000 0.068254
#
# Coordination Sequence:
#
# PCOD9184589 Si02
#       7
#     8   8   8   8   8   8   8
#     4   9  18  38  61  79 108 151 188 218 263 334
#     4  10  21  37  57  81 111 147 182 224 280 331
#     4  10  21  39  63  88 111 138 178 225 274 331
#     4   9  19  35  56  81 110 146 189 228 265 316
#     4  11  20  29  48  80 113 141 181 238 284 314
#     4   9  19  34  52  73 104 152 197 226 263 324
#     4  10  19  34  53  72 104 152 195 225 268 330
#
# _framework density 26.015764999999998
#
# number of rings (size 3 to 8) (size 9 to 14) (size 15 to 20)
#    0.000    2.286    1.429    2.571    0.000    6.857 
#    0.000    0.714    0.000    4.286    0.000    0.000 
#    0.000    0.000    0.000    0.000    0.000    0.000 
#
# Total GULP energy -156532.533066 kJ/mol
# GULP energy per Si atom -5590.447609 kJ/mol
# Density = 2.595655 g / cm^3
# Si number density = 26.015765 Si / 1000 Ang^3
#
#
#
# Elastic Constant Matrix: (Units=GPa)
#
#
# Indices 1 2 3 4 5 6 
#
# 1 169.1795 -1.1435 52.9872 0.0000 -37.0747 0.0000
# 2 -1.1435 97.8095 4.1174 0.0000 -2.8437 0.0000
# 3 52.9872 4.1174 137.8269 0.0000 -40.2973 0.0000
# 4 0.0000 0.0000 0.0000 8.4001 0.0000 -9.1541
# 5 -37.0747 -2.8437 -40.2973 0.0000 52.9931 0.0000
# 6 0.0000 0.0000 0.0000 -9.1541 0.0000 10.6926
#
#
#
# Elastic Compliance Matrix: (Units=1/GPa)
#
#
# Indices 1 2 3 4 5 6 
#
# 1 0.007279 0.000267 -0.001689 0.000000 0.003823 0.000000
# 2 0.000267 0.010253 -0.000249 0.000000 0.000548 0.000000
# 3 -0.001689 -0.000249 0.009725 0.000000 0.006200 0.000000
# 4 0.000000 0.000000 0.000000 1.775752 0.000000 1.520247
# 5 0.003823 0.000548 0.006200 0.000000 0.026289 0.000000
# 6 0.000000 0.000000 0.000000 1.520247 0.000000 1.395028
#
#
# Mechanical properties :
#
#
# Convention : Reuss Voigt Hill
#
# Bulk Modulus (GPa) = 41.81087 57.41534 49.61310
# Shear Modulus (GPa) = 1.54529 37.67415 19.60972
#
# Velocity S-wave (km/s) = 0.77154 3.80956 2.74845
# Velocity P-wave (km/s) = 4.11095 6.43954 5.40220
#
# Compressibility (1/GPa) = 0.02391723
#
# Stress axis : x y z
#
# Youngs Moduli (GPa) = 137.37417 97.52778 102.82795
#
# Poissons Ratio (x) = -0.02607 0.17366
# Poissons Ratio (y) = -0.03673 0.02559
# Poissons Ratio (z) = 0.23200 0.02427
#
# Static dielectric constant tensor:
#      x y z
#    x 2.054900 0.000000 -0.004140 
#    y 0.000000 2.045940 0.000000 
#    z -0.004140 0.000000 2.104390 
# 
# From -- ./inp_files/280885.got.cif
#   From: 2010.05.17/outbox.cif.g08.bks.cpg/sg12_141_cif.got.tgz:280885.got - 2010.06.03 13:09:07.
