data_PCOD9184218
_publ_section_title
;
Structure prediction by ZEFSAII (Michael W. Deem and Ramdas Pophale) SiO2 
 PCOD9184218
Probable space group: C 2/M
;
_chemical_formula_sum "Si O2"
_cell_formula_units_Z 56
_cell_length_a 21.259350
_cell_length_b 23.055596
_cell_length_c 9.304705
_cell_angle_alpha 90.000000
_cell_angle_beta 34.636458
_cell_angle_gamma 90.000000
_cell_volume 2592.137920
_symmetry_space_group_name_H-M "C 2/M"
_symmetry_group_IT_number 12
_symmetry_cell_setting 'monoclinic'
loop_
_space_group_symop_operation_xyz
x,y,z
-x,y,-z
-x,-y,-z
x,-y,z
1/2+x,1/2+y,z
1/2-x,1/2+y,-z
1/2-x,1/2-y,-z
1/2+x,1/2-y,z
loop_
_atom_site_type_symbol
_atom_site_label
_atom_site_fract_x
_atom_site_fract_y
_atom_site_fract_z
Si Si1 0.562101 0.067310 0.032192
Si Si2 0.296413 0.743655 0.142355
Si Si3 0.507872 0.341496 0.152087
Si Si4 0.761681 0.147706 0.611970
Si Si5 0.127098 0.686455 0.271974
Si Si6 0.630047 0.063124 0.370699
Si Si7 0.328903 0.565983 0.220848
O O1 0.667667 0.107544 0.857951
O O2 0.595968 0.000000 0.950245
O O3 0.500000 0.084535 0.000000
O O4 0.472008 0.070277 0.327426
O O5 0.285239 0.786726 0.298647
O O6 0.186959 0.707657 0.305806
O O7 0.400888 0.700680 0.951351
O O8 0.312303 0.786987 0.978549
O O9 0.384731 0.344259 0.447590
O O10 0.500000 0.321875 0.000000
O O11 0.558376 0.406271 0.050581
O O12 0.786642 0.112755 0.417547
O O13 0.132636 0.617324 0.262588
O O14 0.000000 0.704742 0.500000
O O15 0.738954 0.064156 0.264394
O O16 0.623102 0.000000 0.312492
O O17 0.341010 0.500000 0.253706
#
# Coordination Sequence:
#
# PCOD9184218 Si02
#       7
#     8   8   8   8   8   8   8
#     4  10  19  33  57  93 130 163 201 253 315 370
#     4  11  24  42  60  90 126 169 213 267 308 367
#     4  10  23  40  61  96 129 164 211 253 317 381
#     4  11  22  36  61  91 127 163 206 254 311 379
#     4  11  23  42  65  85 121 169 218 260 314 367
#     4  10  20  38  65  92 123 161 207 259 318 379
#     4  10  20  38  63  92 127 164 200 252 319 383
#
# _framework density 21.60379
#
# number of rings (size 3 to 8) (size 9 to 14) (size 15 to 20)
#    0.000    1.571    2.857    2.143    0.000    6.286 
#    2.571    1.429    0.000    0.000    0.000    2.000 
#    0.000    0.000    0.000    0.000    0.000    0.000 
#
# Total GULP energy -156367.437752 kJ/mol
# GULP energy per Si atom -5584.551348 kJ/mol
# Density = 2.155462 g / cm^3
# Si number density = 21.603790 Si / 1000 Ang^3
#
#
#
# Elastic Constant Matrix: (Units=GPa)
#
#
# Indices 1 2 3 4 5 6 
#
# 1 68.6505 48.7781 17.0503 0.0000 -21.3242 0.0000
# 2 48.7781 132.7908 44.5412 0.0000 -7.3484 0.0000
# 3 17.0503 44.5412 94.1798 0.0000 -30.8060 0.0000
# 4 0.0000 0.0000 0.0000 26.9529 0.0000 0.8793
# 5 -21.3242 -7.3484 -30.8060 0.0000 38.7249 0.0000
# 6 0.0000 0.0000 0.0000 0.8793 0.0000 34.8290
#
#
#
# Elastic Compliance Matrix: (Units=1/GPa)
#
#
# Indices 1 2 3 4 5 6 
#
# 1 0.025812 -0.010494 0.005796 0.000000 0.016833 0.000000
# 2 -0.010494 0.013365 -0.007410 0.000000 -0.009137 0.000000
# 3 0.005796 -0.007410 0.018461 0.000000 0.016471 0.000000
# 4 0.000000 0.000000 0.000000 0.037132 0.000000 -0.000937
# 5 0.016833 -0.009137 0.016471 0.000000 0.046462 0.000000
# 6 0.000000 0.000000 0.000000 -0.000937 0.000000 0.028735
#
#
# Mechanical properties :
#
#
# Convention : Reuss Voigt Hill
#
# Bulk Modulus (GPa) = 29.91996 57.37336 43.64666
# Shear Modulus (GPa) = 24.35174 32.45147 28.40160
#
# Velocity S-wave (km/s) = 3.36102 3.87992 3.62976
# Velocity P-wave (km/s) = 5.37972 6.83275 6.14930
#
# Compressibility (1/GPa) = 0.03342250
#
# Stress axis : x y z
#
# Youngs Moduli (GPa) = 38.74145 74.82066 54.16894
#
# Poissons Ratio (x) = 0.78519 -0.31397
# Poissons Ratio (y) = 0.40656 0.40138
# Poissons Ratio (z) = -0.22455 0.55441
#
# Static dielectric constant tensor:
#      x y z
#    x 1.839790 0.000000 0.013560 
#    y 0.000000 1.804510 0.000000 
#    z 0.013560 0.000000 1.803360 
# 
# From -- ./inp_files/177894.got.cif
#   From: 2010.05.17/outbox.cif.g08.bks.cpg/sg12_89_cif.got.tgz:177894.got - 2010.06.03 13:09:07.
