data_PCOD9184121
_publ_section_title
;
Structure prediction by ZEFSAII (Michael W. Deem and Ramdas Pophale) SiO2 
 PCOD9184121
Probable space group: C 2/M
;
_chemical_formula_sum "Si O2"
_cell_formula_units_Z 48
_cell_length_a 10.022416
_cell_length_b 23.081526
_cell_length_c 12.976289
_cell_angle_alpha 90.000000
_cell_angle_beta 67.861857
_cell_angle_gamma 90.000000
_cell_volume 2780.537685
_symmetry_space_group_name_H-M "C 2/M"
_symmetry_group_IT_number 12
_symmetry_cell_setting 'monoclinic'
loop_
_space_group_symop_operation_xyz
x,y,z
-x,y,-z
-x,-y,-z
x,-y,z
1/2+x,1/2+y,z
1/2-x,1/2+y,-z
1/2-x,1/2-y,-z
1/2+x,1/2-y,z
loop_
_atom_site_type_symbol
_atom_site_label
_atom_site_fract_x
_atom_site_fract_y
_atom_site_fract_z
Si Si1 0.588904 0.432568 0.580553
Si Si2 0.094407 0.568977 0.575729
Si Si3 0.416359 0.155594 0.242139
Si Si4 0.082914 0.741017 0.568770
Si Si5 0.915888 0.750726 0.921726
Si Si6 0.913615 0.837209 0.730043
O O1 0.500000 0.430214 0.500000
O O2 0.602327 0.500000 0.607400
O O3 0.746511 0.409452 0.503940
O O4 0.505990 0.395673 0.690898
O O5 0.103153 0.500000 0.592265
O O6 0.048973 0.599463 0.696797
O O7 0.000000 0.577042 0.500000
O O8 0.415647 0.203853 0.329999
O O9 0.526360 0.186724 0.130495
O O10 0.255804 0.151367 0.240783
O O11 0.250000 0.750000 0.500000
O O12 0.000000 0.710092 0.500000
O O13 0.984640 0.797076 0.620324
O O14 0.933997 0.799354 0.827402
O O15 0.750000 0.750000 0.000000
O O16 0.000000 0.767517 0.000000
#
# Coordination Sequence:
#
# PCOD9184121 Si02
#       6
#     8   8   8   8   8   8
#     4  10  19  33  57  85 116 151 183 215 262 333
#     4  10  21  36  55  86 124 154 180 218 269 331
#     4  11  21  34  57  80 106 148 187 225 276 337
#     4  11  20  30  46  76 114 142 170 217 270 327
#     4  11  24  41  58  79 106 142 190 247 301 327
#     4  11  21  34  56  80 108 144 189 229 271 337
#
# _framework density 17.262848000000002
#
# number of rings (size 3 to 8) (size 9 to 14) (size 15 to 20)
#    0.000    1.333    5.000    2.000    0.000    1.333 
#    0.000    0.000    0.000    2.000    0.000    0.000 
#    0.000    0.000    0.000    0.000    0.000    0.000 
#
# Total GULP energy -133661.669282 kJ/mol
# GULP energy per Si atom -5569.236220 kJ/mol
# Density = 1.722356 g / cm^3
# Si number density = 17.262848 Si / 1000 Ang^3
#
#
#
# Elastic Constant Matrix: (Units=GPa)
#
#
# Indices 1 2 3 4 5 6 
#
# 1 110.5928 10.6914 40.4593 0.0000 -2.4701 0.0000
# 2 10.6914 80.1300 35.9076 0.0000 -6.5256 0.0000
# 3 40.4593 35.9076 96.8463 0.0000 0.1274 0.0000
# 4 0.0000 0.0000 0.0000 37.3296 0.0000 -6.6675
# 5 -2.4701 -6.5256 0.1274 0.0000 33.8218 0.0000
# 6 0.0000 0.0000 0.0000 -6.6675 0.0000 17.1755
#
#
#
# Elastic Compliance Matrix: (Units=1/GPa)
#
#
# Indices 1 2 3 4 5 6 
#
# 1 0.010735 0.000786 -0.004778 0.000000 0.000954 0.000000
# 2 0.000786 0.015316 -0.006011 0.000000 0.003035 0.000000
# 3 -0.004778 -0.006011 0.014552 0.000000 -0.001564 0.000000
# 4 0.000000 0.000000 0.000000 0.028784 0.000000 0.011174
# 5 0.000954 0.003035 -0.001564 0.000000 0.030228 0.000000
# 6 0.000000 0.000000 0.000000 0.011174 0.000000 0.062560
#
#
# Mechanical properties :
#
#
# Convention : Reuss Voigt Hill
#
# Bulk Modulus (GPa) = 48.54734 51.29842 49.92288
# Shear Modulus (GPa) = 26.44852 31.03276 28.74064
#
# Velocity S-wave (km/s) = 3.91846 4.24448 4.08473
# Velocity P-wave (km/s) = 6.97538 7.33495 7.15742
#
# Compressibility (1/GPa) = 0.02059845
#
# Stress axis : x y z
#
# Youngs Moduli (GPa) = 93.15040 65.29277 68.71738
#
# Poissons Ratio (x) = -0.05134 0.32831
# Poissons Ratio (y) = -0.07324 0.41306
# Poissons Ratio (z) = 0.44504 0.39248
#
# Static dielectric constant tensor:
#      x y z
#    x 1.597890 0.000000 -0.025810 
#    y 0.000000 1.654260 0.000000 
#    z -0.025810 0.000000 1.633160 
# 
# From -- ./inp_files/122412.got.cif
#   From: 2010.05.17/outbox.cif.g08.bks.cpg/sg12_62_cif.got.tgz:122412.got - 2010.06.03 13:09:07.
