data_PCOD9184760
_publ_section_title
;
Structure prediction by ZEFSAII (Michael W. Deem and Ramdas Pophale) SiO2 
 PCOD9184760
Probable space group: C 2/M
;
_chemical_formula_sum "Si O2"
_cell_formula_units_Z 56
_cell_length_a 24.620701
_cell_length_b 8.993558
_cell_length_c 14.872942
_cell_angle_alpha 90.000000
_cell_angle_beta 69.823949
_cell_angle_gamma 90.000000
_cell_volume 3091.196645
_symmetry_space_group_name_H-M "C 2/M"
_symmetry_group_IT_number 12
_symmetry_cell_setting 'monoclinic'
loop_
_space_group_symop_operation_xyz
x,y,z
-x,y,-z
-x,-y,-z
x,-y,z
1/2+x,1/2+y,z
1/2-x,1/2+y,-z
1/2-x,1/2-y,-z
1/2+x,1/2-y,z
loop_
_atom_site_type_symbol
_atom_site_label
_atom_site_fract_x
_atom_site_fract_y
_atom_site_fract_z
Si Si1 0.819480 0.823400 0.866248
Si Si2 0.380226 0.177790 0.544839
Si Si3 0.740344 0.677512 0.408178
Si Si4 0.302679 0.323685 0.086271
Si Si5 0.071124 0.321898 0.291993
Si Si6 0.353425 0.821525 0.224635
Si Si7 0.057869 0.318876 0.675276
O O1 0.760252 0.750419 0.864583
O O2 0.875599 0.755765 0.787544
O O3 0.816683 0.000000 0.853312
O O4 0.820739 0.794299 0.972857
O O5 0.319539 0.258730 0.595303
O O6 0.422293 0.204203 0.604933
O O7 0.407926 0.226666 0.434508
O O8 0.369733 0.000000 0.545294
O O9 0.737117 0.500000 0.418991
O O10 0.750000 0.750000 0.500000
O O11 0.795084 0.712196 0.314186
O O12 0.297665 0.500000 0.101178
O O13 0.346810 0.256028 0.132772
O O14 0.075522 0.500000 0.275787
O O15 0.008591 0.270877 0.292824
O O16 0.407080 0.773064 0.256201
O O17 0.356355 0.000000 0.211367
O O18 0.057921 0.500000 0.674003
#
# Coordination Sequence:
#
# PCOD9184760 Si02
#       7
#     8   8   8   8   8   8   8
#     4  10  21  38  58  81 111 139 170 222 279 323
#     4  10  19  34  54  79 109 143 182 225 268 313
#     4  11  21  33  51  77 108 142 177 218 267 316
#     4  10  21  37  59  84 107 137 177 220 270 328
#     4  10  20  34  58  83 105 141 187 226 262 314
#     4  10  20  35  55  79 111 147 179 219 270 316
#     4   9  18  35  54  77 110 147 184 220 262 314
#
# _framework density 18.115960999999999
#
# number of rings (size 3 to 8) (size 9 to 14) (size 15 to 20)
#    0.000    2.000    1.429    2.571    0.000    7.429 
#    0.000    2.143    0.000    6.000    0.000    0.000 
#    0.000    0.000    0.000    0.000    0.000    0.000 
#
# Total GULP energy -156367.353122 kJ/mol
# GULP energy per Si atom -5584.548326 kJ/mol
# Density = 1.807473 g / cm^3
# Si number density = 18.115961 Si / 1000 Ang^3
#
#
#
# Elastic Constant Matrix: (Units=GPa)
#
#
# Indices 1 2 3 4 5 6 
#
# 1 130.3466 29.0790 43.4067 0.0000 20.1635 0.0000
# 2 29.0790 19.2071 28.7516 0.0000 11.2478 0.0000
# 3 43.4067 28.7516 56.5706 0.0000 17.7538 0.0000
# 4 0.0000 0.0000 0.0000 27.9883 0.0000 2.6358
# 5 20.1635 11.2478 17.7538 0.0000 27.3398 0.0000
# 6 0.0000 0.0000 0.0000 2.6358 0.0000 21.8934
#
#
#
# Elastic Compliance Matrix: (Units=1/GPa)
#
#
# Indices 1 2 3 4 5 6 
#
# 1 0.011649 -0.016938 0.000225 0.000000 -0.001769 0.000000
# 2 -0.016938 0.253619 -0.109367 0.000000 -0.020829 0.000000
# 3 0.000225 -0.109367 0.074127 0.000000 -0.003308 0.000000
# 4 0.000000 0.000000 0.000000 0.036139 0.000000 -0.004351
# 5 -0.001769 -0.020829 -0.003308 0.000000 0.048599 0.000000
# 6 0.000000 0.000000 0.000000 -0.004351 0.000000 0.046200
#
#
# Mechanical properties :
#
#
# Convention : Reuss Voigt Hill
#
# Bulk Modulus (GPa) = 11.46298 45.39988 28.43143
# Shear Modulus (GPa) = 6.65274 22.43678 14.54476
#
# Velocity S-wave (km/s) = 1.91841 3.52306 2.83657
# Velocity P-wave (km/s) = 3.35385 6.45480 5.14358
#
# Compressibility (1/GPa) = 0.08723732
#
# Stress axis : x y z
#
# Youngs Moduli (GPa) = 85.84320 3.94292 13.49033
#
# Poissons Ratio (x) = 0.06678 -0.00304
# Poissons Ratio (y) = 1.45397 1.47539
# Poissons Ratio (z) = -0.01934 0.43122
#
# Static dielectric constant tensor:
#      x y z
#    x 1.616130 0.000000 0.021480 
#    y 0.000000 1.605860 0.000000 
#    z 0.021480 0.000000 1.614380 
# 
# From -- ./inp_files/237432.got.cif
#   From: 2010.05.17/outbox.cif.g08.bks.cpg/sg12_119_cif.got.tgz:237432.got - 2010.06.03 13:09:07.
