data_PCOD9184501
_publ_section_title
;
Structure prediction by ZEFSAII (Michael W. Deem and Ramdas Pophale) SiO2 
 PCOD9184501
Probable space group: C 2/M
;
_chemical_formula_sum "Si O2"
_cell_formula_units_Z 64
_cell_length_a 31.082355
_cell_length_b 11.122511
_cell_length_c 9.366757
_cell_angle_alpha 90.000000
_cell_angle_beta 88.562010
_cell_angle_gamma 90.000000
_cell_volume 3237.197677
_symmetry_space_group_name_H-M "C 2/M"
_symmetry_group_IT_number 12
_symmetry_cell_setting 'monoclinic'
loop_
_space_group_symop_operation_xyz
x,y,z
-x,y,-z
-x,-y,-z
x,-y,z
1/2+x,1/2+y,z
1/2-x,1/2+y,-z
1/2-x,1/2-y,-z
1/2+x,1/2-y,z
loop_
_atom_site_type_symbol
_atom_site_label
_atom_site_fract_x
_atom_site_fract_y
_atom_site_fract_z
Si Si1 0.618571 0.773360 0.142559
Si Si2 0.919716 0.357368 0.143531
Si Si3 0.562319 0.362151 0.376805
Si Si4 0.191415 0.129603 0.004225
Si Si5 0.461853 0.640088 0.298987
Si Si6 0.188163 0.639652 0.344898
Si Si7 0.260599 0.200178 0.219567
Si Si8 0.343917 0.866314 0.365966
O O1 0.588863 0.724583 0.271756
O O2 0.644596 0.665496 0.063996
O O3 0.657283 0.849401 0.210113
O O4 0.592533 0.840997 0.021260
O O5 0.931677 0.500000 0.165863
O O6 0.951360 0.249798 0.192230
O O7 0.877161 0.327453 0.242221
O O8 0.577622 0.500000 0.358643
O O9 0.561782 0.335268 0.546654
O O10 0.512565 0.358552 0.330745
O O11 0.224799 0.128960 0.133568
O O12 0.190902 0.000000 0.933657
O O13 0.210737 0.226690 0.896027
O O14 0.451489 0.500000 0.256090
O O15 0.197488 0.500000 0.369971
O O16 0.232241 0.709137 0.315402
O O17 0.162371 0.696231 0.481192
O O18 0.295898 0.130915 0.306774
O O19 0.359632 0.000000 0.400718
#
# Coordination Sequence:
#
# PCOD9184501 Si02
#       8
#     8   8   8   8   8   8   8   8
#     4  11  21  36  56  82 116 150 193 231 285 343
#     4  11  23  39  58  86 123 159 196 241 292 347
#     4   9  19  39  66  90 118 150 189 238 292 352
#     4  10  20  32  50  77 109 142 184 232 285 341
#     4   9  20  41  66  92 117 151 192 237 293 351
#     4  10  21  35  54  77 107 148 191 240 287 339
#     4  10  19  34  51  76 104 144 186 236 290 336
#     4  10  20  36  55  77 108 147 192 237 290 342
#
# _framework density 19.770187
#
# number of rings (size 3 to 8) (size 9 to 14) (size 15 to 20)
#    0.000    2.000    1.250    3.375    0.000    1.500 
#    0.000    5.000    0.000    5.250    0.000    0.000 
#    0.000    0.000    0.000    0.000    0.000    0.000 
#
# Total GULP energy -178249.911629 kJ/mol
# GULP energy per Si atom -5570.309738 kJ/mol
# Density = 1.972519 g / cm^3
# Si number density = 19.770187 Si / 1000 Ang^3
#
#
#
# Elastic Constant Matrix: (Units=GPa)
#
#
# Indices 1 2 3 4 5 6 
#
# 1 38.6237 18.1716 2.7878 0.0000 -6.6984 0.0000
# 2 18.1716 83.9631 17.9781 0.0000 6.0102 0.0000
# 3 2.7878 17.9781 63.4177 0.0000 2.4950 0.0000
# 4 0.0000 0.0000 0.0000 13.5036 0.0000 -0.2510
# 5 -6.6984 6.0102 2.4950 0.0000 36.0269 0.0000
# 6 0.0000 0.0000 0.0000 -0.2510 0.0000 6.5630
#
#
#
# Elastic Compliance Matrix: (Units=1/GPa)
#
#
# Indices 1 2 3 4 5 6 
#
# 1 0.030412 -0.007161 0.000425 0.000000 0.006820 0.000000
# 2 -0.007161 0.014493 -0.003656 0.000000 -0.003496 0.000000
# 3 0.000425 -0.003656 0.016805 0.000000 -0.000475 0.000000
# 4 0.000000 0.000000 0.000000 0.074107 0.000000 0.002834
# 5 0.006820 -0.003496 -0.000475 0.000000 0.029641 0.000000
# 6 0.000000 0.000000 0.000000 0.002834 0.000000 0.152478
#
#
# Mechanical properties :
#
#
# Convention : Reuss Voigt Hill
#
# Bulk Modulus (GPa) = 24.43487 29.31995 26.87741
# Shear Modulus (GPa) = 14.18995 21.02317 17.60656
#
# Velocity S-wave (km/s) = 2.68198 3.26448 2.98746
# Velocity P-wave (km/s) = 4.68796 5.39182 5.05216
#
# Compressibility (1/GPa) = 0.04092512
#
# Stress axis : x y z
#
# Youngs Moduli (GPa) = 32.88182 68.99929 59.50626
#
# Poissons Ratio (x) = 0.49410 -0.02528
# Poissons Ratio (y) = 0.23547 0.21757
# Poissons Ratio (z) = -0.01397 0.25228
#
# Static dielectric constant tensor:
#      x y z
#    x 1.683100 0.000000 -0.000580 
#    y 0.000000 1.730590 0.000000 
#    z -0.000580 0.000000 1.735480 
# 
# From -- ./inp_files/110455.got.cif
#   From: 2010.05.17/outbox.cif.g08.bks.cpg/sg12_56_cif.got.tgz:110455.got - 2010.06.03 13:09:07.
