data_PCOD9184560
_publ_section_title
;
Structure prediction by ZEFSAII (Michael W. Deem and Ramdas Pophale) SiO2 
 PCOD9184560
Probable space group: C 2/M
;
_chemical_formula_sum "Si O2"
_cell_formula_units_Z 58
_cell_length_a 26.037004
_cell_length_b 13.980385
_cell_length_c 9.533062
_cell_angle_alpha 90.000000
_cell_angle_beta 98.073002
_cell_angle_gamma 90.000000
_cell_volume 3435.715602
_symmetry_space_group_name_H-M "C 2/M"
_symmetry_group_IT_number 12
_symmetry_cell_setting 'monoclinic'
loop_
_space_group_symop_operation_xyz
x,y,z
-x,y,-z
-x,-y,-z
x,-y,z
1/2+x,1/2+y,z
1/2-x,1/2+y,-z
1/2-x,1/2-y,-z
1/2+x,1/2-y,z
loop_
_atom_site_type_symbol
_atom_site_label
_atom_site_fract_x
_atom_site_fract_y
_atom_site_fract_z
Si Si1 0.684523 0.391689 0.734694
Si Si2 0.856446 0.272744 0.718859
Si Si3 0.782496 0.887865 0.577742
Si Si4 0.862004 0.703073 0.174864
Si Si5 0.555763 0.197368 0.039375
Si Si6 0.000000 0.500000 0.000000
Si Si7 0.293419 0.889163 0.922595
Si Si8 0.660724 0.888738 0.553252
O O1 0.663637 0.500000 0.734296
O O2 0.705084 0.377238 0.583415
O O3 0.646166 0.307896 0.763951
O O4 0.733360 0.385203 0.858695
O O5 0.821113 0.179721 0.678716
O O6 0.909003 0.258084 0.825375
O O7 0.823790 0.346933 0.801039
O O8 0.865201 0.322749 0.573376
O O9 0.722208 0.862483 0.580896
O O10 0.788875 0.000000 0.615868
O O11 0.863975 0.630864 0.305492
O O12 0.910621 0.698886 0.089819
O O13 0.812338 0.672031 0.062086
O O14 0.540931 0.086307 0.062139
O O15 0.500000 0.246713 0.000000
O O16 0.307444 0.000000 0.951976
O O17 0.657776 0.000000 0.513782
#
# Coordination Sequence:
#
# PCOD9184560 Si02
#       8
#     8   8   8   8   8   2   8   8
#     4  10  19  34  52  77 113 153 188 219 262 322
#     4  11  19  34  58  79 107 153 192 217 266 336
#     4  10  20  35  51  81 122 156 182 219 267 319
#     4  11  21  34  53  81 109 144 185 233 270 320
#     4   9  23  39  61  75 104 139 179 227 286 334
#     4   8  20  44  64  74 106 140 176 226 288 356
#     4  10  20  31  50  75 115 155 185 211 268 334
#     4  11  21  29  52  86 121 146 184 227 264 319
#
# _framework density 16.881489999999999
#
# number of rings (size 3 to 8) (size 9 to 14) (size 15 to 20)
#    0.414    1.379    2.759    2.483    5.793    1.103 
#    0.000    6.207    0.000    3.310    0.000    1.931 
#    0.000    0.000    0.000    0.000    0.000    0.000 
#
# Total GULP energy -161461.385310 kJ/mol
# GULP energy per Si atom -5567.633976 kJ/mol
# Density = 1.684307 g / cm^3
# Si number density = 16.881490 Si / 1000 Ang^3
#
#
#
# Elastic Constant Matrix: (Units=GPa)
#
#
# Indices 1 2 3 4 5 6 
#
# 1 68.5850 26.5327 32.4630 0.0000 14.4321 0.0000
# 2 26.5327 74.6840 15.2741 0.0000 3.8764 0.0000
# 3 32.4630 15.2741 83.0340 0.0000 2.1356 0.0000
# 4 0.0000 0.0000 0.0000 18.7086 0.0000 -1.6096
# 5 14.4321 3.8764 2.1356 0.0000 12.3079 0.0000
# 6 0.0000 0.0000 0.0000 -1.6096 0.0000 11.6562
#
#
#
# Elastic Compliance Matrix: (Units=1/GPa)
#
#
# Indices 1 2 3 4 5 6 
#
# 1 0.027121 -0.006388 -0.008701 0.000000 -0.028280 0.000000
# 2 -0.006388 0.015612 -0.000443 0.000000 0.002650 0.000000
# 3 -0.008701 -0.000443 0.015329 0.000000 0.007682 0.000000
# 4 0.000000 0.000000 0.000000 0.054094 0.000000 0.007470
# 5 -0.028280 0.002650 0.007682 0.000000 0.112242 0.000000
# 6 0.000000 0.000000 0.000000 0.007470 0.000000 0.086822
#
#
# Mechanical properties :
#
#
# Convention : Reuss Voigt Hill
#
# Bulk Modulus (GPa) = 37.03804 41.64918 39.34361
# Shear Modulus (GPa) = 14.23357 18.67010 16.45183
#
# Velocity S-wave (km/s) = 2.90685 3.32919 3.12516
# Velocity P-wave (km/s) = 5.76663 6.28515 6.03146
#
# Compressibility (1/GPa) = 0.02699927
#
# Stress axis : x y z
#
# Youngs Moduli (GPa) = 36.87209 64.05293 65.23693
#
# Poissons Ratio (x) = 0.40916 0.56761
# Poissons Ratio (y) = 0.23553 0.02888
# Poissons Ratio (z) = 0.32081 0.02835
#
# Static dielectric constant tensor:
#      x y z
#    x 1.572310 0.000000 0.009710 
#    y 0.000000 1.579850 0.000000 
#    z 0.009710 0.000000 1.583430 
# 
# From -- ./inp_files/104054.got.cif
#   From: 2010.05.17/outbox.cif.g08.bks.cpg/sg12_53_cif.got.tgz:104054.got - 2010.06.03 13:09:07.
