data_PCOD9184591
_publ_section_title
;
Structure prediction by ZEFSAII (Michael W. Deem and Ramdas Pophale) SiO2 
 PCOD9184591
Probable space group: C 2/M
;
_chemical_formula_sum "Si O2"
_cell_formula_units_Z 44
_cell_length_a 24.491307
_cell_length_b 16.590539
_cell_length_c 8.559091
_cell_angle_alpha 90.000000
_cell_angle_beta 146.203656
_cell_angle_gamma 90.000000
_cell_volume 1934.480429
_symmetry_space_group_name_H-M "C 2/M"
_symmetry_group_IT_number 12
_symmetry_cell_setting 'monoclinic'
loop_
_space_group_symop_operation_xyz
x,y,z
-x,y,-z
-x,-y,-z
x,-y,z
1/2+x,1/2+y,z
1/2-x,1/2+y,-z
1/2-x,1/2-y,-z
1/2+x,1/2-y,z
loop_
_atom_site_type_symbol
_atom_site_label
_atom_site_fract_x
_atom_site_fract_y
_atom_site_fract_z
Si Si1 0.534301 0.412189 0.259926
Si Si2 0.000000 0.639749 0.000000
Si Si3 0.314847 0.088190 0.749243
Si Si4 0.928266 0.743997 0.556658
Si Si5 0.348527 0.235879 0.043667
Si Si6 0.317309 0.411587 0.872576
O O1 0.582180 0.500000 0.381925
O O2 0.595163 0.336904 0.463905
O O3 0.500000 0.398127 0.000000
O O4 0.434091 0.415387 0.120896
O O5 0.077317 0.593364 0.075652
O O6 0.067404 0.693965 0.274189
O O7 0.236128 0.092400 0.422361
O O8 0.307141 0.000000 0.806964
O O9 0.302840 0.164313 0.833547
O O10 0.863157 0.714074 0.259052
O O11 0.041061 0.742871 0.764576
O O12 0.301440 0.324653 0.913796
O O13 0.288457 0.500000 0.873736
#
# Coordination Sequence:
#
# PCOD9184591 Si02
#       6
#     8   4   8   8   8   8
#     4   9  16  28  50  78 103 132 164 200 246 301
#     4  10  19  34  53  72  96 134 171 212 250 294
#     4  10  20  35  54  74  98 133 174 213 251 295
#     4   9  17  31  50  75 104 130 167 207 246 300
#     4   9  18  32  51  77 102 132 166 207 253 296
#     4   9  18  32  53  77 103 133 167 202 248 306
#
# _framework density 22.745124000000001
#
# number of rings (size 3 to 8) (size 9 to 14) (size 15 to 20)
#    0.000    2.727    0.909    0.818    0.000    0.727 
#    0.000   12.727    0.000    0.000    0.000    0.000 
#    0.000    0.000    0.000    0.000    0.000    0.000 
#
# Total GULP energy -122822.627345 kJ/mol
# GULP energy per Si atom -5582.846697 kJ/mol
# Density = 2.269335 g / cm^3
# Si number density = 22.745124 Si / 1000 Ang^3
#
#
#
# Elastic Constant Matrix: (Units=GPa)
#
#
# Indices 1 2 3 4 5 6 
#
# 1 70.0778 40.1414 19.9438 0.0000 10.2396 0.0000
# 2 40.1414 161.5273 44.9740 0.0000 -17.1244 0.0000
# 3 19.9438 44.9740 69.1580 0.0000 -5.4028 0.0000
# 4 0.0000 0.0000 0.0000 23.6441 0.0000 -8.3106
# 5 10.2396 -17.1244 -5.4028 0.0000 38.1952 0.0000
# 6 0.0000 0.0000 0.0000 -8.3106 0.0000 -5.4402
#
#
#
# Elastic Compliance Matrix: (Units=1/GPa)
#
#
# Indices 1 2 3 4 5 6 
#
# 1 0.018907 -0.004664 -0.003012 0.000000 -0.007586 0.000000
# 2 -0.004664 0.009001 -0.004141 0.000000 0.004700 0.000000
# 3 -0.003012 -0.004141 0.018140 0.000000 0.001517 0.000000
# 4 0.000000 0.000000 0.000000 0.027518 0.000000 -0.042038
# 5 -0.007586 0.004700 0.001517 0.000000 0.030537 0.000000
# 6 0.000000 0.000000 0.000000 -0.042038 0.000000 -0.119599
#
#
# Mechanical properties :
#
#
# Convention : Reuss Voigt Hill
#
# Bulk Modulus (GPa) = 44.61624 56.76463 50.69043
# Shear Modulus (GPa) = 320.29658 24.32676 172.31167
#
# Velocity S-wave (km/s) = 11.87963 3.27393 8.71333
# Velocity P-wave (km/s) = 14.41616 6.26917 11.11594
#
# Compressibility (1/GPa) = 0.02241336
#
# Stress axis : x y z
#
# Youngs Moduli (GPa) = 52.88982 111.09339 55.12709
#
# Poissons Ratio (x) = 0.51817 0.16604
# Poissons Ratio (y) = 0.24669 0.22830
# Poissons Ratio (z) = 0.15930 0.46008
#
# Static dielectric constant tensor:
#      x y z
#    x 1.875150 0.000000 0.029560 
#    y 0.000000 1.854460 0.000000 
#    z 0.029560 0.000000 1.822560 
# 
# From -- ./inp_files/112699.got.cif
#   From: 2010.05.17/outbox.cif.g08.bks.cpg/sg12_57_cif.got.tgz:112699.got - 2010.06.03 13:09:07.
