data_PCOD9184199
_publ_section_title
;
Structure prediction by ZEFSAII (Michael W. Deem and Ramdas Pophale) SiO2 
 PCOD9184199
Probable space group: C 2/M
;
_chemical_formula_sum "Si O2"
_cell_formula_units_Z 64
_cell_length_a 27.994979
_cell_length_b 11.467351
_cell_length_c 16.615849
_cell_angle_alpha 90.000000
_cell_angle_beta 141.828386
_cell_angle_gamma 90.000000
_cell_volume 3296.610244
_symmetry_space_group_name_H-M "C 2/M"
_symmetry_group_IT_number 12
_symmetry_cell_setting 'monoclinic'
loop_
_space_group_symop_operation_xyz
x,y,z
-x,y,-z
-x,-y,-z
x,-y,z
1/2+x,1/2+y,z
1/2-x,1/2+y,-z
1/2-x,1/2-y,-z
1/2+x,1/2-y,z
loop_
_atom_site_type_symbol
_atom_site_label
_atom_site_fract_x
_atom_site_fract_y
_atom_site_fract_z
Si Si1 0.524273 0.869030 0.939195
Si Si2 0.427207 0.364544 0.585397
Si Si3 0.817154 0.133782 0.299103
Si Si4 0.711739 0.630894 0.988739
Si Si5 0.826804 0.213464 0.886628
Si Si6 0.278855 0.632617 0.644718
Si Si7 0.071225 0.133458 0.684990
Si Si8 0.373287 0.795089 0.649935
O O1 0.444357 0.864774 0.782919
O O2 0.558117 0.000000 0.974526
O O3 0.500000 0.853971 0.000000
O O4 0.587065 0.768258 0.002118
O O5 0.445728 0.500000 0.622982
O O6 0.348516 0.357573 0.430571
O O7 0.493447 0.311698 0.615914
O O8 0.415981 0.300948 0.652941
O O9 0.732325 0.180255 0.181719
O O10 0.880318 0.190546 0.323038
O O11 0.816118 0.000000 0.272781
O O12 0.748213 0.500000 0.022239
O O13 0.629976 0.627866 0.835990
O O14 0.750000 0.750000 0.000000
O O15 0.693109 0.642073 0.058878
O O16 0.799043 0.153344 0.765987
O O17 0.302927 0.500000 0.656496
O O18 0.326023 0.730136 0.657810
O O19 0.190268 0.645459 0.493849
O O20 0.050569 0.000000 0.633845
#
# Coordination Sequence:
#
# PCOD9184199 Si02
#       8
#     8   8   8   8   8   8   8   8
#     4  11  24  42  64  91 125 166 214 268 320 381
#     4  10  19  33  58  90 121 156 200 254 318 377
#     4  10  19  33  57  89 121 156 203 259 310 372
#     4  11  23  39  63  90 125 165 211 263 320 386
#     4  12  22  41  62  91 123 167 211 261 324 383
#     4  11  24  41  63  90 122 163 209 259 316 378
#     4   9  18  34  55  85 120 156 199 256 314 373
#     4  11  22  42  62  90 122 162 209 258 316 377
#
# _framework density 19.413882000000001
#
# number of rings (size 3 to 8) (size 9 to 14) (size 15 to 20)
#    0.000    1.375    3.750    2.625    0.000    2.000 
#    0.000    2.500    0.000    0.000    0.000    1.750 
#    0.000    0.000    0.000    0.000    0.000    0.000 
#
# Total GULP energy -178134.768656 kJ/mol
# GULP energy per Si atom -5566.711521 kJ/mol
# Density = 1.936969 g / cm^3
# Si number density = 19.413882 Si / 1000 Ang^3
#
#
#
# Elastic Constant Matrix: (Units=GPa)
#
#
# Indices 1 2 3 4 5 6 
#
# 1 64.0893 22.4394 32.7383 0.0000 -2.4527 0.0000
# 2 22.4394 72.3390 29.7688 0.0000 -4.6528 0.0000
# 3 32.7383 29.7688 112.6833 0.0000 -0.8537 0.0000
# 4 0.0000 0.0000 0.0000 435.5859 0.0000 -138.8750
# 5 -2.4527 -4.6528 -0.8537 0.0000 23.1237 0.0000
# 6 0.0000 0.0000 0.0000 -138.8750 0.0000 72.9815
#
#
#
# Elastic Compliance Matrix: (Units=1/GPa)
#
#
# Indices 1 2 3 4 5 6 
#
# 1 0.019395 -0.004075 -0.004550 0.000000 0.001069 0.000000
# 2 -0.004075 0.016573 -0.003173 0.000000 0.002785 0.000000
# 3 -0.004550 -0.003173 0.011029 0.000000 -0.000714 0.000000
# 4 0.000000 0.000000 0.000000 0.005837 0.000000 0.011107
# 5 0.001069 0.002785 -0.000714 0.000000 0.043893 0.000000
# 6 0.000000 0.000000 0.000000 0.011107 0.000000 0.034837
#
#
# Mechanical properties :
#
#
# Convention : Reuss Voigt Hill
#
# Bulk Modulus (GPa) = 42.73440 46.55606 44.64523
# Shear Modulus (GPa) = 30.68196 117.28257 73.98227
#
# Velocity S-wave (km/s) = 3.97975 7.78093 6.17986
# Velocity P-wave (km/s) = 6.57100 10.23507 8.60043
#
# Compressibility (1/GPa) = 0.02340035
#
# Stress axis : x y z
#
# Youngs Moduli (GPa) = 51.55864 60.33958 90.66724
#
# Poissons Ratio (x) = 0.24589 0.41257
# Poissons Ratio (y) = 0.21011 0.28770
# Poissons Ratio (z) = 0.23461 0.19147
#
# Static dielectric constant tensor:
#      x y z
#    x 1.723950 0.000000 -0.002850 
#    y 0.000000 1.718410 0.000000 
#    z -0.002850 0.000000 1.721120 
# 
# From -- ./inp_files/245970.got.cif
#   From: 2010.05.17/outbox.cif.g08.bks.cpg/sg12_123_cif.got.tgz:245970.got - 2010.06.03 13:09:07.
