data_PCOD9184013
_publ_section_title
;
Structure prediction by ZEFSAII (Michael W. Deem and Ramdas Pophale) SiO2 
 PCOD9184013
Probable space group: C 2/M
;
_chemical_formula_sum "Si O2"
_cell_formula_units_Z 64
_cell_length_a 17.297619
_cell_length_b 13.836013
_cell_length_c 24.266554
_cell_angle_alpha 90.000000
_cell_angle_beta 142.900073
_cell_angle_gamma 90.000000
_cell_volume 3503.254987
_symmetry_space_group_name_H-M "C 2/M"
_symmetry_group_IT_number 12
_symmetry_cell_setting 'monoclinic'
loop_
_space_group_symop_operation_xyz
x,y,z
-x,y,-z
-x,-y,-z
x,-y,z
1/2+x,1/2+y,z
1/2-x,1/2+y,-z
1/2-x,1/2-y,-z
1/2+x,1/2-y,z
loop_
_atom_site_type_symbol
_atom_site_label
_atom_site_fract_x
_atom_site_fract_y
_atom_site_fract_z
Si Si1 0.649866 0.387731 0.853636
Si Si2 0.496862 0.112954 0.772391
Si Si3 0.866433 0.252732 0.938770
Si Si4 0.788412 0.889743 0.982529
Si Si5 0.510202 0.116276 0.651095
Si Si6 0.303355 0.614747 0.803271
Si Si7 0.617863 0.304185 0.266727
Si Si8 0.126385 0.616339 0.534172
O O1 0.650864 0.500000 0.838874
O O2 0.747081 0.324780 0.872967
O O3 0.505954 0.347283 0.772510
O O4 0.699623 0.379677 0.945246
O O5 0.641916 0.121379 0.878035
O O6 0.494856 0.141548 0.706434
O O7 0.407407 0.189777 0.751942
O O8 0.460683 0.000000 0.756913
O O9 0.866648 0.193110 0.995963
O O10 0.849071 0.171160 0.882689
O O11 0.000000 0.303353 0.000000
O O12 0.829262 0.000000 0.991391
O O13 0.652948 0.140793 0.712068
O O14 0.408796 0.149221 0.547857
O O15 0.504236 0.000000 0.646480
O O16 0.313830 0.500000 0.816950
O O17 0.374657 0.646421 0.788713
O O18 0.749291 0.330679 0.371887
O O19 0.150332 0.500000 0.548957
O O20 0.000000 0.632166 0.500000
#
# Coordination Sequence:
#
# PCOD9184013 Si02
#       8
#     8   8   8   8   8   8   8   8
#     4  11  24  40  56  81 116 153 196 236 277 339
#     4  10  21  38  59  83 114 153 193 233 281 342
#     4  12  24  36  56  81 116 152 190 238 284 338
#     4  10  20  38  61  82 112 150 191 241 288 333
#     4   9  17  34  57  82 117 147 180 231 284 339
#     4  11  21  35  57  88 117 146 187 238 290 335
#     4  12  22  36  62  86 114 151 189 238 290 339
#     4  10  19  33  56  90 121 145 178 230 297 351
#
# _framework density 18.268723999999999
#
# number of rings (size 3 to 8) (size 9 to 14) (size 15 to 20)
#    0.000    1.375    3.750    2.625    1.750    2.750 
#    0.000    0.625    0.000    0.375    0.000    0.000 
#    0.000    0.000    0.000    0.000    0.000    0.000 
#
# Total GULP energy -178719.199210 kJ/mol
# GULP energy per Si atom -5584.974975 kJ/mol
# Density = 1.822714 g / cm^3
# Si number density = 18.268724 Si / 1000 Ang^3
#
#
#
# Elastic Constant Matrix: (Units=GPa)
#
#
# Indices 1 2 3 4 5 6 
#
# 1 50.5556 34.7813 18.9783 0.0000 18.5514 0.0000
# 2 34.7813 90.2299 25.6008 0.0000 16.7820 0.0000
# 3 18.9783 25.6008 89.3133 0.0001 6.6137 0.0000
# 4 0.0000 0.0000 0.0001 17.2133 0.0000 1.0670
# 5 18.5514 16.7820 6.6137 0.0000 25.4463 0.0000
# 6 0.0000 0.0000 0.0000 1.0670 0.0000 28.3309
#
#
#
# Elastic Compliance Matrix: (Units=1/GPa)
#
#
# Indices 1 2 3 4 5 6 
#
# 1 0.033549 -0.008664 -0.003321 0.000000 -0.017881 0.000000
# 2 -0.008664 0.015749 -0.002418 0.000000 -0.003441 0.000000
# 3 -0.003321 -0.002418 0.012539 0.000000 0.000757 0.000000
# 4 0.000000 0.000000 0.000000 0.058231 0.000000 -0.002193
# 5 -0.017881 -0.003441 0.000757 0.000000 0.054407 0.000000
# 6 0.000000 0.000000 0.000000 -0.002193 0.000000 0.035380
#
#
# Mechanical properties :
#
#
# Convention : Reuss Voigt Hill
#
# Bulk Modulus (GPa) = 30.27561 43.20216 36.73889
# Shear Modulus (GPa) = 20.02617 24.24735 22.13676
#
# Velocity S-wave (km/s) = 3.31448 3.64711 3.48477
# Velocity P-wave (km/s) = 5.59071 6.43698 6.02871
#
# Compressibility (1/GPa) = 0.03302989
#
# Stress axis : x y z
#
# Youngs Moduli (GPa) = 29.80673 63.49656 79.74859
#
# Poissons Ratio (x) = 0.55015 0.26487
# Poissons Ratio (y) = 0.25825 0.19286
# Poissons Ratio (z) = 0.09900 0.15356
#
# Static dielectric constant tensor:
#      x y z
#    x 1.644190 0.000000 -0.005820 
#    y 0.000000 1.628310 0.000000 
#    z -0.005820 0.000000 1.655110 
# 
# From -- ./inp_files/340195.got.cif
#   From: 2010.05.17/outbox.cif.g08.bks.cpg/sg12_171_cif.got.tgz:340195.got - 2010.06.03 13:09:07.
