data_PCOD9184492
_publ_section_title
;
Structure prediction by ZEFSAII (Michael W. Deem and Ramdas Pophale) SiO2 
 PCOD9184492
Probable space group: C 2/M
;
_chemical_formula_sum "Si O2"
_cell_formula_units_Z 56
_cell_length_a 25.424777
_cell_length_b 7.591247
_cell_length_c 15.780185
_cell_angle_alpha 90.000000
_cell_angle_beta 73.854607
_cell_angle_gamma 90.000000
_cell_volume 2925.542946
_symmetry_space_group_name_H-M "C 2/M"
_symmetry_group_IT_number 12
_symmetry_cell_setting 'monoclinic'
loop_
_space_group_symop_operation_xyz
x,y,z
-x,y,-z
-x,-y,-z
x,-y,z
1/2+x,1/2+y,z
1/2-x,1/2+y,-z
1/2-x,1/2-y,-z
1/2+x,1/2-y,z
loop_
_atom_site_type_symbol
_atom_site_label
_atom_site_fract_x
_atom_site_fract_y
_atom_site_fract_z
Si Si1 0.190981 0.704438 0.404511
Si Si2 0.302995 0.289976 0.274769
Si Si3 0.109430 0.791725 0.292963
Si Si4 0.991393 0.712157 0.407687
Si Si5 0.804731 0.794233 0.088157
Si Si6 0.179318 0.214609 0.103242
Si Si7 0.372189 0.213179 0.404856
O O1 0.203686 0.500000 0.416545
O O2 0.245833 0.782800 0.338603
O O3 0.142446 0.711242 0.357251
O O4 0.168348 0.780364 0.502667
O O5 0.294672 0.500000 0.266591
O O6 0.316825 0.217413 0.175357
O O7 0.349184 0.262572 0.323965
O O8 0.045216 0.758464 0.330790
O O9 0.135439 0.729254 0.192893
O O10 0.119246 0.000000 0.294034
O O11 0.988539 0.500000 0.412810
O O12 0.000000 0.777007 0.500000
O O13 0.933724 0.775388 0.396414
O O14 0.739129 0.778361 0.105712
O O15 0.820256 0.000000 0.082706
O O16 0.829413 0.721669 0.989319
O O17 0.318864 0.500000 0.899131
O O18 0.372737 0.000000 0.410031
#
# Coordination Sequence:
#
# PCOD9184492 Si02
#       7
#     8   8   8   8   8   8   8
#     4  10  19  34  51  72 103 139 171 196 243 308
#     4  10  20  32  51  76 103 135 168 205 246 299
#     4  11  21  31  50  79 107 131 162 212 257 291
#     4  10  20  37  56  71  95 134 175 210 250 301
#     4   9  17  31  51  73 101 135 167 200 246 302
#     4   9  18  31  48  75 105 131 163 205 252 296
#     4  10  21  35  52  71  98 136 171 208 249 296
#
# _framework density 19.141745
#
# number of rings (size 3 to 8) (size 9 to 14) (size 15 to 20)
#    0.000    2.143    2.857    0.857    0.000    3.143 
#    0.000    0.000    0.000    0.857    0.000    6.000 
#    0.000    0.000    0.000    0.000    0.000    0.000 
#
# Total GULP energy -156249.692022 kJ/mol
# GULP energy per Si atom -5580.346144 kJ/mol
# Density = 1.909818 g / cm^3
# Si number density = 19.141745 Si / 1000 Ang^3
#
#
#
# Elastic Constant Matrix: (Units=GPa)
#
#
# Indices 1 2 3 4 5 6 
#
# 1 73.0419 -13.6307 44.7829 0.0000 22.5171 0.0000
# 2 -13.6307 37.7907 -7.5134 0.0000 1.1442 0.0000
# 3 44.7829 -7.5134 159.1828 0.0000 28.1046 0.0000
# 4 0.0000 0.0000 0.0000 -0.1760 0.0000 15.3212
# 5 22.5171 1.1442 28.1046 0.0000 29.5746 0.0000
# 6 0.0000 0.0000 0.0000 15.3212 0.0000 4.1026
#
#
#
# Elastic Compliance Matrix: (Units=1/GPa)
#
#
# Indices 1 2 3 4 5 6 
#
# 1 0.021170 0.007391 -0.003257 0.000000 -0.013309 0.000000
# 2 0.007391 0.029471 0.000609 0.000000 -0.007346 0.000000
# 3 -0.003257 0.000609 0.008163 0.000000 -0.005301 0.000000
# 4 0.000000 0.000000 0.000000 -0.017423 0.000000 0.065069
# 5 -0.013309 -0.007346 -0.005301 0.000000 0.049267 0.000000
# 6 0.000000 0.000000 0.000000 0.065069 0.000000 0.000748
#
#
# Mechanical properties :
#
#
# Convention : Reuss Voigt Hill
#
# Bulk Modulus (GPa) = 14.64369 35.25478 24.94923
# Shear Modulus (GPa) = 47.76797 23.12534 35.44666
#
# Velocity S-wave (km/s) = 5.00090 3.47956 4.30792
# Velocity P-wave (km/s) = 6.40407 5.88225 6.14870
#
# Compressibility (1/GPa) = 0.06828880
#
# Stress axis : x y z
#
# Youngs Moduli (GPa) = 47.23714 33.93188 122.50314
#
# Poissons Ratio (x) = -0.25079 0.39901
# Poissons Ratio (y) = -0.34913 -0.07456
# Poissons Ratio (z) = 0.15386 -0.02065
#
# Static dielectric constant tensor:
#      x y z
#    x 1.622360 0.000000 0.006620 
#    y 0.000000 1.745850 0.000000 
#    z 0.006620 0.000000 1.700720 
# 
# From -- ./inp_files/237348.got.cif
#   From: 2010.05.17/outbox.cif.g08.bks.cpg/sg12_119_cif.got.tgz:237348.got - 2010.06.03 13:09:07.
