data_PCOD9184189
_publ_section_title
;
Structure prediction by ZEFSAII (Michael W. Deem and Ramdas Pophale) SiO2 
 PCOD9184189
Probable space group: C 2/M
;
_chemical_formula_sum "Si O2"
_cell_formula_units_Z 64
_cell_length_a 15.258915
_cell_length_b 15.080107
_cell_length_c 12.715901
_cell_angle_alpha 90.000000
_cell_angle_beta 70.057886
_cell_angle_gamma 90.000000
_cell_volume 2750.555921
_symmetry_space_group_name_H-M "C 2/M"
_symmetry_group_IT_number 12
_symmetry_cell_setting 'monoclinic'
loop_
_space_group_symop_operation_xyz
x,y,z
-x,y,-z
-x,-y,-z
x,-y,z
1/2+x,1/2+y,z
1/2-x,1/2+y,-z
1/2-x,1/2-y,-z
1/2+x,1/2-y,z
loop_
_atom_site_type_symbol
_atom_site_label
_atom_site_fract_x
_atom_site_fract_y
_atom_site_fract_z
Si Si1 0.166057 0.892178 0.418389
Si Si2 0.094248 0.890817 0.668653
Si Si3 0.264601 0.901697 0.728834
Si Si4 0.388537 0.190740 0.045368
Si Si5 0.758870 0.143838 0.035940
Si Si6 0.369886 0.107289 0.281985
Si Si7 0.606347 0.394052 0.213220
Si Si8 0.969436 0.391597 0.630203
O O1 0.105088 0.863637 0.542856
O O2 0.275090 0.870253 0.383071
O O3 0.136051 0.860392 0.315648
O O4 0.158997 0.000000 0.420677
O O5 0.183489 0.857293 0.695457
O O6 0.998690 0.861355 0.761875
O O7 0.094856 0.000000 0.672005
O O8 0.234138 0.911532 0.861173
O O9 0.365014 0.857418 0.688757
O O10 0.277873 0.000000 0.675106
O O11 0.311111 0.267830 0.059627
O O12 0.369456 0.144196 0.164212
O O13 0.500000 0.211229 0.000000
O O14 0.348674 0.135102 0.961376
O O15 0.823118 0.122422 0.909797
O O16 0.457743 0.139874 0.312728
O O17 0.372498 0.000000 0.272977
O O18 0.602115 0.500000 0.224636
O O19 0.969247 0.500000 0.638939
O O20 0.000000 0.369695 0.500000
#
# Coordination Sequence:
#
# PCOD9184189 Si02
#       8
#     8   8   8   8   8   8   8   8
#     4   9  16  30  53  85 120 146 182 236 288 341
#     4   9  18  30  51  86 121 153 186 228 285 341
#     4  10  20  34  55  86 120 152 192 241 285 342
#     4  11  25  42  59  82 109 154 195 240 292 347
#     4  11  24  40  58  84 113 158 198 237 293 344
#     4  10  19  34  60  90 116 149 191 241 297 352
#     4  10  19  33  57  88 120 152 192 240 286 341
#     4   9  17  31  56  91 124 153 189 239 298 350
#
# _framework density 23.268022999999999
#
# number of rings (size 3 to 8) (size 9 to 14) (size 15 to 20)
#    0.000    2.125    1.250    2.250    1.750    5.250 
#    0.000    1.875    0.000    3.000    0.000    0.000 
#    0.000    0.000    0.000    0.000    0.000    0.500 
#
# Total GULP energy -178512.302915 kJ/mol
# GULP energy per Si atom -5578.509466 kJ/mol
# Density = 2.321506 g / cm^3
# Si number density = 23.268023 Si / 1000 Ang^3
#
#
#
# Elastic Constant Matrix: (Units=GPa)
#
#
# Indices 1 2 3 4 5 6 
#
# 1 164.7562 17.7722 54.9343 0.0000 -1.0285 0.0000
# 2 17.7722 26.7308 8.0954 0.0000 1.5272 0.0000
# 3 54.9343 8.0954 106.8417 0.0000 4.5476 0.0000
# 4 0.0000 0.0000 0.0000 36.2657 0.0000 6.6401
# 5 -1.0285 1.5272 4.5476 0.0000 40.4304 0.0000
# 6 0.0000 0.0000 0.0000 6.6401 0.0000 6.2694
#
#
#
# Elastic Compliance Matrix: (Units=1/GPa)
#
#
# Indices 1 2 3 4 5 6 
#
# 1 0.007751 -0.004074 -0.003709 0.000000 0.000768 0.000000
# 2 -0.004074 0.040481 -0.000908 0.000000 -0.001531 0.000000
# 3 -0.003709 -0.000908 0.011393 0.000000 -0.001342 0.000000
# 4 0.000000 0.000000 0.000000 0.034208 0.000000 -0.036231
# 5 0.000768 -0.001531 -0.001342 0.000000 0.024962 0.000000
# 6 0.000000 0.000000 0.000000 -0.036231 0.000000 0.197879
#
#
# Mechanical properties :
#
#
# Convention : Reuss Voigt Hill
#
# Bulk Modulus (GPa) = 23.67243 51.10362 37.38802
# Shear Modulus (GPa) = 14.36225 31.09489 22.72857
#
# Velocity S-wave (km/s) = 2.48715 3.65962 3.12880
# Velocity P-wave (km/s) = 4.29462 6.31409 5.39961
#
# Compressibility (1/GPa) = 0.04224324
#
# Stress axis : x y z
#
# Youngs Moduli (GPa) = 129.02390 24.70318 87.77631
#
# Poissons Ratio (x) = 0.10063 0.32557
# Poissons Ratio (y) = 0.52559 0.07966
# Poissons Ratio (z) = 0.47856 0.02242
#
# Static dielectric constant tensor:
#      x y z
#    x 1.896760 0.000000 0.009160 
#    y 0.000000 2.077360 0.000000 
#    z 0.009160 0.000000 1.846610 
# 
# From -- ./inp_files/147623.got.cif
#   From: 2010.05.17/outbox.cif.g08.bks.cpg/sg12_74_cif.got.tgz:147623.got - 2010.06.03 13:09:07.
