data_PCOD9184408
_publ_section_title
;
Structure prediction by ZEFSAII (Michael W. Deem and Ramdas Pophale) SiO2 
 PCOD9184408
Probable space group: C 2/M
;
_chemical_formula_sum "Si O2"
_cell_formula_units_Z 56
_cell_length_a 15.151344
_cell_length_b 13.529791
_cell_length_c 28.834578
_cell_angle_alpha 90.000000
_cell_angle_beta 27.580991
_cell_angle_gamma 90.000000
_cell_volume 2736.772567
_symmetry_space_group_name_H-M "C 2/M"
_symmetry_group_IT_number 12
_symmetry_cell_setting 'monoclinic'
loop_
_space_group_symop_operation_xyz
x,y,z
-x,y,-z
-x,-y,-z
x,-y,z
1/2+x,1/2+y,z
1/2-x,1/2+y,-z
1/2-x,1/2-y,-z
1/2+x,1/2-y,z
loop_
_atom_site_type_symbol
_atom_site_label
_atom_site_fract_x
_atom_site_fract_y
_atom_site_fract_z
Si Si1 0.021471 0.303535 0.092688
Si Si2 0.049879 0.739098 0.618418
Si Si3 0.666305 0.612382 0.213157
Si Si4 0.182427 0.746514 0.724968
Si Si5 0.383269 0.387907 0.101426
Si Si6 0.564613 0.113017 0.697396
Si Si7 0.637824 0.384206 0.122076
O O1 0.873524 0.380698 0.139274
O O2 0.968787 0.310575 0.171236
O O3 0.946574 0.197762 0.107367
O O4 0.230361 0.329876 0.977078
O O5 0.250000 0.750000 0.500000
O O6 0.076183 0.642250 0.637974
O O7 0.978603 0.820774 0.689533
O O8 0.883118 0.744159 0.657490
O O9 0.596782 0.500000 0.244148
O O10 0.701938 0.646321 0.143887
O O11 0.175534 0.689182 0.679454
O O12 0.083122 0.853527 0.772020
O O13 0.412439 0.500000 0.106627
O O14 0.162899 0.378652 0.189525
O O15 0.500000 0.377395 0.000000
O O16 0.624465 0.000000 0.678209
O O17 0.661829 0.500000 0.104269
#
# Coordination Sequence:
#
# PCOD9184408 Si02
#       7
#     8   8   8   8   8   8   8
#     4  11  20  35  60  93 134 174 216 257 309 387
#     4  11  25  46  70  93 124 167 218 282 342 393
#     4  10  20  38  62  89 126 165 209 263 319 378
#     4  11  23  41  64  95 130 173 214 272 323 393
#     4  10  19  33  60  94 133 180 219 259 317 389
#     4  11  23  44  68  98 135 174 217 272 331 394
#     4  11  22  36  60  92 132 173 214 257 314 387
#
# _framework density 20.462059
#
# number of rings (size 3 to 8) (size 9 to 14) (size 15 to 20)
#    0.000    1.286    4.286    3.000    0.000    6.286 
#    0.000    2.143    0.000    1.714    0.000    0.000 
#    0.000    0.000    0.000    0.000    0.000    0.000 
#
# Total GULP energy -156206.667235 kJ/mol
# GULP energy per Si atom -5578.809544 kJ/mol
# Density = 2.041549 g / cm^3
# Si number density = 20.462059 Si / 1000 Ang^3
#
#
#
# Elastic Constant Matrix: (Units=GPa)
#
#
# Indices 1 2 3 4 5 6 
#
# 1 85.9907 15.0105 23.8280 -0.0001 -2.8177 -0.0003
# 2 15.0105 91.3537 8.4646 -0.0011 1.5688 0.0007
# 3 23.8280 8.4646 95.4028 -0.0011 -11.5515 -0.0059
# 4 -0.0001 -0.0011 -0.0011 6.8583 0.0001 1.0962
# 5 -2.8177 1.5688 -11.5515 0.0001 17.3126 0.0010
# 6 -0.0003 0.0007 -0.0059 1.0962 0.0010 -6.4086
#
#
#
# Elastic Compliance Matrix: (Units=1/GPa)
#
#
# Indices 1 2 3 4 5 6 
#
# 1 0.012788 -0.001827 -0.003002 -0.000001 0.000244 0.000002
# 2 -0.001827 0.011350 -0.000774 0.000001 -0.001842 0.000002
# 3 -0.003002 -0.000774 0.012238 0.000003 0.007747 -0.000009
# 4 -0.000001 0.000001 0.000003 0.141928 0.000000 0.024276
# 5 0.000244 -0.001842 0.007747 0.000000 0.063137 0.000003
# 6 0.000002 0.000002 -0.000009 0.024276 0.000003 -0.151888
#
#
# Mechanical properties :
#
#
# Convention : Reuss Voigt Hill
#
# Bulk Modulus (GPa) = 39.72987 40.81702 40.27345
# Shear Modulus (GPa) = 45.80827 18.58206 32.19516
#
# Velocity S-wave (km/s) = 4.73662 3.01678 3.97092
# Velocity P-wave (km/s) = 7.02656 5.66794 6.38350
#
# Compressibility (1/GPa) = 0.02516998
#
# Stress axis : x y z
#
# Youngs Moduli (GPa) = 78.19791 88.10552 81.70968
#
# Poissons Ratio (x) = 0.16099 0.24532
# Poissons Ratio (y) = 0.14289 0.06322
# Poissons Ratio (z) = 0.23478 0.06817
#
# Static dielectric constant tensor:
#      x y z
#    x 1.791100 0.000000 0.025080 
#    y 0.000000 1.792100 0.000000 
#    z 0.025080 0.000000 1.715490 
# 
# From -- ./inp_files/361379.got.cif
#   From: 2010.05.17/outbox.cif.g08.bks.cpg/sg12_181_cif.got.tgz:361379.got - 2010.06.03 13:09:07.
