data_PCOD9184071
_publ_section_title
;
Structure prediction by ZEFSAII (Michael W. Deem and Ramdas Pophale) SiO2 
 PCOD9184071
Probable space group: C 2/M
;
_chemical_formula_sum "Si O2"
_cell_formula_units_Z 64
_cell_length_a 17.784761
_cell_length_b 13.720928
_cell_length_c 14.327806
_cell_angle_alpha 90.000000
_cell_angle_beta 127.058858
_cell_angle_gamma 90.000000
_cell_volume 2790.122560
_symmetry_space_group_name_H-M "C 2/M"
_symmetry_group_IT_number 12
_symmetry_cell_setting 'monoclinic'
loop_
_space_group_symop_operation_xyz
x,y,z
-x,y,-z
-x,-y,-z
x,-y,z
1/2+x,1/2+y,z
1/2-x,1/2+y,-z
1/2-x,1/2-y,-z
1/2+x,1/2-y,z
loop_
_atom_site_type_symbol
_atom_site_label
_atom_site_fract_x
_atom_site_fract_y
_atom_site_fract_z
Si Si1 0.375691 0.809251 0.803518
Si Si2 0.209332 0.383599 0.443486
Si Si3 0.610876 0.385412 0.295975
Si Si4 0.589820 0.189014 0.971024
Si Si5 0.152311 0.681998 0.810434
Si Si6 0.101263 0.106609 0.784283
Si Si7 0.647403 0.605074 0.031133
Si Si8 0.469963 0.886189 0.576319
O O1 0.306011 0.850110 0.673661
O O2 0.378657 0.693660 0.778774
O O3 0.484234 0.846662 0.872540
O O4 0.358065 0.845167 0.896269
O O5 0.201867 0.500000 0.436264
O O6 0.306536 0.361695 0.568385
O O7 0.121066 0.344975 0.439188
O O8 0.619897 0.500000 0.274896
O O9 0.508558 0.376126 0.268683
O O10 0.647292 0.181579 0.919345
O O11 0.580374 0.303078 0.990637
O O12 0.138757 0.793843 0.767332
O O13 0.250081 0.634210 0.854101
O O14 0.062094 0.623435 0.708356
O O15 0.108566 0.000000 0.742837
O O16 0.153529 0.098281 0.923007
O O17 0.615412 0.500000 0.041657
O O18 0.500000 0.840694 0.500000
O O19 0.448187 0.000000 0.542727
#
# Coordination Sequence:
#
# PCOD9184071 Si02
#       8
#     8   8   8   8   8   8   8   8
#     4  11  20  36  57  85 121 159 193 237 294 353
#     4  10  21  38  58  84 118 156 202 250 292 348
#     4  10  19  33  57  83 112 156 199 240 299 352
#     4  10  21  34  56  85 120 157 197 233 284 362
#     4  11  19  37  59  82 115 156 198 240 293 362
#     4   9  17  32  54  81 111 147 192 239 291 350
#     4  10  20  35  57  84 116 153 192 244 298 346
#     4  10  21  37  57  82 113 150 198 255 306 351
#
# _framework density 22.938061000000001
#
# number of rings (size 3 to 8) (size 9 to 14) (size 15 to 20)
#    0.000    1.875    3.750    2.250    0.000    1.500 
#    0.000    5.000    0.000    1.125    0.000    0.000 
#    0.000    0.000    0.000    0.000    0.000    0.000 
#
# Total GULP energy -178510.606518 kJ/mol
# GULP energy per Si atom -5578.456454 kJ/mol
# Density = 2.288585 g / cm^3
# Si number density = 22.938061 Si / 1000 Ang^3
#
#
#
# Elastic Constant Matrix: (Units=GPa)
#
#
# Indices 1 2 3 4 5 6 
#
# 1 50.6797 3.6945 35.5707 0.0000 8.5181 0.0000
# 2 3.6945 29.8821 8.1347 0.0000 -0.2801 0.0000
# 3 35.5707 8.1347 136.2055 0.0000 5.2848 0.0000
# 4 0.0000 0.0000 0.0000 24.6927 0.0000 10.7938
# 5 8.5181 -0.2801 5.2848 0.0000 41.8735 0.0000
# 6 0.0000 0.0000 0.0000 10.7938 0.0000 12.9615
#
#
#
# Elastic Compliance Matrix: (Units=1/GPa)
#
#
# Indices 1 2 3 4 5 6 
#
# 1 0.024955 -0.001420 -0.006266 0.000000 -0.004295 0.000000
# 2 -0.001420 0.034109 -0.001695 0.000000 0.000731 0.000000
# 3 -0.006266 -0.001695 0.009075 0.000000 0.000118 0.000000
# 4 0.000000 0.000000 0.000000 0.063678 0.000000 -0.053028
# 5 -0.004295 0.000731 0.000118 0.000000 0.024745 0.000000
# 6 0.000000 0.000000 0.000000 -0.053028 0.000000 0.121311
#
#
# Mechanical properties :
#
#
# Convention : Reuss Voigt Hill
#
# Bulk Modulus (GPa) = 20.25201 34.61860 27.43531
# Shear Modulus (GPa) = 15.96975 27.19669 21.58322
#
# Velocity S-wave (km/s) = 2.64145 3.44707 3.07079
# Velocity P-wave (km/s) = 4.26042 5.56490 4.95576
#
# Compressibility (1/GPa) = 0.04937781
#
# Stress axis : x y z
#
# Youngs Moduli (GPa) = 40.07232 29.31817 110.19546
#
# Poissons Ratio (x) = 0.04163 0.69044
# Poissons Ratio (y) = 0.05690 0.18674
# Poissons Ratio (z) = 0.25108 0.04968
#
# Static dielectric constant tensor:
#      x y z
#    x 1.886260 0.000000 -0.024660 
#    y 0.000000 1.936210 0.000000 
#    z -0.024660 0.000000 1.851380 
# 
# From -- ./inp_files/225748.got.cif
#   From: 2010.05.17/outbox.cif.g08.bks.cpg/sg12_113_cif.got.tgz:225748.got - 2010.06.03 13:09:07.
