data_PCOD9184162
_publ_section_title
;
Structure prediction by ZEFSAII (Michael W. Deem and Ramdas Pophale) SiO2 
 PCOD9184162
Probable space group: C 2/M
;
_chemical_formula_sum "Si O2"
_cell_formula_units_Z 64
_cell_length_a 14.992045
_cell_length_b 8.000343
_cell_length_c 28.677561
_cell_angle_alpha 90.000000
_cell_angle_beta 52.699423
_cell_angle_gamma 90.000000
_cell_volume 2736.113257
_symmetry_space_group_name_H-M "C 2/M"
_symmetry_group_IT_number 12
_symmetry_cell_setting 'monoclinic'
loop_
_space_group_symop_operation_xyz
x,y,z
-x,y,-z
-x,-y,-z
x,-y,z
1/2+x,1/2+y,z
1/2-x,1/2+y,-z
1/2-x,1/2-y,-z
1/2+x,1/2-y,z
loop_
_atom_site_type_symbol
_atom_site_label
_atom_site_fract_x
_atom_site_fract_y
_atom_site_fract_z
Si Si1 0.150377 0.805578 0.588682
Si Si2 0.193492 0.803555 0.753935
Si Si3 0.336608 0.296479 0.841348
Si Si4 0.717279 0.203934 0.368432
Si Si5 0.446114 0.193497 0.713640
Si Si6 0.099241 0.692397 0.877972
Si Si7 0.024116 0.801627 0.543230
Si Si8 0.861020 0.196404 0.938108
O O1 0.245635 0.733125 0.592250
O O2 0.039557 0.796478 0.656485
O O3 0.116987 0.730218 0.549184
O O4 0.177465 0.000000 0.572680
O O5 0.195753 0.747193 0.699634
O O6 0.322871 0.787856 0.729641
O O7 0.121341 0.711621 0.815527
O O8 0.162067 0.000000 0.765629
O O9 0.336557 0.500000 0.839852
O O10 0.424173 0.240247 0.774284
O O11 0.211485 0.235850 0.866308
O O12 0.362338 0.233909 0.884962
O O13 0.596240 0.275063 0.394734
O O14 0.712436 0.000000 0.369855
O O15 0.478841 0.000000 0.698784
O O16 0.095044 0.500000 0.892431
O O17 0.977617 0.765217 0.926745
O O18 0.000000 0.725348 0.500000
O O19 0.045181 0.000000 0.531473
O O20 0.854563 0.000000 0.934572
O O21 0.750000 0.250000 0.000000
#
# Coordination Sequence:
#
# PCOD9184162 Si02
#       8
#     8   8   8   8   8   8   8   8
#     4  10  21  36  56  82 114 152 190 231 288 349
#     4   9  18  34  55  82 117 149 183 232 289 343
#     4   9  21  40  60  83 116 157 192 229 286 348
#     4  10  21  37  57  83 113 150 192 234 286 348
#     4  10  19  33  57  87 117 146 187 239 285 335
#     4  10  21  38  60  87 116 151 195 237 285 342
#     4  10  22  40  59  81 114 153 194 242 289 337
#     4  11  24  42  62  85 117 156 197 239 285 340
#
# _framework density 23.390844999999999
#
# number of rings (size 3 to 8) (size 9 to 14) (size 15 to 20)
#    0.000    2.125    1.250    1.125    1.750    4.250 
#    0.000    2.500    0.000    0.000    0.000    0.000 
#    0.000    0.000    0.000    0.000    0.000    0.000 
#
# Total GULP energy -178793.092571 kJ/mol
# GULP energy per Si atom -5587.284143 kJ/mol
# Density = 2.333761 g / cm^3
# Si number density = 23.390845 Si / 1000 Ang^3
#
#
#
# Elastic Constant Matrix: (Units=GPa)
#
#
# Indices 1 2 3 4 5 6 
#
# 1 105.2472 3.7108 12.1587 0.0000 2.8575 0.0001
# 2 3.7108 22.7196 2.9604 0.0001 -1.9004 0.0001
# 3 12.1587 2.9604 38.7914 0.0000 -10.8190 0.0000
# 4 0.0000 0.0001 0.0000 26.6815 0.0000 -4.5341
# 5 2.8575 -1.9004 -10.8190 0.0000 35.3506 0.0000
# 6 0.0001 0.0001 0.0000 -4.5341 0.0000 15.1269
#
#
#
# Elastic Compliance Matrix: (Units=1/GPa)
#
#
# Indices 1 2 3 4 5 6 
#
# 1 0.010017 -0.001334 -0.003590 0.000000 -0.001980 0.000000
# 2 -0.001334 0.044705 -0.002507 0.000000 0.001744 -0.000001
# 3 -0.003590 -0.002507 0.029672 0.000000 0.009236 0.000000
# 4 0.000000 0.000000 0.000000 0.039491 0.000000 0.011837
# 5 -0.001980 0.001744 0.009236 0.000000 0.031369 0.000000
# 6 0.000000 -0.000001 0.000000 0.011837 0.000000 0.069656
#
#
# Mechanical properties :
#
#
# Convention : Reuss Voigt Hill
#
# Bulk Modulus (GPa) = 14.38206 22.71311 18.54758
# Shear Modulus (GPa) = 19.01515 25.29369 22.15442
#
# Velocity S-wave (km/s) = 2.85429 3.29196 3.08090
# Velocity P-wave (km/s) = 4.12608 4.91738 4.53901
#
# Compressibility (1/GPa) = 0.06953108
#
# Stress axis : x y z
#
# Youngs Moduli (GPa) = 99.83043 22.36875 33.70234
#
# Poissons Ratio (x) = 0.02984 0.12100
# Poissons Ratio (y) = 0.13317 0.08450
# Poissons Ratio (z) = 0.35841 0.05608
#
# Static dielectric constant tensor:
#      x y z
#    x 1.927950 0.000000 0.052950 
#    y 0.000000 1.822330 0.000000 
#    z 0.052950 0.000000 1.850460 
# 
# From -- ./inp_files/375432.got.cif
#   From: 2010.05.17/outbox.cif.g08.bks.cpg/sg12_188_cif.got.tgz:375432.got - 2010.06.03 13:09:07.
