data_PCOD9184142
_publ_section_title
;
Structure prediction by ZEFSAII (Michael W. Deem and Ramdas Pophale) SiO2 
 PCOD9184142
Probable space group: C 2/M
;
_chemical_formula_sum "Si O2"
_cell_formula_units_Z 64
_cell_length_a 30.691381
_cell_length_b 8.349319
_cell_length_c 24.540654
_cell_angle_alpha 90.000000
_cell_angle_beta 29.323713
_cell_angle_gamma 90.000000
_cell_volume 3079.797413
_symmetry_space_group_name_H-M "C 2/M"
_symmetry_group_IT_number 12
_symmetry_cell_setting 'monoclinic'
loop_
_space_group_symop_operation_xyz
x,y,z
-x,y,-z
-x,-y,-z
x,-y,z
1/2+x,1/2+y,z
1/2-x,1/2+y,-z
1/2-x,1/2-y,-z
1/2+x,1/2-y,z
loop_
_atom_site_type_symbol
_atom_site_label
_atom_site_fract_x
_atom_site_fract_y
_atom_site_fract_z
Si Si1 0.660114 0.306701 0.753716
Si Si2 0.479332 0.815027 0.464092
Si Si3 0.645772 0.803609 0.495831
Si Si4 0.161511 0.813462 0.251698
Si Si5 0.828142 0.308168 0.135391
Si Si6 0.329739 0.684190 0.878384
Si Si7 0.482195 0.691620 0.886084
Si Si8 0.005906 0.689126 0.737150
O O1 0.660835 0.500000 0.752408
O O2 0.752298 0.253886 0.624444
O O3 0.654547 0.254096 0.822741
O O4 0.573391 0.251318 0.815569
O O5 0.500000 0.735927 0.500000
O O6 0.409447 0.747254 0.497418
O O7 0.577528 0.799117 0.333514
O O8 0.453244 0.000000 0.501850
O O9 0.592206 0.751331 0.608453
O O10 0.642691 0.000000 0.499260
O O11 0.229645 0.755891 0.223058
O O12 0.205854 0.812000 0.144410
O O13 0.135569 0.000000 0.290270
O O14 0.827299 0.500000 0.137194
O O15 0.900174 0.255214 0.011820
O O16 0.350264 0.500000 0.869246
O O17 0.419803 0.778217 0.793653
O O18 0.250000 0.750000 0.000000
O O19 0.478586 0.500000 0.893172
O O20 0.487201 0.738542 0.817111
O O21 0.016964 0.500000 0.732605
#
# Coordination Sequence:
#
# PCOD9184142 Si02
#       8
#     8   8   8   8   8   8   8   8
#     4  10  22  42  65  89 120 159 205 257 311 370
#     4  10  19  33  57  86 115 153 198 236 281 349
#     4   9  19  37  60  88 122 161 203 250 304 363
#     4  10  22  37  54  82 118 153 189 233 289 347
#     4  11  23  40  62  91 125 159 201 253 311 374
#     4  11  22  37  58  85 119 160 203 245 296 356
#     4  11  24  41  63  90 119 158 207 259 315 371
#     4  11  22  39  62  88 123 163 205 255 309 365
#
# _framework density 20.780588000000002
#
# number of rings (size 3 to 8) (size 9 to 14) (size 15 to 20)
#    0.000    1.625    1.250    3.375    0.000    6.750 
#    0.000    1.875    0.000    0.000    0.000    0.000 
#    0.000    0.000    0.000    0.000    0.000    0.000 
#
# Total GULP energy -178539.202140 kJ/mol
# GULP energy per Si atom -5579.350067 kJ/mol
# Density = 2.073329 g / cm^3
# Si number density = 20.780588 Si / 1000 Ang^3
#
#
#
# Elastic Constant Matrix: (Units=GPa)
#
#
# Indices 1 2 3 4 5 6 
#
# 1 92.6530 -5.2437 8.0689 -0.0043 1.5265 -0.0002
# 2 -5.2437 6.5467 -7.1517 0.0020 0.9853 -0.0056
# 3 8.0689 -7.1517 74.4592 -0.0065 5.7101 -0.0006
# 4 -0.0043 0.0020 -0.0065 16.9478 -0.0012 6.1273
# 5 1.5265 0.9853 5.7101 -0.0012 39.9017 -0.0002
# 6 -0.0002 -0.0056 -0.0006 6.1273 -0.0002 22.0344
#
#
#
# Elastic Compliance Matrix: (Units=1/GPa)
#
#
# Indices 1 2 3 4 5 6 
#
# 1 0.011330 0.008798 -0.000337 0.000001 -0.000603 0.000002
# 2 0.008798 0.179241 0.016812 -0.000033 -0.007169 0.000055
# 3 -0.000337 0.016812 0.015280 0.000002 -0.002589 0.000004
# 4 0.000001 -0.000033 0.000002 0.065600 0.000002 -0.018242
# 5 -0.000603 -0.007169 -0.002589 0.000002 0.025632 -0.000002
# 6 0.000002 0.000055 0.000004 -0.018242 -0.000002 0.050456
#
#
# Mechanical properties :
#
#
# Convention : Reuss Voigt Hill
#
# Bulk Modulus (GPa) = 3.90018 18.33400 11.11709
# Shear Modulus (GPa) = 13.07331 27.64246 20.35788
#
# Velocity S-wave (km/s) = 2.51093 3.65116 3.13335
# Velocity P-wave (km/s) = 3.20738 5.15911 4.29556
#
# Compressibility (1/GPa) = 0.25639849
#
# Stress axis : x y z
#
# Youngs Moduli (GPa) = 88.26029 5.57907 65.44521
#
# Poissons Ratio (x) = -0.04908 0.02203
# Poissons Ratio (y) = -0.77652 -1.10027
# Poissons Ratio (z) = 0.02971 -0.09380
#
# Static dielectric constant tensor:
#      x y z
#    x 1.780950 0.000000 0.109650 
#    y 0.000000 1.747130 0.000010 
#    z 0.109650 0.000010 1.978580 
# 
# From -- ./inp_files/353277.got.cif
#   From: 2010.05.17/outbox.cif.g08.bks.cpg/sg12_177_cif.got.tgz:353277.got - 2010.06.03 13:09:07.
