data_PCOD9184889
_publ_section_title
;
Structure prediction by ZEFSAII (Michael W. Deem and Ramdas Pophale) SiO2 
 PCOD9184889
Probable space group: C 2/M
;
_chemical_formula_sum "Si O2"
_cell_formula_units_Z 48
_cell_length_a 15.264461
_cell_length_b 9.414671
_cell_length_c 26.797419
_cell_angle_alpha 90.000000
_cell_angle_beta 32.809189
_cell_angle_gamma 90.000000
_cell_volume 2086.666603
_symmetry_space_group_name_H-M "C 2/M"
_symmetry_group_IT_number 12
_symmetry_cell_setting 'monoclinic'
loop_
_space_group_symop_operation_xyz
x,y,z
-x,y,-z
-x,-y,-z
x,-y,z
1/2+x,1/2+y,z
1/2-x,1/2+y,-z
1/2-x,1/2-y,-z
1/2+x,1/2-y,z
loop_
_atom_site_type_symbol
_atom_site_label
_atom_site_fract_x
_atom_site_fract_y
_atom_site_fract_z
Si Si1 0.274248 0.153948 0.036084
Si Si2 0.492020 0.166952 0.409808
Si Si3 0.369674 0.666306 0.372627
Si Si4 0.708285 0.831642 0.687471
Si Si5 0.862095 0.654007 0.167277
Si Si6 0.309033 0.343821 0.107465
O O1 0.467743 0.137712 0.942109
O O2 0.196501 0.000000 0.067998
O O3 0.250000 0.250000 0.000000
O O4 0.231768 0.231709 0.107051
O O5 0.465366 0.255472 0.371468
O O6 0.318927 0.169830 0.520224
O O7 0.625597 0.248720 0.378718
O O8 0.534021 0.000000 0.381803
O O9 0.413239 0.500000 0.345944
O O10 0.375913 0.754765 0.318490
O O11 0.614291 0.821389 0.785421
O O12 0.734085 0.000000 0.664968
O O13 0.777593 0.500000 0.202786
O O14 0.789574 0.786141 0.172518
O O15 0.239124 0.500000 0.134354
O O16 0.500000 0.353583 0.000000
#
# Coordination Sequence:
#
# PCOD9184889 Si02
#       6
#     8   8   8   8   8   8
#     4  10  19  34  55  78 105 139 181 226 272 325
#     4  10  21  38  60  86 115 151 194 238 287 340
#     4  10  21  38  60  86 116 151 194 240 283 338
#     4  11  22  37  58  85 118 154 192 235 289 344
#     4   9  20  37  54  76 108 143 179 222 273 330
#     4   9  17  31  53  77 100 131 173 217 263 318
#
# _framework density 23.003195999999999
#
# number of rings (size 3 to 8) (size 9 to 14) (size 15 to 20)
#    0.000    2.167    0.000    3.000    0.000    8.000 
#    3.000    0.000    0.000    0.000    0.000    0.000 
#    0.000    0.000    0.000    0.000    0.000    0.000 
#
# Total GULP energy -134085.610610 kJ/mol
# GULP energy per Si atom -5586.900442 kJ/mol
# Density = 2.295084 g / cm^3
# Si number density = 23.003196 Si / 1000 Ang^3
#
#
#
# Elastic Constant Matrix: (Units=GPa)
#
#
# Indices 1 2 3 4 5 6 
#
# 1 98.0212 69.5640 20.4949 0.0000 31.7067 0.0000
# 2 69.5640 213.0507 30.6462 0.0000 37.0233 0.0001
# 3 20.4949 30.6462 72.6698 -0.0002 4.9830 0.0000
# 4 0.0000 0.0000 -0.0002 18.1552 0.0000 11.7160
# 5 31.7067 37.0233 4.9830 0.0000 39.6179 0.0000
# 6 0.0000 0.0001 0.0000 11.7160 0.0000 33.8029
#
#
#
# Elastic Compliance Matrix: (Units=1/GPa)
#
#
# Indices 1 2 3 4 5 6 
#
# 1 0.016120 -0.003240 -0.002525 0.000000 -0.009556 0.000000
# 2 -0.003240 0.006566 -0.001626 0.000000 -0.003338 0.000000
# 3 -0.002525 -0.001626 0.015046 0.000000 0.001648 0.000000
# 4 0.000000 0.000000 0.000000 0.070950 0.000000 -0.024591
# 5 -0.009556 -0.003338 0.001648 0.000000 0.035801 0.000000
# 6 0.000000 0.000000 0.000000 -0.024591 0.000000 0.038106
#
#
# Mechanical properties :
#
#
# Convention : Reuss Voigt Hill
#
# Bulk Modulus (GPa) = 43.57312 69.46133 56.51723
# Shear Modulus (GPa) = 24.38787 35.85097 30.11942
#
# Velocity S-wave (km/s) = 3.25960 3.95209 3.62243
# Velocity P-wave (km/s) = 5.75760 7.14754 6.48989
#
# Compressibility (1/GPa) = 0.02294993
#
# Stress axis : x y z
#
# Youngs Moduli (GPa) = 62.03504 152.31042 66.46393
#
# Poissons Ratio (x) = 0.49342 0.16781
# Poissons Ratio (y) = 0.20097 0.10809
# Poissons Ratio (z) = 0.15663 0.24769
#
# Static dielectric constant tensor:
#      x y z
#    x 1.859640 0.000000 -0.068280 
#    y 0.000000 1.866880 0.000000 
#    z -0.068280 0.000000 1.901960 
# 
# From -- ./inp_files/360226.got.cif
#   From: 2010.05.17/outbox.cif.g08.bks.cpg/sg12_181_cif.got.tgz:360226.got - 2010.06.03 13:09:07.
