data_PCOD9184195
_publ_section_title
;
Structure prediction by ZEFSAII (Michael W. Deem and Ramdas Pophale) SiO2 
 PCOD9184195
Probable space group: C 2/M
;
_chemical_formula_sum "Si O2"
_cell_formula_units_Z 48
_cell_length_a 17.790145
_cell_length_b 31.065466
_cell_length_c 9.327293
_cell_angle_alpha 90.000000
_cell_angle_beta 150.530834
_cell_angle_gamma 90.000000
_cell_volume 2535.936938
_symmetry_space_group_name_H-M "C 2/M"
_symmetry_group_IT_number 12
_symmetry_cell_setting 'monoclinic'
loop_
_space_group_symop_operation_xyz
x,y,z
-x,y,-z
-x,-y,-z
x,-y,z
1/2+x,1/2+y,z
1/2-x,1/2+y,-z
1/2-x,1/2-y,-z
1/2+x,1/2-y,z
loop_
_atom_site_type_symbol
_atom_site_label
_atom_site_fract_x
_atom_site_fract_y
_atom_site_fract_z
Si Si1 0.236265 0.585570 0.621412
Si Si2 0.141547 0.500000 0.618847
Si Si3 0.070952 0.090029 0.328388
Si Si4 0.584989 0.758507 0.287374
Si Si5 0.369542 0.168581 0.400394
Si Si6 0.029943 0.178894 0.715370
Si Si7 0.488404 0.500000 0.314369
O O1 0.152223 0.542300 0.535121
O O2 0.282777 0.590950 0.533050
O O3 0.143821 0.625536 0.528638
O O4 0.406394 0.588312 0.974042
O O5 0.000000 0.500000 0.500000
O O6 0.308846 0.500000 0.973141
O O7 0.070299 0.043435 0.399400
O O8 0.055694 0.133278 0.397310
O O9 0.750000 0.750000 0.500000
O O10 0.594418 0.793366 0.428835
O O11 0.524813 0.714833 0.262123
O O12 0.500000 0.771792 0.000000
O O13 0.500000 0.165509 0.500000
O O14 0.209036 0.174094 0.049915
O O15 0.000000 0.191457 0.500000
O O16 0.500000 0.500000 0.500000
#
# Coordination Sequence:
#
# PCOD9184195 Si02
#       7
#     8   4   8   8   8   8   4
#     4   9  18  35  59  87 114 153 200 242 288 343
#     4  10  19  33  59  85 117 156 192 233 291 354
#     4   9  18  34  60  86 117 150 198 245 287 343
#     4  12  25  42  65  88 116 156 201 248 303 355
#     4  11  24  41  61  88 124 157 197 248 297 356
#     4  11  24  40  62  89 121 160 197 245 301 352
#     4  10  19  33  57  89 117 150 192 242 288 343
#
# _framework density 18.927914999999999
#
# number of rings (size 3 to 8) (size 9 to 14) (size 15 to 20)
#    0.000    1.667    1.667    3.000    4.667    3.333 
#    0.000    0.000    0.000    1.000    0.000    0.000 
#    0.000    0.000    0.000    0.000    0.000    0.000 
#
# Total GULP energy -133784.593364 kJ/mol
# GULP energy per Si atom -5574.358057 kJ/mol
# Density = 1.888483 g / cm^3
# Si number density = 18.927915 Si / 1000 Ang^3
#
#
#
# Elastic Constant Matrix: (Units=GPa)
#
#
# Indices 1 2 3 4 5 6 
#
# 1 193.6334 78.7827 46.5583 0.0000 20.9743 0.0000
# 2 78.7827 135.7729 26.4993 0.0000 11.8692 0.0000
# 3 46.5583 26.4993 59.4045 0.0000 -2.1249 0.0000
# 4 0.0000 0.0000 0.0000 23.9628 0.0000 3.6881
# 5 20.9743 11.8692 -2.1249 0.0000 35.0494 0.0000
# 6 0.0000 0.0000 0.0000 3.6881 0.0000 35.2612
#
#
#
# Elastic Compliance Matrix: (Units=1/GPa)
#
#
# Indices 1 2 3 4 5 6 
#
# 1 0.008213 -0.003424 -0.005055 0.000000 -0.004062 0.000000
# 2 -0.003424 0.009813 -0.001743 0.000000 -0.001380 0.000000
# 3 -0.005055 -0.001743 0.021750 0.000000 0.004934 0.000000
# 4 0.000000 0.000000 0.000000 0.042414 0.000000 -0.004436
# 5 -0.004062 -0.001380 0.004934 0.000000 0.031728 0.000000
# 6 0.000000 0.000000 0.000000 -0.004436 0.000000 0.028824
#
#
# Mechanical properties :
#
#
# Convention : Reuss Voigt Hill
#
# Bulk Modulus (GPa) = 51.72918 76.94349 64.33634
# Shear Modulus (GPa) = 29.47614 34.65271 32.06442
#
# Velocity S-wave (km/s) = 3.95052 4.28339 4.12032
# Velocity P-wave (km/s) = 6.94246 8.07480 7.52994
#
# Compressibility (1/GPa) = 0.01933145
#
# Stress axis : x y z
#
# Youngs Moduli (GPa) = 121.76103 101.90761 45.97804
#
# Poissons Ratio (x) = 0.34892 0.23241
# Poissons Ratio (y) = 0.41690 0.08015
# Poissons Ratio (z) = 0.61547 0.17765
#
# Static dielectric constant tensor:
#      x y z
#    x 1.618700 0.000000 -0.030300 
#    y 0.000000 1.243230 0.000000 
#    z -0.030300 0.000000 1.354720 
# 
# From -- ./inp_files/80900.got.cif
#   From: 2010.05.17/outbox.cif.g08.bks.cpg/sg12_41_cif.got.tgz:80900.got - 2010.06.03 13:09:07.
