data_PCOD9184358
_publ_section_title
;
Structure prediction by ZEFSAII (Michael W. Deem and Ramdas Pophale) SiO2 
 PCOD9184358
Probable space group: C 2/M
;
_chemical_formula_sum "Si O2"
_cell_formula_units_Z 64
_cell_length_a 21.073587
_cell_length_b 7.807036
_cell_length_c 34.534487
_cell_angle_alpha 90.000000
_cell_angle_beta 146.301668
_cell_angle_gamma 90.000000
_cell_volume 3152.317303
_symmetry_space_group_name_H-M "C 2/M"
_symmetry_group_IT_number 12
_symmetry_cell_setting 'monoclinic'
loop_
_space_group_symop_operation_xyz
x,y,z
-x,y,-z
-x,-y,-z
x,-y,z
1/2+x,1/2+y,z
1/2-x,1/2+y,-z
1/2-x,1/2-y,-z
1/2+x,1/2-y,z
loop_
_atom_site_type_symbol
_atom_site_label
_atom_site_fract_x
_atom_site_fract_y
_atom_site_fract_z
Si Si1 0.006969 0.709092 0.048527
Si Si2 0.350853 0.204145 0.662613
Si Si3 0.240025 0.205887 0.805927
Si Si4 0.137422 0.293848 0.419257
Si Si5 0.229265 0.293621 0.034105
Si Si6 0.592812 0.206500 0.657884
Si Si7 0.111013 0.294834 0.579899
Si Si8 0.897301 0.793797 0.187418
O O1 0.006098 0.500000 0.049702
O O2 0.129796 0.768731 0.125873
O O3 0.894999 0.768719 0.014516
O O4 0.000000 0.756357 0.000000
O O5 0.359427 0.272888 0.623001
O O6 0.232412 0.262554 0.621382
O O7 0.468676 0.250001 0.744069
O O8 0.345782 0.000000 0.658206
O O9 0.185340 0.249336 0.737170
O O10 0.163724 0.269053 0.803712
O O11 0.242965 0.000000 0.811165
O O12 0.128185 0.500000 0.412449
O O13 0.250000 0.250000 0.500000
O O14 0.027465 0.228752 0.386446
O O15 0.228434 0.500000 0.036541
O O16 0.326168 0.232446 0.113767
O O17 0.250000 0.250000 0.000000
O O18 0.613620 0.272065 0.625211
O O19 0.587471 0.000000 0.653053
O O20 0.097023 0.500000 0.574853
O O21 0.000000 0.228492 0.500000
O O22 0.889438 0.000000 0.183789
#
# Coordination Sequence:
#
# PCOD9184358 Si02
#       8
#     8   8   8   8   8   8   8   8
#     4   9  16  32  58  83 107 143 192 237 276 324
#     4  11  23  38  59  86 117 151 190 240 293 340
#     4  10  19  33  59  89 112 144 193 241 283 336
#     4  10  21  36  56  83 111 144 185 231 282 335
#     4  10  21  37  58  85 118 153 192 238 286 342
#     4  10  21  38  57  81 115 148 182 231 286 338
#     4  10  22  41  63  83 112 157 197 232 283 350
#     4  10  20  36  59  85 115 154 195 234 283 350
#
# _framework density 20.302524999999999
#
# number of rings (size 3 to 8) (size 9 to 14) (size 15 to 20)
#    0.000    2.000    2.500    1.125    0.000    4.750 
#    0.000    3.125    0.000    0.750    0.000    0.000 
#    0.000    0.000    0.000    0.000    0.000    0.000 
#
# Total GULP energy -178697.225805 kJ/mol
# GULP energy per Si atom -5584.288306 kJ/mol
# Density = 2.025632 g / cm^3
# Si number density = 20.302525 Si / 1000 Ang^3
#
#
#
# Elastic Constant Matrix: (Units=GPa)
#
#
# Indices 1 2 3 4 5 6 
#
# 1 150.7864 18.6229 66.1542 -0.0006 14.2219 0.0001
# 2 18.6229 16.4474 21.5175 -0.0002 -7.2741 -0.0018
# 3 66.1542 21.5175 154.1382 -0.0008 24.2158 0.0007
# 4 -0.0006 -0.0002 -0.0008 14.6582 0.0003 -13.5559
# 5 14.2219 -7.2741 24.2158 0.0003 34.1645 -0.0001
# 6 0.0001 -0.0018 0.0007 -13.5559 -0.0001 11.5807
#
#
#
# Elastic Compliance Matrix: (Units=1/GPa)
#
#
# Indices 1 2 3 4 5 6 
#
# 1 0.009087 -0.010049 -0.001763 0.000015 -0.004673 0.000016
# 2 -0.010049 0.114159 -0.018117 -0.000208 0.041330 -0.000223
# 3 -0.001763 -0.018117 0.011550 0.000033 -0.011310 0.000035
# 4 0.000015 -0.000208 0.000033 -0.826601 -0.000068 -0.967585
# 5 -0.004673 0.041330 -0.011310 -0.000068 0.048032 -0.000072
# 6 0.000016 -0.000223 0.000035 -0.967585 -0.000072 -1.046264
#
#
# Mechanical properties :
#
#
# Convention : Reuss Voigt Hill
#
# Bulk Modulus (GPa) = 13.34428 59.32900 36.33664
# Shear Modulus (GPa) = -3.11488 26.41917 11.65214
#
# Velocity S-wave (km/s) = -1.23999 3.61123 2.39827
# Velocity P-wave (km/s) = 2.13000 6.83183 5.06018
#
# Compressibility (1/GPa) = 0.07493848
#
# Stress axis : x y z
#
# Youngs Moduli (GPa) = 110.04369 8.75974 86.57723
#
# Poissons Ratio (x) = 0.08803 0.15265
# Poissons Ratio (y) = 1.10584 1.56849
# Poissons Ratio (z) = 0.19403 0.15870
#
# Static dielectric constant tensor:
#      x y z
#    x 1.704230 0.000000 -0.002970 
#    y 0.000000 1.752680 0.000000 
#    z -0.002970 0.000000 1.676820 
# 
# From -- ./inp_files/378339.got.cif
#   From: 2010.05.17/outbox.cif.g08.bks.cpg/sg12_190_cif.got.tgz:378339.got - 2010.06.03 13:09:07.
