data_PCOD9184638
_publ_section_title
;
Structure prediction by ZEFSAII (Michael W. Deem and Ramdas Pophale) SiO2 
 PCOD9184638
Probable space group: C 2/M
;
_chemical_formula_sum "Si O2"
_cell_formula_units_Z 48
_cell_length_a 17.147442
_cell_length_b 14.957208
_cell_length_c 19.369507
_cell_angle_alpha 90.000000
_cell_angle_beta 31.031331
_cell_angle_gamma 90.000000
_cell_volume 2560.959883
_symmetry_space_group_name_H-M "C 2/M"
_symmetry_group_IT_number 12
_symmetry_cell_setting 'monoclinic'
loop_
_space_group_symop_operation_xyz
x,y,z
-x,y,-z
-x,-y,-z
x,-y,z
1/2+x,1/2+y,z
1/2-x,1/2+y,-z
1/2-x,1/2-y,-z
1/2+x,1/2-y,z
loop_
_atom_site_type_symbol
_atom_site_label
_atom_site_fract_x
_atom_site_fract_y
_atom_site_fract_z
Si Si1 0.620915 0.697720 0.756375
Si Si2 0.617331 0.398106 0.975831
Si Si3 0.592326 0.101093 0.527486
Si Si4 0.180864 0.728890 0.262346
Si Si5 0.497323 0.602438 0.419276
Si Si6 0.815818 0.669890 0.403061
O O1 0.477915 0.639549 0.887698
O O2 0.748900 0.634810 0.624398
O O3 0.699016 0.735409 0.766726
O O4 0.590663 0.779434 0.727172
O O5 0.672751 0.500000 0.943877
O O6 0.500000 0.401959 0.000000
O O7 0.742090 0.326377 0.857779
O O8 0.459606 0.167924 0.606740
O O9 0.601993 0.108669 0.603528
O O10 0.561449 0.000000 0.530457
O O11 0.109623 0.825138 0.300618
O O12 0.500000 0.616725 0.500000
O O13 0.538670 0.500000 0.373573
O O14 0.327887 0.621742 0.521857
O O15 0.750000 0.750000 0.500000
#
# Coordination Sequence:
#
# PCOD9184638 Si02
#       6
#     8   8   8   8   8   8
#     4  10  19  34  55  79 113 142 181 217 271 322
#     4   9  19  33  53  81 114 147 175 216 275 331
#     4  11  21  32  55  83 111 141 175 223 272 325
#     4  11  19  35  55  82 110 138 181 228 271 316
#     4  11  20  34  57  81 106 141 186 229 270 314
#     4  10  19  34  53  78 111 141 175 223 272 318
#
# _framework density 18.742972000000002
#
# number of rings (size 3 to 8) (size 9 to 14) (size 15 to 20)
#    0.000    1.667    5.000    2.000    0.000    2.667 
#    0.000    0.833    0.000    6.500    0.000    0.000 
#    0.000    0.000    0.000    0.000    0.000    0.000 
#
# Total GULP energy -133894.769526 kJ/mol
# GULP energy per Si atom -5578.948730 kJ/mol
# Density = 1.870031 g / cm^3
# Si number density = 18.742972 Si / 1000 Ang^3
#
#
#
# Elastic Constant Matrix: (Units=GPa)
#
#
# Indices 1 2 3 4 5 6 
#
# 1 57.4861 0.7413 3.7340 0.0002 7.6027 -0.0002
# 2 0.7413 132.1217 54.2739 -0.0002 -2.8619 -0.0001
# 3 3.7340 54.2739 109.3784 -0.0006 10.7165 0.0001
# 4 0.0002 -0.0002 -0.0006 25.2347 0.0000 5.0851
# 5 7.6027 -2.8619 10.7165 0.0000 15.7357 0.0000
# 6 -0.0002 -0.0001 0.0001 5.0851 0.0000 1.3708
#
#
#
# Elastic Compliance Matrix: (Units=1/GPa)
#
#
# Indices 1 2 3 4 5 6 
#
# 1 0.018619 -0.000540 0.000561 -0.000002 -0.009476 0.000011
# 2 -0.000540 0.009953 -0.005489 -0.000001 0.005809 0.000007
# 3 0.000561 -0.005489 0.012827 0.000003 -0.010005 -0.000012
# 4 -0.000002 -0.000001 0.000003 0.156963 -0.000002 -0.582278
# 5 -0.009476 0.005809 -0.010005 -0.000002 0.075999 0.000007
# 6 0.000011 0.000007 -0.000012 -0.582278 0.000007 2.889563
#
#
# Mechanical properties :
#
#
# Convention : Reuss Voigt Hill
#
# Bulk Modulus (GPa) = 32.82750 46.27607 39.55178
# Shear Modulus (GPa) = 1.56985 24.48404 13.02694
#
# Velocity S-wave (km/s) = 0.91618 3.61821 2.63920
# Velocity P-wave (km/s) = 4.32108 6.49605 5.51681
#
# Compressibility (1/GPa) = 0.03046227
#
# Stress axis : x y z
#
# Youngs Moduli (GPa) = 53.70775 100.47669 77.95757
#
# Poissons Ratio (x) = 0.05427 -0.04372
# Poissons Ratio (y) = 0.02901 0.42793
# Poissons Ratio (z) = -0.03012 0.55154
#
# Static dielectric constant tensor:
#      x y z
#    x 1.715030 0.000000 0.009380 
#    y 0.000000 1.672480 0.000000 
#    z 0.009380 0.000000 1.650990 
# 
# From -- ./inp_files/278019.got.cif
#   From: 2010.05.17/outbox.cif.g08.bks.cpg/sg12_140_cif.got.tgz:278019.got - 2010.06.03 13:09:07.
