data_PCOD9184905
_publ_section_title
;
Structure prediction by ZEFSAII (Michael W. Deem and Ramdas Pophale) SiO2 
 PCOD9184905
Probable space group: C 2/M
;
_chemical_formula_sum "Si O2"
_cell_formula_units_Z 64
_cell_length_a 24.604024
_cell_length_b 8.763071
_cell_length_c 31.848860
_cell_angle_alpha 90.000000
_cell_angle_beta 30.092623
_cell_angle_gamma 90.000000
_cell_volume 3443.024587
_symmetry_space_group_name_H-M "C 2/M"
_symmetry_group_IT_number 12
_symmetry_cell_setting 'monoclinic'
loop_
_space_group_symop_operation_xyz
x,y,z
-x,y,-z
-x,-y,-z
x,-y,z
1/2+x,1/2+y,z
1/2-x,1/2+y,-z
1/2-x,1/2-y,-z
1/2+x,1/2-y,z
loop_
_atom_site_type_symbol
_atom_site_label
_atom_site_fract_x
_atom_site_fract_y
_atom_site_fract_z
Si Si1 0.651286 0.681844 0.092995
Si Si2 0.962803 0.319621 0.976650
Si Si3 0.645946 0.183411 0.275345
Si Si4 0.676135 0.183324 0.782768
Si Si5 0.918193 0.317238 0.240606
Si Si6 0.271889 0.818059 0.872318
Si Si7 0.173447 0.817838 0.612680
Si Si8 0.404889 0.816416 0.421631
O O1 0.653312 0.500000 0.088990
O O2 0.536445 0.745810 0.154168
O O3 0.666922 0.735391 0.130662
O O4 0.750000 0.750000 0.000000
O O5 0.940348 0.500000 0.984135
O O6 0.064159 0.271787 0.880598
O O7 0.854496 0.225822 0.040556
O O8 0.000000 0.302814 0.000000
O O9 0.723754 0.248837 0.258860
O O10 0.686399 0.229815 0.201701
O O11 0.520309 0.228307 0.363601
O O12 0.652551 0.000000 0.272426
O O13 0.662104 0.226934 0.743650
O O14 0.683071 0.000000 0.780874
O O15 0.929210 0.500000 0.233239
O O16 0.872963 0.260567 0.315091
O O17 0.286725 0.000000 0.866629
O O18 0.299915 0.778891 0.519742
O O19 0.111447 0.760699 0.612637
O O20 0.163284 0.000000 0.623183
O O21 0.405150 0.000000 0.415311
#
# Coordination Sequence:
#
# PCOD9184905 Si02
#       8
#     8   8   8   8   8   8   8   8
#     4  12  25  41  61  86 116 152 193 239 288 343
#     4  10  19  34  55  78 109 150 194 241 287 334
#     4  10  21  36  56  83 114 147 184 234 290 340
#     4  10  22  38  56  79 109 150 194 236 284 341
#     4  11  23  40  60  83 117 157 194 235 287 345
#     4  11  22  35  56  86 117 150 189 237 292 348
#     4  10  20  36  61  90 115 149 193 235 286 348
#     4   9  19  37  60  87 119 149 184 236 295 349
#
# _framework density 18.588307
#
# number of rings (size 3 to 8) (size 9 to 14) (size 15 to 20)
#    0.000    1.625    1.250    3.750    0.000    5.250 
#    0.000    0.625    0.000    3.750    0.000    0.000 
#    0.000    0.000    0.000    0.000    0.000    0.000 
#
# Total GULP energy -178854.545987 kJ/mol
# GULP energy per Si atom -5589.204562 kJ/mol
# Density = 1.854600 g / cm^3
# Si number density = 18.588307 Si / 1000 Ang^3
#
#
#
# Elastic Constant Matrix: (Units=GPa)
#
#
# Indices 1 2 3 4 5 6 
#
# 1 121.0295 45.5916 63.6601 -0.0016 -13.2441 0.0056
# 2 45.5916 57.2200 39.2403 -0.0018 0.7343 0.0072
# 3 63.6601 39.2403 96.9604 -0.0001 -7.9417 0.0007
# 4 -0.0016 -0.0018 -0.0001 24.0259 0.0002 -2.0065
# 5 -13.2441 0.7343 -7.9417 0.0002 32.1832 -0.0014
# 6 0.0056 0.0072 0.0007 -2.0065 -0.0014 33.7238
#
#
#
# Elastic Compliance Matrix: (Units=1/GPa)
#
#
# Indices 1 2 3 4 5 6 
#
# 1 0.015024 -0.007663 -0.006371 0.000000 0.004785 -0.000001
# 2 -0.007663 0.028392 -0.006910 0.000001 -0.005507 -0.000005
# 3 -0.006371 -0.006910 0.017443 -0.000001 0.001840 0.000002
# 4 0.000000 0.000001 -0.000001 0.041830 0.000000 0.002489
# 5 0.004785 -0.005507 0.001840 0.000000 0.033621 0.000002
# 6 -0.000001 -0.000005 0.000002 0.002489 0.000002 0.029801
#
#
# Mechanical properties :
#
#
# Convention : Reuss Voigt Hill
#
# Bulk Modulus (GPa) = 52.71131 63.57709 58.14420
# Shear Modulus (GPa) = 23.32945 26.43443 24.88194
#
# Velocity S-wave (km/s) = 3.54653 3.77517 3.66263
# Velocity P-wave (km/s) = 6.72230 7.29928 7.01672
#
# Compressibility (1/GPa) = 0.01897126
#
# Stress axis : x y z
#
# Youngs Moduli (GPa) = 66.56162 35.22174 57.32812
#
# Poissons Ratio (x) = 0.26991 0.36522
# Poissons Ratio (y) = 0.51007 0.39614
# Poissons Ratio (z) = 0.42404 0.24338
#
# Static dielectric constant tensor:
#      x y z
#    x 1.624790 0.000000 -0.000740 
#    y 0.000000 1.626910 0.000000 
#    z -0.000740 0.000000 1.635820 
# 
# From -- ./inp_files/382372.got.cif
#   From: 2010.05.17/outbox.cif.g08.bks.cpg/sg12_192_cif.got.tgz:382372.got - 2010.06.03 13:09:07.
