data_PCOD9184653
_publ_section_title
;
Structure prediction by ZEFSAII (Michael W. Deem and Ramdas Pophale) SiO2 
 PCOD9184653
Probable space group: C 2/M
;
_chemical_formula_sum "Si O2"
_cell_formula_units_Z 64
_cell_length_a 32.016780
_cell_length_b 7.677265
_cell_length_c 24.907131
_cell_angle_alpha 90.000000
_cell_angle_beta 28.517380
_cell_angle_gamma 90.000000
_cell_volume 2922.895803
_symmetry_space_group_name_H-M "C 2/M"
_symmetry_group_IT_number 12
_symmetry_cell_setting 'monoclinic'
loop_
_space_group_symop_operation_xyz
x,y,z
-x,y,-z
-x,-y,-z
x,-y,z
1/2+x,1/2+y,z
1/2-x,1/2+y,-z
1/2-x,1/2-y,-z
1/2+x,1/2-y,z
loop_
_atom_site_type_symbol
_atom_site_label
_atom_site_fract_x
_atom_site_fract_y
_atom_site_fract_z
Si Si1 0.754660 0.786581 0.718913
Si Si2 0.434734 0.212840 0.026738
Si Si3 0.849183 0.290739 0.905333
Si Si4 0.593676 0.710054 0.373243
Si Si5 0.645050 0.300479 0.494391
Si Si6 0.850932 0.304847 0.391119
Si Si7 0.959389 0.294432 0.679831
Si Si8 0.028518 0.714255 0.136742
O O1 0.661499 0.732435 0.846149
O O2 0.829069 0.727870 0.676071
O O3 0.780981 0.730620 0.629147
O O4 0.756444 0.000000 0.715241
O O5 0.436054 0.000000 0.024305
O O6 0.500000 0.269111 0.000000
O O7 0.458081 0.268779 0.939989
O O8 0.854436 0.500000 0.900077
O O9 0.912802 0.227543 0.785934
O O10 0.891903 0.230978 0.913441
O O11 0.750000 0.250000 0.000000
O O12 0.500000 0.774445 0.500000
O O13 0.593254 0.500000 0.375825
O O14 0.601054 0.762937 0.303182
O O15 0.665759 0.500000 0.485184
O O16 0.630717 0.202721 0.566086
O O17 0.553301 0.294775 0.566298
O O18 0.851187 0.500000 0.370033
O O19 0.750000 0.250000 0.500000
O O20 0.934773 0.222214 0.266385
O O21 0.975455 0.500000 0.666955
O O22 0.028717 0.500000 0.137436
#
# Coordination Sequence:
#
# PCOD9184653 Si02
#       8
#     8   8   8   8   8   8   8   8
#     4   9  19  33  52  83 117 147 191 241 287 344
#     4   9  18  32  54  82 111 147 189 236 291 343
#     4  10  22  39  57  82 116 156 197 240 294 352
#     4  10  19  34  53  80 116 152 190 236 283 339
#     4  11  21  37  60  87 118 152 191 242 297 349
#     4  11  23  40  61  89 120 153 193 242 297 357
#     4  11  22  37  55  81 119 156 193 239 293 355
#     4   9  19  37  57  83 121 152 185 242 299 345
#
# _framework density 21.896094000000002
#
# number of rings (size 3 to 8) (size 9 to 14) (size 15 to 20)
#    0.000    2.000    2.500    1.125    3.500    1.250 
#    0.000    0.000    0.000    0.000    0.000    0.875 
#    0.000    0.000    0.000    0.000    0.000    0.000 
#
# Total GULP energy -178665.719634 kJ/mol
# GULP energy per Si atom -5583.303739 kJ/mol
# Density = 2.184626 g / cm^3
# Si number density = 21.896094 Si / 1000 Ang^3
#
#
#
# Elastic Constant Matrix: (Units=GPa)
#
#
# Indices 1 2 3 4 5 6 
#
# 1 133.3429 -1.9994 100.1423 -0.0175 4.8441 0.0204
# 2 -1.9994 38.3382 5.6419 -0.0105 -2.6316 -0.0155
# 3 100.1423 5.6419 184.2660 -0.0132 3.6164 -0.0090
# 4 -0.0175 -0.0105 -0.0132 13.1870 0.0046 -0.8339
# 5 4.8441 -2.6316 3.6164 0.0046 43.3324 0.0046
# 6 0.0204 -0.0155 -0.0090 -0.8339 0.0046 20.0401
#
#
#
# Elastic Compliance Matrix: (Units=1/GPa)
#
#
# Indices 1 2 3 4 5 6 
#
# 1 0.012804 0.001646 -0.006994 0.000011 -0.000748 -0.000014
# 2 0.001646 0.026533 -0.001738 0.000022 0.001572 0.000019
# 3 -0.006994 -0.001738 0.009283 -0.000001 -0.000098 0.000010
# 4 0.000011 0.000022 -0.000001 0.076033 -0.000008 0.003164
# 5 -0.000748 0.001572 -0.000098 -0.000008 0.023265 -0.000004
# 6 -0.000014 0.000019 0.000010 0.003164 -0.000004 0.050032
#
#
# Mechanical properties :
#
#
# Convention : Reuss Voigt Hill
#
# Bulk Modulus (GPa) = 29.02924 62.61296 45.82110
# Shear Modulus (GPa) = 22.36089 32.12271 27.24180
#
# Velocity S-wave (km/s) = 3.19913 3.83437 3.53106
# Velocity P-wave (km/s) = 5.18965 6.94699 6.13161
#
# Compressibility (1/GPa) = 0.03444803
#
# Stress axis : x y z
#
# Youngs Moduli (GPa) = 78.09973 37.68872 107.72080
#
# Poissons Ratio (x) = -0.06203 0.75344
# Poissons Ratio (y) = -0.12853 0.18718
# Poissons Ratio (z) = 0.54626 0.06549
#
# Static dielectric constant tensor:
#      x y z
#    x 1.803030 -0.000010 -0.010010 
#    y -0.000010 1.855160 0.000010 
#    z -0.010010 0.000010 1.795240 
# 
# From -- ./inp_files/353308.got.cif
#   From: 2010.05.17/outbox.cif.g08.bks.cpg/sg12_177_cif.got.tgz:353308.got - 2010.06.03 13:09:07.
