data_PCOD9184059
_publ_section_title
;
Structure prediction by ZEFSAII (Michael W. Deem and Ramdas Pophale) SiO2 
 PCOD9184059
Probable space group: C 2/M
;
_chemical_formula_sum "Si O2"
_cell_formula_units_Z 56
_cell_length_a 19.623134
_cell_length_b 8.796018
_cell_length_c 19.638299
_cell_angle_alpha 90.000000
_cell_angle_beta 65.531949
_cell_angle_gamma 90.000000
_cell_volume 3085.258354
_symmetry_space_group_name_H-M "C 2/M"
_symmetry_group_IT_number 12
_symmetry_cell_setting 'monoclinic'
loop_
_space_group_symop_operation_xyz
x,y,z
-x,y,-z
-x,-y,-z
x,-y,z
1/2+x,1/2+y,z
1/2-x,1/2+y,-z
1/2-x,1/2-y,-z
1/2+x,1/2-y,z
loop_
_atom_site_type_symbol
_atom_site_label
_atom_site_fract_x
_atom_site_fract_y
_atom_site_fract_z
Si Si1 0.554718 0.684973 0.917736
Si Si2 0.514984 0.317456 0.778993
Si Si3 0.716947 0.321785 0.820721
Si Si4 0.290168 0.328475 0.545974
Si Si5 0.575753 0.181614 0.429115
Si Si6 0.879107 0.818380 0.736892
Si Si7 0.162296 0.329571 0.710910
O O1 0.556017 0.500000 0.918554
O O2 0.522909 0.725741 0.855813
O O3 0.641764 0.732772 0.891324
O O4 0.500000 0.738350 0.000000
O O5 0.525495 0.500000 0.770261
O O6 0.438393 0.280876 0.771976
O O7 0.583474 0.229222 0.715486
O O8 0.727730 0.500000 0.829339
O O9 0.796648 0.239747 0.792084
O O10 0.689356 0.291455 0.755231
O O11 0.315651 0.500000 0.518939
O O12 0.250000 0.250000 0.500000
O O13 0.357213 0.232091 0.549416
O O14 0.226325 0.337964 0.629279
O O15 0.500000 0.229833 0.500000
O O16 0.592599 0.251539 0.347311
O O17 0.573816 0.000000 0.421967
O O18 0.875522 0.000000 0.730430
O O19 0.153714 0.500000 0.744451
#
# Coordination Sequence:
#
# PCOD9184059 Si02
#       7
#     8   8   8   8   8   8   8
#     4   8  15  32  58  85 112 144 186 230 272 327
#     4   9  20  35  55  83 111 146 187 226 275 332
#     4  10  19  33  57  83 108 145 187 225 274 330
#     4  11  24  39  57  81 110 145 187 233 284 335
#     4  11  25  42  59  81 111 147 190 238 288 337
#     4  11  22  37  56  81 114 149 188 232 280 335
#     4  10  20  35  55  79 106 140 183 231 278 326
#
# _framework density 18.150829000000002
#
# number of rings (size 3 to 8) (size 9 to 14) (size 15 to 20)
#    0.000    2.000    1.429    3.000    2.000    4.000 
#    0.000    0.714    0.000   10.714    0.000    0.000 
#    0.000    0.000    0.000    0.000    0.000    0.000 
#
# Total GULP energy -156054.295235 kJ/mol
# GULP energy per Si atom -5573.367687 kJ/mol
# Density = 1.810952 g / cm^3
# Si number density = 18.150829 Si / 1000 Ang^3
#
#
#
# Elastic Constant Matrix: (Units=GPa)
#
#
# Indices 1 2 3 4 5 6 
#
# 1 157.7105 33.7670 63.0143 0.0000 -27.4574 0.0000
# 2 33.7670 33.5876 25.9875 -0.0001 -11.9048 0.0000
# 3 63.0143 25.9875 91.9652 0.0000 -27.8916 0.0000
# 4 0.0000 -0.0001 0.0000 9.5816 0.0000 4.3525
# 5 -27.4574 -11.9048 -27.8916 0.0000 28.6940 0.0000
# 6 0.0000 0.0000 0.0000 4.3525 0.0000 12.3908
#
#
#
# Elastic Compliance Matrix: (Units=1/GPa)
#
#
# Indices 1 2 3 4 5 6 
#
# 1 0.009704 -0.005454 -0.004223 0.000000 0.002918 0.000000
# 2 -0.005454 0.042367 -0.006363 0.000000 0.006174 0.000000
# 3 -0.004223 -0.006363 0.019199 0.000000 0.011981 0.000000
# 4 0.000000 0.000000 0.000000 0.124181 0.000000 -0.043621
# 5 0.002918 0.006174 0.011981 0.000000 0.051851 0.000000
# 6 0.000000 0.000000 0.000000 -0.043621 0.000000 0.096027
#
#
# Mechanical properties :
#
#
# Convention : Reuss Voigt Hill
#
# Bulk Modulus (GPa) = 25.51599 58.75567 42.13583
# Shear Modulus (GPa) = 12.87096 20.83292 16.85194
#
# Velocity S-wave (km/s) = 2.66580 3.39155 3.05034
# Velocity P-wave (km/s) = 4.85424 6.91215 5.97250
#
# Compressibility (1/GPa) = 0.03919111
#
# Stress axis : x y z
#
# Youngs Moduli (GPa) = 103.05287 23.60312 52.08656
#
# Poissons Ratio (x) = 0.12873 0.21995
# Poissons Ratio (y) = 0.56206 0.33140
# Poissons Ratio (z) = 0.43517 0.15018
#
# Static dielectric constant tensor:
#      x y z
#    x 1.593290 0.000000 -0.048900 
#    y 0.000000 1.629830 0.000000 
#    z -0.048900 0.000000 1.622630 
# 
# From -- ./inp_files/275564.got.cif
#   From: 2010.05.17/outbox.cif.g08.bks.cpg/sg12_138_cif.got.tgz:275564.got - 2010.06.03 13:09:07.
