data_PCOD9184261
_publ_section_title
;
Structure prediction by ZEFSAII (Michael W. Deem and Ramdas Pophale) SiO2 
 PCOD9184261
Probable space group: C 2/M
;
_chemical_formula_sum "Si O2"
_cell_formula_units_Z 56
_cell_length_a 22.875837
_cell_length_b 16.069788
_cell_length_c 18.211282
_cell_angle_alpha 90.000000
_cell_angle_beta 158.126666
_cell_angle_gamma 90.000000
_cell_volume 2494.130235
_symmetry_space_group_name_H-M "C 2/M"
_symmetry_group_IT_number 12
_symmetry_cell_setting 'monoclinic'
loop_
_space_group_symop_operation_xyz
x,y,z
-x,y,-z
-x,-y,-z
x,-y,z
1/2+x,1/2+y,z
1/2-x,1/2+y,-z
1/2-x,1/2-y,-z
1/2+x,1/2-y,z
loop_
_atom_site_type_symbol
_atom_site_label
_atom_site_fract_x
_atom_site_fract_y
_atom_site_fract_z
Si Si1 0.731181 0.904748 0.272760
Si Si2 0.716401 0.269114 0.312595
Si Si3 0.678193 0.832117 0.722455
Si Si4 0.071526 0.750690 0.320624
Si Si5 0.988835 0.911755 0.075930
Si Si6 0.713199 0.834112 0.087640
Si Si7 0.959181 0.906921 0.271556
O O1 0.662320 0.827355 0.240193
O O2 0.714875 0.881870 0.167787
O O3 0.910645 0.901937 0.511169
O O4 0.676596 0.000000 0.222676
O O5 0.750000 0.250000 0.500000
O O6 0.746560 0.297489 0.265222
O O7 0.885046 0.281893 0.547200
O O8 0.500000 0.859143 0.500000
O O9 0.810726 0.899735 0.896008
O O10 0.688637 0.751761 0.786957
O O11 0.001931 0.841037 0.258585
O O12 0.089819 0.828171 0.204666
O O13 0.954837 0.694293 0.138809
O O14 0.054561 0.000000 0.180345
O O15 0.000000 0.917976 0.000000
O O16 0.797415 0.886203 0.122631
O O17 0.963129 0.000000 0.247301
#
# Coordination Sequence:
#
# PCOD9184261 Si02
#       7
#     8   8   8   8   8   8   8
#     4   9  18  35  64  99 128 156 199 257 316 374
#     4   9  19  37  59  84 118 164 204 243 304 368
#     4  10  19  33  58  87 114 147 194 249 303 363
#     4  11  23  39  59  83 120 168 209 251 307 369
#     4   9  18  34  56  79 109 153 200 245 295 354
#     4  11  20  35  61  92 124 160 202 248 310 379
#     4  10  21  40  65  92 125 163 206 257 314 379
#
# _framework density 22.452717
#
# number of rings (size 3 to 8) (size 9 to 14) (size 15 to 20)
#    0.000    2.143    0.000    4.714    0.000    2.571 
#    0.000    7.857    0.000   37.286    0.000    0.000 
#    0.000    0.000    0.000    0.000    0.000    0.000 
#
# Total GULP energy -156160.831659 kJ/mol
# GULP energy per Si atom -5577.172559 kJ/mol
# Density = 2.240161 g / cm^3
# Si number density = 22.452717 Si / 1000 Ang^3
#
#
#
# Elastic Constant Matrix: (Units=GPa)
#
#
# Indices 1 2 3 4 5 6 
#
# 1 69.5307 38.3463 41.3022 0.0003 5.2487 0.0001
# 2 38.3463 158.4098 52.6446 0.0002 11.9515 -0.0002
# 3 41.3022 52.6446 119.9939 -0.0007 11.9288 -0.0013
# 4 0.0003 0.0002 -0.0007 24.8079 0.0000 -2.6359
# 5 5.2487 11.9515 11.9288 0.0000 37.8123 -0.0003
# 6 0.0001 -0.0002 -0.0013 -2.6359 -0.0003 15.6802
#
#
#
# Elastic Compliance Matrix: (Units=1/GPa)
#
#
# Indices 1 2 3 4 5 6 
#
# 1 0.019124 -0.002855 -0.005323 0.000000 -0.000073 -0.000001
# 2 -0.002855 0.007884 -0.002342 0.000000 -0.001357 0.000000
# 3 -0.005323 -0.002342 0.011404 0.000001 -0.002119 0.000001
# 4 0.000000 0.000000 0.000001 0.041043 0.000000 0.006899
# 5 -0.000073 -0.001357 -0.002119 0.000000 0.027554 0.000000
# 6 -0.000001 0.000000 0.000001 0.006899 0.000000 0.064934
#
#
# Mechanical properties :
#
#
# Convention : Reuss Voigt Hill
#
# Bulk Modulus (GPa) = 57.55805 68.05785 62.80795
# Shear Modulus (GPa) = 25.15437 30.03619 27.59528
#
# Velocity S-wave (km/s) = 3.35076 3.66150 3.50957
# Velocity P-wave (km/s) = 6.37660 6.94643 6.66760
#
# Compressibility (1/GPa) = 0.01737377
#
# Stress axis : x y z
#
# Youngs Moduli (GPa) = 52.29058 126.83317 87.69051
#
# Poissons Ratio (x) = 0.36210 0.46675
# Poissons Ratio (y) = 0.14929 0.20533
# Poissons Ratio (z) = 0.27833 0.29698
#
# Static dielectric constant tensor:
#      x y z
#    x 1.927790 0.000000 -0.090070 
#    y 0.000000 1.871780 0.000000 
#    z -0.090070 0.000000 1.918400 
# 
# From -- ./inp_files/234721.got.cif
#   From: 2010.05.17/outbox.cif.g08.bks.cpg/sg12_118_cif.got.tgz:234721.got - 2010.06.03 13:09:07.
