data_PCOD9184281
_publ_section_title
;
Structure prediction by ZEFSAII (Michael W. Deem and Ramdas Pophale) SiO2 
 PCOD9184281
Probable space group: C 2/M
;
_chemical_formula_sum "Si O2"
_cell_formula_units_Z 56
_cell_length_a 25.424875
_cell_length_b 7.686713
_cell_length_c 14.826865
_cell_angle_alpha 90.000000
_cell_angle_beta 56.146527
_cell_angle_gamma 90.000000
_cell_volume 2406.412761
_symmetry_space_group_name_H-M "C 2/M"
_symmetry_group_IT_number 12
_symmetry_cell_setting 'monoclinic'
loop_
_space_group_symop_operation_xyz
x,y,z
-x,y,-z
-x,-y,-z
x,-y,z
1/2+x,1/2+y,z
1/2-x,1/2+y,-z
1/2-x,1/2-y,-z
1/2+x,1/2-y,z
loop_
_atom_site_type_symbol
_atom_site_label
_atom_site_fract_x
_atom_site_fract_y
_atom_site_fract_z
Si Si1 0.115595 0.202450 0.231382
Si Si2 0.077180 0.286341 0.695718
Si Si3 0.531477 0.210541 0.064043
Si Si4 0.830904 0.797257 0.004747
Si Si5 0.517262 0.198718 0.578777
Si Si6 0.274582 0.205213 0.758022
Si Si7 0.213490 0.706756 0.626610
O O1 0.156528 0.273821 0.107748
O O2 0.049935 0.301387 0.305423
O O3 0.158091 0.214911 0.280146
O O4 0.100702 0.000000 0.227624
O O5 0.077679 0.500000 0.693192
O O6 0.141674 0.227598 0.681347
O O7 0.016545 0.233319 0.811865
O O8 0.067505 0.226796 0.601724
O O9 0.601506 0.281701 0.010818
O O10 0.536097 0.000000 0.061625
O O11 0.500000 0.261068 0.000000
O O12 0.815019 0.000000 0.007873
O O13 0.777108 0.721740 0.121064
O O14 0.500000 0.285043 0.500000
O O15 0.537999 0.000000 0.539373
O O16 0.248878 0.228855 0.681881
O O17 0.281739 0.000000 0.765236
O O18 0.209722 0.500000 0.639528
O O19 0.250000 0.750000 0.500000
#
# Coordination Sequence:
#
# PCOD9184281 Si02
#       7
#     8   8   8   8   8   8   8
#     4  11  23  40  62  93 126 158 202 259 316 368
#     4   9  19  37  59  87 121 156 197 243 296 361
#     4  10  19  33  58  88 117 155 200 244 293 357
#     4  10  22  39  59  89 125 158 198 252 312 368
#     4  10  21  38  63  91 119 160 204 246 301 367
#     4  11  24  42  63  88 122 166 210 251 305 372
#     4  11  24  43  65  92 125 163 208 257 305 360
#
# _framework density 23.271153000000002
#
# number of rings (size 3 to 8) (size 9 to 14) (size 15 to 20)
#    0.000    1.714    1.429    2.571    2.000    3.429 
#    0.000    2.857    0.000    0.000    0.000    0.000 
#    0.000    0.000    0.000    0.000    0.000    0.000 
#
# Total GULP energy -156541.758211 kJ/mol
# GULP energy per Si atom -5590.777079 kJ/mol
# Density = 2.321819 g / cm^3
# Si number density = 23.271153 Si / 1000 Ang^3
#
#
#
# Elastic Constant Matrix: (Units=GPa)
#
#
# Indices 1 2 3 4 5 6 
#
# 1 125.2087 -11.0678 4.0402 0.0001 24.2143 0.0002
# 2 -11.0678 54.2405 -8.3126 0.0001 2.5883 0.0006
# 3 4.0402 -8.3126 51.9261 0.0000 20.8071 0.0001
# 4 0.0001 0.0001 0.0000 16.5653 0.0000 -3.6567
# 5 24.2143 2.5883 20.8071 0.0000 47.1462 0.0000
# 6 0.0002 0.0006 0.0001 -3.6567 0.0000 9.0496
#
#
#
# Elastic Compliance Matrix: (Units=1/GPa)
#
#
# Indices 1 2 3 4 5 6 
#
# 1 0.009256 0.002468 0.001985 0.000000 -0.005765 0.000000
# 2 0.002468 0.019886 0.004783 -0.000001 -0.004470 -0.000002
# 3 0.001985 0.004783 0.024762 0.000000 -0.012210 -0.000001
# 4 0.000000 -0.000001 0.000000 0.066279 0.000000 0.026782
# 5 -0.005765 -0.004470 -0.012210 0.000000 0.029806 0.000001
# 6 0.000000 -0.000002 -0.000001 0.026782 0.000001 0.121325
#
#
# Mechanical properties :
#
#
# Convention : Reuss Voigt Hill
#
# Bulk Modulus (GPa) = 13.81682 22.29945 18.05814
# Shear Modulus (GPa) = 18.05266 30.99990 24.52628
#
# Velocity S-wave (km/s) = 2.78826 3.65378 3.24996
# Velocity P-wave (km/s) = 4.03931 5.23482 4.67544
#
# Compressibility (1/GPa) = 0.07237554
#
# Stress axis : x y z
#
# Youngs Moduli (GPa) = 108.04115 50.28596 40.38429
#
# Poissons Ratio (x) = -0.12410 -0.08017
# Poissons Ratio (y) = -0.26664 -0.19314
# Poissons Ratio (z) = -0.21448 -0.24050
#
# Static dielectric constant tensor:
#      x y z
#    x 1.845830 0.000000 0.015310 
#    y 0.000000 1.877920 0.000000 
#    z 0.015310 0.000000 1.892540 
# 
# From -- ./inp_files/238350.got.cif
#   From: 2010.05.17/outbox.cif.g08.bks.cpg/sg12_120_cif.got.tgz:238350.got - 2010.06.03 13:09:07.
