data_PCOD9184798
_publ_section_title
;
Structure prediction by ZEFSAII (Michael W. Deem and Ramdas Pophale) SiO2 
 PCOD9184798
Probable space group: C 2/M
;
_chemical_formula_sum "Si O2"
_cell_formula_units_Z 60
_cell_length_a 17.959486
_cell_length_b 12.530428
_cell_length_c 22.565811
_cell_angle_alpha 90.000000
_cell_angle_beta 42.249367
_cell_angle_gamma 90.000000
_cell_volume 3414.379090
_symmetry_space_group_name_H-M "C 2/M"
_symmetry_group_IT_number 12
_symmetry_cell_setting 'monoclinic'
loop_
_space_group_symop_operation_xyz
x,y,z
-x,y,-z
-x,-y,-z
x,-y,z
1/2+x,1/2+y,z
1/2-x,1/2+y,-z
1/2-x,1/2-y,-z
1/2+x,1/2-y,z
loop_
_atom_site_type_symbol
_atom_site_label
_atom_site_fract_x
_atom_site_fract_y
_atom_site_fract_z
Si Si1 0.980344 0.285425 0.445123
Si Si2 0.500000 0.285958 0.000000
Si Si3 0.304360 0.120023 0.127701
Si Si4 0.172466 0.115038 0.326456
Si Si5 0.850922 0.255272 0.863068
Si Si6 0.029104 0.376138 0.676417
Si Si7 0.131575 0.875592 0.031353
Si Si8 0.273665 0.624262 0.574287
O O1 0.985115 0.361889 0.385811
O O2 0.870501 0.210446 0.506171
O O3 0.000000 0.331694 0.500000
O O4 0.082277 0.205428 0.377422
O O5 0.599344 0.206377 0.925312
O O6 0.453752 0.353727 0.972113
O O7 0.246890 0.116984 0.225140
O O8 0.215066 0.162947 0.133271
O O9 0.341862 0.000000 0.090041
O O10 0.241703 0.124843 0.345680
O O11 0.113703 0.000000 0.364430
O O12 0.895448 0.201587 0.897196
O O13 0.943742 0.306209 0.765694
O O14 0.755178 0.340667 0.937096
O O15 0.013919 0.500000 0.701790
O O16 0.156727 0.346740 0.614463
O O17 0.130082 0.000000 0.048462
O O18 0.301946 0.500000 0.541075
#
# Coordination Sequence:
#
# PCOD9184798 Si02
#       8
#     8   4   8   8   8   8   8   8
#     4  10  19  35  57  79 108 144 183 226 274 331
#     4  10  22  34  56  84 116 146 178 220 282 334
#     4  10  19  34  54  82 112 140 181 230 274 320
#     4   9  17  31  54  80 106 137 178 226 275 322
#     4  10  21  37  58  81 109 149 189 230 273 324
#     4  11  22  36  54  81 113 148 185 226 279 333
#     4  10  21  39  59  81 112 150 188 225 273 333
#     4   9  19  33  53  79 107 139 178 226 279 330
#
# _framework density 17.572741000000001
#
# number of rings (size 3 to 8) (size 9 to 14) (size 15 to 20)
#    0.000    2.133    1.333    2.000    1.867    1.867 
#    0.000    1.333    0.000    0.800    0.000    0.000 
#    0.000    0.000    0.000    0.000    0.000    0.000 
#
# Total GULP energy -167175.671187 kJ/mol
# GULP energy per Si atom -5572.522373 kJ/mol
# Density = 1.753275 g / cm^3
# Si number density = 17.572741 Si / 1000 Ang^3
#
#
#
# Elastic Constant Matrix: (Units=GPa)
#
#
# Indices 1 2 3 4 5 6 
#
# 1 107.2340 28.7362 33.1112 0.0000 2.7445 0.0000
# 2 28.7362 60.0819 18.6507 0.0000 -0.1257 0.0000
# 3 33.1112 18.6507 66.4492 0.0000 8.8159 0.0000
# 4 0.0000 0.0000 0.0000 15.5973 0.0000 5.1703
# 5 2.7445 -0.1257 8.8159 0.0000 22.4275 0.0000
# 6 0.0000 0.0000 0.0000 5.1703 0.0000 23.3026
#
#
#
# Elastic Compliance Matrix: (Units=1/GPa)
#
#
# Indices 1 2 3 4 5 6 
#
# 1 0.011931 -0.004210 -0.004818 0.000000 0.000410 0.000000
# 2 -0.004210 0.019824 -0.003745 0.000000 0.002098 0.000000
# 3 -0.004818 -0.003745 0.019439 0.000000 -0.007073 0.000000
# 4 0.000000 0.000000 0.000000 0.069203 0.000000 -0.015355
# 5 0.000410 0.002098 -0.007073 0.000000 0.047330 0.000000
# 6 0.000000 0.000000 0.000000 -0.015355 0.000000 0.046320
#
#
# Mechanical properties :
#
#
# Convention : Reuss Voigt Hill
#
# Bulk Modulus (GPa) = 38.98761 43.86237 41.42499
# Shear Modulus (GPa) = 20.14970 22.48327 21.31649
#
# Velocity S-wave (km/s) = 3.38989 3.58081 3.48665
# Velocity P-wave (km/s) = 6.12833 6.48929 6.31139
#
# Compressibility (1/GPa) = 0.02564917
#
# Stress axis : x y z
#
# Youngs Moduli (GPa) = 83.81772 50.44309 51.44251
#
# Poissons Ratio (x) = 0.21236 0.24784
# Poissons Ratio (y) = 0.35286 0.19265
# Poissons Ratio (z) = 0.40382 0.18890
#
# Static dielectric constant tensor:
#      x y z
#    x 1.619270 0.000000 0.018200 
#    y 0.000000 1.587150 0.000000 
#    z 0.018200 0.000000 1.582230 
# 
# From -- ./inp_files/343365.got.cif
#   From: 2010.05.17/outbox.cif.g08.bks.cpg/sg12_172_cif.got.tgz:343365.got - 2010.06.03 13:09:07.
