data_PCOD9184557
_publ_section_title
;
Structure prediction by ZEFSAII (Michael W. Deem and Ramdas Pophale) SiO2 
 PCOD9184557
Probable space group: C 2/M
;
_chemical_formula_sum "Si O2"
_cell_formula_units_Z 48
_cell_length_a 8.949789
_cell_length_b 27.464735
_cell_length_c 22.005867
_cell_angle_alpha 90.000000
_cell_angle_beta 144.429452
_cell_angle_gamma 90.000000
_cell_volume 3146.512338
_symmetry_space_group_name_H-M "C 2/M"
_symmetry_group_IT_number 12
_symmetry_cell_setting 'monoclinic'
loop_
_space_group_symop_operation_xyz
x,y,z
-x,y,-z
-x,-y,-z
x,-y,z
1/2+x,1/2+y,z
1/2-x,1/2+y,-z
1/2-x,1/2-y,-z
1/2+x,1/2-y,z
loop_
_atom_site_type_symbol
_atom_site_label
_atom_site_fract_x
_atom_site_fract_y
_atom_site_fract_z
Si Si1 0.432295 0.302468 0.377175
Si Si2 0.677973 0.303308 1.000000
Si Si3 0.281365 0.144304 0.805566
Si Si4 0.748362 0.443218 0.874181
Si Si5 0.440899 0.644304 0.805566
Si Si6 0.423593 0.197532 0.622825
O O1 0.358461 0.342237 0.302800
O O2 0.452211 0.250000 0.351105
O O3 0.221570 0.300465 0.360785
O O4 0.706143 0.311614 0.500000
O O5 0.533015 0.331722 0.898288
O O6 0.500000 0.299924 0.000000
O O7 0.750000 0.250000 0.000000
O O8 0.939861 0.331723 0.101711
O O9 0.297691 0.087290 0.828711
O O10 0.114723 0.164984 0.807362
O O11 0.698077 0.500000 0.849039
O O12 0.517152 0.412710 0.828712
O O13 0.000000 0.437479 0.000000
O O14 0.147263 0.657763 0.697200
#
# Coordination Sequence:
#
# PCOD9184557 Si02
#       6
#     8   8   8   8   8   8
#     4  10  20  33  50  75 109 148 182 212 253 313
#     4  12  22  32  48  73 111 143 171 204 260 321
#     4  10  19  34  52  77 102 131 178 216 267 306
#     4   9  18  36  61  79 103 133 180 229 271 320
#     4  10  19  34  52  77 102 131 178 216 267 306
#     4  10  20  33  50  75 109 148 182 212 253 313
#
# _framework density 15.254985
#
# number of rings (size 3 to 8) (size 9 to 14) (size 15 to 20)
#    1.000    0.833    1.667    4.500    0.000    2.000 
#    0.000    0.000    0.000    7.000    0.000    2.333 
#    0.000    0.000    0.000    0.000    0.000    0.000 
#
# Total GULP energy -133718.219793 kJ/mol
# GULP energy per Si atom -5571.592491 kJ/mol
# Density = 1.522026 g / cm^3
# Si number density = 15.254985 Si / 1000 Ang^3
#
#
#
# Elastic Constant Matrix: (Units=GPa)
#
#
# Indices 1 2 3 4 5 6 
#
# 1 108.8086 49.8163 49.1072 0.0001 0.6768 0.0000
# 2 49.8163 137.1015 62.1524 0.0000 0.8997 0.0000
# 3 49.1072 62.1524 79.1650 0.0002 -2.8379 0.0000
# 4 0.0001 0.0000 0.0002 17.7846 0.0001 -0.2566
# 5 0.6768 0.8997 -2.8379 0.0001 34.2335 0.0000
# 6 0.0000 0.0000 0.0000 -0.2566 0.0000 21.3084
#
#
#
# Elastic Compliance Matrix: (Units=1/GPa)
#
#
# Indices 1 2 3 4 5 6 
#
# 1 0.013023 -0.001633 -0.006824 0.000000 -0.000780 0.000000
# 2 -0.001633 0.011566 -0.008101 0.000000 -0.000943 0.000000
# 3 -0.006824 -0.008101 0.023307 0.000000 0.002280 0.000000
# 4 0.000000 0.000000 0.000000 0.056238 0.000000 0.000677
# 5 -0.000780 -0.000943 0.002280 0.000000 0.029440 0.000000
# 6 0.000000 0.000000 0.000000 0.000677 0.000000 0.046938
#
#
# Mechanical properties :
#
#
# Convention : Reuss Voigt Hill
#
# Bulk Modulus (GPa) = 67.66403 71.91412 69.78908
# Shear Modulus (GPa) = 22.87752 25.59858 24.23805
#
# Velocity S-wave (km/s) = 3.87677 4.10084 3.99038
# Velocity P-wave (km/s) = 8.03061 8.34663 8.19015
#
# Compressibility (1/GPa) = 0.01477890
#
# Stress axis : x y z
#
# Youngs Moduli (GPa) = 76.78814 86.46025 42.90594
#
# Poissons Ratio (x) = 0.14121 0.29279
# Poissons Ratio (y) = 0.12541 0.34759
# Poissons Ratio (z) = 0.52400 0.70043
#
# Static dielectric constant tensor:
#      x y z
#    x 1.514820 0.000000 -0.000460 
#    y 0.000000 1.488170 0.000000 
#    z -0.000460 0.000000 1.508460 
# 
# From -- ./inp_files/302582.got.cif
#   From: 2010.05.17/outbox.cif.g08.bks.cpg/sg12_152_cif.got.tgz:302582.got - 2010.06.03 13:09:07.
