data_PCOD9184840
_publ_section_title
;
Structure prediction by ZEFSAII (Michael W. Deem and Ramdas Pophale) SiO2 
 PCOD9184840
Probable space group: C 2/M
;
_chemical_formula_sum "Si O2"
_cell_formula_units_Z 64
_cell_length_a 19.485112
_cell_length_b 7.336821
_cell_length_c 22.174279
_cell_angle_alpha 90.000000
_cell_angle_beta 129.745366
_cell_angle_gamma 90.000000
_cell_volume 2437.398577
_symmetry_space_group_name_H-M "C 2/M"
_symmetry_group_IT_number 12
_symmetry_cell_setting 'monoclinic'
loop_
_space_group_symop_operation_xyz
x,y,z
-x,y,-z
-x,-y,-z
x,-y,z
1/2+x,1/2+y,z
1/2-x,1/2+y,-z
1/2-x,1/2-y,-z
1/2+x,1/2-y,z
loop_
_atom_site_type_symbol
_atom_site_label
_atom_site_fract_x
_atom_site_fract_y
_atom_site_fract_z
Si Si1 0.990802 0.711975 0.785377
Si Si2 0.678106 0.791394 0.874661
Si Si3 0.942718 0.210108 0.551837
Si Si4 0.367465 0.722563 0.964151
Si Si5 0.938558 0.218660 0.880797
Si Si6 0.807198 0.222241 0.382033
Si Si7 0.150247 0.721081 0.383116
Si Si8 0.868769 0.220921 0.289868
O O1 0.006177 0.500000 0.781019
O O2 0.088395 0.793579 0.851731
O O3 0.925766 0.721201 0.805769
O O4 0.940194 0.788968 0.700031
O O5 0.775505 0.710095 0.940393
O O6 0.660189 0.789519 0.792098
O O7 0.684189 0.000000 0.898835
O O8 0.899325 0.282946 0.466093
O O9 0.861592 0.217042 0.555091
O O10 0.032124 0.285061 0.633220
O O11 0.964848 0.000000 0.552143
O O12 0.366862 0.500000 0.964929
O O13 0.373674 0.779005 0.897362
O O14 0.460934 0.780334 0.045341
O O15 0.938619 0.000000 0.881275
O O16 0.728304 0.282451 0.382164
O O17 0.806158 0.275250 0.311317
O O18 0.806437 0.000000 0.382213
O O19 0.152256 0.500000 0.385349
O O20 0.868928 0.000000 0.285244
#
# Coordination Sequence:
#
# PCOD9184840 Si02
#       8
#     8   8   8   8   8   8   8   8
#     4  10  21  34  50  75 108 141 168 202 253 305
#     4  10  20  36  54  73 104 141 171 203 252 306
#     4  10  19  34  55  76 100 131 172 218 257 298
#     4   8  17  35  57  79 103 134 168 208 253 296
#     4   9  18  35  58  80 102 131 171 211 249 295
#     4   9  19  34  53  75 101 135 171 212 261 304
#     4  10  20  35  52  73 105 141 170 203 255 310
#     4  10  20  34  53  77 102 131 172 217 257 299
#
# _framework density 26.257501999999999
#
# number of rings (size 3 to 8) (size 9 to 14) (size 15 to 20)
#    0.000    2.500    1.250    1.500    1.750    3.000 
#    0.000    3.125    0.000    1.500    0.000    0.000 
#    0.000    0.000    0.000    0.000    0.000    0.000 
#
# Total GULP energy -178903.963071 kJ/mol
# GULP energy per Si atom -5590.748846 kJ/mol
# Density = 2.619774 g / cm^3
# Si number density = 26.257502 Si / 1000 Ang^3
#
#
#
# Elastic Constant Matrix: (Units=GPa)
#
#
# Indices 1 2 3 4 5 6 
#
# 1 116.2312 -2.9575 6.9816 0.0000 -4.8735 0.0000
# 2 -2.9575 112.3473 -3.6912 0.0000 6.5026 0.0000
# 3 6.9816 -3.6912 37.7709 0.0000 -10.6436 0.0000
# 4 0.0000 0.0000 0.0000 2.3826 0.0000 -8.4948
# 5 -4.8735 6.5026 -10.6436 0.0000 52.9582 0.0000
# 6 0.0000 0.0000 0.0000 -8.4948 0.0000 8.1908
#
#
#
# Elastic Compliance Matrix: (Units=1/GPa)
#
#
# Indices 1 2 3 4 5 6 
#
# 1 0.008716 0.000153 -0.001458 0.000000 0.000490 0.000000
# 2 0.000153 0.008980 0.000575 0.000000 -0.000973 0.000000
# 3 -0.001458 0.000575 0.028349 0.000000 0.005493 0.000000
# 4 0.000000 0.000000 0.000000 -0.155582 0.000000 -0.161356
# 5 0.000490 -0.000973 0.005493 0.000000 0.020151 0.000000
# 6 0.000000 0.000000 0.000000 -0.161356 0.000000 -0.045256
#
#
# Mechanical properties :
#
#
# Convention : Reuss Voigt Hill
#
# Bulk Modulus (GPa) = 22.42881 29.66836 26.04858
# Shear Modulus (GPa) = -42.25771 30.44075 -5.90848
#
# Velocity S-wave (km/s) = -4.01603 3.40857 -1.50170
# Velocity P-wave (km/s) = 3.59782 5.17829 2.63347
#
# Compressibility (1/GPa) = 0.04458551
#
# Stress axis : x y z
#
# Youngs Moduli (GPa) = 114.73722 111.35588 35.27467
#
# Poissons Ratio (x) = -0.01705 0.05143
# Poissons Ratio (y) = -0.01757 -0.02029
# Poissons Ratio (z) = 0.16727 -0.06404
#
# Static dielectric constant tensor:
#      x y z
#    x 2.066440 0.000000 0.051730 
#    y 0.000000 1.972310 0.000000 
#    z 0.051730 0.000000 2.043200 
# 
# From -- ./inp_files/346078.got.cif
#   From: 2010.05.17/outbox.cif.g08.bks.cpg/sg12_174_cif.got.tgz:346078.got - 2010.06.03 13:09:07.
