data_PCOD9184925
_publ_section_title
;
Structure prediction by ZEFSAII (Michael W. Deem and Ramdas Pophale) SiO2 
 PCOD9184925
Probable space group: C 2/M
;
_chemical_formula_sum "Si O2"
_cell_formula_units_Z 48
_cell_length_a 21.158080
_cell_length_b 7.568882
_cell_length_c 29.814900
_cell_angle_alpha 90.000000
_cell_angle_beta 150.754325
_cell_angle_gamma 90.000000
_cell_volume 2332.679894
_symmetry_space_group_name_H-M "C 2/M"
_symmetry_group_IT_number 12
_symmetry_cell_setting 'monoclinic'
loop_
_space_group_symop_operation_xyz
x,y,z
-x,y,-z
-x,-y,-z
x,-y,z
1/2+x,1/2+y,z
1/2-x,1/2+y,-z
1/2-x,1/2-y,-z
1/2+x,1/2-y,z
loop_
_atom_site_type_symbol
_atom_site_label
_atom_site_fract_x
_atom_site_fract_y
_atom_site_fract_z
Si Si1 0.476848 0.215700 0.934060
Si Si2 0.231476 0.287946 0.040611
Si Si3 0.226099 0.290560 0.432888
Si Si4 0.685797 0.283784 0.739961
Si Si5 0.479936 0.283508 0.538609
Si Si6 0.569558 0.709285 0.762523
O O1 0.334898 0.272029 0.830326
O O2 0.476974 0.000000 0.933862
O O3 0.500000 0.268646 0.000000
O O4 0.595204 0.276438 0.976478
O O5 0.229067 0.500000 0.043103
O O6 0.348028 0.220861 0.144495
O O7 0.250000 0.250000 0.000000
O O8 0.228291 0.500000 0.429832
O O9 0.250000 0.250000 0.500000
O O10 0.344888 0.221628 0.476654
O O11 0.083864 0.232276 0.330089
O O12 0.684373 0.500000 0.739316
O O13 0.596485 0.228166 0.643386
O O14 0.623162 0.222231 0.748135
O O15 0.500000 0.226876 0.500000
O O16 0.478560 0.500000 0.537883
O O17 0.593763 0.500000 0.776041
#
# Coordination Sequence:
#
# PCOD9184925 Si02
#       6
#     8   8   8   8   8   8
#     4   9  15  27  51  79  99 128 181 229 261 302
#     4  10  21  35  54  81 113 142 175 224 276 324
#     4  11  21  34  56  83 110 141 180 223 267 321
#     4   9  15  27  50  76 102 132 174 224 265 304
#     4   9  18  31  48  76 108 134 168 221 272 304
#     4  10  19  34  55  79 107 144 183 220 267 319
#
# _framework density 20.577192
#
# number of rings (size 3 to 8) (size 9 to 14) (size 15 to 20)
#    0.000    2.333    3.333    0.500    0.000    2.000 
#    0.000    3.333    0.000    3.500    0.000    0.000 
#    0.000    0.000    0.000    0.000    0.000    0.000 
#
# Total GULP energy -134018.195143 kJ/mol
# GULP energy per Si atom -5584.091464 kJ/mol
# Density = 2.053036 g / cm^3
# Si number density = 20.577192 Si / 1000 Ang^3
#
#
#
# Elastic Constant Matrix: (Units=GPa)
#
#
# Indices 1 2 3 4 5 6 
#
# 1 217.0126 1.9577 148.7045 -0.0001 -1.0138 0.0005
# 2 1.9577 44.0936 3.0728 -0.0003 -3.0995 0.0021
# 3 148.7045 3.0728 244.3979 0.0001 5.3002 0.0001
# 4 -0.0001 -0.0003 0.0001 14.2698 0.0000 1.3029
# 5 -1.0138 -3.0995 5.3002 0.0000 39.0436 -0.0001
# 6 0.0005 0.0021 0.0001 1.3029 -0.0001 16.9729
#
#
#
# Elastic Compliance Matrix: (Units=1/GPa)
#
#
# Indices 1 2 3 4 5 6 
#
# 1 0.007932 0.000046 -0.004846 0.000000 0.000867 0.000000
# 2 0.000046 0.022833 -0.000356 0.000001 0.001862 -0.000003
# 3 -0.004846 -0.000356 0.007069 0.000000 -0.001114 0.000000
# 4 0.000000 0.000001 0.000000 0.070573 0.000000 -0.005417
# 5 0.000867 0.001862 -0.001114 0.000000 0.025934 0.000000
# 6 0.000000 -0.000003 0.000000 -0.005417 0.000000 0.059333
#
#
# Mechanical properties :
#
#
# Convention : Reuss Voigt Hill
#
# Bulk Modulus (GPa) = 36.33256 90.33046 63.33151
# Shear Modulus (GPa) = 23.45682 37.50854 30.48268
#
# Velocity S-wave (km/s) = 3.37997 4.27408 3.85305
# Velocity P-wave (km/s) = 5.73823 8.26745 7.11611
#
# Compressibility (1/GPa) = 0.02752352
#
# Stress axis : x y z
#
# Youngs Moduli (GPa) = 126.06992 43.79695 141.46883
#
# Poissons Ratio (x) = -0.00204 0.68552
# Poissons Ratio (y) = -0.00586 0.05033
# Poissons Ratio (z) = 0.61090 0.01558
#
# Static dielectric constant tensor:
#      x y z
#    x 1.701130 0.000000 0.012200 
#    y 0.000000 1.800430 0.000000 
#    z 0.012200 0.000000 1.698870 
# 
# From -- ./inp_files/329010.got.cif
#   From: 2010.05.17/outbox.cif.g08.bks.cpg/sg12_165_cif.got.tgz:329010.got - 2010.06.03 13:09:07.
