data_PCOD9184456
_publ_section_title
;
Structure prediction by ZEFSAII (Michael W. Deem and Ramdas Pophale) SiO2 
 PCOD9184456
Probable space group: C 2/M
;
_chemical_formula_sum "Si O2"
_cell_formula_units_Z 48
_cell_length_a 24.986838
_cell_length_b 8.777852
_cell_length_c 14.725093
_cell_angle_alpha 90.000000
_cell_angle_beta 69.764241
_cell_angle_gamma 90.000000
_cell_volume 3030.322338
_symmetry_space_group_name_H-M "C 2/M"
_symmetry_group_IT_number 12
_symmetry_cell_setting 'monoclinic'
loop_
_space_group_symop_operation_xyz
x,y,z
-x,y,-z
-x,-y,-z
x,-y,z
1/2+x,1/2+y,z
1/2-x,1/2+y,-z
1/2-x,1/2-y,-z
1/2+x,1/2-y,z
loop_
_atom_site_type_symbol
_atom_site_label
_atom_site_fract_x
_atom_site_fract_y
_atom_site_fract_z
Si Si1 0.079512 0.683305 0.509804
Si Si2 0.235462 0.683217 0.225145
Si Si3 0.300904 0.817842 0.031313
Si Si4 0.289157 0.183580 0.555482
Si Si5 0.122514 0.317135 0.173310
Si Si6 0.469076 0.318529 0.648851
O O1 0.074999 0.500000 0.508460
O O2 0.144325 0.725565 0.494501
O O3 0.062977 0.749368 0.420717
O O4 0.032534 0.749826 0.605795
O O5 0.239772 0.500000 0.218993
O O6 0.287961 0.753313 0.138265
O O7 0.230827 0.732417 0.332087
O O8 0.176302 0.722546 0.207533
O O9 0.296293 0.000000 0.035034
O O10 0.250000 0.750000 0.000000
O O11 0.357630 0.779021 0.940828
O O12 0.250000 0.250000 0.500000
O O13 0.286268 0.000000 0.555054
O O14 0.114714 0.500000 0.184496
O O15 0.067175 0.233618 0.243262
O O16 0.471175 0.500000 0.640043
#
# Coordination Sequence:
#
# PCOD9184456 Si02
#       6
#     8   8   8   8   8   8
#     4  10  19  34  49  63  92 130 160 188 237 290
#     4   9  17  31  46  64  93 125 159 194 233 280
#     4   9  17  27  42  65  92 123 157 190 231 282
#     4  10  21  35  51  70  93 127 165 199 235 279
#     4   9  16  29  45  64  95 129 156 183 230 293
#     4  11  20  28  45  73  97 120 157 199 236 275
#
# _framework density 15.8399
#
# number of rings (size 3 to 8) (size 9 to 14) (size 15 to 20)
#    0.000    2.333    1.667    4.500    0.000    5.333 
#    0.000    0.000    0.000    0.000    0.000    1.167 
#    0.000    9.333    0.000    0.000    0.000    0.000 
#
# Total GULP energy -133758.287999 kJ/mol
# GULP energy per Si atom -5573.262000 kJ/mol
# Density = 1.580385 g / cm^3
# Si number density = 15.839900 Si / 1000 Ang^3
#
#
#
# Elastic Constant Matrix: (Units=GPa)
#
#
# Indices 1 2 3 4 5 6 
#
# 1 81.9463 34.4610 69.0988 0.0000 -13.8397 0.0000
# 2 34.4610 53.7696 48.3576 0.0000 -15.3134 0.0000
# 3 69.0988 48.3576 148.4167 0.0000 -32.0615 0.0000
# 4 0.0000 0.0000 0.0000 28.8119 0.0000 -2.8338
# 5 -13.8397 -15.3134 -32.0615 0.0000 25.9330 0.0000
# 6 0.0000 0.0000 0.0000 -2.8338 0.0000 19.6869
#
#
#
# Elastic Compliance Matrix: (Units=1/GPa)
#
#
# Indices 1 2 3 4 5 6 
#
# 1 0.021907 -0.007284 -0.008499 0.000000 -0.003118 0.000000
# 2 -0.007284 0.029620 -0.004531 0.000000 0.008001 0.000000
# 3 -0.008499 -0.004531 0.014481 0.000000 0.010691 0.000000
# 4 0.000000 0.000000 0.000000 0.035206 0.000000 0.005068
# 5 -0.003118 0.008001 0.010691 0.000000 0.054840 0.000000
# 6 0.000000 0.000000 0.000000 0.005068 0.000000 0.051525
#
#
# Mechanical properties :
#
#
# Convention : Reuss Voigt Hill
#
# Bulk Modulus (GPa) = 39.40396 65.32972 52.36684
# Shear Modulus (GPa) = 19.48051 23.70070 21.59061
#
# Velocity S-wave (km/s) = 3.51071 3.87236 3.69596
# Velocity P-wave (km/s) = 6.43147 7.83114 7.16557
#
# Compressibility (1/GPa) = 0.02537816
#
# Stress axis : x y z
#
# Youngs Moduli (GPa) = 45.64853 33.76087 69.05683
#
# Poissons Ratio (x) = 0.24592 0.58694
# Poissons Ratio (y) = 0.33251 0.31291
# Poissons Ratio (z) = 0.38798 0.15298
#
# Static dielectric constant tensor:
#      x y z
#    x 1.502100 0.000000 -0.026720 
#    y 0.000000 1.530870 0.000000 
#    z -0.026720 0.000000 1.568260 
# 
# From -- ./inp_files/236625.got.cif
#   From: 2010.05.17/outbox.cif.g08.bks.cpg/sg12_119_cif.got.tgz:236625.got - 2010.06.03 13:09:07.
