data_PCOD9184062
_publ_section_title
;
Structure prediction by ZEFSAII (Michael W. Deem and Ramdas Pophale) SiO2 
 PCOD9184062
Probable space group: C 2/M
;
_chemical_formula_sum "Si O2"
_cell_formula_units_Z 48
_cell_length_a 19.640619
_cell_length_b 8.903217
_cell_length_c 16.019773
_cell_angle_alpha 90.000000
_cell_angle_beta 76.746305
_cell_angle_gamma 90.000000
_cell_volume 2726.678787
_symmetry_space_group_name_H-M "C 2/M"
_symmetry_group_IT_number 12
_symmetry_cell_setting 'monoclinic'
loop_
_space_group_symop_operation_xyz
x,y,z
-x,y,-z
-x,-y,-z
x,-y,z
1/2+x,1/2+y,z
1/2-x,1/2+y,-z
1/2-x,1/2-y,-z
1/2+x,1/2-y,z
loop_
_atom_site_type_symbol
_atom_site_label
_atom_site_fract_x
_atom_site_fract_y
_atom_site_fract_z
Si Si1 0.692930 0.320736 0.274263
Si Si2 0.160537 0.821409 0.770216
Si Si3 0.413187 0.820422 0.369350
Si Si4 0.017722 0.179496 0.900908
Si Si5 0.182449 0.179437 0.473717
Si Si6 0.055185 0.679273 0.237367
O O1 0.697320 0.500000 0.264474
O O2 0.765172 0.245403 0.225379
O O3 0.684207 0.284962 0.375217
O O4 0.626407 0.257585 0.244366
O O5 0.135147 0.742432 0.691980
O O6 0.098716 0.793708 0.854037
O O7 0.165796 0.000000 0.754774
O O8 0.385481 0.745938 0.461407
O O9 0.492511 0.784089 0.320295
O O10 0.405572 0.000000 0.375911
O O11 0.971821 0.263220 0.844498
O O12 0.005452 0.000000 0.896599
O O13 0.000000 0.224973 0.000000
O O14 0.250000 0.250000 0.500000
O O15 0.184464 0.000000 0.483076
O O16 0.063381 0.500000 0.233939
#
# Coordination Sequence:
#
# PCOD9184062 Si02
#       6
#     8   8   8   8   8   8
#     4  11  23  37  54  79 113 149 185 230 278 322
#     4  10  19  33  57  83 109 144 183 223 272 329
#     4  10  20  35  54  78 109 146 188 231 273 321
#     4   9  19  38  63  88 112 140 177 222 274 335
#     4  11  22  34  53  79 109 147 191 236 273 318
#     4  10  22  38  57  82 113 146 183 228 277 328
#
# _framework density 17.603835
#
# number of rings (size 3 to 8) (size 9 to 14) (size 15 to 20)
#    0.000    1.833    1.667    2.500    0.000    5.667 
#    0.000    4.167    0.000    0.000    0.000    0.000 
#    0.000    0.000    0.000    0.000    0.000    0.000 
#
# Total GULP energy -134055.888640 kJ/mol
# GULP energy per Si atom -5585.662027 kJ/mol
# Density = 1.756377 g / cm^3
# Si number density = 17.603835 Si / 1000 Ang^3
#
#
#
# Elastic Constant Matrix: (Units=GPa)
#
#
# Indices 1 2 3 4 5 6 
#
# 1 139.2566 53.8907 51.3546 0.0000 6.6162 0.0000
# 2 53.8907 56.3740 45.6252 0.0000 -1.1995 0.0000
# 3 51.3546 45.6252 94.6524 0.0000 -10.0859 0.0000
# 4 0.0000 0.0000 0.0000 24.0885 0.0000 -0.3665
# 5 6.6162 -1.1995 -10.0859 0.0000 17.5808 0.0000
# 6 0.0000 0.0000 0.0000 -0.3665 0.0000 29.8955
#
#
#
# Elastic Compliance Matrix: (Units=1/GPa)
#
#
# Indices 1 2 3 4 5 6 
#
# 1 0.012241 -0.009647 -0.002719 0.000000 -0.006824 0.000000
# 2 -0.009647 0.037392 -0.012921 0.000000 -0.001231 0.000000
# 3 -0.002719 -0.012921 0.019474 0.000000 0.011314 0.000000
# 4 0.000000 0.000000 0.000000 0.041521 0.000000 0.000509
# 5 -0.006824 -0.001231 0.011314 0.000000 0.065855 0.000000
# 6 0.000000 0.000000 0.000000 0.000509 0.000000 0.033456
#
#
# Mechanical properties :
#
#
# Convention : Reuss Voigt Hill
#
# Bulk Modulus (GPa) = 53.95618 65.78043 59.86830
# Shear Modulus (GPa) = 18.74836 23.60713 21.17775
#
# Velocity S-wave (km/s) = 3.26700 3.66597 3.47222
# Velocity P-wave (km/s) = 6.70431 7.44092 7.08220
#
# Compressibility (1/GPa) = 0.01853356
#
# Stress axis : x y z
#
# Youngs Moduli (GPa) = 81.69308 26.74388 51.35046
#
# Poissons Ratio (x) = 0.25799 0.13961
# Poissons Ratio (y) = 0.78806 0.66351
# Poissons Ratio (z) = 0.22210 0.34556
#
# Static dielectric constant tensor:
#      x y z
#    x 1.590820 0.000000 -0.024470 
#    y 0.000000 1.585030 0.000000 
#    z -0.024470 0.000000 1.578910 
# 
# From -- ./inp_files/221526.got.cif
#   From: 2010.05.17/outbox.cif.g08.bks.cpg/sg12_111_cif.got.tgz:221526.got - 2010.06.03 13:09:07.
