data_PCOD9184407
_publ_section_title
;
Structure prediction by ZEFSAII (Michael W. Deem and Ramdas Pophale) SiO2 
 PCOD9184407
Probable space group: C 2/M
;
_chemical_formula_sum "Si O2"
_cell_formula_units_Z 58
_cell_length_a 20.056276
_cell_length_b 17.234058
_cell_length_c 11.820989
_cell_angle_alpha 90.000000
_cell_angle_beta 37.827138
_cell_angle_gamma 90.000000
_cell_volume 2505.828479
_symmetry_space_group_name_H-M "C 2/M"
_symmetry_group_IT_number 12
_symmetry_cell_setting 'monoclinic'
loop_
_space_group_symop_operation_xyz
x,y,z
-x,y,-z
-x,-y,-z
x,-y,z
1/2+x,1/2+y,z
1/2-x,1/2+y,-z
1/2-x,1/2-y,-z
1/2+x,1/2-y,z
loop_
_atom_site_type_symbol
_atom_site_label
_atom_site_fract_x
_atom_site_fract_y
_atom_site_fract_z
Si Si1 0.626679 0.254635 0.847531
Si Si2 0.932726 0.851877 0.474488
Si Si3 0.472386 0.089060 0.779618
Si Si4 0.601254 0.380494 0.052126
Si Si5 0.500000 0.500000 0.000000
Si Si6 0.339966 0.088518 0.744992
Si Si7 0.198587 0.415494 0.790674
Si Si8 0.341793 0.813330 0.514329
O O1 0.660665 0.165702 0.788992
O O2 0.714440 0.302396 0.654153
O O3 0.500000 0.262602 0.000000
O O4 0.634355 0.294380 0.961630
O O5 0.827431 0.905798 0.634659
O O6 0.886701 0.769154 0.494257
O O7 0.000000 0.844238 0.500000
O O8 0.009731 0.880599 0.270125
O O9 0.419778 0.120262 0.733733
O O10 0.571045 0.144837 0.682224
O O11 0.510914 0.000000 0.715760
O O12 0.373284 0.085496 0.999639
O O13 0.558569 0.432106 0.003357
O O14 0.714513 0.410701 0.950638
O O15 0.342897 0.132025 0.622971
O O16 0.371978 0.000000 0.684759
O O17 0.177174 0.500000 0.763269
#
# Coordination Sequence:
#
# PCOD9184407 Si02
#       8
#     8   8   8   8   2   8   8   8
#     4  10  22  43  67  89 126 165 225 282 323 388
#     4  11  23  40  65  99 137 174 214 269 335 404
#     4  10  19  35  58  91 134 174 209 266 328 404
#     4  11  23  41  68  97 130 173 223 281 331 378
#     4  12  24  44  70  96 132 174 228 286 322 370
#     4  10  19  33  60  94 129 170 220 272 330 386
#     4  10  23  40  61  91 130 172 221 264 327 400
#     4  10  21  36  60  96 129 171 218 267 340 396
#
# _framework density 23.146038000000001
#
# number of rings (size 3 to 8) (size 9 to 14) (size 15 to 20)
#    0.000    1.655    1.379    3.310    0.966    1.655 
#    0.000   11.724    0.000    0.000    0.000    0.000 
#    0.000    0.000    0.000    0.000    0.000    0.000 
#
# Total GULP energy -161680.848939 kJ/mol
# GULP energy per Si atom -5575.201688 kJ/mol
# Density = 2.309336 g / cm^3
# Si number density = 23.146038 Si / 1000 Ang^3
#
#
#
# Elastic Constant Matrix: (Units=GPa)
#
#
# Indices 1 2 3 4 5 6 
#
# 1 81.6312 27.3946 37.7947 0.0000 -21.9509 0.0000
# 2 27.3946 118.4514 40.5756 0.0000 -13.7860 0.0000
# 3 37.7947 40.5756 175.5709 0.0000 -30.5267 0.0000
# 4 0.0000 0.0000 0.0000 18.2360 0.0000 -6.4933
# 5 -21.9509 -13.7860 -30.5267 0.0000 37.9050 0.0000
# 6 0.0000 0.0000 0.0000 -6.4933 0.0000 32.3911
#
#
#
# Elastic Compliance Matrix: (Units=1/GPa)
#
#
# Indices 1 2 3 4 5 6 
#
# 1 0.015622 -0.002246 -0.001643 0.000000 0.006907 0.000000
# 2 -0.002246 0.009609 -0.001577 0.000000 0.000924 0.000000
# 3 -0.001643 -0.001577 0.007150 0.000000 0.004233 0.000000
# 4 0.000000 0.000000 0.000000 0.059052 0.000000 0.011838
# 5 0.006907 0.000924 0.004233 0.000000 0.034127 0.000000
# 6 0.000000 0.000000 0.000000 0.011838 0.000000 0.033246
#
#
# Mechanical properties :
#
#
# Convention : Reuss Voigt Hill
#
# Bulk Modulus (GPa) = 46.62078 65.24258 55.93168
# Shear Modulus (GPa) = 28.26670 35.69899 31.98285
#
# Velocity S-wave (km/s) = 3.49841 3.93152 3.72127
# Velocity P-wave (km/s) = 6.04187 6.98983 6.53307
#
# Compressibility (1/GPa) = 0.02144966
#
# Stress axis : x y z
#
# Youngs Moduli (GPa) = 64.01262 104.06454 139.86502
#
# Poissons Ratio (x) = 0.23376 0.22978
# Poissons Ratio (y) = 0.14379 0.22050
# Poissons Ratio (z) = 0.10517 0.16406
#
# Static dielectric constant tensor:
#      x y z
#    x 1.900310 0.000000 -0.008840 
#    y 0.000000 1.713400 0.000000 
#    z -0.008840 0.000000 1.928640 
# 
# From -- ./inp_files/241299.got.cif
#   From: 2010.05.17/outbox.cif.g08.bks.cpg/sg12_121_cif.got.tgz:241299.got - 2010.06.03 13:09:07.
