data_PCOD9184873
_publ_section_title
;
Structure prediction by ZEFSAII (Michael W. Deem and Ramdas Pophale) SiO2 
 PCOD9184873
Probable space group: C 2/M
;
_chemical_formula_sum "Si O2"
_cell_formula_units_Z 58
_cell_length_a 31.383780
_cell_length_b 7.463735
_cell_length_c 23.514289
_cell_angle_alpha 90.000000
_cell_angle_beta 147.745822
_cell_angle_gamma 90.000000
_cell_volume 2939.484244
_symmetry_space_group_name_H-M "C 2/M"
_symmetry_group_IT_number 12
_symmetry_cell_setting 'monoclinic'
loop_
_space_group_symop_operation_xyz
x,y,z
-x,y,-z
-x,-y,-z
x,-y,z
1/2+x,1/2+y,z
1/2-x,1/2+y,-z
1/2-x,1/2-y,-z
1/2+x,1/2-y,z
loop_
_atom_site_type_symbol
_atom_site_label
_atom_site_fract_x
_atom_site_fract_y
_atom_site_fract_z
Si Si1 0.699201 0.206569 0.176672
Si Si2 0.500000 0.500000 0.000000
Si Si3 0.217789 0.787592 0.328927
Si Si4 0.872149 0.781095 0.343707
Si Si5 0.511235 0.718306 0.421750
Si Si6 0.911899 0.216474 0.725638
Si Si7 0.106761 0.785053 0.423837
Si Si8 0.026005 0.291586 0.946896
O O1 0.705165 0.211086 0.251673
O O2 0.781606 0.284640 0.245569
O O3 0.696268 0.000000 0.154848
O O4 0.615077 0.282790 0.060080
O O5 0.472750 0.658746 0.924369
O O6 0.156684 0.719693 0.308118
O O7 0.307151 0.752327 0.451764
O O8 0.208126 0.000000 0.312453
O O9 0.921970 0.729241 0.456204
O O10 0.925846 0.725669 0.350629
O O11 0.869608 0.000000 0.341460
O O12 0.510669 0.500000 0.420738
O O13 0.539608 0.780664 0.392204
O O14 0.899583 0.282643 0.647693
O O15 0.995349 0.272548 0.848261
O O16 0.908143 0.000000 0.720087
O O17 0.098589 0.000000 0.411870
O O18 0.020408 0.500000 0.957196
#
# Coordination Sequence:
#
# PCOD9184873 Si02
#       8
#     8   2   8   8   8   8   8   8
#     4  10  20  34  54  80 106 136 179 227 274 330
#     4  12  22  40  60  78 116 138 190 246 272 312
#     4  11  22  32  48  75 106 144 180 219 277 324
#     4   8  13  25  48  78 108 128 163 225 278 324
#     4   8  13  24  48  79 103 132 170 215 276 333
#     4  10  22  38  53  73 108 151 189 233 271 319
#     4  10  19  34  55  77 105 143 186 223 270 327
#     4  11  24  38  58  83 108 151 193 229 284 326
#
# _framework density 19.731352000000001
#
# number of rings (size 3 to 8) (size 9 to 14) (size 15 to 20)
#    0.000    2.207    2.069    2.690    2.897    2.759 
#    0.000    0.000    0.000    2.483    0.000    0.000 
#    0.000    0.000    0.000    0.000    0.000    0.000 
#
# Total GULP energy -161643.077750 kJ/mol
# GULP energy per Si atom -5573.899233 kJ/mol
# Density = 1.968644 g / cm^3
# Si number density = 19.731352 Si / 1000 Ang^3
#
#
#
# Elastic Constant Matrix: (Units=GPa)
#
#
# Indices 1 2 3 4 5 6 
#
# 1 135.2688 0.9740 75.8186 0.0000 17.5216 0.0000
# 2 0.9740 81.0901 -5.6873 0.0002 3.4614 0.0002
# 3 75.8186 -5.6873 118.7806 0.0001 4.3207 0.0001
# 4 0.0000 0.0002 0.0001 -55.7298 0.0000 -99.5322
# 5 17.5216 3.4614 4.3207 0.0000 26.1147 0.0000
# 6 0.0000 0.0002 0.0001 -99.5322 0.0000 -122.2406
#
#
#
# Elastic Compliance Matrix: (Units=1/GPa)
#
#
# Indices 1 2 3 4 5 6 
#
# 1 0.012756 -0.000400 -0.007899 0.000000 -0.007198 0.000000
# 2 -0.000400 0.012466 0.000908 0.000000 -0.001534 0.000000
# 3 -0.007899 0.000908 0.013397 0.000000 0.002963 0.000000
# 4 0.000000 0.000000 0.000000 0.039506 0.000000 -0.032167
# 5 -0.007198 -0.001534 0.002963 0.000000 0.042835 0.000000
# 6 0.000000 0.000000 0.000000 -0.032167 0.000000 0.018011
#
#
# Mechanical properties :
#
#
# Convention : Reuss Voigt Hill
#
# Bulk Modulus (GPa) = 41.95382 53.03889 47.49636
# Shear Modulus (GPa) = 30.92172 -12.76885 9.07643
#
# Velocity S-wave (km/s) = 3.96300 -2.54665 2.14709
# Velocity P-wave (km/s) = 6.49994 4.27688 5.50186
#
# Compressibility (1/GPa) = 0.02383573
#
# Stress axis : x y z
#
# Youngs Moduli (GPa) = 78.39722 80.21859 74.64504
#
# Poissons Ratio (x) = 0.03208 0.58964
# Poissons Ratio (y) = 0.03136 -0.06778
# Poissons Ratio (z) = 0.61928 -0.07284
#
# Static dielectric constant tensor:
#      x y z
#    x 1.734070 0.000000 0.036550 
#    y 0.000000 1.801070 0.000000 
#    z 0.036550 0.000000 1.730880 
# 
# From -- ./inp_files/353077.got.cif
#   From: 2010.05.17/outbox.cif.g08.bks.cpg/sg12_177_cif.got.tgz:353077.got - 2010.06.03 13:09:07.
