data_PCOD9184419
_publ_section_title
;
Structure prediction by ZEFSAII (Michael W. Deem and Ramdas Pophale) SiO2 
 PCOD9184419
Probable space group: C 2/M
;
_chemical_formula_sum "Si O2"
_cell_formula_units_Z 48
_cell_length_a 24.776074
_cell_length_b 13.878621
_cell_length_c 20.267385
_cell_angle_alpha 90.000000
_cell_angle_beta 159.782775
_cell_angle_gamma 90.000000
_cell_volume 2408.382885
_symmetry_space_group_name_H-M "C 2/M"
_symmetry_group_IT_number 12
_symmetry_cell_setting 'monoclinic'
loop_
_space_group_symop_operation_xyz
x,y,z
-x,y,-z
-x,-y,-z
x,-y,z
1/2+x,1/2+y,z
1/2-x,1/2+y,-z
1/2-x,1/2-y,-z
1/2+x,1/2-y,z
loop_
_atom_site_type_symbol
_atom_site_label
_atom_site_fract_x
_atom_site_fract_y
_atom_site_fract_z
Si Si1 0.993314 0.893225 0.649786
Si Si2 0.854482 0.205141 0.913881
Si Si3 0.806029 0.885105 0.722913
Si Si4 0.172831 0.110335 0.673450
Si Si5 0.205909 0.285813 0.022691
Si Si6 0.886424 0.285183 0.609669
O O1 0.857339 0.891311 0.439527
O O2 0.950431 0.814063 0.653236
O O3 0.008422 0.000000 0.694594
O O4 0.157982 0.861926 0.806005
O O5 0.771766 0.145716 0.759618
O O6 0.811034 0.316147 0.847918
O O7 0.798928 0.202806 0.926536
O O8 0.033932 0.171119 0.113681
O O9 0.675952 0.850771 0.521656
O O10 0.830575 0.000000 0.747943
O O11 0.000000 0.143290 0.500000
O O12 0.197181 0.000000 0.723307
O O13 0.032108 0.328635 0.817028
O O14 0.250000 0.250000 0.000000
O O15 0.750000 0.250000 0.500000
#
# Coordination Sequence:
#
# PCOD9184419 Si02
#       6
#     8   8   8   8   8   8
#     4  10  21  39  62  93 127 166 208 257 328 394
#     4  11  20  40  64  88 129 171 218 270 323 392
#     4  11  25  43  66  93 127 177 227 275 327 389
#     4  10  19  33  61  93 119 153 199 254 318 383
#     4  10  22  38  63  93 130 170 212 267 327 391
#     4  11  22  42  64  95 131 171 219 274 332 384
#
# _framework density 19.930384
#
# number of rings (size 3 to 8) (size 9 to 14) (size 15 to 20)
#    0.000    1.500    5.000    1.000    0.000    1.333 
#    0.000    3.333    0.000   16.000    0.000    0.000 
#    0.000    0.000    0.000    0.000    0.000    0.000 
#
# Total GULP energy -133664.811162 kJ/mol
# GULP energy per Si atom -5569.367132 kJ/mol
# Density = 1.988502 g / cm^3
# Si number density = 19.930384 Si / 1000 Ang^3
#
#
#
# Elastic Constant Matrix: (Units=GPa)
#
#
# Indices 1 2 3 4 5 6 
#
# 1 107.4666 35.0787 35.6233 0.0000 -5.5232 0.0000
# 2 35.0787 119.6494 52.2584 -0.0001 5.7443 -0.0001
# 3 35.6233 52.2584 103.0021 -0.0001 -6.4815 0.0000
# 4 0.0000 -0.0001 -0.0001 23.3662 0.0000 7.7702
# 5 -5.5232 5.7443 -6.4815 0.0000 31.6103 -0.0001
# 6 0.0000 -0.0001 0.0000 7.7702 -0.0001 18.0095
#
#
#
# Elastic Compliance Matrix: (Units=1/GPa)
#
#
# Indices 1 2 3 4 5 6 
#
# 1 0.010960 -0.002174 -0.002575 0.000000 0.001782 0.000000
# 2 -0.002174 0.011478 -0.005295 0.000000 -0.003551 0.000000
# 3 -0.002575 -0.005295 0.013492 0.000000 0.003279 0.000000
# 4 0.000000 0.000000 0.000000 0.049966 0.000000 -0.021558
# 5 0.001782 -0.003551 0.003279 0.000000 0.033264 0.000000
# 6 0.000000 0.000000 0.000000 -0.021558 0.000000 0.064827
#
#
# Mechanical properties :
#
#
# Convention : Reuss Voigt Hill
#
# Bulk Modulus (GPa) = 63.12588 64.00433 63.56511
# Shear Modulus (GPa) = 23.88259 28.40773 26.14516
#
# Velocity S-wave (km/s) = 3.46540 3.77947 3.62584
# Velocity P-wave (km/s) = 6.91043 7.15748 7.03504
#
# Compressibility (1/GPa) = 0.01584136
#
# Stress axis : x y z
#
# Youngs Moduli (GPa) = 91.23979 87.12050 74.11741
#
# Poissons Ratio (x) = 0.18940 0.19089
# Poissons Ratio (y) = 0.19835 0.39247
# Poissons Ratio (z) = 0.23498 0.46132
#
# Static dielectric constant tensor:
#      x y z
#    x 1.757340 0.000000 -0.067310 
#    y 0.000000 1.687250 0.000000 
#    z -0.067310 0.000000 1.727890 
# 
# From -- ./inp_files/325714.got.cif
#   From: 2010.05.17/outbox.cif.g08.bks.cpg/sg12_163_cif.got.tgz:325714.got - 2010.06.03 13:09:07.
