data_PCOD9184260
_publ_section_title
;
Structure prediction by ZEFSAII (Michael W. Deem and Ramdas Pophale) SiO2 
 PCOD9184260
Probable space group: C 2/M
;
_chemical_formula_sum "Si O2"
_cell_formula_units_Z 56
_cell_length_a 15.184044
_cell_length_b 7.735922
_cell_length_c 22.126062
_cell_angle_alpha 90.000000
_cell_angle_beta 58.608339
_cell_angle_gamma 90.000000
_cell_volume 2218.562201
_symmetry_space_group_name_H-M "C 2/M"
_symmetry_group_IT_number 12
_symmetry_cell_setting 'monoclinic'
loop_
_space_group_symop_operation_xyz
x,y,z
-x,y,-z
-x,-y,-z
x,-y,z
1/2+x,1/2+y,z
1/2-x,1/2+y,-z
1/2-x,1/2-y,-z
1/2+x,1/2-y,z
loop_
_atom_site_type_symbol
_atom_site_label
_atom_site_fract_x
_atom_site_fract_y
_atom_site_fract_z
Si Si1 0.165669 0.791155 0.443444
Si Si2 0.513820 0.710505 0.396746
Si Si3 0.454013 0.792671 0.870685
Si Si4 0.827331 0.300785 0.224270
Si Si5 0.697893 0.204087 0.169594
Si Si6 0.112801 0.208006 0.979226
Si Si7 0.883481 0.800279 0.337190
O O1 0.080682 0.747965 0.524040
O O2 0.277299 0.710990 0.413410
O O3 0.115785 0.735031 0.396691
O O4 0.175648 0.000000 0.438939
O O5 0.519386 0.500000 0.390685
O O6 0.476616 0.773473 0.344395
O O7 0.568196 0.718675 0.840942
O O8 0.404619 0.726421 0.825876
O O9 0.467492 0.000000 0.862321
O O10 0.379495 0.754094 0.953001
O O11 0.818794 0.500000 0.211248
O O12 0.725888 0.225975 0.229457
O O13 0.850999 0.289132 0.286631
O O14 0.795094 0.273575 0.095833
O O15 0.694047 0.000000 0.160213
O O16 0.111649 0.000000 0.974925
O O17 0.000000 0.275172 0.000000
O O18 0.904392 0.000000 0.316174
#
# Coordination Sequence:
#
# PCOD9184260 Si02
#       7
#     8   8   8   8   8   8   8
#     4   9  17  35  60  85 113 145 183 225 266 322
#     4   8  17  34  58  85 114 147 181 220 272 326
#     4  10  22  38  58  82 110 143 183 230 277 323
#     4  11  24  40  55  77 107 146 190 230 272 323
#     4  10  21  39  59  82 112 144 179 226 279 330
#     4  10  19  33  58  87 114 143 177 220 276 335
#     4  11  22  36  55  81 112 147 184 225 276 326
#
# _framework density 25.241571
#
# number of rings (size 3 to 8) (size 9 to 14) (size 15 to 20)
#    0.000    2.143    1.429    2.571    0.000    3.143 
#    0.000    6.429    0.000    0.000    0.000    0.000 
#    0.000    0.000    0.000    0.000    0.000    0.000 
#
# Total GULP energy -156493.916461 kJ/mol
# GULP energy per Si atom -5589.068445 kJ/mol
# Density = 2.518412 g / cm^3
# Si number density = 25.241571 Si / 1000 Ang^3
#
#
#
# Elastic Constant Matrix: (Units=GPa)
#
#
# Indices 1 2 3 4 5 6 
#
# 1 172.6201 5.2309 12.4249 0.0000 29.0939 0.0000
# 2 5.2309 45.1047 -6.7297 0.0000 -4.9835 0.0001
# 3 12.4249 -6.7297 57.9676 0.0000 20.0603 0.0000
# 4 0.0000 0.0000 0.0000 22.4073 0.0000 2.4716
# 5 29.0939 -4.9835 20.0603 0.0000 42.7727 0.0000
# 6 0.0000 0.0001 0.0000 2.4716 0.0000 10.0702
#
#
#
# Elastic Compliance Matrix: (Units=1/GPa)
#
#
# Indices 1 2 3 4 5 6 
#
# 1 0.006616 -0.001276 0.000051 0.000000 -0.004672 0.000000
# 2 -0.001276 0.022908 0.002040 0.000000 0.002580 0.000000
# 3 0.000051 0.002040 0.020779 0.000000 -0.009542 0.000000
# 4 0.000000 0.000000 0.000000 0.045870 0.000000 -0.011258
# 5 -0.004672 0.002580 -0.009542 0.000000 0.031333 0.000000
# 6 0.000000 0.000000 0.000000 -0.011258 0.000000 0.102066
#
#
# Mechanical properties :
#
#
# Convention : Reuss Voigt Hill
#
# Bulk Modulus (GPa) = 19.25563 33.06049 26.15806
# Shear Modulus (GPa) = 20.38713 32.70113 26.54413
#
# Velocity S-wave (km/s) = 2.84506 3.60325 3.24636
# Velocity P-wave (km/s) = 4.29390 5.51700 4.94342
#
# Compressibility (1/GPa) = 0.05193287
#
# Stress axis : x y z
#
# Youngs Moduli (GPa) = 151.15849 43.65277 48.12514
#
# Poissons Ratio (x) = 0.05570 -0.00245
# Poissons Ratio (y) = 0.19286 -0.09818
# Poissons Ratio (z) = -0.00768 -0.08906
#
# Static dielectric constant tensor:
#      x y z
#    x 2.024480 0.000000 0.014060 
#    y 0.000000 1.914360 0.000000 
#    z 0.014060 0.000000 2.073840 
# 
# From -- ./inp_files/338162.got.cif
#   From: 2010.05.17/outbox.cif.g08.bks.cpg/sg12_170_cif.got.tgz:338162.got - 2010.06.03 13:09:07.
