data_PCOD9184692
_publ_section_title
;
Structure prediction by ZEFSAII (Michael W. Deem and Ramdas Pophale) SiO2 
 PCOD9184692
Probable space group: C 2/M
;
_chemical_formula_sum "Si O2"
_cell_formula_units_Z 56
_cell_length_a 7.976326
_cell_length_b 29.052128
_cell_length_c 14.607790
_cell_angle_alpha 90.000000
_cell_angle_beta 59.336866
_cell_angle_gamma 90.000000
_cell_volume 2911.756153
_symmetry_space_group_name_H-M "C 2/M"
_symmetry_group_IT_number 12
_symmetry_cell_setting 'monoclinic'
loop_
_space_group_symop_operation_xyz
x,y,z
-x,y,-z
-x,-y,-z
x,-y,z
1/2+x,1/2+y,z
1/2-x,1/2+y,-z
1/2-x,1/2-y,-z
1/2+x,1/2-y,z
loop_
_atom_site_type_symbol
_atom_site_label
_atom_site_fract_x
_atom_site_fract_y
_atom_site_fract_z
Si Si1 0.401295 0.229658 0.622966
Si Si2 0.566082 0.405820 0.383447
Si Si3 0.220262 0.363273 0.934112
Si Si4 0.824239 0.375963 0.854191
Si Si5 0.107989 0.147281 0.727599
Si Si6 0.323791 0.183894 0.307667
Si Si7 0.874554 0.447313 0.168041
O O1 0.500000 0.243004 0.500000
O O2 0.232788 0.191153 0.661760
O O3 0.570187 0.206757 0.635553
O O4 0.305145 0.274520 0.695002
O O5 0.500000 0.423766 0.500000
O O6 0.408737 0.388289 0.352247
O O7 0.688269 0.359115 0.370047
O O8 0.707147 0.440424 0.290653
O O9 0.387459 0.341856 0.823766
O O10 0.188501 0.413921 0.897992
O O11 0.287470 0.365619 0.020464
O O12 0.000000 0.343078 0.000000
O O13 0.710902 0.373161 0.790260
O O14 0.000130 0.338510 0.798512
O O15 0.932142 0.424352 0.842612
O O16 0.898210 0.500000 0.135747
#
# Coordination Sequence:
#
# PCOD9184692 Si02
#       7
#     8   8   8   8   8   8   8
#     4  11  20  32  52  78 110 144 184 230 268 308
#     4  10  19  34  54  75 106 145 182 222 271 321
#     4   9  18  34  57  78 104 140 174 215 267 321
#     4   9  19  34  53  77 108 142 174 220 274 320
#     4  10  20  34  54  80 109 142 183 224 266 319
#     4  10  20  32  49  76 106 141 184 224 267 318
#     4   9  19  35  56  82 107 137 178 218 263 326
#
# _framework density 19.232379999999999
#
# number of rings (size 3 to 8) (size 9 to 14) (size 15 to 20)
#    0.000    2.286    0.000    3.857    0.000    2.857 
#    0.000    3.571    0.000   16.286    0.000    0.000 
#    0.000    0.000    0.000    0.000    0.000    0.000 
#
# Total GULP energy -156065.044671 kJ/mol
# GULP energy per Si atom -5573.751595 kJ/mol
# Density = 1.918861 g / cm^3
# Si number density = 19.232380 Si / 1000 Ang^3
#
#
#
# Elastic Constant Matrix: (Units=GPa)
#
#
# Indices 1 2 3 4 5 6 
#
# 1 97.3569 22.5491 27.6995 0.0000 8.3369 0.0000
# 2 22.5491 63.4332 7.8884 0.0000 -5.8706 0.0000
# 3 27.6995 7.8884 118.0228 0.0000 10.5461 0.0000
# 4 0.0000 0.0000 0.0000 4.4020 0.0000 5.2177
# 5 8.3369 -5.8706 10.5461 0.0000 27.2935 0.0000
# 6 0.0000 0.0000 0.0000 5.2177 0.0000 14.1109
#
#
#
# Elastic Compliance Matrix: (Units=1/GPa)
#
#
# Indices 1 2 3 4 5 6 
#
# 1 0.012264 -0.004436 -0.002239 0.000000 -0.003835 0.000000
# 2 -0.004436 0.017927 -0.000645 0.000000 0.005460 0.000000
# 3 -0.002239 -0.000645 0.009314 0.000000 -0.003054 0.000000
# 4 0.000000 0.000000 0.000000 0.404409 0.000000 -0.149535
# 5 -0.003835 0.005460 -0.003054 0.000000 0.040165 0.000000
# 6 0.000000 0.000000 0.000000 -0.149535 0.000000 0.126160
#
#
# Mechanical properties :
#
#
# Convention : Reuss Voigt Hill
#
# Bulk Modulus (GPa) = 40.21675 43.89856 42.05765
# Shear Modulus (GPa) = 7.89679 23.87301 15.88490
#
# Velocity S-wave (km/s) = 2.02852 3.52702 2.87704
# Velocity P-wave (km/s) = 5.14226 6.28183 5.74039
#
# Compressibility (1/GPa) = 0.02486526
#
# Stress axis : x y z
#
# Youngs Moduli (GPa) = 81.53628 55.78137 107.35993
#
# Poissons Ratio (x) = 0.24746 0.24040
# Poissons Ratio (y) = 0.36171 0.06924
# Poissons Ratio (z) = 0.18258 0.03598
#
# Static dielectric constant tensor:
#      x y z
#    x 1.747550 0.000000 0.001080 
#    y 0.000000 1.636420 0.000000 
#    z 0.001080 0.000000 1.691640 
# 
# From -- ./inp_files/199695.got.cif
#   From: 2010.05.17/outbox.cif.g08.bks.cpg/sg12_100_cif.got.tgz:199695.got - 2010.06.03 13:09:07.
