data_PCOD9184933
_publ_section_title
;
Structure prediction by ZEFSAII (Michael W. Deem and Ramdas Pophale) SiO2 
 PCOD9184933
Probable space group: C 2/M
;
_chemical_formula_sum "Si O2"
_cell_formula_units_Z 64
_cell_length_a 26.804428
_cell_length_b 7.528581
_cell_length_c 19.912938
_cell_angle_alpha 90.000000
_cell_angle_beta 133.979135
_cell_angle_gamma 90.000000
_cell_volume 2891.623694
_symmetry_space_group_name_H-M "C 2/M"
_symmetry_group_IT_number 12
_symmetry_cell_setting 'monoclinic'
loop_
_space_group_symop_operation_xyz
x,y,z
-x,y,-z
-x,-y,-z
x,-y,z
1/2+x,1/2+y,z
1/2-x,1/2+y,-z
1/2-x,1/2-y,-z
1/2+x,1/2-y,z
loop_
_atom_site_type_symbol
_atom_site_label
_atom_site_fract_x
_atom_site_fract_y
_atom_site_fract_z
Si Si1 0.965503 0.794680 0.599774
Si Si2 0.931184 0.787829 0.088891
Si Si3 0.381411 0.282382 0.293081
Si Si4 0.166833 0.782511 0.604791
Si Si5 0.824485 0.787574 0.100177
Si Si6 0.421567 0.211228 0.930982
Si Si7 0.930202 0.704162 0.715615
Si Si8 0.678104 0.781899 0.281739
O O1 0.896607 0.719802 0.500958
O O2 0.956643 0.790689 0.671803
O O3 0.039478 0.720358 0.645455
O O4 0.967960 0.000000 0.580578
O O5 0.883083 0.719688 0.104067
O O6 0.008108 0.713451 0.172066
O O7 0.936745 0.000000 0.098544
O O8 0.899837 0.741420 0.987480
O O9 0.381980 0.500000 0.293830
O O10 0.350099 0.228239 0.334858
O O11 0.336950 0.223177 0.187280
O O12 0.242652 0.724590 0.651566
O O13 0.168375 0.000000 0.604618
O O14 0.832879 0.000000 0.110080
O O15 0.750000 0.750000 0.000000
O O16 0.367737 0.277543 0.825179
O O17 0.426171 0.000000 0.924275
O O18 0.500000 0.285132 0.000000
O O19 0.917527 0.500000 0.686280
O O20 0.861962 0.776889 0.688437
O O21 0.677218 0.000000 0.281569
#
# Coordination Sequence:
#
# PCOD9184933 Si02
#       8
#     8   8   8   8   8   8   8   8
#     4  10  19  35  58  85 110 136 182 236 282 329
#     4  11  22  37  55  81 114 145 184 233 276 325
#     4   9  17  33  55  82 111 140 178 228 273 322
#     4   9  18  32  56  83 108 143 183 231 283 324
#     4  10  22  37  54  81 116 144 179 225 275 331
#     4  10  19  34  55  79 109 147 187 224 267 327
#     4  11  21  36  57  80 111 149 186 227 275 331
#     4   9  19  34  51  80 114 143 187 231 265 323
#
# _framework density 22.132895000000001
#
# number of rings (size 3 to 8) (size 9 to 14) (size 15 to 20)
#    0.000    2.125    2.500    1.125    1.750    3.250 
#    0.000    0.000    0.000    3.750    0.000    0.000 
#    0.000    0.000    0.000    0.000    0.000    0.000 
#
# Total GULP energy -178774.135104 kJ/mol
# GULP energy per Si atom -5586.691722 kJ/mol
# Density = 2.208252 g / cm^3
# Si number density = 22.132895 Si / 1000 Ang^3
#
#
#
# Elastic Constant Matrix: (Units=GPa)
#
#
# Indices 1 2 3 4 5 6 
#
# 1 115.1589 -9.0226 19.5398 0.0000 28.9539 0.0000
# 2 -9.0226 52.1313 -6.5263 -0.0001 8.4529 0.0003
# 3 19.5398 -6.5263 70.1756 0.0000 29.4447 0.0000
# 4 0.0000 -0.0001 0.0000 5.9646 0.0000 3.5060
# 5 28.9539 8.4529 29.4447 0.0000 30.5035 0.0000
# 6 0.0000 0.0003 0.0000 3.5060 0.0000 -7.9081
#
#
#
# Elastic Compliance Matrix: (Units=1/GPa)
#
#
# Indices 1 2 3 4 5 6 
#
# 1 0.012984 0.005821 0.004662 0.000000 -0.018438 0.000000
# 2 0.005821 0.025019 0.009972 0.000000 -0.022084 0.000001
# 3 0.004662 0.009972 0.028397 0.000000 -0.034600 0.000000
# 4 0.000000 0.000000 0.000000 0.132997 0.000000 0.058964
# 5 -0.018438 -0.022084 -0.034600 0.000000 0.089804 -0.000001
# 6 0.000000 0.000001 0.000000 0.058964 -0.000001 -0.100311
#
#
# Mechanical properties :
#
#
# Convention : Reuss Voigt Hill
#
# Bulk Modulus (GPa) = 9.31871 27.27194 18.29532
# Shear Modulus (GPa) = 27.21086 21.27699 24.24392
#
# Velocity S-wave (km/s) = 3.51013 3.10389 3.31324
# Velocity P-wave (km/s) = 4.54395 5.01938 4.78757
#
# Compressibility (1/GPa) = 0.10731104
#
# Stress axis : x y z
#
# Youngs Moduli (GPa) = 77.01499 39.96958 35.21509
#
# Poissons Ratio (x) = -0.23265 -0.16419
# Poissons Ratio (y) = -0.44828 -0.35117
# Poissons Ratio (z) = -0.35907 -0.39859
#
# Static dielectric constant tensor:
#      x y z
#    x 1.796770 0.000000 0.004220 
#    y 0.000000 1.866870 0.000000 
#    z 0.004220 0.000000 1.784310 
# 
# From -- ./inp_files/324300.got.cif
#   From: 2010.05.17/outbox.cif.g08.bks.cpg/sg12_163_cif.got.tgz:324300.got - 2010.06.03 13:09:07.
