data_PCOD9184250
_publ_section_title
;
Structure prediction by ZEFSAII (Michael W. Deem and Ramdas Pophale) SiO2 
 PCOD9184250
Probable space group: C 2/M
;
_chemical_formula_sum "Si O2"
_cell_formula_units_Z 48
_cell_length_a 20.373616
_cell_length_b 8.824888
_cell_length_c 14.643717
_cell_angle_alpha 90.000000
_cell_angle_beta 74.005471
_cell_angle_gamma 90.000000
_cell_volume 2530.941878
_symmetry_space_group_name_H-M "C 2/M"
_symmetry_group_IT_number 12
_symmetry_cell_setting 'monoclinic'
loop_
_space_group_symop_operation_xyz
x,y,z
-x,y,-z
-x,-y,-z
x,-y,z
1/2+x,1/2+y,z
1/2-x,1/2+y,-z
1/2-x,1/2-y,-z
1/2+x,1/2-y,z
loop_
_atom_site_type_symbol
_atom_site_label
_atom_site_fract_x
_atom_site_fract_y
_atom_site_fract_z
Si Si1 0.284704 0.317580 0.762089
Si Si2 0.601433 0.317955 0.422612
Si Si3 0.627471 0.317306 0.094932
Si Si4 0.466051 0.180756 0.383940
Si Si5 0.976938 0.680314 0.168732
Si Si6 0.649582 0.680728 0.882860
O O1 0.278936 0.500000 0.765945
O O2 0.329387 0.275771 0.656529
O O3 0.327815 0.269854 0.835273
O O4 0.210297 0.247142 0.798782
O O5 0.596732 0.500000 0.428672
O O6 0.537385 0.256213 0.388168
O O7 0.590794 0.247887 0.526604
O O8 0.620811 0.500000 0.101118
O O9 0.552533 0.245930 0.128015
O O10 0.660258 0.276059 0.984988
O O11 0.454661 0.211287 0.281911
O O12 0.471065 0.000000 0.395117
O O13 0.978013 0.500000 0.154367
O O14 0.922829 0.755526 0.122140
O O15 0.649069 0.500000 0.876887
#
# Coordination Sequence:
#
# PCOD9184250 Si02
#       6
#     8   8   8   8   8   8
#     4  10  21  38  59  84 116 149 185 231 281 338
#     4  10  19  33  58  86 111 145 183 227 281 333
#     4  10  21  39  60  84 113 148 191 236 281 331
#     4  10  20  34  55  84 114 144 183 233 278 327
#     4  11  23  38  58  84 115 152 190 232 282 333
#     4  11  24  38  57  83 115 153 190 233 283 335
#
# _framework density 18.96527
#
# number of rings (size 3 to 8) (size 9 to 14) (size 15 to 20)
#    0.000    1.667    1.667    4.000    0.000    7.333 
#    0.000    0.833    0.000    0.000    0.000    0.000 
#    0.000    0.000    0.000    0.000    0.000    0.000 
#
# Total GULP energy -134101.361012 kJ/mol
# GULP energy per Si atom -5587.556709 kJ/mol
# Density = 1.892210 g / cm^3
# Si number density = 18.965270 Si / 1000 Ang^3
#
#
#
# Elastic Constant Matrix: (Units=GPa)
#
#
# Indices 1 2 3 4 5 6 
#
# 1 43.4843 0.8446 -10.5652 0.0000 -14.1200 0.0000
# 2 0.8446 26.5923 20.4526 0.0000 -6.5130 0.0000
# 3 -10.5652 20.4526 69.1619 0.0000 -15.1474 0.0000
# 4 0.0000 0.0000 0.0000 41.5652 0.0000 9.5808
# 5 -14.1200 -6.5130 -15.1474 0.0000 22.6983 0.0000
# 6 0.0000 0.0000 0.0000 9.5808 0.0000 50.8005
#
#
#
# Elastic Compliance Matrix: (Units=1/GPa)
#
#
# Indices 1 2 3 4 5 6 
#
# 1 0.036117 -0.003987 0.013312 0.000000 0.030207 0.000000
# 2 -0.003987 0.049627 -0.014885 0.000000 0.001826 0.000000
# 3 0.013312 -0.014885 0.025499 0.000000 0.021027 0.000000
# 4 0.000000 0.000000 0.000000 0.025152 0.000000 -0.004744
# 5 0.030207 0.001826 0.021027 0.000000 0.077403 0.000000
# 6 0.000000 0.000000 0.000000 -0.004744 0.000000 0.020579
#
#
# Mechanical properties :
#
#
# Convention : Reuss Voigt Hill
#
# Bulk Modulus (GPa) = 9.98766 17.85584 13.92175
# Shear Modulus (GPa) = 17.92931 31.57991 24.75461
#
# Velocity S-wave (km/s) = 3.07803 4.08504 3.61676
# Velocity P-wave (km/s) = 4.23203 5.62899 4.97974
#
# Compressibility (1/GPa) = 0.10012356
#
# Stress axis : x y z
#
# Youngs Moduli (GPa) = 27.68752 20.15031 39.21668
#
# Poissons Ratio (x) = 0.08035 -0.52206
# Poissons Ratio (y) = 0.11040 0.58374
# Poissons Ratio (z) = -0.36858 0.29994
#
# Static dielectric constant tensor:
#      x y z
#    x 1.613320 0.000000 0.003370 
#    y 0.000000 1.634100 0.000000 
#    z 0.003370 0.000000 1.678350 
# 
# From -- ./inp_files/229917.got.cif
#   From: 2010.05.17/outbox.cif.g08.bks.cpg/sg12_115_cif.got.tgz:229917.got - 2010.06.03 13:09:07.
