data_PCOD9184582
_publ_section_title
;
Structure prediction by ZEFSAII (Michael W. Deem and Ramdas Pophale) SiO2 
 PCOD9184582
Probable space group: C 2/M
;
_chemical_formula_sum "Si O2"
_cell_formula_units_Z 56
_cell_length_a 19.657023
_cell_length_b 7.382921
_cell_length_c 19.459506
_cell_angle_alpha 90.000000
_cell_angle_beta 124.720491
_cell_angle_gamma 90.000000
_cell_volume 2321.229613
_symmetry_space_group_name_H-M "C 2/M"
_symmetry_group_IT_number 12
_symmetry_cell_setting 'monoclinic'
loop_
_space_group_symop_operation_xyz
x,y,z
-x,y,-z
-x,-y,-z
x,-y,z
1/2+x,1/2+y,z
1/2-x,1/2+y,-z
1/2-x,1/2-y,-z
1/2+x,1/2-y,z
loop_
_atom_site_type_symbol
_atom_site_label
_atom_site_fract_x
_atom_site_fract_y
_atom_site_fract_z
Si Si1 0.540638 0.213035 0.882011
Si Si2 0.320345 0.719103 0.322985
Si Si3 0.360281 0.778549 0.751935
Si Si4 0.340203 0.216955 0.583899
Si Si5 0.634305 0.281207 0.794051
Si Si6 0.201848 0.284521 0.043338
Si Si7 0.568364 0.208282 0.490669
O O1 0.447785 0.285950 0.831833
O O2 0.575296 0.225323 0.823103
O O3 0.535674 0.000000 0.894439
O O4 0.610221 0.288200 0.974247
O O5 0.322574 0.500000 0.327569
O O6 0.224542 0.772592 0.259603
O O7 0.378139 0.775703 0.292118
O O8 0.351860 0.789479 0.413942
O O9 0.352189 0.718421 0.668040
O O10 0.362788 0.000000 0.753735
O O11 0.250000 0.250000 0.500000
O O12 0.407041 0.289698 0.567938
O O13 0.349909 0.000000 0.591908
O O14 0.633239 0.500000 0.795228
O O15 0.728693 0.218559 0.864107
O O16 0.193749 0.500000 0.051086
O O17 0.250000 0.250000 0.000000
O O18 0.500000 0.296567 0.500000
O O19 0.543422 0.000000 0.464143
#
# Coordination Sequence:
#
# PCOD9184582 Si02
#       7
#     8   8   8   8   8   8   8
#     4   9  17  30  52  75  94 125 164 198 234 282
#     4  10  20  35  51  69  98 133 160 192 241 289
#     4   9  18  32  50  71  96 125 160 196 234 283
#     4  10  19  34  53  71  94 127 160 195 238 283
#     4   9  18  31  48  72 101 128 156 197 243 281
#     4   8  14  27  46  70  97 123 156 194 234 281
#     4  10  22  36  52  74  98 124 159 204 245 280
#
# _framework density 24.125143999999999
#
# number of rings (size 3 to 8) (size 9 to 14) (size 15 to 20)
#    0.000    2.714    1.429    0.000    2.000    0.857 
#    0.000    2.143    0.000    4.286    0.000    0.000 
#    0.000   12.571    0.000    0.000    0.000    0.000 
#
# Total GULP energy -156218.883850 kJ/mol
# GULP energy per Si atom -5579.245852 kJ/mol
# Density = 2.407023 g / cm^3
# Si number density = 24.125144 Si / 1000 Ang^3
#
#
#
# Elastic Constant Matrix: (Units=GPa)
#
#
# Indices 1 2 3 4 5 6 
#
# 1 85.2782 -4.2829 -4.8789 0.0000 15.8095 0.0000
# 2 -4.2829 91.1958 -6.0437 0.0000 2.1324 -0.0001
# 3 -4.8789 -6.0437 28.7425 0.0000 14.9945 0.0000
# 4 0.0000 0.0000 0.0000 5.7485 0.0000 -0.3779
# 5 15.8095 2.1324 14.9945 0.0000 48.2736 0.0000
# 6 0.0000 -0.0001 0.0000 -0.3779 0.0000 -6.0774
#
#
#
# Elastic Compliance Matrix: (Units=1/GPa)
#
#
# Indices 1 2 3 4 5 6 
#
# 1 0.013253 0.001145 0.005705 0.000000 -0.006163 0.000000
# 2 0.001145 0.011305 0.003613 0.000000 -0.001996 0.000000
# 3 0.005705 0.003613 0.044845 0.000000 -0.015957 0.000000
# 4 0.000000 0.000000 0.000000 0.173252 0.000000 -0.010772
# 5 -0.006163 -0.001996 -0.015957 0.000000 0.027778 0.000000
# 6 0.000000 0.000000 0.000000 -0.010772 0.000000 -0.163873
#
#
# Mechanical properties :
#
#
# Convention : Reuss Voigt Hill
#
# Bulk Modulus (GPa) = 11.07069 19.42284 15.24677
# Shear Modulus (GPa) = 43.19911 24.28373 33.74142
#
# Velocity S-wave (km/s) = 4.23617 3.17610 3.74384
# Velocity P-wave (km/s) = 5.34094 4.63880 5.00221
#
# Compressibility (1/GPa) = 0.09032861
#
# Stress axis : x y z
#
# Youngs Moduli (GPa) = 75.45591 88.45413 22.29924
#
# Poissons Ratio (x) = -0.10125 -0.12723
# Poissons Ratio (y) = -0.08637 -0.08057
# Poissons Ratio (z) = -0.43051 -0.31958
#
# Static dielectric constant tensor:
#      x y z
#    x 1.918880 0.000000 0.043020 
#    y 0.000000 1.935550 0.000000 
#    z 0.043020 0.000000 1.958070 
# 
# From -- ./inp_files/275143.got.cif
#   From: 2010.05.17/outbox.cif.g08.bks.cpg/sg12_138_cif.got.tgz:275143.got - 2010.06.03 13:09:07.
