data_PCOD9184975
_publ_section_title
;
Structure prediction by ZEFSAII (Michael W. Deem and Ramdas Pophale) SiO2 
 PCOD9184975
Probable space group: C 2/M
;
_chemical_formula_sum "Si O2"
_cell_formula_units_Z 56
_cell_length_a 19.517762
_cell_length_b 8.721036
_cell_length_c 32.299255
_cell_angle_alpha 90.000000
_cell_angle_beta 34.202724
_cell_angle_gamma 90.000000
_cell_volume 3090.450025
_symmetry_space_group_name_H-M "C 2/M"
_symmetry_group_IT_number 12
_symmetry_cell_setting 'monoclinic'
loop_
_space_group_symop_operation_xyz
x,y,z
-x,y,-z
-x,-y,-z
x,-y,z
1/2+x,1/2+y,z
1/2-x,1/2+y,-z
1/2-x,1/2-y,-z
1/2+x,1/2-y,z
loop_
_atom_site_type_symbol
_atom_site_label
_atom_site_fract_x
_atom_site_fract_y
_atom_site_fract_z
Si Si1 0.573005 0.318766 0.755577
Si Si2 0.359771 0.818684 0.191591
Si Si3 0.972613 0.683396 0.449520
Si Si4 0.573436 0.317230 0.317834
Si Si5 0.880993 0.317042 0.793195
Si Si6 0.816200 0.816856 0.596826
Si Si7 0.900024 0.815903 0.083806
O O1 0.587653 0.500000 0.743792
O O2 0.585733 0.270865 0.796921
O O3 0.448023 0.263007 0.797635
O O4 0.682164 0.234122 0.676728
O O5 0.214133 0.788272 0.261307
O O6 0.415155 0.765612 0.120318
O O7 0.375621 0.000000 0.189858
O O8 0.970562 0.500000 0.452008
O O9 0.858050 0.752421 0.531512
O O10 0.988190 0.743171 0.395206
O O11 0.089343 0.744908 0.417181
O O12 0.555699 0.500000 0.324857
O O13 0.561760 0.244448 0.278347
O O14 0.895655 0.500000 0.788234
O O15 0.736999 0.281509 0.863166
O O16 0.828194 0.000000 0.591901
O O17 0.907571 0.000000 0.086180
O O18 0.000000 0.770966 0.000000
#
# Coordination Sequence:
#
# PCOD9184975 Si02
#       7
#     8   8   8   8   8   8   8
#     4  12  23  37  56  81 114 149 189 232 281 336
#     4  10  20  34  57  85 113 146 187 230 274 328
#     4  11  20  32  52  80 110 145 190 236 283 329
#     4  10  19  34  55  80 110 146 190 236 280 329
#     4  10  21  37  58  83 114 148 184 227 281 337
#     4  11  21  34  52  77 110 147 187 236 287 329
#     4   9  19  38  63  89 116 146 182 225 273 329
#
# _framework density 18.120338
#
# number of rings (size 3 to 8) (size 9 to 14) (size 15 to 20)
#    0.000    1.571    1.429    6.000    0.000    2.000 
#    0.000    1.429    0.000    0.000    0.000    0.000 
#    0.000    0.000    0.000    0.000    0.000    0.000 
#
# Total GULP energy -156465.766511 kJ/mol
# GULP energy per Si atom -5588.063090 kJ/mol
# Density = 1.807910 g / cm^3
# Si number density = 18.120338 Si / 1000 Ang^3
#
#
#
# Elastic Constant Matrix: (Units=GPa)
#
#
# Indices 1 2 3 4 5 6 
#
# 1 67.2424 39.1139 22.0818 0.0052 8.4053 0.0215
# 2 39.1139 102.5658 34.4488 0.0029 8.1369 0.0040
# 3 22.0818 34.4488 101.4987 0.0036 19.2813 0.0001
# 4 0.0052 0.0029 0.0036 22.4225 0.0005 2.4902
# 5 8.4053 8.1369 19.2813 0.0005 16.8992 0.0006
# 6 0.0215 0.0040 0.0001 2.4902 0.0006 28.7208
#
#
#
# Elastic Compliance Matrix: (Units=1/GPa)
#
#
# Indices 1 2 3 4 5 6 
#
# 1 0.019832 -0.006804 -0.000962 -0.000002 -0.005490 -0.000014
# 2 -0.006804 0.013362 -0.003161 0.000000 0.000557 0.000003
# 3 -0.000962 -0.003161 0.013730 -0.000001 -0.013665 0.000002
# 4 -0.000002 0.000000 -0.000001 0.045032 0.000002 -0.003904
# 5 -0.005490 0.000557 -0.013665 0.000002 0.077228 0.000002
# 6 -0.000014 0.000003 0.000002 -0.003904 0.000002 0.035156
#
#
# Mechanical properties :
#
#
# Convention : Reuss Voigt Hill
#
# Bulk Modulus (GPa) = 39.88825 51.39954 45.64390
# Shear Modulus (GPa) = 21.31729 25.31933 23.31831
#
# Velocity S-wave (km/s) = 3.43363 3.74209 3.59117
# Velocity P-wave (km/s) = 6.14659 6.86281 6.51455
#
# Compressibility (1/GPa) = 0.02507004
#
# Stress axis : x y z
#
# Youngs Moduli (GPa) = 50.42434 74.83910 72.83144
#
# Poissons Ratio (x) = 0.50922 0.07009
# Poissons Ratio (y) = 0.34310 0.23018
# Poissons Ratio (z) = 0.04852 0.23653
#
# Static dielectric constant tensor:
#      x y z
#    x 1.613910 0.000000 -0.000900 
#    y 0.000000 1.600320 0.000000 
#    z -0.000900 0.000000 1.613130 
# 
# From -- ./inp_files/377650.got.cif
#   From: 2010.05.17/outbox.cif.g08.bks.cpg/sg12_189_cif.got.tgz:377650.got - 2010.06.03 13:09:07.
