data_PCOD9184682
_publ_section_title
;
Structure prediction by ZEFSAII (Michael W. Deem and Ramdas Pophale) SiO2 
 PCOD9184682
Probable space group: C 2/M
;
_chemical_formula_sum "Si O2"
_cell_formula_units_Z 64
_cell_length_a 34.938246
_cell_length_b 7.630547
_cell_length_c 14.715289
_cell_angle_alpha 90.000000
_cell_angle_beta 125.594993
_cell_angle_gamma 90.000000
_cell_volume 3190.047151
_symmetry_space_group_name_H-M "C 2/M"
_symmetry_group_IT_number 12
_symmetry_cell_setting 'monoclinic'
loop_
_space_group_symop_operation_xyz
x,y,z
-x,y,-z
-x,-y,-z
x,-y,z
1/2+x,1/2+y,z
1/2-x,1/2+y,-z
1/2-x,1/2-y,-z
1/2+x,1/2-y,z
loop_
_atom_site_type_symbol
_atom_site_label
_atom_site_fract_x
_atom_site_fract_y
_atom_site_fract_z
Si Si1 0.855861 0.298734 0.272619
Si Si2 0.296909 0.213382 0.672213
Si Si3 0.901097 0.802679 0.513853
Si Si4 0.657998 0.214261 0.083303
Si Si5 0.997134 0.295520 0.393151
Si Si6 0.593394 0.213106 0.838160
Si Si7 0.747981 0.708593 0.890735
Si Si8 0.808559 0.795179 0.479346
O O1 0.871070 0.500000 0.303455
O O2 0.884608 0.194028 0.386504
O O3 0.868302 0.245245 0.187239
O O4 0.800606 0.284512 0.213418
O O5 0.333091 0.267740 0.800624
O O6 0.243207 0.272931 0.620073
O O7 0.309463 0.279491 0.589551
O O8 0.295758 0.000000 0.666648
O O9 0.952101 0.716383 0.583649
O O10 0.856391 0.718184 0.503559
O O11 0.907479 0.000000 0.557646
O O12 0.705016 0.269111 0.094177
O O13 0.657212 0.000000 0.082147
O O14 0.613297 0.274756 0.962586
O O15 0.984894 0.500000 0.388588
O O16 0.000000 0.219954 0.500000
O O17 0.955941 0.222595 0.271558
O O18 0.591117 0.000000 0.841941
O O19 0.745423 0.500000 0.875312
O O20 0.750000 0.750000 0.000000
O O21 0.808785 0.000000 0.452173
#
# Coordination Sequence:
#
# PCOD9184682 Si02
#       8
#     8   8   8   8   8   8   8   8
#     4  11  20  33  50  72 103 140 177 212 257 307
#     4   9  17  32  56  79  99 130 173 214 253 308
#     4  11  22  35  53  77 105 137 172 216 269 319
#     4   9  17  31  51  73 102 138 173 210 259 310
#     4  10  19  34  54  75 102 137 178 220 262 308
#     4   9  17  31  50  71  99 137 172 207 256 306
#     4  11  20  31  47  71 105 142 177 211 251 306
#     4   9  19  35  52  75 107 136 163 209 270 317
#
# _framework density 20.062398999999999
#
# number of rings (size 3 to 8) (size 9 to 14) (size 15 to 20)
#    0.000    2.125    2.500    1.875    0.000    3.250 
#    0.000    3.750    0.000    0.750    0.000    5.250 
#    0.000    0.000    0.000    0.000    0.000    0.000 
#
# Total GULP energy -178546.356653 kJ/mol
# GULP energy per Si atom -5579.573645 kJ/mol
# Density = 2.001674 g / cm^3
# Si number density = 20.062399 Si / 1000 Ang^3
#
#
#
# Elastic Constant Matrix: (Units=GPa)
#
#
# Indices 1 2 3 4 5 6 
#
# 1 71.3530 1.4349 41.1247 0.0000 16.1815 0.0000
# 2 1.4349 41.4395 -1.3604 0.0000 3.4246 0.0000
# 3 41.1247 -1.3604 153.6162 0.0000 19.4825 0.0000
# 4 0.0000 0.0000 0.0000 15.1159 0.0000 -0.9547
# 5 16.1815 3.4246 19.4825 0.0000 30.2890 0.0000
# 6 0.0000 0.0000 0.0000 -0.9547 0.0000 14.0645
#
#
#
# Elastic Compliance Matrix: (Units=1/GPa)
#
#
# Indices 1 2 3 4 5 6 
#
# 1 0.017852 -0.000166 -0.003891 0.000000 -0.007016 0.000000
# 2 -0.000166 0.024414 0.000653 0.000000 -0.003092 0.000000
# 3 -0.003891 0.000653 0.007952 0.000000 -0.003110 0.000000
# 4 0.000000 0.000000 0.000000 0.066440 0.000000 0.004510
# 5 -0.007016 -0.003092 -0.003110 0.000000 0.039113 0.000000
# 6 0.000000 0.000000 0.000000 0.004510 0.000000 0.071407
#
#
# Mechanical properties :
#
#
# Convention : Reuss Voigt Hill
#
# Bulk Modulus (GPa) = 23.03659 38.75635 30.89647
# Shear Modulus (GPa) = 20.12429 26.90784 23.51606
#
# Velocity S-wave (km/s) = 3.17059 3.66622 3.42738
# Velocity P-wave (km/s) = 4.99108 6.10585 5.57639
#
# Compressibility (1/GPa) = 0.04340920
#
# Stress axis : x y z
#
# Youngs Moduli (GPa) = 56.01730 40.95967 125.76213
#
# Poissons Ratio (x) = 0.00680 0.48931
# Poissons Ratio (y) = 0.00930 -0.08209
# Poissons Ratio (z) = 0.21795 -0.02674
#
# Static dielectric constant tensor:
#      x y z
#    x 1.702050 0.000000 0.010040 
#    y 0.000000 1.731130 0.000000 
#    z 0.010040 0.000000 1.721520 
# 
# From -- ./inp_files/249250.got.cif
#   From: 2010.05.17/outbox.cif.g08.bks.cpg/sg12_125_cif.got.tgz:249250.got - 2010.06.03 13:09:07.
