data_PCOD9184310
_publ_section_title
;
Structure prediction by ZEFSAII (Michael W. Deem and Ramdas Pophale) SiO2 
 PCOD9184310
Probable space group: C 2/M
;
_chemical_formula_sum "Si O2"
_cell_formula_units_Z 64
_cell_length_a 15.814099
_cell_length_b 8.689309
_cell_length_c 34.029949
_cell_angle_alpha 90.000000
_cell_angle_beta 45.358101
_cell_angle_gamma 90.000000
_cell_volume 3327.158260
_symmetry_space_group_name_H-M "C 2/M"
_symmetry_group_IT_number 12
_symmetry_cell_setting 'monoclinic'
loop_
_space_group_symop_operation_xyz
x,y,z
-x,y,-z
-x,-y,-z
x,-y,z
1/2+x,1/2+y,z
1/2-x,1/2+y,-z
1/2-x,1/2-y,-z
1/2+x,1/2-y,z
loop_
_atom_site_type_symbol
_atom_site_label
_atom_site_fract_x
_atom_site_fract_y
_atom_site_fract_z
Si Si1 0.223156 0.183897 0.620791
Si Si2 0.069391 0.314872 0.390791
Si Si3 0.847124 0.314184 0.874469
Si Si4 0.714625 0.684475 0.189364
Si Si5 0.662759 0.683689 0.495040
Si Si6 0.103108 0.185026 0.997094
Si Si7 0.034575 0.315700 0.311246
Si Si8 0.486148 0.185419 0.111789
O O1 0.301195 0.220225 0.633804
O O2 0.296673 0.244669 0.559352
O O3 0.093638 0.258354 0.661459
O O4 0.210981 0.000000 0.621867
O O5 0.051514 0.500000 0.399494
O O6 0.052681 0.269622 0.350893
O O7 0.969251 0.233358 0.449599
O O8 0.846401 0.500000 0.870728
O O9 0.838436 0.241798 0.834507
O O10 0.729460 0.269743 0.937635
O O11 0.960082 0.267766 0.863765
O O12 0.714205 0.500000 0.190278
O O13 0.636307 0.747355 0.250524
O O14 0.851578 0.738777 0.148306
O O15 0.673560 0.500000 0.489919
O O16 0.750000 0.750000 0.500000
O O17 0.101790 0.000000 0.001171
O O18 0.000000 0.229950 0.000000
O O19 0.070943 0.256112 0.049388
O O20 0.038216 0.500000 0.308338
O O21 0.486791 0.000000 0.110443
#
# Coordination Sequence:
#
# PCOD9184310 Si02
#       8
#     8   8   8   8   8   8   8   8
#     4  11  23  41  65  94 127 161 199 251 303 359
#     4  10  23  42  64  92 126 161 200 247 304 362
#     4  10  21  39  60  86 120 156 195 240 295 358
#     4  11  24  41  60  85 116 153 200 251 299 349
#     4  12  23  37  62  94 128 166 204 247 303 361
#     4  10  19  33  58  89 120 155 193 237 293 357
#     4  11  24  43  65  87 117 160 204 249 299 359
#     4  10  22  38  59  87 119 155 195 244 296 351
#
# _framework density 19.235634999999998
#
# number of rings (size 3 to 8) (size 9 to 14) (size 15 to 20)
#    0.000    1.375    2.500    3.000    0.000    5.750 
#    0.000    2.500    0.000    0.000    0.000    0.000 
#    0.000    0.000    0.000    0.000    0.000    0.000 
#
# Total GULP energy -178909.654876 kJ/mol
# GULP energy per Si atom -5590.926715 kJ/mol
# Density = 1.919185 g / cm^3
# Si number density = 19.235635 Si / 1000 Ang^3
#
#
#
# Elastic Constant Matrix: (Units=GPa)
#
#
# Indices 1 2 3 4 5 6 
#
# 1 80.7812 15.5840 -7.6533 0.0001 5.5896 -0.0008
# 2 15.5840 27.3593 9.8655 -0.0017 0.9826 -0.0011
# 3 -7.6533 9.8655 64.4850 0.0001 -4.8031 -0.0010
# 4 0.0001 -0.0017 0.0001 35.4414 -0.0002 0.1183
# 5 5.5896 0.9826 -4.8031 -0.0002 4.8087 -0.0003
# 6 -0.0008 -0.0011 -0.0010 0.1183 -0.0003 22.5527
#
#
#
# Elastic Compliance Matrix: (Units=1/GPa)
#
#
# Indices 1 2 3 4 5 6 
#
# 1 0.015268 -0.008983 0.002162 -0.000001 -0.013753 0.000000
# 2 -0.008983 0.044987 -0.008487 0.000002 -0.007229 0.000001
# 3 0.002162 -0.008487 0.018371 0.000000 0.017571 0.000001
# 4 -0.000001 0.000002 0.000000 0.028216 0.000001 -0.000148
# 5 -0.013753 -0.007229 0.017571 0.000001 0.242969 0.000003
# 6 0.000000 0.000001 0.000001 -0.000148 0.000003 0.044341
#
#
# Mechanical properties :
#
#
# Convention : Reuss Voigt Hill
#
# Bulk Modulus (GPa) = 20.82836 23.13534 21.98185
# Shear Modulus (GPa) = 11.34373 22.88251 17.11312
#
# Velocity S-wave (km/s) = 2.43106 3.45278 2.98595
# Velocity P-wave (km/s) = 4.32800 5.28669 4.83118
#
# Compressibility (1/GPa) = 0.04801146
#
# Stress axis : x y z
#
# Youngs Moduli (GPa) = 65.49454 22.22854 54.43284
#
# Poissons Ratio (x) = 0.19967 -0.11768
# Poissons Ratio (y) = 0.58831 0.46198
# Poissons Ratio (z) = -0.14160 0.18866
#
# Static dielectric constant tensor:
#      x y z
#    x 1.688090 0.000000 -0.007830 
#    y 0.000000 1.648830 0.000000 
#    z -0.007830 0.000000 1.629270 
# 
# From -- ./inp_files/375392.got.cif
#   From: 2010.05.17/outbox.cif.g08.bks.cpg/sg12_188_cif.got.tgz:375392.got - 2010.06.03 13:09:07.
