data_PCOD9184634
_publ_section_title
;
Structure prediction by ZEFSAII (Michael W. Deem and Ramdas Pophale) SiO2 
 PCOD9184634
Probable space group: C 2/M
;
_chemical_formula_sum "Si O2"
_cell_formula_units_Z 56
_cell_length_a 11.967748
_cell_length_b 15.298485
_cell_length_c 21.980608
_cell_angle_alpha 90.000000
_cell_angle_beta 146.646959
_cell_angle_gamma 90.000000
_cell_volume 2212.597376
_symmetry_space_group_name_H-M "C 2/M"
_symmetry_group_IT_number 12
_symmetry_cell_setting 'monoclinic'
loop_
_space_group_symop_operation_xyz
x,y,z
-x,y,-z
-x,-y,-z
x,-y,z
1/2+x,1/2+y,z
1/2-x,1/2+y,-z
1/2-x,1/2-y,-z
1/2+x,1/2-y,z
loop_
_atom_site_type_symbol
_atom_site_label
_atom_site_fract_x
_atom_site_fract_y
_atom_site_fract_z
Si Si1 0.520702 0.097197 0.413934
Si Si2 0.650285 0.407322 0.147694
Si Si3 0.734135 0.906102 0.035169
Si Si4 0.888238 0.272100 0.847763
Si Si5 0.270412 0.278428 0.664592
Si Si6 0.232011 0.096023 0.585693
Si Si7 0.430956 0.401686 0.258507
O O1 0.335245 0.090941 0.280141
O O2 0.451877 0.185335 0.416939
O O3 0.722175 0.105634 0.465050
O O4 0.522466 0.000000 0.443975
O O5 0.669341 0.500000 0.121531
O O6 0.430199 0.408766 0.080481
O O7 0.659406 0.308091 0.127695
O O8 0.808928 0.903841 0.138749
O O9 0.624058 0.000000 0.976442
O O10 0.585453 0.826798 0.954083
O O11 0.898933 0.232129 0.785205
O O12 0.699427 0.338371 0.759011
O O13 0.303303 0.185610 0.648163
O O14 0.359001 0.356251 0.663822
O O15 0.000000 0.092143 0.500000
O O16 0.321271 0.000000 0.643795
O O17 0.453240 0.500000 0.291050
#
# Coordination Sequence:
#
# PCOD9184634 Si02
#       7
#     8   8   8   8   8   8   8
#     4   9  17  35  60  83 108 146 188 222 272 340
#     4   9  17  31  53  76 105 150 194 227 266 326
#     4  10  19  34  53  77 113 156 196 232 273 327
#     4  11  21  32  54  84 115 150 195 242 279 315
#     4  11  21  36  62  85 111 146 189 236 279 326
#     4  10  23  42  62  85 114 146 181 224 282 351
#     4  11  22  37  56  83 115 153 192 228 277 333
#
# _framework density 25.309621
#
# number of rings (size 3 to 8) (size 9 to 14) (size 15 to 20)
#    0.000    1.857    2.857    3.429    0.000    2.857 
#    0.000    0.000    0.000    3.429    0.000    0.000 
#    0.000    0.000    0.000    0.000    0.000    0.000 
#
# Total GULP energy -156404.841761 kJ/mol
# GULP energy per Si atom -5585.887206 kJ/mol
# Density = 2.525201 g / cm^3
# Si number density = 25.309621 Si / 1000 Ang^3
#
#
#
# Elastic Constant Matrix: (Units=GPa)
#
#
# Indices 1 2 3 4 5 6 
#
# 1 72.5223 36.6849 22.7486 -0.0001 20.5700 0.0000
# 2 36.6849 240.7032 18.3398 -0.0005 5.9042 0.0001
# 3 22.7486 18.3398 53.2643 -0.0014 6.7514 0.0006
# 4 -0.0001 -0.0005 -0.0014 17.8687 0.0001 16.1275
# 5 20.5700 5.9042 6.7514 0.0001 37.5612 -0.0001
# 6 0.0000 0.0001 0.0006 16.1275 -0.0001 36.1188
#
#
#
# Elastic Compliance Matrix: (Units=1/GPa)
#
#
# Indices 1 2 3 4 5 6 
#
# 1 0.019554 -0.002267 -0.006405 -0.000001 -0.009201 0.000001
# 2 -0.002267 0.004535 -0.000676 0.000000 0.000650 0.000000
# 3 -0.006405 -0.000676 0.021781 0.000003 -0.000301 -0.000002
# 4 -0.000001 0.000000 0.000003 0.093742 0.000000 -0.041857
# 5 -0.009201 0.000650 -0.000301 0.000000 0.031614 0.000000
# 6 0.000001 0.000000 -0.000002 -0.041857 0.000000 0.046376
#
#
# Mechanical properties :
#
#
# Convention : Reuss Voigt Hill
#
# Bulk Modulus (GPa) = 36.79743 58.00404 47.40073
# Shear Modulus (GPa) = 20.37856 37.55751 28.96804
#
# Velocity S-wave (km/s) = 2.84063 3.85635 3.38678
# Velocity P-wave (km/s) = 5.03283 6.54187 5.83633
#
# Compressibility (1/GPa) = 0.02717581
#
# Stress axis : x y z
#
# Youngs Moduli (GPa) = 51.14008 220.48313 45.91236
#
# Poissons Ratio (x) = 0.49973 0.29406
# Poissons Ratio (y) = 0.11591 0.03104
# Poissons Ratio (z) = 0.32754 0.14905
#
# Static dielectric constant tensor:
#      x y z
#    x 1.993060 0.000000 -0.014910 
#    y 0.000000 2.075890 0.000000 
#    z -0.014910 0.000000 2.036570 
# 
# From -- ./inp_files/263413.got.cif
#   From: 2010.05.17/outbox.cif.g08.bks.cpg/sg12_132_cif.got.tgz:263413.got - 2010.06.03 13:09:07.
