data_PCOD9184550
_publ_section_title
;
Structure prediction by ZEFSAII (Michael W. Deem and Ramdas Pophale) SiO2 
 PCOD9184550
Probable space group: C 2/M
;
_chemical_formula_sum "Si O2"
_cell_formula_units_Z 50
_cell_length_a 19.793818
_cell_length_b 7.725359
_cell_length_c 28.134759
_cell_angle_alpha 90.000000
_cell_angle_beta 145.255898
_cell_angle_gamma 90.000000
_cell_volume 2451.880958
_symmetry_space_group_name_H-M "C 2/M"
_symmetry_group_IT_number 12
_symmetry_cell_setting 'monoclinic'
loop_
_space_group_symop_operation_xyz
x,y,z
-x,y,-z
-x,-y,-z
x,-y,z
1/2+x,1/2+y,z
1/2-x,1/2+y,-z
1/2-x,1/2-y,-z
1/2+x,1/2-y,z
loop_
_atom_site_type_symbol
_atom_site_label
_atom_site_fract_x
_atom_site_fract_y
_atom_site_fract_z
Si Si1 0.147207 0.790812 0.786251
Si Si2 0.606145 0.208263 0.026841
Si Si3 0.798786 0.196731 0.284098
Si Si4 0.671800 0.289824 0.590801
Si Si5 0.000000 0.500000 0.500000
Si Si6 0.459504 0.695472 0.856156
Si Si7 0.442181 0.203948 0.739703
O O1 0.266464 0.728488 0.881702
O O2 0.147943 0.722872 0.732605
O O3 0.032201 0.748043 0.750143
O O4 0.156298 0.000000 0.788405
O O5 0.607486 0.000000 0.030212
O O6 0.500000 0.270008 0.000000
O O7 0.570531 0.257551 0.952857
O O8 0.821558 0.269978 0.349492
O O9 0.655908 0.194429 0.196227
O O10 0.842282 0.000000 0.312339
O O11 0.649037 0.500000 0.574079
O O12 0.575963 0.156596 0.516078
O O13 0.804927 0.255541 0.649352
O O14 0.424467 0.500000 0.846586
O O15 0.478998 0.712303 0.811196
O O16 0.445204 0.000000 0.750790
#
# Coordination Sequence:
#
# PCOD9184550 Si02
#       7
#     8   8   8   8   2   8   8
#     4  10  20  34  58  83 109 153 202 237 287 349
#     4  10  19  34  52  75 110 153 197 246 297 334
#     4   9  18  36  57  83 114 151 191 238 284 339
#     4   9  21  39  62  94 122 149 189 233 290 350
#     4  12  22  36  72  98 116 150 180 242 284 354
#     4  11  21  32  53  77 111 149 199 251 286 333
#     4  10  22  39  56  81 116 154 189 238 292 341
#
# _framework density 20.392506999999998
#
# number of rings (size 3 to 8) (size 9 to 14) (size 15 to 20)
#    0.000    2.080    1.600    3.120    5.600    2.240 
#    0.000    0.000    0.000    0.960    0.000    0.000 
#    0.000    0.000    0.000    0.000    0.000    0.000 
#
# Total GULP energy -139172.570258 kJ/mol
# GULP energy per Si atom -5566.902810 kJ/mol
# Density = 2.034609 g / cm^3
# Si number density = 20.392507 Si / 1000 Ang^3
#
#
#
# Elastic Constant Matrix: (Units=GPa)
#
#
# Indices 1 2 3 4 5 6 
#
# 1 127.9582 4.4579 21.1013 -0.0002 21.1203 -0.0001
# 2 4.4579 67.2263 4.6052 -0.0006 11.5113 -0.0002
# 3 21.1013 4.6052 36.7951 0.0000 22.1269 0.0000
# 4 -0.0002 -0.0006 0.0000 -53.1483 0.0000 18.5011
# 5 21.1203 11.5113 22.1269 0.0000 22.3780 0.0000
# 6 -0.0001 -0.0002 0.0000 18.5011 0.0000 21.2155
#
#
#
# Elastic Compliance Matrix: (Units=1/GPa)
#
#
# Indices 1 2 3 4 5 6 
#
# 1 0.009316 0.001009 0.000322 0.000000 -0.009631 0.000000
# 2 0.001009 0.017284 0.007838 0.000000 -0.017593 0.000000
# 3 0.000322 0.007838 0.070596 0.000000 -0.074140 0.000000
# 4 0.000000 0.000000 0.000000 -0.014434 0.000000 0.012587
# 5 -0.009631 -0.017593 -0.074140 0.000000 0.136134 0.000000
# 6 0.000000 0.000000 0.000000 0.012587 0.000000 0.036159
#
#
# Mechanical properties :
#
#
# Convention : Reuss Voigt Hill
#
# Bulk Modulus (GPa) = 8.65542 32.47872 20.56707
# Shear Modulus (GPa) = 18.16676 11.54340 14.85508
#
# Velocity S-wave (km/s) = 2.98796 2.38178 2.70192
# Velocity P-wave (km/s) = 4.01964 4.85028 4.45436
#
# Compressibility (1/GPa) = 0.11553456
#
# Stress axis : x y z
#
# Youngs Moduli (GPa) = 107.33860 57.85762 14.16511
#
# Poissons Ratio (x) = -0.05839 -0.00457
# Poissons Ratio (y) = -0.10833 -0.11102
# Poissons Ratio (z) = -0.03460 -0.45347
#
# Static dielectric constant tensor:
#      x y z
#    x 1.733180 0.000000 -0.014400 
#    y 0.000000 1.782340 0.000000 
#    z -0.014400 0.000000 1.788250 
# 
# From -- ./inp_files/274230.got.cif
#   From: 2010.05.17/outbox.cif.g08.bks.cpg/sg12_138_cif.got.tgz:274230.got - 2010.06.03 13:09:07.
