data_PCOD9184878
_publ_section_title
;
Structure prediction by ZEFSAII (Michael W. Deem and Ramdas Pophale) SiO2 
 PCOD9184878
Probable space group: C 2/M
;
_chemical_formula_sum "Si O2"
_cell_formula_units_Z 50
_cell_length_a 24.826154
_cell_length_b 7.566750
_cell_length_c 17.315189
_cell_angle_alpha 90.000000
_cell_angle_beta 44.462184
_cell_angle_gamma 90.000000
_cell_volume 2278.326634
_symmetry_space_group_name_H-M "C 2/M"
_symmetry_group_IT_number 12
_symmetry_cell_setting 'monoclinic'
loop_
_space_group_symop_operation_xyz
x,y,z
-x,y,-z
-x,-y,-z
x,-y,z
1/2+x,1/2+y,z
1/2-x,1/2+y,-z
1/2-x,1/2-y,-z
1/2+x,1/2-y,z
loop_
_atom_site_type_symbol
_atom_site_label
_atom_site_fract_x
_atom_site_fract_y
_atom_site_fract_z
Si Si1 0.797070 0.288433 0.530425
Si Si2 0.708978 0.286549 0.926601
Si Si3 0.000000 0.000000 0.000000
Si Si4 0.367701 0.790302 0.837285
Si Si5 0.466119 0.786364 0.324945
Si Si6 0.678245 0.716590 0.783203
Si Si7 0.481947 0.803583 0.127926
O O1 0.802633 0.500000 0.528418
O O2 0.750000 0.250000 0.500000
O O3 0.884219 0.217601 0.438173
O O4 0.748694 0.235688 0.654954
O O5 0.711151 0.500000 0.924058
O O6 0.792506 0.219875 0.870595
O O7 0.693238 0.229512 0.855569
O O8 0.648578 0.233505 0.054606
O O9 0.024975 0.846228 0.036840
O O10 0.451651 0.719355 0.728615
O O11 0.369470 0.000000 0.821030
O O12 0.469935 0.756883 0.229243
O O13 0.465602 0.000000 0.336270
O O14 0.664939 0.500000 0.794164
O O15 0.603035 0.798510 0.822153
O O16 0.514787 0.000000 0.087175
#
# Coordination Sequence:
#
# PCOD9184878 Si02
#       7
#     8   8   2   8   8   8   8
#     4  10  19  34  55  77 109 146 188 237 287 344
#     4   9  19  34  54  78 107 144 187 231 286 345
#     4  12  26  40  52  82 128 152 186 244 290 352
#     4   9  18  35  55  76 105 144 186 236 285 340
#     4   9  19  35  55  80 109 144 193 239 285 344
#     4  10  20  35  54  81 114 149 189 237 286 343
#     4  11  23  37  56  84 117 156 191 232 293 353
#
# _framework density 21.945931000000002
#
# number of rings (size 3 to 8) (size 9 to 14) (size 15 to 20)
#    0.000    2.240    2.400    0.240    2.240    0.640 
#    0.000    0.800    0.000    4.800    0.000    0.000 
#    0.000    7.680    0.000    0.000    0.000    0.000 
#
# Total GULP energy -139454.664439 kJ/mol
# GULP energy per Si atom -5578.186578 kJ/mol
# Density = 2.189598 g / cm^3
# Si number density = 21.945931 Si / 1000 Ang^3
#
#
#
# Elastic Constant Matrix: (Units=GPa)
#
#
# Indices 1 2 3 4 5 6 
#
# 1 101.5322 -7.9266 49.8586 0.0025 -18.4296 0.0024
# 2 -7.9266 69.1940 10.8910 -0.0031 5.0143 0.0042
# 3 49.8586 10.8910 108.3688 0.0122 -30.1027 0.0007
# 4 0.0025 -0.0031 0.0122 19.4834 -0.0033 0.8887
# 5 -18.4296 5.0143 -30.1027 -0.0033 39.1791 -0.0036
# 6 0.0024 0.0042 0.0007 0.8887 -0.0036 14.9847
#
#
#
# Elastic Compliance Matrix: (Units=1/GPa)
#
#
# Indices 1 2 3 4 5 6 
#
# 1 0.013189 0.002346 -0.005929 0.000003 0.001348 -0.000002
# 2 0.002346 0.015569 -0.003676 0.000004 -0.003713 -0.000006
# 3 -0.005929 -0.003676 0.014851 -0.000008 0.009092 0.000004
# 4 0.000003 0.000004 -0.000008 0.051465 -0.000001 -0.003052
# 5 0.001348 -0.003713 0.009092 -0.000001 0.033618 0.000009
# 6 -0.000002 -0.000006 0.000004 -0.003052 0.000009 0.066916
#
#
# Mechanical properties :
#
#
# Convention : Reuss Voigt Hill
#
# Bulk Modulus (GPa) = 34.37500 42.74899 38.56200
# Shear Modulus (GPa) = 22.74585 29.81424 26.28004
#
# Velocity S-wave (km/s) = 3.22289 3.68982 3.46423
# Velocity P-wave (km/s) = 5.43570 6.13796 5.79747
#
# Compressibility (1/GPa) = 0.02909091
#
# Stress axis : x y z
#
# Youngs Moduli (GPa) = 75.82331 64.23223 67.33767
#
# Poissons Ratio (x) = -0.15072 0.39926
# Poissons Ratio (y) = -0.17791 0.24750
# Poissons Ratio (z) = 0.44957 0.23609
#
# Static dielectric constant tensor:
#      x y z
#    x 1.826260 -0.000010 -0.070680 
#    y -0.000010 1.822950 0.000010 
#    z -0.070680 0.000010 1.862820 
# 
# From -- ./inp_files/292142.got.cif
#   From: 2010.05.17/outbox.cif.g08.bks.cpg/sg12_147_cif.got.tgz:292142.got - 2010.06.03 13:09:07.
