data_PCOD9184504
_publ_section_title
;
Structure prediction by ZEFSAII (Michael W. Deem and Ramdas Pophale) SiO2 
 PCOD9184504
Probable space group: C 2/M
;
_chemical_formula_sum "Si O2"
_cell_formula_units_Z 64
_cell_length_a 31.672156
_cell_length_b 11.314031
_cell_length_c 20.967281
_cell_angle_alpha 90.000000
_cell_angle_beta 27.296678
_cell_angle_gamma 90.000000
_cell_volume 3445.635191
_symmetry_space_group_name_H-M "C 2/M"
_symmetry_group_IT_number 12
_symmetry_cell_setting 'monoclinic'
loop_
_space_group_symop_operation_xyz
x,y,z
-x,y,-z
-x,-y,-z
x,-y,z
1/2+x,1/2+y,z
1/2-x,1/2+y,-z
1/2-x,1/2-y,-z
1/2+x,1/2-y,z
loop_
_atom_site_type_symbol
_atom_site_label
_atom_site_fract_x
_atom_site_fract_y
_atom_site_fract_z
Si Si1 0.386385 0.739034 0.291253
Si Si2 0.600659 0.136980 0.852545
Si Si3 0.945737 0.139396 0.864686
Si Si4 0.216303 0.756975 0.337832
Si Si5 0.024744 0.863243 0.615846
Si Si6 0.783173 0.371819 0.536318
Si Si7 0.238247 0.639365 0.173335
Si Si8 0.547546 0.863974 0.366346
O O1 0.381253 0.843656 0.246697
O O2 0.488900 0.703782 0.172357
O O3 0.323463 0.640107 0.341644
O O4 0.336266 0.774800 0.423809
O O5 0.682935 0.193373 0.781809
O O6 0.597753 0.000000 0.872769
O O7 0.500000 0.190986 0.000000
O O8 0.987182 0.153957 0.738130
O O9 0.950338 0.000000 0.872519
O O10 0.839020 0.175571 0.013054
O O11 0.135181 0.849375 0.461961
O O12 0.204138 0.653675 0.406407
O O13 0.212316 0.710879 0.271509
O O14 0.987707 0.749619 0.625721
O O15 0.000033 0.000000 0.629902
O O16 0.819268 0.500000 0.471164
O O17 0.241978 0.500000 0.184997
O O18 0.156688 0.651197 0.231686
O O19 0.500000 0.860742 0.500000
O O20 0.530781 0.000000 0.364040
#
# Coordination Sequence:
#
# PCOD9184504 Si02
#       8
#     8   8   8   8   8   8   8   8
#     4  10  19  34  51  76 109 149 191 235 284 337
#     4  10  21  35  51  74 111 153 189 234 291 346
#     4  10  21  38  58  84 118 154 192 236 293 351
#     4  11  20  36  57  85 110 148 195 243 284 343
#     4  11  23  39  61  90 121 154 193 243 296 355
#     4  10  20  31  51  80 110 144 191 242 285 331
#     4  10  21  38  62  86 114 151 190 238 294 354
#     4  10  21  40  64  91 119 151 192 242 296 352
#
# _framework density 18.574224999999998
#
# number of rings (size 3 to 8) (size 9 to 14) (size 15 to 20)
#    0.000    1.750    2.500    2.250    0.000    1.250 
#    0.000    0.000    0.000    9.000    0.000    0.000 
#    0.000    0.000    0.000    0.000    0.000    0.000 
#
# Total GULP energy -178333.298522 kJ/mol
# GULP energy per Si atom -5572.915579 kJ/mol
# Density = 1.853195 g / cm^3
# Si number density = 18.574225 Si / 1000 Ang^3
#
#
#
# Elastic Constant Matrix: (Units=GPa)
#
#
# Indices 1 2 3 4 5 6 
#
# 1 59.9582 37.5202 15.0525 0.0000 -14.1043 0.0000
# 2 37.5202 77.7538 6.4794 0.0003 -2.6149 -0.0001
# 3 15.0525 6.4794 74.4944 0.0002 -17.0719 -0.0001
# 4 0.0000 0.0003 0.0002 22.4273 -0.0001 1.9686
# 5 -14.1043 -2.6149 -17.0719 -0.0001 32.8880 0.0000
# 6 0.0000 -0.0001 -0.0001 1.9686 0.0000 0.8923
#
#
#
# Elastic Compliance Matrix: (Units=1/GPa)
#
#
# Indices 1 2 3 4 5 6 
#
# 1 0.027480 -0.012751 -0.002242 0.000000 0.009608 -0.000003
# 2 -0.012751 0.018879 0.000029 -0.000001 -0.003952 0.000004
# 3 -0.002242 0.000029 0.015498 0.000000 0.007086 0.000003
# 4 0.000000 -0.000001 0.000000 0.055296 0.000000 -0.121991
# 5 0.009608 -0.003952 0.007086 0.000000 0.037890 -0.000001
# 6 -0.000003 0.000004 0.000003 -0.121991 -0.000001 1.389802
#
#
# Mechanical properties :
#
#
# Convention : Reuss Voigt Hill
#
# Bulk Modulus (GPa) = 31.31936 36.70120 34.01028
# Shear Modulus (GPa) = 3.15374 21.45181 12.30278
#
# Velocity S-wave (km/s) = 1.30445 3.40210 2.57642
# Velocity P-wave (km/s) = 4.37803 5.93587 5.21544
#
# Compressibility (1/GPa) = 0.03192913
#
# Stress axis : x y z
#
# Youngs Moduli (GPa) = 36.38984 52.96986 64.52365
#
# Poissons Ratio (x) = 0.67540 0.14466
# Poissons Ratio (y) = 0.46400 -0.00185
# Poissons Ratio (z) = 0.08158 -0.00152
#
# Static dielectric constant tensor:
#      x y z
#    x 1.635640 0.000000 -0.027690 
#    y 0.000000 1.653320 0.000000 
#    z -0.027690 0.000000 1.670510 
# 
# From -- ./inp_files/250803.got.cif
#   From: 2010.05.17/outbox.cif.g08.bks.cpg/sg12_126_cif.got.tgz:250803.got - 2010.06.03 13:09:07.
