data_PCOD9184494
_publ_section_title
;
Structure prediction by ZEFSAII (Michael W. Deem and Ramdas Pophale) SiO2 
 PCOD9184494
Probable space group: C 2/M
;
_chemical_formula_sum "Si O2"
_cell_formula_units_Z 64
_cell_length_a 29.142942
_cell_length_b 8.649292
_cell_length_c 14.437758
_cell_angle_alpha 90.000000
_cell_angle_beta 72.415906
_cell_angle_gamma 90.000000
_cell_volume 3469.219015
_symmetry_space_group_name_H-M "C 2/M"
_symmetry_group_IT_number 12
_symmetry_cell_setting 'monoclinic'
loop_
_space_group_symop_operation_xyz
x,y,z
-x,y,-z
-x,-y,-z
x,-y,z
1/2+x,1/2+y,z
1/2-x,1/2+y,-z
1/2-x,1/2-y,-z
1/2+x,1/2-y,z
loop_
_atom_site_type_symbol
_atom_site_label
_atom_site_fract_x
_atom_site_fract_y
_atom_site_fract_z
Si Si1 0.100554 0.820298 0.801673
Si Si2 0.946329 0.683519 0.996200
Si Si3 0.053366 0.822976 0.509635
Si Si4 0.529951 0.822553 0.705986
Si Si5 0.361468 0.317704 0.689395
Si Si6 0.288009 0.816445 0.596947
Si Si7 0.569999 0.315561 0.195588
Si Si8 0.816230 0.316440 0.376733
O O1 0.091527 0.724812 0.900549
O O2 0.053844 0.786251 0.767535
O O3 0.145004 0.766081 0.711562
O O4 0.104609 0.000000 0.821387
O O5 0.947463 0.500000 0.977930
O O6 0.932453 0.769744 0.910208
O O7 0.000000 0.728066 0.000000
O O8 0.056502 0.706827 0.593105
O O9 0.093038 0.798037 0.407310
O O10 0.000000 0.809915 0.500000
O O11 0.058611 0.000000 0.541396
O O12 0.474693 0.773441 0.730791
O O13 0.534285 0.000000 0.732872
O O14 0.349128 0.500000 0.697515
O O15 0.318218 0.225277 0.669248
O O16 0.381406 0.273790 0.778482
O O17 0.237395 0.728232 0.623298
O O18 0.317214 0.771260 0.485243
O O19 0.279116 0.000000 0.596680
O O20 0.563252 0.500000 0.211634
O O21 0.823934 0.500000 0.366074
#
# Coordination Sequence:
#
# PCOD9184494 Si02
#       8
#     8   8   8   8   8   8   8   8
#     4  12  24  38  60  85 113 151 192 238 290 349
#     4  11  23  39  59  85 115 149 192 245 295 345
#     4  10  19  34  51  73 107 150 192 231 274 332
#     4  12  23  34  50  78 113 150 190 235 284 337
#     4  10  21  36  56  80 112 153 195 236 284 339
#     4  10  21  37  60  89 120 154 193 234 285 347
#     4  11  22  38  57  79 109 152 197 236 282 341
#     4  10  21  39  62  89 120 151 189 241 291 340
#
# _framework density 18.447956999999999
#
# number of rings (size 3 to 8) (size 9 to 14) (size 15 to 20)
#    0.000    1.250    2.500    4.500    0.000    5.750 
#    0.000    0.000    0.000    0.750    0.000    0.000 
#    0.000    0.000    0.000    0.000    0.000    0.000 
#
# Total GULP energy -178811.559808 kJ/mol
# GULP energy per Si atom -5587.861244 kJ/mol
# Density = 1.840597 g / cm^3
# Si number density = 18.447957 Si / 1000 Ang^3
#
#
#
# Elastic Constant Matrix: (Units=GPa)
#
#
# Indices 1 2 3 4 5 6 
#
# 1 64.6515 6.8452 17.6221 0.0000 13.1780 0.0000
# 2 6.8452 33.2445 9.4436 0.0000 2.2920 0.0000
# 3 17.6221 9.4436 68.4427 0.0000 9.6934 0.0000
# 4 0.0000 0.0000 0.0000 25.0563 0.0000 0.3049
# 5 13.1780 2.2920 9.6934 0.0000 27.8011 0.0000
# 6 0.0000 0.0000 0.0000 0.3049 0.0000 25.9451
#
#
#
# Elastic Compliance Matrix: (Units=1/GPa)
#
#
# Indices 1 2 3 4 5 6 
#
# 1 0.018087 -0.002283 -0.003318 0.000000 -0.007228 0.000000
# 2 -0.002283 0.031629 -0.003745 0.000000 -0.000219 0.000000
# 3 -0.003318 -0.003745 0.016532 0.000000 -0.003882 0.000000
# 4 0.000000 0.000000 0.000000 0.039916 0.000000 -0.000469
# 5 -0.007228 -0.000219 -0.003882 0.000000 0.040768 0.000000
# 6 0.000000 0.000000 0.000000 -0.000469 0.000000 0.038548
#
#
# Mechanical properties :
#
#
# Convention : Reuss Voigt Hill
#
# Bulk Modulus (GPa) = 21.02838 26.01785 23.52312
# Shear Modulus (GPa) = 22.72467 24.58902 23.65684
#
# Velocity S-wave (km/s) = 3.51355 3.65483 3.58488
# Velocity P-wave (km/s) = 5.28048 5.65194 5.46936
#
# Compressibility (1/GPa) = 0.04755477
#
# Stress axis : x y z
#
# Youngs Moduli (GPa) = 55.28807 31.61626 60.48980
#
# Poissons Ratio (x) = 0.07219 0.20071
# Poissons Ratio (y) = 0.12624 0.22655
# Poissons Ratio (z) = 0.18345 0.11841
#
# Static dielectric constant tensor:
#      x y z
#    x 1.632890 0.000000 0.011650 
#    y 0.000000 1.621620 0.000000 
#    z 0.011650 0.000000 1.644800 
# 
# From -- ./inp_files/243813.got.cif
#   From: 2010.05.17/outbox.cif.g08.bks.cpg/sg12_122_cif.got.tgz:243813.got - 2010.06.03 13:09:07.
