data_PCOD9184556
_publ_section_title
;
Structure prediction by ZEFSAII (Michael W. Deem and Ramdas Pophale) SiO2 
 PCOD9184556
Probable space group: C 2/M
;
_chemical_formula_sum "Si O2"
_cell_formula_units_Z 44
_cell_length_a 16.820999
_cell_length_b 21.860058
_cell_length_c 6.973141
_cell_angle_alpha 90.000000
_cell_angle_beta 119.505065
_cell_angle_gamma 90.000000
_cell_volume 2231.549857
_symmetry_space_group_name_H-M "C 2/M"
_symmetry_group_IT_number 12
_symmetry_cell_setting 'monoclinic'
loop_
_space_group_symop_operation_xyz
x,y,z
-x,y,-z
-x,-y,-z
x,-y,z
1/2+x,1/2+y,z
1/2-x,1/2+y,-z
1/2-x,1/2-y,-z
1/2+x,1/2-y,z
loop_
_atom_site_type_symbol
_atom_site_label
_atom_site_fract_x
_atom_site_fract_y
_atom_site_fract_z
Si Si1 0.500000 0.836061 0.000000
Si Si2 0.533284 0.068905 0.756168
Si Si3 0.259244 0.114154 0.021620
Si Si4 0.288153 0.650266 0.624604
Si Si5 0.315959 0.784145 0.833254
Si Si6 0.102447 0.927865 0.545817
O O1 0.526480 0.883051 0.197680
O O2 0.578027 0.794894 0.006308
O O3 0.500000 0.072429 0.500000
O O4 0.520269 0.000000 0.808001
O O5 0.640684 0.086076 0.902846
O O6 0.264147 0.184898 0.951435
O O7 0.177383 0.083693 0.803379
O O8 0.243797 0.110726 0.231275
O O9 0.309124 0.715635 0.748516
O O10 0.215391 0.670852 0.377408
O O11 0.366122 0.614908 0.595428
O O12 0.000000 0.913544 0.500000
O O13 0.104727 0.000000 0.496574
#
# Coordination Sequence:
#
# PCOD9184556 Si02
#       6
#     4   8   8   8   8   8
#     4  10  19  34  52  76 111 144 170 216 268 314
#     4  10  20  33  52  80 110 142 180 214 255 318
#     4  10  20  36  58  82 111 146 182 225 276 327
#     4  10  20  38  59  80 108 146 181 226 283 330
#     4   9  20  35  55  84 113 139 181 224 269 331
#     4  10  23  40  56  80 111 143 188 238 278 326
#
# _framework density 19.717237999999998
#
# number of rings (size 3 to 8) (size 9 to 14) (size 15 to 20)
#    0.000    2.182    0.000    2.455    0.000    3.636 
#    0.000   10.909    0.000    0.000    0.000    0.000 
#    0.000    0.000    0.000    0.000    0.000    0.000 
#
# Total GULP energy -122470.135257 kJ/mol
# GULP energy per Si atom -5566.824330 kJ/mol
# Density = 1.967236 g / cm^3
# Si number density = 19.717238 Si / 1000 Ang^3
#
#
#
# Elastic Constant Matrix: (Units=GPa)
#
#
# Indices 1 2 3 4 5 6 
#
# 1 93.3860 32.2351 22.5686 0.0000 -9.1649 0.0000
# 2 32.2351 61.4554 14.7384 0.0000 1.2266 0.0000
# 3 22.5686 14.7384 64.4109 0.0000 -17.4288 0.0000
# 4 0.0000 0.0000 0.0000 25.1212 0.0000 -5.1935
# 5 -9.1649 1.2266 -17.4288 0.0000 38.2485 0.0000
# 6 0.0000 0.0000 0.0000 -5.1935 0.0000 11.8282
#
#
#
# Elastic Compliance Matrix: (Units=1/GPa)
#
#
# Indices 1 2 3 4 5 6 
#
# 1 0.013899 -0.006685 -0.002716 0.000000 0.002307 0.000000
# 2 -0.006685 0.020676 -0.003424 0.000000 -0.003825 0.000000
# 3 -0.002716 -0.003424 0.019521 0.000000 0.008354 0.000000
# 4 0.000000 0.000000 0.000000 0.043781 0.000000 0.019223
# 5 0.002307 -0.003825 0.008354 0.000000 0.030627 0.000000
# 6 0.000000 0.000000 0.000000 0.019223 0.000000 0.092984
#
#
# Mechanical properties :
#
#
# Convention : Reuss Voigt Hill
#
# Bulk Modulus (GPa) = 35.15410 39.81515 37.48463
# Shear Modulus (GPa) = 19.48418 25.02027 22.25222
#
# Velocity S-wave (km/s) = 3.14694 3.56610 3.36306
# Velocity P-wave (km/s) = 5.57424 6.09861 5.84231
#
# Compressibility (1/GPa) = 0.02844618
#
# Stress axis : x y z
#
# Youngs Moduli (GPa) = 71.95016 48.36574 51.22711
#
# Poissons Ratio (x) = 0.32332 0.13913
# Poissons Ratio (y) = 0.48098 0.17539
# Poissons Ratio (z) = 0.19541 0.16559
#
# Static dielectric constant tensor:
#      x y z
#    x 1.775810 0.000000 -0.061840 
#    y 0.000000 1.721070 0.000000 
#    z -0.061840 0.000000 1.723840 
# 
# From -- ./inp_files/17025.got.cif
#   From: 2010.05.17/outbox.cif.g08.bks.cpg/sg12_9_cif.got.tgz:17025.got - 2010.06.03 13:09:07.
