data_PCOD9184650
_publ_section_title
;
Structure prediction by ZEFSAII (Michael W. Deem and Ramdas Pophale) SiO2 
 PCOD9184650
Probable space group: C 2/M
;
_chemical_formula_sum "Si O2"
_cell_formula_units_Z 56
_cell_length_a 22.097640
_cell_length_b 28.146075
_cell_length_c 10.201529
_cell_angle_alpha 90.000000
_cell_angle_beta 27.984183
_cell_angle_gamma 90.000000
_cell_volume 2977.232404
_symmetry_space_group_name_H-M "C 2/M"
_symmetry_group_IT_number 12
_symmetry_cell_setting 'monoclinic'
loop_
_space_group_symop_operation_xyz
x,y,z
-x,y,-z
-x,-y,-z
x,-y,z
1/2+x,1/2+y,z
1/2-x,1/2+y,-z
1/2-x,1/2-y,-z
1/2+x,1/2-y,z
loop_
_atom_site_type_symbol
_atom_site_label
_atom_site_fract_x
_atom_site_fract_y
_atom_site_fract_z
Si Si1 0.455234 0.896424 0.943017
Si Si2 0.608986 0.443859 0.401218
Si Si3 0.673920 0.643408 0.423161
Si Si4 0.795337 0.697068 0.950939
Si Si5 0.619265 0.735983 0.676333
Si Si6 0.602412 0.055178 0.205713
Si Si7 0.573923 0.184961 0.554961
O O1 0.444908 0.936371 0.851334
O O2 0.552313 0.857272 0.698806
O O3 0.500000 0.911774 0.000000
O O4 0.313143 0.872691 0.213760
O O5 0.500000 0.439720 0.500000
O O6 0.614728 0.500000 0.431012
O O7 0.594495 0.404529 0.542826
O O8 0.749052 0.429819 0.073419
O O9 0.616242 0.681693 0.632938
O O10 0.700466 0.671009 0.234076
O O11 0.825599 0.673272 0.752511
O O12 0.933992 0.696028 0.758840
O O13 0.750000 0.750000 0.000000
O O14 0.750000 0.750000 0.500000
O O15 0.614151 0.768879 0.558188
O O16 0.500000 0.746359 0.000000
O O17 0.500000 0.078864 0.500000
O O18 0.607733 0.000000 0.226638
#
# Coordination Sequence:
#
# PCOD9184650 Si02
#       7
#     8   8   8   8   8   8   8
#     4  10  20  35  54  79 115 154 189 227 291 355
#     4   9  19  37  59  83 116 151 186 238 306 356
#     4  10  21  36  56  84 114 148 200 244 285 353
#     4  10  19  34  53  80 110 145 185 242 293 337
#     4  12  24  40  58  79 116 160 197 235 285 351
#     4   9  19  35  59  88 114 142 188 244 290 343
#     4  10  21  33  53  76 112 150 185 230 292 344
#
# _framework density 18.809415000000001
#
# number of rings (size 3 to 8) (size 9 to 14) (size 15 to 20)
#    0.000    2.000    1.429    3.000    6.000    1.429 
#    0.000    1.429    0.000    0.429    0.000    0.000 
#    0.000    0.000    0.000    0.000    0.000    0.000 
#
# Total GULP energy -156104.265003 kJ/mol
# GULP energy per Si atom -5575.152322 kJ/mol
# Density = 1.876660 g / cm^3
# Si number density = 18.809415 Si / 1000 Ang^3
#
#
#
# Elastic Constant Matrix: (Units=GPa)
#
#
# Indices 1 2 3 4 5 6 
#
# 1 89.2864 10.1105 37.4624 0.0046 8.8724 -0.0060
# 2 10.1105 54.9664 5.4869 -0.0010 -9.9002 -0.0004
# 3 37.4624 5.4869 54.8784 0.0064 5.8067 -0.0088
# 4 0.0046 -0.0010 0.0064 20.5372 -0.0043 -1.2390
# 5 8.8724 -9.9002 5.8067 -0.0043 15.7108 0.0060
# 6 -0.0060 -0.0004 -0.0088 -1.2390 0.0060 19.1512
#
#
#
# Elastic Compliance Matrix: (Units=1/GPa)
#
#
# Indices 1 2 3 4 5 6 
#
# 1 0.016641 -0.003450 -0.010189 -0.000002 -0.007806 0.000003
# 2 -0.003450 0.021928 -0.001567 0.000005 0.016345 -0.000006
# 3 -0.010189 -0.001567 0.025841 -0.000006 -0.004784 0.000010
# 4 -0.000002 0.000005 -0.000006 0.048883 0.000019 0.003163
# 5 -0.007806 0.016345 -0.004784 0.000019 0.080127 -0.000028
# 6 0.000003 -0.000006 0.000010 0.003163 -0.000028 0.052421
#
#
# Mechanical properties :
#
#
# Convention : Reuss Voigt Hill
#
# Bulk Modulus (GPa) = 29.41362 33.91675 31.66518
# Shear Modulus (GPa) = 17.38618 20.81794 19.10206
#
# Velocity S-wave (km/s) = 3.04358 3.33044 3.19024
# Velocity P-wave (km/s) = 5.29366 5.73237 5.51738
#
# Compressibility (1/GPa) = 0.03399786
#
# Stress axis : x y z
#
# Youngs Moduli (GPa) = 60.09113 45.60401 38.69877
#
# Poissons Ratio (x) = 0.15733 0.39431
# Poissons Ratio (y) = 0.20730 0.06064
# Poissons Ratio (z) = 0.61228 0.07146
#
# Static dielectric constant tensor:
#      x y z
#    x 1.626960 0.000000 0.009930 
#    y 0.000000 1.686310 0.000000 
#    z 0.009930 0.000000 1.674190 
# 
# From -- ./inp_files/91550.got.cif
#   From: 2010.05.17/outbox.cif.g08.bks.cpg/sg12_46_cif.got.tgz:91550.got - 2010.06.03 13:09:07.
