data_PCOD9184553
_publ_section_title
;
Structure prediction by ZEFSAII (Michael W. Deem and Ramdas Pophale) SiO2 
 PCOD9184553
Probable space group: C 2/M
;
_chemical_formula_sum "Si O2"
_cell_formula_units_Z 56
_cell_length_a 21.186019
_cell_length_b 7.644322
_cell_length_c 31.397201
_cell_angle_alpha 90.000000
_cell_angle_beta 146.934453
_cell_angle_gamma 90.000000
_cell_volume 2774.291771
_symmetry_space_group_name_H-M "C 2/M"
_symmetry_group_IT_number 12
_symmetry_cell_setting 'monoclinic'
loop_
_space_group_symop_operation_xyz
x,y,z
-x,y,-z
-x,-y,-z
x,-y,z
1/2+x,1/2+y,z
1/2-x,1/2+y,-z
1/2-x,1/2-y,-z
1/2+x,1/2-y,z
loop_
_atom_site_type_symbol
_atom_site_label
_atom_site_fract_x
_atom_site_fract_y
_atom_site_fract_z
Si Si1 0.829524 0.208825 0.004081
Si Si2 0.691193 0.796672 0.753993
Si Si3 0.666407 0.214977 0.835555
Si Si4 0.176769 0.710703 0.579383
Si Si5 0.073095 0.293404 0.259345
Si Si6 0.050200 0.714135 0.594574
Si Si7 0.911848 0.702971 0.827654
O O1 0.763167 0.270469 0.924251
O O2 0.841843 0.000000 0.008658
O O3 0.750000 0.250000 0.000000
O O4 0.957048 0.284564 0.082094
O O5 0.686827 0.722720 0.799030
O O6 0.604389 0.721617 0.669244
O O7 0.818754 0.788766 0.805938
O O8 0.658120 0.000000 0.739701
O O9 0.541194 0.273491 0.782035
O O10 0.668731 0.000000 0.836948
O O11 0.176547 0.500000 0.579364
O O12 0.307851 0.769676 0.648096
O O13 0.129513 0.767888 0.599166
O O14 0.080503 0.767783 0.490794
O O15 0.052657 0.500000 0.241880
O O16 0.089916 0.219593 0.221193
O O17 0.052574 0.500000 0.596217
O O18 0.877409 0.500000 0.805837
#
# Coordination Sequence:
#
# PCOD9184553 Si02
#       7
#     8   8   8   8   8   8   8
#     4  11  21  37  58  82 108 139 180 223 265 312
#     4  10  19  36  59  79 102 142 184 215 260 320
#     4   9  20  37  56  77 106 140 177 218 263 319
#     4   9  16  29  50  79 106 131 174 224 259 302
#     4  10  19  34  52  76 107 140 175 215 263 316
#     4   8  15  28  50  78 106 132 170 221 263 304
#     4  11  22  36  55  80 111 140 174 223 268 315
#
# _framework density 20.185331000000001
#
# number of rings (size 3 to 8) (size 9 to 14) (size 15 to 20)
#    0.000    2.286    2.857    1.714    0.000    1.143 
#    0.000    7.857    0.000    0.000    0.000    0.000 
#    0.000    0.000    0.000    0.000    0.000    0.000 
#
# Total GULP energy -156282.236848 kJ/mol
# GULP energy per Si atom -5581.508459 kJ/mol
# Density = 2.013939 g / cm^3
# Si number density = 20.185331 Si / 1000 Ang^3
#
#
#
# Elastic Constant Matrix: (Units=GPa)
#
#
# Indices 1 2 3 4 5 6 
#
# 1 119.2511 -3.1328 74.4782 0.0002 -15.4024 0.0007
# 2 -3.1328 38.3408 -12.6318 0.0005 -6.7908 0.0013
# 3 74.4782 -12.6318 165.8800 0.0000 -8.0279 0.0000
# 4 0.0002 0.0005 0.0000 20.4117 0.0000 6.2348
# 5 -15.4024 -6.7908 -8.0279 0.0000 33.5457 0.0003
# 6 0.0007 0.0013 0.0000 6.2348 0.0003 12.6495
#
#
#
# Elastic Compliance Matrix: (Units=1/GPa)
#
#
# Indices 1 2 3 4 5 6 
#
# 1 0.012253 0.000033 -0.005288 0.000000 0.004367 -0.000001
# 2 0.000033 0.027991 0.002420 0.000000 0.006260 -0.000003
# 3 -0.005288 0.002420 0.008593 0.000000 0.000118 0.000000
# 4 0.000000 0.000000 0.000000 0.057675 0.000000 -0.028427
# 5 0.004367 0.006260 0.000118 0.000000 0.033111 -0.000002
# 6 -0.000001 -0.000003 0.000000 -0.028427 -0.000002 0.093066
#
#
# Mechanical properties :
#
#
# Convention : Reuss Voigt Hill
#
# Bulk Modulus (GPa) = 23.16653 48.98878 36.07765
# Shear Modulus (GPa) = 19.78266 30.97196 25.37731
#
# Velocity S-wave (km/s) = 3.13397 3.92137 3.54957
# Velocity P-wave (km/s) = 4.95959 6.69515 5.89163
#
# Compressibility (1/GPa) = 0.04316573
#
# Stress axis : x y z
#
# Youngs Moduli (GPa) = 81.61308 35.72631 116.38029
#
# Poissons Ratio (x) = -0.00117 0.61537
# Poissons Ratio (y) = -0.00266 -0.28162
# Poissons Ratio (z) = 0.43154 -0.08645
#
# Static dielectric constant tensor:
#      x y z
#    x 1.688570 0.000000 -0.014890 
#    y 0.000000 1.793860 0.000000 
#    z -0.014890 0.000000 1.725770 
# 
# From -- ./inp_files/377757.got.cif
#   From: 2010.05.17/outbox.cif.g08.bks.cpg/sg12_189_cif.got.tgz:377757.got - 2010.06.03 13:09:07.
