data_PCOD9184664
_publ_section_title
;
Structure prediction by ZEFSAII (Michael W. Deem and Ramdas Pophale) SiO2 
 PCOD9184664
Probable space group: C 2/M
;
_chemical_formula_sum "Si O2"
_cell_formula_units_Z 46
_cell_length_a 30.323844
_cell_length_b 14.999192
_cell_length_c 14.564870
_cell_angle_alpha 90.000000
_cell_angle_beta 160.721934
_cell_angle_gamma 90.000000
_cell_volume 2187.127295
_symmetry_space_group_name_H-M "C 2/M"
_symmetry_group_IT_number 12
_symmetry_cell_setting 'monoclinic'
loop_
_space_group_symop_operation_xyz
x,y,z
-x,y,-z
-x,-y,-z
x,-y,z
1/2+x,1/2+y,z
1/2-x,1/2+y,-z
1/2-x,1/2-y,-z
1/2+x,1/2-y,z
loop_
_atom_site_type_symbol
_atom_site_label
_atom_site_fract_x
_atom_site_fract_y
_atom_site_fract_z
Si Si1 0.328374 0.329873 0.889883
Si Si2 0.129645 0.856457 0.698906
Si Si3 0.500000 0.000000 0.000000
Si Si4 0.865364 0.837682 0.500071
Si Si5 0.708209 0.000000 0.241724
Si Si6 0.785241 0.500000 0.419018
Si Si7 0.666908 0.855708 0.753890
Si Si8 0.503049 0.000000 0.332462
O O1 0.233321 0.245825 0.686366
O O2 0.299097 0.410699 0.763713
O O3 0.283088 0.358412 0.903912
O O4 0.483534 0.306708 0.187059
O O5 0.131091 0.879307 0.595435
O O6 0.128907 0.747497 0.694261
O O7 0.000000 0.886349 0.500000
O O8 0.260929 0.886826 0.011620
O O9 0.636072 0.000000 0.332030
O O10 0.591872 0.000000 0.087308
O O11 0.802412 0.914443 0.437461
O O12 0.633549 0.000000 0.994162
O O13 0.888119 0.500000 0.535602
O O14 0.544273 0.914027 0.474872
#
# Coordination Sequence:
#
# PCOD9184664 Si02
#       8
#     8   8   2   8   4   4   8   4
#     4  10  21  39  67  97 138 178 220 264 322 386
#     4  10  19  34  53  85 130 177 223 269 309 359
#     4  10  24  48  80 100 126 158 210 280 350 402
#     4  11  24  39  66  99 135 180 222 265 320 387
#     4  11  26  45  70  96 130 162 217 276 341 404
#     4   9  20  42  71  95 128 165 209 269 340 400
#     4   9  19  33  55  86 125 179 223 272 311 365
#     4   9  20  36  60  86 120 168 223 269 332 382
#
# _framework density 21.032156000000001
#
# number of rings (size 3 to 8) (size 9 to 14) (size 15 to 20)
#    0.000    2.087    1.739    0.522    9.739    0.696 
#    0.000    4.783    0.000    0.000    0.000    0.000 
#    0.000    0.000    0.000    0.000    0.000    0.000 
#
# Total GULP energy -128176.082729 kJ/mol
# GULP energy per Si atom -5572.873162 kJ/mol
# Density = 2.098429 g / cm^3
# Si number density = 21.032156 Si / 1000 Ang^3
#
#
#
# Elastic Constant Matrix: (Units=GPa)
#
#
# Indices 1 2 3 4 5 6 
#
# 1 70.6231 29.8974 49.1147 0.0000 1.9169 0.0000
# 2 29.8974 82.4659 50.5489 0.0000 5.6475 0.0000
# 3 49.1147 50.5489 163.6055 0.0000 17.6214 0.0000
# 4 0.0000 0.0000 0.0000 19.4292 0.0000 -1.4868
# 5 1.9169 5.6475 17.6214 0.0000 42.3488 0.0000
# 6 0.0000 0.0000 0.0000 -1.4868 0.0000 3.3011
#
#
#
# Elastic Compliance Matrix: (Units=1/GPa)
#
#
# Indices 1 2 3 4 5 6 
#
# 1 0.019103 -0.004212 -0.004607 0.000000 0.001614 0.000000
# 2 -0.004212 0.015888 -0.003598 0.000000 -0.000431 0.000000
# 3 -0.004607 -0.003598 0.008933 0.000000 -0.003029 0.000000
# 4 0.000000 0.000000 0.000000 0.053306 0.000000 0.024008
# 5 0.001614 -0.000431 -0.003029 0.000000 0.024858 0.000000
# 6 0.000000 0.000000 0.000000 0.024008 0.000000 0.313744
#
#
# Mechanical properties :
#
#
# Convention : Reuss Voigt Hill
#
# Bulk Modulus (GPa) = 52.38392 63.97961 58.18177
# Shear Modulus (GPa) = 10.70592 25.49137 18.09865
#
# Velocity S-wave (km/s) = 2.25861 3.48518 2.93665
# Velocity P-wave (km/s) = 5.63581 6.83237 6.26273
#
# Compressibility (1/GPa) = 0.01908983
#
# Stress axis : x y z
#
# Youngs Moduli (GPa) = 52.34750 62.93928 111.94109
#
# Poissons Ratio (x) = 0.26511 0.51574
# Poissons Ratio (y) = 0.22049 0.40277
# Poissons Ratio (z) = 0.24118 0.22646
#
# Static dielectric constant tensor:
#      x y z
#    x 1.731830 0.000000 -0.015290 
#    y 0.000000 1.809290 0.000000 
#    z -0.015290 0.000000 1.760020 
# 
# From -- ./inp_files/251552.got.cif
#   From: 2010.05.17/outbox.cif.g08.bks.cpg/sg12_126_cif.got.tgz:251552.got - 2010.06.03 13:09:07.
