data_PCOD9184240
_publ_section_title
;
Structure prediction by ZEFSAII (Michael W. Deem and Ramdas Pophale) SiO2 
 PCOD9184240
Probable space group: C 2/M
;
_chemical_formula_sum "Si O2"
_cell_formula_units_Z 64
_cell_length_a 29.392297
_cell_length_b 9.318361
_cell_length_c 17.618080
_cell_angle_alpha 90.000000
_cell_angle_beta 134.458664
_cell_angle_gamma 90.000000
_cell_volume 3444.144533
_symmetry_space_group_name_H-M "C 2/M"
_symmetry_group_IT_number 12
_symmetry_cell_setting 'monoclinic'
loop_
_space_group_symop_operation_xyz
x,y,z
-x,y,-z
-x,-y,-z
x,-y,z
1/2+x,1/2+y,z
1/2-x,1/2+y,-z
1/2-x,1/2-y,-z
1/2+x,1/2-y,z
loop_
_atom_site_type_symbol
_atom_site_label
_atom_site_fract_x
_atom_site_fract_y
_atom_site_fract_z
Si Si1 0.773415 0.670625 0.172930
Si Si2 0.035153 0.831283 0.963877
Si Si3 0.103656 0.670611 0.783627
Si Si4 0.354742 0.171224 0.416651
Si Si5 0.570760 0.661506 0.288710
Si Si6 0.979898 0.834327 0.597958
Si Si7 0.809850 0.330124 0.534378
Si Si8 0.640169 0.171721 0.997607
O O1 0.758623 0.500000 0.154036
O O2 0.828003 0.698888 0.174472
O O3 0.806527 0.704032 0.292261
O O4 0.710126 0.760356 0.084571
O O5 0.983437 0.818158 0.836629
O O6 0.053092 0.000000 0.991499
O O7 0.095761 0.738826 0.010715
O O8 0.000000 0.787825 0.000000
O O9 0.090888 0.500000 0.762475
O O10 0.047508 0.754771 0.675595
O O11 0.109414 0.707952 0.879373
O O12 0.421782 0.254070 0.488455
O O13 0.322613 0.205749 0.460446
O O14 0.367631 0.000000 0.430494
O O15 0.597617 0.500000 0.311081
O O16 0.540364 0.669879 0.336781
O O17 0.626643 0.776387 0.349165
O O18 0.984790 0.000000 0.580199
O O19 0.801891 0.500000 0.531103
O O20 0.750000 0.250000 0.500000
O O21 0.643177 0.000000 0.006543
#
# Coordination Sequence:
#
# PCOD9184240 Si02
#       8
#     8   8   8   8   8   8   8   8
#     4  10  22  40  60  81 112 155 197 234 280 343
#     4  10  21  38  60  84 111 148 191 232 279 339
#     4  10  21  37  59  85 112 150 194 234 283 343
#     4   9  20  38  57  79 110 148 189 233 281 336
#     4   9  18  34  54  78 106 139 181 226 272 325
#     4  10  19  33  58  85 111 145 183 232 283 333
#     4  10  20  34  55  80 106 141 183 227 277 332
#     4  11  23  38  58  85 118 150 187 240 292 336
#
# _framework density 18.582263000000001
#
# number of rings (size 3 to 8) (size 9 to 14) (size 15 to 20)
#    0.000    2.125    1.250    1.500    0.000    4.750 
#    0.000    7.500    0.000    0.000    0.000    0.000 
#    0.000    0.000    0.000    0.000    0.000    0.000 
#
# Total GULP energy -178679.756662 kJ/mol
# GULP energy per Si atom -5583.742396 kJ/mol
# Density = 1.853997 g / cm^3
# Si number density = 18.582263 Si / 1000 Ang^3
#
#
#
# Elastic Constant Matrix: (Units=GPa)
#
#
# Indices 1 2 3 4 5 6 
#
# 1 90.5508 55.1534 34.4214 0.0000 15.2852 0.0000
# 2 55.1534 66.8901 42.1816 0.0000 17.6676 0.0000
# 3 34.4214 42.1816 53.9440 0.0000 11.5252 0.0000
# 4 0.0000 0.0000 0.0000 33.7159 0.0000 12.6199
# 5 15.2852 17.6676 11.5252 0.0000 27.6788 0.0000
# 6 0.0000 0.0000 0.0000 12.6199 0.0000 28.9946
#
#
#
# Elastic Compliance Matrix: (Units=1/GPa)
#
#
# Indices 1 2 3 4 5 6 
#
# 1 0.022199 -0.018310 0.000301 0.000000 -0.000697 0.000000
# 2 -0.018310 0.047427 -0.023155 0.000000 -0.010521 0.000000
# 3 0.000301 -0.023155 0.036584 0.000000 -0.000620 0.000000
# 4 0.000000 0.000000 0.000000 0.035432 0.000000 -0.015422
# 5 -0.000697 -0.010521 -0.000620 0.000000 0.043487 0.000000
# 6 0.000000 0.000000 0.000000 -0.015422 0.000000 0.041202
#
#
# Mechanical properties :
#
#
# Convention : Reuss Voigt Hill
#
# Bulk Modulus (GPa) = 41.86980 52.76641 47.31811
# Shear Modulus (GPa) = 15.79185 23.38642 19.58913
#
# Velocity S-wave (km/s) = 2.91835 3.55143 3.25034
# Velocity P-wave (km/s) = 5.82553 6.72864 6.29331
#
# Compressibility (1/GPa) = 0.02388356
#
# Stress axis : x y z
#
# Youngs Moduli (GPa) = 45.04726 21.08482 27.33435
#
# Poissons Ratio (x) = 0.38606 -0.00823
# Poissons Ratio (y) = 0.82480 0.63293
# Poissons Ratio (z) = -0.01357 0.48822
#
# Static dielectric constant tensor:
#      x y z
#    x 1.637160 0.000000 -0.021640 
#    y 0.000000 1.631780 0.000000 
#    z -0.021640 0.000000 1.617590 
# 
# From -- ./inp_files/295847.got.cif
#   From: 2010.05.17/outbox.cif.g08.bks.cpg/sg12_148_cif.got.tgz:295847.got - 2010.06.03 13:09:07.
