data_PCOD9184348
_publ_section_title
;
Structure prediction by ZEFSAII (Michael W. Deem and Ramdas Pophale) SiO2 
 PCOD9184348
Probable space group: C 2/M
;
_chemical_formula_sum "Si O2"
_cell_formula_units_Z 48
_cell_length_a 7.102158
_cell_length_b 18.597880
_cell_length_c 27.191866
_cell_angle_alpha 90.000000
_cell_angle_beta 142.217464
_cell_angle_gamma 90.000000
_cell_volume 2200.476280
_symmetry_space_group_name_H-M "C 2/M"
_symmetry_group_IT_number 12
_symmetry_cell_setting 'monoclinic'
loop_
_space_group_symop_operation_xyz
x,y,z
-x,y,-z
-x,-y,-z
x,-y,z
1/2+x,1/2+y,z
1/2-x,1/2+y,-z
1/2-x,1/2-y,-z
1/2+x,1/2-y,z
loop_
_atom_site_type_symbol
_atom_site_label
_atom_site_fract_x
_atom_site_fract_y
_atom_site_fract_z
Si Si1 0.922461 0.311250 0.344156
Si Si2 0.583718 0.083486 0.799300
Si Si3 0.692898 0.081099 0.471521
Si Si4 0.428090 0.351753 0.368277
Si Si5 0.056738 0.816626 0.837247
Si Si6 0.152808 0.336082 0.910090
O O1 0.020017 0.229733 0.375219
O O2 0.597600 0.310072 0.248982
O O3 0.960431 0.361429 0.399582
O O4 0.157202 0.342058 0.352645
O O5 0.247114 0.109449 0.712081
O O6 0.616922 0.100671 0.863401
O O7 0.841203 0.131272 0.824651
O O8 0.621743 0.000000 0.795369
O O9 0.000000 0.082329 0.500000
O O10 0.814751 0.103876 0.550135
O O11 0.572517 0.000000 0.445642
O O12 0.072386 0.738715 0.865675
O O13 0.402770 0.843766 0.901400
O O14 0.500000 0.331849 0.000000
#
# Coordination Sequence:
#
# PCOD9184348 Si02
#       6
#     8   8   8   8   8   8
#     4  10  19  33  59  87 115 158 212 255 301 375
#     4  11  25  42  65  97 134 171 216 268 325 383
#     4   9  18  32  53  84 121 159 203 252 307 367
#     4  10  19  35  59  86 120 164 208 254 312 369
#     4  11  22  41  68  98 127 170 218 265 319 386
#     4  12  24  42  72  99 127 168 218 266 324 392
#
# _framework density 21.813459999999999
#
# number of rings (size 3 to 8) (size 9 to 14) (size 15 to 20)
#    0.000    1.500    3.333    2.500    0.000    5.000 
#    0.000    0.833    0.000    1.000    0.000    0.000 
#    0.000    0.000    0.000    0.000    0.000    0.000 
#
# Total GULP energy -134284.875532 kJ/mol
# GULP energy per Si atom -5595.203147 kJ/mol
# Density = 2.176381 g / cm^3
# Si number density = 21.813460 Si / 1000 Ang^3
#
#
#
# Elastic Constant Matrix: (Units=GPa)
#
#
# Indices 1 2 3 4 5 6 
#
# 1 57.0906 -10.6111 14.2752 -0.0009 20.0375 -0.0039
# 2 -10.6111 110.9482 42.1673 -0.0002 -2.0397 0.0012
# 3 14.2752 42.1673 97.6846 -0.0022 10.4382 -0.0072
# 4 -0.0009 -0.0002 -0.0022 17.9837 -0.0015 53.0776
# 5 20.0375 -2.0397 10.4382 -0.0015 30.3156 -0.0059
# 6 -0.0039 0.0012 -0.0072 53.0776 -0.0059 332.1968
#
#
#
# Elastic Compliance Matrix: (Units=1/GPa)
#
#
# Indices 1 2 3 4 5 6 
#
# 1 0.024083 0.003331 -0.003405 0.000000 -0.014522 0.000000
# 2 0.003331 0.011416 -0.005463 0.000000 0.000447 0.000000
# 3 -0.003405 -0.005463 0.013384 0.000001 -0.002725 0.000000
# 4 0.000000 0.000000 0.000001 0.105229 0.000002 -0.016813
# 5 -0.014522 0.000447 -0.002725 0.000002 0.043553 0.000000
# 6 0.000000 0.000000 0.000000 -0.016813 0.000000 0.005697
#
#
# Mechanical properties :
#
#
# Convention : Reuss Voigt Hill
#
# Bulk Modulus (GPa) = 26.44897 39.70957 33.07927
# Shear Modulus (GPa) = 22.02264 90.75868 56.39066
#
# Velocity S-wave (km/s) = 3.18085 6.45733 5.08993
# Velocity P-wave (km/s) = 5.06377 8.59301 7.05271
#
# Compressibility (1/GPa) = 0.03780865
#
# Stress axis : x y z
#
# Youngs Moduli (GPa) = 41.52255 87.59571 74.71691
#
# Poissons Ratio (x) = -0.29175 0.25444
# Poissons Ratio (y) = -0.13830 0.40814
# Poissons Ratio (z) = 0.14140 0.47849
#
# Static dielectric constant tensor:
#      x y z
#    x 1.853600 0.000000 0.000350 
#    y 0.000000 1.751680 0.000000 
#    z 0.000350 0.000000 1.792370 
# 
# From -- ./inp_files/256458.got.cif
#   From: 2010.05.17/outbox.cif.g08.bks.cpg/sg12_129_cif.got.tgz:256458.got - 2010.06.03 13:09:07.
