data_PCOD9184074
_publ_section_title
;
Structure prediction by ZEFSAII (Michael W. Deem and Ramdas Pophale) SiO2 
 PCOD9184074
Probable space group: C 2/M
;
_chemical_formula_sum "Si O2"
_cell_formula_units_Z 56
_cell_length_a 31.308045
_cell_length_b 9.675763
_cell_length_c 21.302022
_cell_angle_alpha 90.000000
_cell_angle_beta 151.228637
_cell_angle_gamma 90.000000
_cell_volume 3105.932140
_symmetry_space_group_name_H-M "C 2/M"
_symmetry_group_IT_number 12
_symmetry_cell_setting 'monoclinic'
loop_
_space_group_symop_operation_xyz
x,y,z
-x,y,-z
-x,-y,-z
x,-y,z
1/2+x,1/2+y,z
1/2-x,1/2+y,-z
1/2-x,1/2-y,-z
1/2+x,1/2-y,z
loop_
_atom_site_type_symbol
_atom_site_label
_atom_site_fract_x
_atom_site_fract_y
_atom_site_fract_z
Si Si1 0.722385 0.167508 0.402419
Si Si2 0.341027 0.838883 0.914956
Si Si3 0.541117 0.163947 0.485643
Si Si4 0.697684 0.338503 0.627023
Si Si5 0.115936 0.343410 0.815668
Si Si6 0.200081 0.158514 0.024073
Si Si7 0.526718 0.832469 0.103786
O O1 0.750000 0.250000 0.500000
O O2 0.785613 0.198697 0.424051
O O3 0.622443 0.208823 0.252828
O O4 0.723987 0.000000 0.413960
O O5 0.291447 0.827514 0.784418
O O6 0.335540 0.000000 0.926489
O O7 0.293608 0.743529 0.904117
O O8 0.443637 0.797658 0.040896
O O9 0.500000 0.207064 0.500000
O O10 0.626318 0.247647 0.572067
O O11 0.466021 0.182222 0.335771
O O12 0.561790 0.000000 0.517294
O O13 0.671411 0.500000 0.596007
O O14 0.108673 0.500000 0.831750
O O15 0.129363 0.234488 0.888218
O O16 0.205438 0.337712 0.889434
O O17 0.176462 0.000000 0.004830
O O18 0.529240 0.000000 0.103133
O O19 0.500000 0.781425 0.000000
#
# Coordination Sequence:
#
# PCOD9184074 Si02
#       7
#     8   8   8   8   8   8   8
#     4  10  21  38  59  84 115 150 189 233 284 337
#     4  10  19  33  57  84 107 137 184 230 271 324
#     4  10  21  37  57  80 110 148 187 226 272 333
#     4  10  21  36  56  83 113 145 184 235 283 329
#     4   9  19  36  54  73 104 145 185 220 263 325
#     4  10  20  34  54  79 107 139 176 226 280 323
#     4   9  16  33  60  81 101 139 188 226 259 317
#
# _framework density 18.030014000000001
#
# number of rings (size 3 to 8) (size 9 to 14) (size 15 to 20)
#    0.000    2.286    1.429    1.286    0.000    4.857 
#    0.000    5.000    0.000    0.857    0.000    0.000 
#    0.000    0.000    0.000    0.000    0.000    0.000 
#
# Total GULP energy -156163.695099 kJ/mol
# GULP energy per Si atom -5577.274825 kJ/mol
# Density = 1.798898 g / cm^3
# Si number density = 18.030014 Si / 1000 Ang^3
#
#
#
# Elastic Constant Matrix: (Units=GPa)
#
#
# Indices 1 2 3 4 5 6 
#
# 1 90.8194 51.7421 36.9689 0.0000 -11.1572 0.0000
# 2 51.7421 61.7515 34.2722 0.0000 -3.4705 0.0000
# 3 36.9689 34.2722 86.3869 0.0000 2.8359 0.0000
# 4 0.0000 0.0000 0.0000 14.9804 0.0000 -8.5851
# 5 -11.1572 -3.4705 2.8359 0.0000 28.3225 0.0000
# 6 0.0000 0.0000 0.0000 -8.5851 0.0000 23.2290
#
#
#
# Elastic Compliance Matrix: (Units=1/GPa)
#
#
# Indices 1 2 3 4 5 6 
#
# 1 0.022911 -0.016945 -0.003321 0.000000 0.007282 0.000000
# 2 -0.016945 0.033627 -0.006025 0.000000 -0.001951 0.000000
# 3 -0.003321 -0.006025 0.015506 0.000000 -0.003599 0.000000
# 4 0.000000 0.000000 0.000000 0.084692 0.000000 0.031301
# 5 0.007282 -0.001951 -0.003599 0.000000 0.038297 0.000000
# 6 0.000000 0.000000 0.000000 0.031301 0.000000 0.054618
#
#
# Mechanical properties :
#
#
# Convention : Reuss Voigt Hill
#
# Bulk Modulus (GPa) = 51.38518 53.88047 52.63283
# Shear Modulus (GPa) = 16.19587 21.03804 18.61695
#
# Velocity S-wave (km/s) = 3.00037 3.41960 3.21682
# Velocity P-wave (km/s) = 6.36904 6.74835 6.56143
#
# Compressibility (1/GPa) = 0.01946086
#
# Stress axis : x y z
#
# Youngs Moduli (GPa) = 43.64625 29.73828 64.49291
#
# Poissons Ratio (x) = 0.50392 0.21420
# Poissons Ratio (y) = 0.73959 0.38857
# Poissons Ratio (z) = 0.14496 0.17917
#
# Static dielectric constant tensor:
#      x y z
#    x 1.617090 0.000000 0.001150 
#    y 0.000000 1.598420 0.000000 
#    z 0.001150 0.000000 1.621450 
# 
# From -- ./inp_files/329718.got.cif
#   From: 2010.05.17/outbox.cif.g08.bks.cpg/sg12_165_cif.got.tgz:329718.got - 2010.06.03 13:09:07.
