data_PCOD9184790
_publ_section_title
;
Structure prediction by ZEFSAII (Michael W. Deem and Ramdas Pophale) SiO2 
 PCOD9184790
Probable space group: C 2/M
;
_chemical_formula_sum "Si O2"
_cell_formula_units_Z 52
_cell_length_a 22.696666
_cell_length_b 22.081889
_cell_length_c 5.081811
_cell_angle_alpha 90.000000
_cell_angle_beta 83.670411
_cell_angle_gamma 90.000000
_cell_volume 2531.403076
_symmetry_space_group_name_H-M "C 2/M"
_symmetry_group_IT_number 12
_symmetry_cell_setting 'monoclinic'
loop_
_space_group_symop_operation_xyz
x,y,z
-x,y,-z
-x,-y,-z
x,-y,z
1/2+x,1/2+y,z
1/2-x,1/2+y,-z
1/2-x,1/2-y,-z
1/2+x,1/2-y,z
loop_
_atom_site_type_symbol
_atom_site_label
_atom_site_fract_x
_atom_site_fract_y
_atom_site_fract_z
Si Si1 0.163592 0.573163 0.588083
Si Si2 0.067678 0.874799 0.373861
Si Si3 0.042647 0.500000 0.232313
Si Si4 0.371464 0.427844 0.150408
Si Si5 0.739549 0.072704 0.064296
Si Si6 0.570833 0.121576 0.013287
Si Si7 0.458286 0.242234 0.766620
O O1 0.151070 0.500000 0.588860
O O2 0.194103 0.595498 0.307235
O O3 0.213419 0.583365 0.789782
O O4 0.106423 0.607550 0.730803
O O5 0.109234 0.895273 0.592098
O O6 0.073508 0.803847 0.301554
O O7 0.000000 0.884033 0.500000
O O8 0.083305 0.912084 0.105605
O O9 0.079336 0.561620 0.187935
O O10 0.000000 0.500000 0.500000
O O11 0.000000 0.500000 0.000000
O O12 0.370438 0.500000 0.196988
O O13 0.306452 0.407223 0.084862
O O14 0.740378 0.000000 0.098498
O O15 0.583483 0.186209 0.135258
O O16 0.500000 0.125003 0.000000
O O17 0.500000 0.223733 0.500000
O O18 0.500000 0.256222 0.000000
#
# Coordination Sequence:
#
# PCOD9184790 Si02
#       7
#     8   8   4   8   8   8   8
#     4  10  19  34  54  81 113 148 189 238 279 327
#     4  11  22  37  59  87 118 147 182 226 279 344
#     4  10  20  32  48  78 114 140 176 230 283 328
#     4  11  22  38  61  87 115 147 182 231 285 336
#     4   9  20  36  55  78 109 150 190 223 276 341
#     4  10  21  36  56  85 116 152 189 238 291 333
#     4  10  21  38  56  78 114 159 193 217 267 350
#
# _framework density 20.541967
#
# number of rings (size 3 to 8) (size 9 to 14) (size 15 to 20)
#    0.000    1.846    0.769    4.154    0.000    9.231 
#    0.000    0.000    0.000    5.538    0.000    0.000 
#    0.000    0.000    0.000    0.000    0.000    0.000 
#
# Total GULP energy -145350.393007 kJ/mol
# GULP energy per Si atom -5590.399731 kJ/mol
# Density = 2.049521 g / cm^3
# Si number density = 20.541967 Si / 1000 Ang^3
#
#
#
# Elastic Constant Matrix: (Units=GPa)
#
#
# Indices 1 2 3 4 5 6 
#
# 1 68.3728 43.7276 8.2532 0.0000 2.9175 0.0000
# 2 43.7276 87.3507 26.8489 0.0000 6.1413 0.0000
# 3 8.2532 26.8489 99.6335 0.0000 6.2820 0.0000
# 4 0.0000 0.0000 0.0000 29.3641 0.0000 2.1079
# 5 2.9175 6.1413 6.2820 0.0000 28.8431 0.0000
# 6 0.0000 0.0000 0.0000 2.1079 0.0000 2.2080
#
#
#
# Elastic Compliance Matrix: (Units=1/GPa)
#
#
# Indices 1 2 3 4 5 6 
#
# 1 0.021651 -0.011212 0.001232 0.000000 -0.000071 0.000000
# 2 -0.011212 0.018398 -0.003907 0.000000 -0.001932 0.000000
# 3 0.001232 -0.003907 0.011095 0.000000 -0.001709 0.000000
# 4 0.000000 0.000000 0.000000 0.036561 0.000000 -0.034903
# 5 -0.000071 -0.001932 -0.001709 0.000000 0.035461 0.000000
# 6 0.000000 0.000000 0.000000 -0.034903 0.000000 0.486227
#
#
# Mechanical properties :
#
#
# Convention : Reuss Voigt Hill
#
# Bulk Modulus (GPa) = 42.78985 45.89071 44.34028
# Shear Modulus (GPa) = 7.75247 23.85152 15.80199
#
# Velocity S-wave (km/s) = 1.94478 3.41121 2.77655
# Velocity P-wave (km/s) = 5.09103 6.15659 5.64899
#
# Compressibility (1/GPa) = 0.02337003
#
# Stress axis : x y z
#
# Youngs Moduli (GPa) = 46.18811 54.35488 90.12782
#
# Poissons Ratio (x) = 0.60943 -0.11108
# Poissons Ratio (y) = 0.51786 0.35214
# Poissons Ratio (z) = -0.05692 0.21237
#
# Static dielectric constant tensor:
#      x y z
#    x 1.753170 0.000000 0.028780 
#    y 0.000000 1.744020 0.000000 
#    z 0.028780 0.000000 1.753350 
# 
# From -- ./inp_files/21173.got.cif
#   From: 2010.05.17/outbox.cif.g08.bks.cpg/sg12_11_cif.got.tgz:21173.got - 2010.06.03 13:09:07.
