data_PCOD9184639
_publ_section_title
;
Structure prediction by ZEFSAII (Michael W. Deem and Ramdas Pophale) SiO2 
 PCOD9184639
Probable space group: C 2/M
;
_chemical_formula_sum "Si O2"
_cell_formula_units_Z 56
_cell_length_a 18.263577
_cell_length_b 11.439511
_cell_length_c 13.823830
_cell_angle_alpha 90.000000
_cell_angle_beta 91.042259
_cell_angle_gamma 90.000000
_cell_volume 2887.685054
_symmetry_space_group_name_H-M "C 2/M"
_symmetry_group_IT_number 12
_symmetry_cell_setting 'monoclinic'
loop_
_space_group_symop_operation_xyz
x,y,z
-x,y,-z
-x,-y,-z
x,-y,z
1/2+x,1/2+y,z
1/2-x,1/2+y,-z
1/2-x,1/2-y,-z
1/2+x,1/2-y,z
loop_
_atom_site_type_symbol
_atom_site_label
_atom_site_fract_x
_atom_site_fract_y
_atom_site_fract_z
Si Si1 0.084734 0.878513 0.025038
Si Si2 0.712177 0.126809 0.122972
Si Si3 0.832246 0.862274 0.582863
Si Si4 0.169719 0.311432 0.909100
Si Si5 0.658794 0.864127 0.555174
Si Si6 0.441605 0.870291 0.259429
Si Si7 0.590658 0.737875 0.225931
O O1 0.091723 0.851325 0.137118
O O2 0.122425 0.000000 0.002753
O O3 0.118313 0.782036 0.959294
O O4 0.000000 0.883336 0.000000
O O5 0.764998 0.238019 0.138128
O O6 0.639641 0.155940 0.183243
O O7 0.741068 0.000000 0.154080
O O8 0.698359 0.123311 0.006083
O O9 0.743811 0.860993 0.590287
O O10 0.850594 0.751907 0.511874
O O11 0.872185 0.823867 0.682067
O O12 0.850939 0.000000 0.557489
O O13 0.118688 0.369400 0.827898
O O14 0.603338 0.850654 0.643197
O O15 0.647734 0.000000 0.515613
O O16 0.508213 0.781104 0.244834
O O17 0.474600 0.000000 0.264116
#
# Coordination Sequence:
#
# PCOD9184639 Si02
#       7
#     8   8   8   8   8   8   8
#     4  10  19  34  53  78 114 154 192 233 281 337
#     4  10  21  35  54  83 115 152 195 246 294 343
#     4  10  21  42  66  90 117 151 195 245 300 353
#     4  10  20  36  55  80 111 152 200 241 287 343
#     4   9  21  41  66  89 115 152 197 245 295 353
#     4  11  22  38  58  84 115 154 194 236 291 352
#     4  11  22  36  57  87 119 152 192 237 292 352
#
# _framework density 19.392697999999999
#
# number of rings (size 3 to 8) (size 9 to 14) (size 15 to 20)
#    0.000    1.857    1.429    2.571    0.000    1.714 
#    0.000   14.286    0.000    0.000    0.000    0.000 
#    0.000    0.000    0.000    0.000    0.000    0.000 
#
# Total GULP energy -155915.222252 kJ/mol
# GULP energy per Si atom -5568.400795 kJ/mol
# Density = 1.934856 g / cm^3
# Si number density = 19.392698 Si / 1000 Ang^3
#
#
#
# Elastic Constant Matrix: (Units=GPa)
#
#
# Indices 1 2 3 4 5 6 
#
# 1 67.9839 30.1328 28.9904 0.0000 -7.1757 0.0000
# 2 30.1328 121.3374 37.1324 0.0000 -1.0562 0.0000
# 3 28.9904 37.1324 77.6519 0.0000 10.2361 0.0000
# 4 0.0000 0.0000 0.0000 0.5338 0.0000 -25.7188
# 5 -7.1757 -1.0562 10.2361 0.0000 29.4045 0.0000
# 6 0.0000 0.0000 0.0000 -25.7188 0.0000 79.2887
#
#
#
# Elastic Compliance Matrix: (Units=1/GPa)
#
#
# Indices 1 2 3 4 5 6 
#
# 1 0.019626 -0.002673 -0.006988 0.000000 0.007126 0.000000
# 2 -0.002673 0.010138 -0.003995 0.000000 0.001102 0.000000
# 3 -0.006988 -0.003995 0.018489 0.000000 -0.008285 0.000000
# 4 0.000000 0.000000 0.000000 -0.128064 0.000000 -0.041540
# 5 0.007126 0.001102 -0.008285 0.000000 0.038671 0.000000
# 6 0.000000 0.000000 0.000000 -0.041540 0.000000 -0.000862
#
#
# Mechanical properties :
#
#
# Convention : Reuss Voigt Hill
#
# Bulk Modulus (GPa) = 47.75485 51.05384 49.40434
# Shear Modulus (GPa) = -648.69449 33.22657 -307.73396
#
# Velocity S-wave (km/s) = -18.30931 4.14376 -12.61071
# Velocity P-wave (km/s) = 20.54983 7.01981 13.65683
#
# Compressibility (1/GPa) = 0.02094028
#
# Stress axis : x y z
#
# Youngs Moduli (GPa) = 50.95155 98.64339 54.08486
#
# Poissons Ratio (x) = 0.26371 0.37796
# Poissons Ratio (y) = 0.13621 0.21606
# Poissons Ratio (z) = 0.35606 0.39407
#
# Static dielectric constant tensor:
#      x y z
#    x 1.715510 0.000000 0.024970 
#    y 0.000000 1.735730 0.000000 
#    z 0.024970 0.000000 1.661800 
# 
# From -- ./inp_files/164940.got.cif
#   From: 2010.05.17/outbox.cif.g08.bks.cpg/sg12_83_cif.got.tgz:164940.got - 2010.06.03 13:09:07.
