data_PCOD9184734
_publ_section_title
;
Structure prediction by ZEFSAII (Michael W. Deem and Ramdas Pophale) SiO2 
 PCOD9184734
Probable space group: C 2/M
;
_chemical_formula_sum "Si O2"
_cell_formula_units_Z 56
_cell_length_a 19.577172
_cell_length_b 8.697833
_cell_length_c 21.191275
_cell_angle_alpha 90.000000
_cell_angle_beta 120.634247
_cell_angle_gamma 90.000000
_cell_volume 3104.827617
_symmetry_space_group_name_H-M "C 2/M"
_symmetry_group_IT_number 12
_symmetry_cell_setting 'monoclinic'
loop_
_space_group_symop_operation_xyz
x,y,z
-x,y,-z
-x,-y,-z
x,-y,z
1/2+x,1/2+y,z
1/2-x,1/2+y,-z
1/2-x,1/2-y,-z
1/2+x,1/2-y,z
loop_
_atom_site_type_symbol
_atom_site_label
_atom_site_fract_x
_atom_site_fract_y
_atom_site_fract_z
Si Si1 0.505418 0.315894 0.428792
Si Si2 0.536291 0.183600 0.082147
Si Si3 0.295250 0.319654 0.796459
Si Si4 0.334737 0.176201 0.552206
Si Si5 0.881869 0.684494 0.266773
Si Si6 0.484900 0.183063 0.193383
Si Si7 0.643824 0.326376 0.311547
O O1 0.500000 0.266322 0.500000
O O2 0.499677 0.500000 0.424552
O O3 0.591329 0.263163 0.444125
O O4 0.438980 0.251204 0.348748
O O5 0.624832 0.244229 0.138680
O O6 0.478614 0.211594 0.115361
O O7 0.543437 0.000000 0.079653
O O8 0.500000 0.245675 0.000000
O O9 0.298404 0.500000 0.815010
O O10 0.208766 0.257194 0.773913
O O11 0.301168 0.309589 0.723343
O O12 0.250000 0.250000 0.500000
O O13 0.343353 0.197244 0.630912
O O14 0.336861 0.000000 0.533336
O O15 0.880349 0.500000 0.276317
O O16 0.917059 0.710387 0.213186
O O17 0.555180 0.296635 0.246317
O O18 0.506426 0.000000 0.209642
O O19 0.652577 0.500000 0.341530
#
# Coordination Sequence:
#
# PCOD9184734 Si02
#       7
#     8   8   8   8   8   8   8
#     4  11  25  42  58  83 115 149 190 238 289 339
#     4   9  18  34  56  82 112 146 186 230 278 333
#     4   9  20  35  54  82 112 144 184 227 278 334
#     4  12  25  40  58  80 109 146 189 236 286 338
#     4  10  20  36  57  81 110 148 190 232 281 337
#     4   9  17  32  55  79 104 143 185 225 274 332
#     4  10  19  34  54  78 106 139 181 231 278 330
#
# _framework density 18.036428999999998
#
# number of rings (size 3 to 8) (size 9 to 14) (size 15 to 20)
#    0.000    2.000    1.429    2.143    2.000    2.571 
#    0.000    0.714    0.000    0.000    0.000    0.000 
#    0.000    0.000    0.000    0.000    0.000    0.000 
#
# Total GULP energy -155999.428317 kJ/mol
# GULP energy per Si atom -5571.408154 kJ/mol
# Density = 1.799538 g / cm^3
# Si number density = 18.036429 Si / 1000 Ang^3
#
#
#
# Elastic Constant Matrix: (Units=GPa)
#
#
# Indices 1 2 3 4 5 6 
#
# 1 140.8180 29.3509 63.3509 0.0000 1.1024 0.0000
# 2 29.3509 27.1069 21.0794 0.0000 -8.0918 0.0000
# 3 63.3509 21.0794 108.0094 0.0000 -11.0213 0.0000
# 4 0.0000 0.0000 0.0000 23.5877 0.0000 1.8998
# 5 1.1024 -8.0918 -11.0213 0.0000 14.8048 0.0000
# 6 0.0000 0.0000 0.0000 1.8998 0.0000 10.7153
#
#
#
# Elastic Compliance Matrix: (Units=1/GPa)
#
#
# Indices 1 2 3 4 5 6 
#
# 1 0.012604 -0.012517 -0.006216 0.000000 -0.012407 0.000000
# 2 -0.012517 0.061420 -0.001217 0.000000 0.033596 0.000000
# 3 -0.006216 -0.001217 0.014200 0.000000 0.010368 0.000000
# 4 0.000000 0.000000 0.000000 0.043009 0.000000 -0.007626
# 5 -0.012407 0.033596 0.010368 0.000000 0.094550 0.000000
# 6 0.000000 0.000000 0.000000 -0.007626 0.000000 0.094677
#
#
# Mechanical properties :
#
#
# Convention : Reuss Voigt Hill
#
# Bulk Modulus (GPa) = 20.69397 55.94408 38.31903
# Shear Modulus (GPa) = 13.28139 20.63177 16.95658
#
# Velocity S-wave (km/s) = 2.71655 3.38582 3.06948
# Velocity P-wave (km/s) = 4.61929 6.80953 5.81840
#
# Compressibility (1/GPa) = 0.04832324
#
# Stress axis : x y z
#
# Youngs Moduli (GPa) = 79.34144 16.28147 70.42452
#
# Poissons Ratio (x) = 0.20380 0.43773
# Poissons Ratio (y) = 0.99314 0.08570
# Poissons Ratio (z) = 0.49316 0.01981
#
# Static dielectric constant tensor:
#      x y z
#    x 1.625340 0.000000 -0.043780 
#    y 0.000000 1.617200 0.000000 
#    z -0.043780 0.000000 1.568740 
# 
# From -- ./inp_files/275616.got.cif
#   From: 2010.05.17/outbox.cif.g08.bks.cpg/sg12_138_cif.got.tgz:275616.got - 2010.06.03 13:09:07.
