data_PCOD9184271
_publ_section_title
;
Structure prediction by ZEFSAII (Michael W. Deem and Ramdas Pophale) SiO2 
 PCOD9184271
Probable space group: C 2/M
;
_chemical_formula_sum "Si O2"
_cell_formula_units_Z 48
_cell_length_a 16.587644
_cell_length_b 21.329782
_cell_length_c 9.338687
_cell_angle_alpha 90.000000
_cell_angle_beta 134.849596
_cell_angle_gamma 90.000000
_cell_volume 2342.496765
_symmetry_space_group_name_H-M "C 2/M"
_symmetry_group_IT_number 12
_symmetry_cell_setting 'monoclinic'
loop_
_space_group_symop_operation_xyz
x,y,z
-x,y,-z
-x,-y,-z
x,-y,z
1/2+x,1/2+y,z
1/2-x,1/2+y,-z
1/2-x,1/2-y,-z
1/2+x,1/2-y,z
loop_
_atom_site_type_symbol
_atom_site_label
_atom_site_fract_x
_atom_site_fract_y
_atom_site_fract_z
Si Si1 0.953041 0.094932 0.585564
Si Si2 0.841382 0.781131 0.307337
Si Si3 0.758175 0.431610 0.472756
Si Si4 0.145252 0.704202 0.412543
Si Si5 0.392904 0.391741 0.960690
Si Si6 0.899736 0.248261 0.050290
O O1 0.902672 0.162071 0.467103
O O2 0.849709 0.069780 0.553046
O O3 0.000000 0.064876 0.500000
O O4 0.064501 0.095694 0.826348
O O5 0.865500 0.719436 0.431790
O O6 0.880323 0.768973 0.193821
O O7 0.705297 0.791895 0.127419
O O8 0.813594 0.500000 0.556853
O O9 0.827584 0.367872 0.585542
O O10 0.711317 0.423233 0.250931
O O11 0.250000 0.750000 0.500000
O O12 0.026201 0.725394 0.194694
O O13 0.500000 0.411254 0.000000
O O14 0.383612 0.316504 0.944022
#
# Coordination Sequence:
#
# PCOD9184271 Si02
#       6
#     8   8   8   8   8   8
#     4  11  20  37  61  88 128 158 208 261 320 374
#     4  11  21  35  60  96 126 156 204 269 321 373
#     4  11  25  41  59  91 132 172 213 256 318 384
#     4  12  21  37  62  91 122 164 211 262 314 376
#     4  10  19  33  58  87 124 158 199 253 316 370
#     4  11  22  34  59  96 128 156 200 265 326 370
#
# _framework density 20.490957000000002
#
# number of rings (size 3 to 8) (size 9 to 14) (size 15 to 20)
#    0.000    1.000    6.667    1.500    0.000    3.333 
#    0.000    0.000    0.000    4.000    0.000    0.000 
#    0.000    0.000    0.000    0.000    0.000    0.000 
#
# Total GULP energy -133845.367347 kJ/mol
# GULP energy per Si atom -5576.890306 kJ/mol
# Density = 2.044432 g / cm^3
# Si number density = 20.490957 Si / 1000 Ang^3
#
#
#
# Elastic Constant Matrix: (Units=GPa)
#
#
# Indices 1 2 3 4 5 6 
#
# 1 68.5720 33.6896 38.1212 0.0000 7.8496 0.0000
# 2 33.6896 139.0814 27.9268 0.0000 7.6760 0.0000
# 3 38.1212 27.9268 107.1803 0.0000 -1.3532 0.0000
# 4 0.0000 0.0000 0.0000 6.7862 0.0000 2.9866
# 5 7.8496 7.6760 -1.3532 0.0000 48.9813 0.0000
# 6 0.0000 0.0000 0.0000 2.9866 0.0000 -1.0141
#
#
#
# Elastic Compliance Matrix: (Units=1/GPa)
#
#
# Indices 1 2 3 4 5 6 
#
# 1 0.020099 -0.003449 -0.006286 0.000000 -0.002854 0.000000
# 2 -0.003449 0.008255 -0.000934 0.000000 -0.000767 0.000000
# 3 -0.006286 -0.000934 0.011828 0.000000 0.001481 0.000000
# 4 0.000000 0.000000 0.000000 0.064178 0.000000 0.189004
# 5 -0.002854 -0.000767 0.001481 0.000000 0.021034 0.000000
# 6 0.000000 0.000000 0.000000 0.189004 0.000000 -0.429460
#
#
# Mechanical properties :
#
#
# Convention : Reuss Voigt Hill
#
# Bulk Modulus (GPa) = 53.06633 57.14545 55.10589
# Shear Modulus (GPa) = -18.08666 25.29042 3.60188
#
# Velocity S-wave (km/s) = -2.97419 3.51696 1.32725
# Velocity P-wave (km/s) = 3.76288 6.66639 5.41294
#
# Compressibility (1/GPa) = 0.01884434
#
# Stress axis : x y z
#
# Youngs Moduli (GPa) = 49.75377 121.13422 84.54557
#
# Poissons Ratio (x) = 0.41777 0.53146
# Poissons Ratio (y) = 0.17159 0.07897
# Poissons Ratio (z) = 0.31276 0.11314
#
# Static dielectric constant tensor:
#      x y z
#    x 1.804180 0.000000 -0.019550 
#    y 0.000000 1.765620 0.000000 
#    z -0.019550 0.000000 1.786170 
# 
# From -- ./inp_files/77676.got.cif
#   From: 2010.05.17/outbox.cif.g08.bks.cpg/sg12_39_cif.got.tgz:77676.got - 2010.06.03 13:09:07.
