data_PCOD9184284
_publ_section_title
;
Structure prediction by ZEFSAII (Michael W. Deem and Ramdas Pophale) SiO2 
 PCOD9184284
Probable space group: C 2/M
;
_chemical_formula_sum "Si O2"
_cell_formula_units_Z 48
_cell_length_a 25.434023
_cell_length_b 8.741416
_cell_length_c 12.859586
_cell_angle_alpha 90.000000
_cell_angle_beta 70.777033
_cell_angle_gamma 90.000000
_cell_volume 2699.655107
_symmetry_space_group_name_H-M "C 2/M"
_symmetry_group_IT_number 12
_symmetry_cell_setting 'monoclinic'
loop_
_space_group_symop_operation_xyz
x,y,z
-x,y,-z
-x,-y,-z
x,-y,z
1/2+x,1/2+y,z
1/2-x,1/2+y,-z
1/2-x,1/2-y,-z
1/2+x,1/2-y,z
loop_
_atom_site_type_symbol
_atom_site_label
_atom_site_fract_x
_atom_site_fract_y
_atom_site_fract_z
Si Si1 0.060750 0.313551 0.500505
Si Si2 0.129777 0.181493 0.881814
Si Si3 0.141602 0.315882 0.263371
Si Si4 0.255040 0.182058 0.112676
Si Si5 0.937034 0.315282 0.262368
Si Si6 0.936732 0.683142 0.884565
O O1 0.059572 0.500000 0.500374
O O2 0.107983 0.267410 0.387994
O O3 0.070201 0.266838 0.613160
O O4 0.000000 0.263114 0.500000
O O5 0.188741 0.256276 0.872150
O O6 0.106221 0.240565 0.787926
O O7 0.135352 0.000000 0.878229
O O8 0.086500 0.232785 0.999513
O O9 0.149466 0.500000 0.261481
O O10 0.200524 0.235761 0.210183
O O11 0.102858 0.283562 0.188232
O O12 0.257377 0.000000 0.103995
O O13 0.250000 0.250000 0.000000
O O14 0.931889 0.500000 0.260803
O O15 0.999909 0.277466 0.185110
O O16 0.934291 0.500000 0.904792
#
# Coordination Sequence:
#
# PCOD9184284 Si02
#       6
#     8   8   8   8   8   8
#     4   9  16  32  60  91 118 150 192 234 279 338
#     4  12  25  39  56  82 118 158 198 241 291 343
#     4  10  19  34  60  92 120 148 189 237 283 339
#     4  12  24  40  61  85 114 150 193 240 291 346
#     4  10  20  36  59  88 121 157 195 235 285 345
#     4  10  19  33  58  88 120 154 189 234 290 347
#
# _framework density 17.780049999999999
#
# number of rings (size 3 to 8) (size 9 to 14) (size 15 to 20)
#    0.000    1.500    3.333    3.500    0.000    2.667 
#    0.000    1.667    0.000    1.000    0.000    0.000 
#    0.000    0.000    0.000    0.000    0.000    0.000 
#
# Total GULP energy -134118.288478 kJ/mol
# GULP energy per Si atom -5588.262020 kJ/mol
# Density = 1.773958 g / cm^3
# Si number density = 17.780050 Si / 1000 Ang^3
#
#
#
# Elastic Constant Matrix: (Units=GPa)
#
#
# Indices 1 2 3 4 5 6 
#
# 1 106.1028 45.3084 89.6761 0.0000 12.1522 0.0000
# 2 45.3084 54.0713 57.5456 0.0000 6.8025 0.0000
# 3 89.6761 57.5456 171.1809 0.0000 4.5135 0.0000
# 4 0.0000 0.0000 0.0000 11.1951 0.0000 -3.4669
# 5 12.1522 6.8025 4.5135 0.0000 31.8194 0.0000
# 6 0.0000 0.0000 0.0000 -3.4669 0.0000 27.7140
#
#
#
# Elastic Compliance Matrix: (Units=1/GPa)
#
#
# Indices 1 2 3 4 5 6 
#
# 1 0.019726 -0.007886 -0.007557 0.000000 -0.004776 0.000000
# 2 -0.007886 0.032699 -0.006782 0.000000 -0.003017 0.000000
# 3 -0.007557 -0.006782 0.012011 0.000000 0.002632 0.000000
# 4 0.000000 0.000000 0.000000 0.092925 0.000000 0.011625
# 5 -0.004776 -0.003017 0.002632 0.000000 0.033523 0.000000
# 6 0.000000 0.000000 0.000000 0.011625 0.000000 0.037537
#
#
# Mechanical properties :
#
#
# Convention : Reuss Voigt Hill
#
# Bulk Modulus (GPa) = 50.03241 79.60169 64.81705
# Shear Modulus (GPa) = 17.88696 23.40068 20.64382
#
# Velocity S-wave (km/s) = 3.17521 3.63177 3.41114
# Velocity P-wave (km/s) = 6.45317 7.90277 7.21447
#
# Compressibility (1/GPa) = 0.01998704
#
# Stress axis : x y z
#
# Youngs Moduli (GPa) = 50.69337 30.58199 83.25682
#
# Poissons Ratio (x) = 0.24117 0.62918
# Poissons Ratio (y) = 0.39977 0.56461
# Poissons Ratio (z) = 0.38309 0.20739
#
# Static dielectric constant tensor:
#      x y z
#    x 1.580940 0.000000 -0.001840 
#    y 0.000000 1.598490 0.000000 
#    z -0.001840 0.000000 1.594640 
# 
# From -- ./inp_files/172105.got.cif
#   From: 2010.05.17/outbox.cif.g08.bks.cpg/sg12_87_cif.got.tgz:172105.got - 2010.06.03 13:09:07.
