data_PCOD9184369
_publ_section_title
;
Structure prediction by ZEFSAII (Michael W. Deem and Ramdas Pophale) SiO2 
 PCOD9184369
Probable space group: C 2/M
;
_chemical_formula_sum "Si O2"
_cell_formula_units_Z 40
_cell_length_a 11.258257
_cell_length_b 18.264662
_cell_length_c 10.676624
_cell_angle_alpha 90.000000
_cell_angle_beta 105.856744
_cell_angle_gamma 90.000000
_cell_volume 2111.875349
_symmetry_space_group_name_H-M "C 2/M"
_symmetry_group_IT_number 12
_symmetry_cell_setting 'monoclinic'
loop_
_space_group_symop_operation_xyz
x,y,z
-x,y,-z
-x,-y,-z
x,-y,z
1/2+x,1/2+y,z
1/2-x,1/2+y,-z
1/2-x,1/2-y,-z
1/2+x,1/2-y,z
loop_
_atom_site_type_symbol
_atom_site_label
_atom_site_fract_x
_atom_site_fract_y
_atom_site_fract_z
Si Si1 0.881348 0.082592 0.551424
Si Si2 0.864722 0.363314 0.568732
Si Si3 0.113580 0.584228 0.714223
Si Si4 0.712456 0.772173 0.850169
Si Si5 0.068588 0.223079 0.284399
O O1 0.772311 0.115300 0.434887
O O2 0.906245 0.139946 0.668972
O O3 0.000000 0.079762 0.500000
O O4 0.850840 0.000000 0.584253
O O5 0.868742 0.389811 0.425438
O O6 0.895444 0.278024 0.591658
O O7 0.965881 0.404431 0.681519
O O8 0.145961 0.500000 0.740692
O O9 0.183738 0.641452 0.821626
O O10 0.830361 0.756052 0.793487
O O11 0.577126 0.736115 0.783058
O O12 0.750000 0.750000 0.000000
#
# Coordination Sequence:
#
# PCOD9184369 Si02
#       5
#     8   8   8   8   8
#     4  11  22  33  53  89 132 157 180 232 304 371
#     4  10  19  33  59  90 120 148 186 243 303 364
#     4  10  20  35  62  91 112 145 195 249 296 349
#     4  11  24  41  61  84 116 163 211 250 284 347
#     4  11  23  38  62  87 121 157 202 247 300 353
#
# _framework density 18.940511000000001
#
# number of rings (size 3 to 8) (size 9 to 14) (size 15 to 20)
#    0.000    1.400    2.000    4.800    5.600    0.000 
#    0.000    1.000    0.000   14.400    0.000    0.000 
#    0.000    0.000    0.000    0.000    0.000    0.000 
#
# Total GULP energy -111501.128903 kJ/mol
# GULP energy per Si atom -5575.056445 kJ/mol
# Density = 1.889740 g / cm^3
# Si number density = 18.940511 Si / 1000 Ang^3
#
#
#
# Elastic Constant Matrix: (Units=GPa)
#
#
# Indices 1 2 3 4 5 6 
#
# 1 130.5307 16.0219 32.1761 0.0000 11.9307 0.0000
# 2 16.0219 134.3379 61.2264 0.0000 9.9868 0.0000
# 3 32.1761 61.2264 67.2831 0.0000 4.2369 0.0000
# 4 0.0000 0.0000 0.0000 7.3401 0.0000 1.6876
# 5 11.9307 9.9868 4.2369 0.0000 26.0624 0.0000
# 6 0.0000 0.0000 0.0000 1.6876 0.0000 21.9676
#
#
#
# Elastic Compliance Matrix: (Units=1/GPa)
#
#
# Indices 1 2 3 4 5 6 
#
# 1 0.009244 0.001870 -0.005871 0.000000 -0.003994 0.000000
# 2 0.001870 0.013338 -0.012786 0.000000 -0.003888 0.000000
# 3 -0.005871 -0.012786 0.029126 0.000000 0.002852 0.000000
# 4 0.000000 0.000000 0.000000 0.138688 0.000000 -0.010654
# 5 -0.003994 -0.003888 0.002852 0.000000 0.041224 0.000000
# 6 0.000000 0.000000 0.000000 -0.010654 0.000000 0.046340
#
#
# Mechanical properties :
#
#
# Convention : Reuss Voigt Hill
#
# Bulk Modulus (GPa) = 55.14820 61.22229 58.18524
# Shear Modulus (GPa) = 15.74418 25.92248 20.83333
#
# Velocity S-wave (km/s) = 2.88626 3.70351 3.32012
# Velocity P-wave (km/s) = 6.34721 7.11910 6.74421
#
# Compressibility (1/GPa) = 0.01813296
#
# Stress axis : x y z
#
# Youngs Moduli (GPa) = 108.18176 74.97647 34.33365
#
# Poissons Ratio (x) = -0.14022 0.20157
# Poissons Ratio (y) = -0.20232 0.43900
# Poissons Ratio (z) = 0.63512 0.95868
#
# Static dielectric constant tensor:
#      x y z
#    x 1.810040 0.000000 -0.011400 
#    y 0.000000 1.688580 0.000000 
#    z -0.011400 0.000000 1.619890 
# 
# From -- ./inp_files/129805.got.cif
#   From: 2010.05.17/outbox.cif.g08.bks.cpg/sg12_65_cif.got.tgz:129805.got - 2010.06.03 13:09:07.
