data_PCOD9184551
_publ_section_title
;
Structure prediction by ZEFSAII (Michael W. Deem and Ramdas Pophale) SiO2 
 PCOD9184551
Probable space group: C 2/M
;
_chemical_formula_sum "Si O2"
_cell_formula_units_Z 56
_cell_length_a 7.897234
_cell_length_b 30.292327
_cell_length_c 12.987958
_cell_angle_alpha 90.000000
_cell_angle_beta 70.290620
_cell_angle_gamma 90.000000
_cell_volume 2925.026411
_symmetry_space_group_name_H-M "C 2/M"
_symmetry_group_IT_number 12
_symmetry_cell_setting 'monoclinic'
loop_
_space_group_symop_operation_xyz
x,y,z
-x,y,-z
-x,-y,-z
x,-y,z
1/2+x,1/2+y,z
1/2-x,1/2+y,-z
1/2-x,1/2-y,-z
1/2+x,1/2-y,z
loop_
_atom_site_type_symbol
_atom_site_label
_atom_site_fract_x
_atom_site_fract_y
_atom_site_fract_z
Si Si1 0.757878 0.398423 0.153380
Si Si2 0.029667 0.450373 0.730248
Si Si3 0.244245 0.762952 0.880841
Si Si4 0.108372 0.315248 0.784786
Si Si5 0.609596 0.347717 0.819120
Si Si6 0.474201 0.861550 0.625016
Si Si7 0.798390 0.928239 0.056713
O O1 0.804365 0.433015 0.233488
O O2 0.895844 0.358569 0.143629
O O3 0.566637 0.372187 0.191023
O O4 0.777130 0.422333 0.041492
O O5 0.058746 0.500000 0.686961
O O6 0.000552 0.412887 0.650320
O O7 0.849533 0.449826 0.838983
O O8 0.241236 0.720288 0.807514
O O9 0.422256 0.790518 0.828863
O O10 0.095033 0.798574 0.870345
O O11 0.250000 0.750000 0.000000
O O12 0.115694 0.334049 0.667294
O O13 0.668539 0.380120 0.899686
O O14 0.772701 0.348703 0.703594
O O15 0.500000 0.853765 0.500000
O O16 0.000000 0.947872 0.000000
#
# Coordination Sequence:
#
# PCOD9184551 Si02
#       7
#     8   8   8   8   8   8   8
#     4  10  19  34  52  75 113 150 175 211 267 331
#     4  10  21  35  54  81 106 133 177 226 271 328
#     4  11  20  31  50  80 114 144 179 219 259 307
#     4  10  21  33  50  78 108 142 183 220 259 313
#     4   9  19  35  54  79 109 145 186 218 258 318
#     4   9  20  41  62  76  99 137 181 231 280 317
#     4   9  18  32  51  76 110 150 180 208 260 325
#
# _framework density 19.145128
#
# number of rings (size 3 to 8) (size 9 to 14) (size 15 to 20)
#    0.000    2.286    0.000    3.429    0.000    7.429 
#    0.000   11.429    0.000    0.857    0.000    0.000 
#    0.000    0.000    0.000    0.000    0.000    0.000 
#
# Total GULP energy -156004.297232 kJ/mol
# GULP energy per Si atom -5571.582044 kJ/mol
# Density = 1.910155 g / cm^3
# Si number density = 19.145128 Si / 1000 Ang^3
#
#
#
# Elastic Constant Matrix: (Units=GPa)
#
#
# Indices 1 2 3 4 5 6 
#
# 1 82.9579 19.1981 26.1053 0.0000 12.4890 0.0000
# 2 19.1981 117.0285 30.0753 0.0000 14.6939 0.0000
# 3 26.1053 30.0753 109.2501 0.0000 17.7007 0.0000
# 4 0.0000 0.0000 0.0000 1.1396 0.0000 -6.4272
# 5 12.4890 14.6939 17.7007 0.0000 23.1468 0.0000
# 6 0.0000 0.0000 0.0000 -6.4272 0.0000 8.6398
#
#
#
# Elastic Compliance Matrix: (Units=1/GPa)
#
#
# Indices 1 2 3 4 5 6 
#
# 1 0.013748 -0.001059 -0.002169 0.000000 -0.005086 0.000000
# 2 -0.001059 0.009698 -0.001726 0.000000 -0.004265 0.000000
# 3 -0.002169 -0.001726 0.011163 0.000000 -0.006270 0.000000
# 4 0.000000 0.000000 0.000000 -0.274609 0.000000 -0.204282
# 5 -0.005086 -0.004265 -0.006270 0.000000 0.053449 0.000000
# 6 0.000000 0.000000 0.000000 -0.204282 0.000000 -0.036223
#
#
# Mechanical properties :
#
#
# Convention : Reuss Voigt Hill
#
# Bulk Modulus (GPa) = 40.48577 51.11041 45.79809
# Shear Modulus (GPa) = -24.43404 22.17577 -1.12914
#
# Velocity S-wave (km/s) = -3.57635 3.40707 -0.76880
# Velocity P-wave (km/s) = 2.03446 6.49860 4.81512
#
# Compressibility (1/GPa) = 0.02470004
#
# Stress axis : x y z
#
# Youngs Moduli (GPa) = 72.73879 103.11787 89.58474
#
# Poissons Ratio (x) = 0.10921 0.19434
# Poissons Ratio (y) = 0.07704 0.15458
# Poissons Ratio (z) = 0.15780 0.17793
#
# Static dielectric constant tensor:
#      x y z
#    x 1.789430 0.000000 0.017710 
#    y 0.000000 1.711350 0.000000 
#    z 0.017710 0.000000 1.654670 
# 
# From -- ./inp_files/124265.got.cif
#   From: 2010.05.17/outbox.cif.g08.bks.cpg/sg12_63_cif.got.tgz:124265.got - 2010.06.03 13:09:07.
