data_PCOD9184395
_publ_section_title
;
Structure prediction by ZEFSAII (Michael W. Deem and Ramdas Pophale) SiO2 
 PCOD9184395
Probable space group: C 2/M
;
_chemical_formula_sum "Si O2"
_cell_formula_units_Z 50
_cell_length_a 14.735493
_cell_length_b 17.675112
_cell_length_c 11.958499
_cell_angle_alpha 90.000000
_cell_angle_beta 53.762055
_cell_angle_gamma 90.000000
_cell_volume 2512.146956
_symmetry_space_group_name_H-M "C 2/M"
_symmetry_group_IT_number 12
_symmetry_cell_setting 'monoclinic'
loop_
_space_group_symop_operation_xyz
x,y,z
-x,y,-z
-x,-y,-z
x,-y,z
1/2+x,1/2+y,z
1/2-x,1/2+y,-z
1/2-x,1/2-y,-z
1/2+x,1/2-y,z
loop_
_atom_site_type_symbol
_atom_site_label
_atom_site_fract_x
_atom_site_fract_y
_atom_site_fract_z
Si Si1 0.692780 0.284428 0.864289
Si Si2 0.941812 0.645644 0.151767
Si Si3 0.000000 0.500000 0.500000
Si Si4 0.226003 0.919174 0.416948
Si Si5 0.089642 0.225804 0.526546
Si Si6 0.583898 0.739553 0.167908
Si Si7 0.296940 0.879947 0.600065
O O1 0.625276 0.220078 0.844961
O O2 0.808046 0.249369 0.831458
O O3 0.727007 0.353229 0.759312
O O4 0.619751 0.302392 0.028140
O O5 0.852768 0.593959 0.279824
O O6 0.038958 0.677750 0.161770
O O7 0.000000 0.610426 0.000000
O O8 0.098289 0.433238 0.445238
O O9 0.154078 0.846968 0.435031
O O10 0.229405 0.917964 0.548735
O O11 0.183690 0.000000 0.406548
O O12 0.166250 0.299474 0.483196
O O13 0.000000 0.250330 0.500000
O O14 0.020248 0.206191 0.688120
#
# Coordination Sequence:
#
# PCOD9184395 Si02
#       7
#     8   8   2   8   8   8   8
#     4  10  20  35  58  89 118 150 197 241 293 362
#     4  10  20  36  57  86 117 155 198 242 295 351
#     4  12  24  36  64  96 120 144 198 248 312 348
#     4  12  25  38  58  88 123 159 202 250 295 352
#     4  12  21  38  66  88 114 161 202 244 297 356
#     4  10  19  33  60  90 113 150 201 240 290 358
#     4  12  21  39  60  90 122 151 190 250 306 357
#
# _framework density 19.903295
#
# number of rings (size 3 to 8) (size 9 to 14) (size 15 to 20)
#    0.000    0.960    6.400    1.440    0.000    0.640 
#    0.000    0.000    1.760    0.960    0.000    0.000 
#    0.000    0.000    0.000    0.000    0.000    0.000 
#
# Total GULP energy -139262.221393 kJ/mol
# GULP energy per Si atom -5570.488856 kJ/mol
# Density = 1.985799 g / cm^3
# Si number density = 19.903295 Si / 1000 Ang^3
#
#
#
# Elastic Constant Matrix: (Units=GPa)
#
#
# Indices 1 2 3 4 5 6 
#
# 1 38.6636 11.2878 -6.0495 0.0000 4.1969 0.0000
# 2 11.2878 103.2719 20.0084 0.0000 -9.4799 0.0000
# 3 -6.0495 20.0084 138.6473 0.0000 -10.2616 0.0000
# 4 0.0000 0.0000 0.0000 4.1444 0.0000 -7.8608
# 5 4.1969 -9.4799 -10.2616 0.0000 26.5555 0.0000
# 6 0.0000 0.0000 0.0000 -7.8608 0.0000 24.8486
#
#
#
# Elastic Compliance Matrix: (Units=1/GPa)
#
#
# Indices 1 2 3 4 5 6 
#
# 1 0.027746 -0.003776 0.001370 0.000000 -0.005203 0.000000
# 2 -0.003776 0.010728 -0.001426 0.000000 0.003875 0.000000
# 3 0.001370 -0.001426 0.007643 0.000000 0.002228 0.000000
# 4 0.000000 0.000000 0.000000 0.603241 0.000000 0.190834
# 5 -0.005203 0.003875 0.002228 0.000000 0.040724 0.000000
# 6 0.000000 0.000000 0.000000 0.190834 0.000000 0.100613
#
#
# Mechanical properties :
#
#
# Convention : Reuss Voigt Hill
#
# Bulk Modulus (GPa) = 26.00534 36.78624 31.39579
# Shear Modulus (GPa) = 6.16389 28.13210 17.14800
#
# Velocity S-wave (km/s) = 1.76172 3.76365 2.93843
# Velocity P-wave (km/s) = 4.15119 6.11632 5.22694
#
# Compressibility (1/GPa) = 0.03845364
#
# Stress axis : x y z
#
# Youngs Moduli (GPa) = 36.04163 93.21473 130.83832
#
# Poissons Ratio (x) = 0.35196 -0.17930
# Poissons Ratio (y) = 0.13609 0.18659
# Poissons Ratio (z) = -0.04939 0.13293
#
# Static dielectric constant tensor:
#      x y z
#    x 1.715140 0.000000 0.003710 
#    y 0.000000 1.657080 0.000000 
#    z 0.003710 0.000000 1.769830 
# 
# From -- ./inp_files/145432.got.cif
#   From: 2010.05.17/outbox.cif.g08.bks.cpg/sg12_73_cif.got.tgz:145432.got - 2010.06.03 13:09:07.
