data_PCOD9184769
_publ_section_title
;
Structure prediction by ZEFSAII (Michael W. Deem and Ramdas Pophale) SiO2 
 PCOD9184769
Probable space group: C 2/M
;
_chemical_formula_sum "Si O2"
_cell_formula_units_Z 56
_cell_length_a 30.415939
_cell_length_b 7.603461
_cell_length_c 11.417479
_cell_angle_alpha 90.000000
_cell_angle_beta 66.244821
_cell_angle_gamma 90.000000
_cell_volume 2416.764909
_symmetry_space_group_name_H-M "C 2/M"
_symmetry_group_IT_number 12
_symmetry_cell_setting 'monoclinic'
loop_
_space_group_symop_operation_xyz
x,y,z
-x,y,-z
-x,-y,-z
x,-y,z
1/2+x,1/2+y,z
1/2-x,1/2+y,-z
1/2-x,1/2-y,-z
1/2+x,1/2-y,z
loop_
_atom_site_type_symbol
_atom_site_label
_atom_site_fract_x
_atom_site_fract_y
_atom_site_fract_z
Si Si1 0.163436 0.203435 0.906659
Si Si2 0.769975 0.195951 0.824995
Si Si3 0.629043 0.287196 0.697827
Si Si4 0.631258 0.283850 0.179239
Si Si5 0.972281 0.785101 0.647747
Si Si6 0.482601 0.713760 0.149400
Si Si7 0.789121 0.698698 0.554516
O O1 0.218413 0.214240 0.888582
O O2 0.155978 0.278813 0.786225
O O3 0.149751 0.000000 0.909170
O O4 0.129952 0.274334 0.045388
O O5 0.817781 0.279357 0.826994
O O6 0.781929 0.185897 0.675441
O O7 0.763772 0.000000 0.880859
O O8 0.632712 0.500000 0.684378
O O9 0.573443 0.242063 0.772007
O O10 0.658235 0.214490 0.556943
O O11 0.632848 0.500000 0.180509
O O12 0.583589 0.232044 0.297963
O O13 0.000000 0.727322 0.500000
O O14 0.991461 0.729752 0.756626
O O15 0.974723 0.000000 0.645572
O O16 0.486952 0.500000 0.142182
O O17 0.500000 0.772946 0.000000
O O18 0.779037 0.500000 0.602659
O O19 0.750000 0.750000 0.500000
#
# Coordination Sequence:
#
# PCOD9184769 Si02
#       7
#     8   8   8   8   8   8   8
#     4  10  19  34  54  79 114 149 183 226 281 336
#     4  11  22  35  55  81 113 147 188 231 275 334
#     4  10  20  33  56  85 115 148 185 231 282 335
#     4   9  19  33  51  78 113 150 185 232 283 328
#     4   9  17  29  47  74 110 147 187 236 286 331
#     4   9  17  30  51  81 114 147 186 235 285 334
#     4  12  24  39  57  80 112 148 187 231 282 339
#
# _framework density 23.171472999999999
#
# number of rings (size 3 to 8) (size 9 to 14) (size 15 to 20)
#    0.000    2.000    1.429    3.000    2.000    3.429 
#    0.000    0.714    0.000    0.429    0.000    4.000 
#    0.000    0.000    0.000    0.000    0.000    0.000 
#
# Total GULP energy -156356.907572 kJ/mol
# GULP energy per Si atom -5584.175270 kJ/mol
# Density = 2.311873 g / cm^3
# Si number density = 23.171473 Si / 1000 Ang^3
#
#
#
# Elastic Constant Matrix: (Units=GPa)
#
#
# Indices 1 2 3 4 5 6 
#
# 1 78.5609 -5.7121 30.3633 0.0000 4.7596 0.0000
# 2 -5.7121 59.3010 -6.5164 0.0000 2.8399 0.0000
# 3 30.3633 -6.5164 158.0142 0.0000 -5.7754 0.0000
# 4 0.0000 0.0000 0.0000 6.0365 0.0000 -5.4838
# 5 4.7596 2.8399 -5.7754 0.0000 34.4332 0.0000
# 6 0.0000 0.0000 0.0000 -5.4838 0.0000 9.2302
#
#
#
# Elastic Compliance Matrix: (Units=1/GPa)
#
#
# Indices 1 2 3 4 5 6 
#
# 1 0.014023 0.001169 -0.002738 0.000000 -0.002494 0.000000
# 2 0.001169 0.017094 0.000425 0.000000 -0.001500 0.000000
# 3 -0.002738 0.000425 0.006927 0.000000 0.001505 0.000000
# 4 0.000000 0.000000 0.000000 0.359914 0.000000 0.213832
# 5 -0.002494 -0.001500 0.001505 0.000000 0.029763 0.000000
# 6 0.000000 0.000000 0.000000 0.213832 0.000000 0.235382
#
#
# Mechanical properties :
#
#
# Convention : Reuss Voigt Hill
#
# Bulk Modulus (GPa) = 27.96488 36.90508 32.43498
# Shear Modulus (GPa) = 7.38217 28.45605 17.91911
#
# Velocity S-wave (km/s) = 1.78684 3.50818 2.78389
# Velocity P-wave (km/s) = 4.04375 5.68957 4.93575
#
# Compressibility (1/GPa) = 0.03575914
#
# Stress axis : x y z
#
# Youngs Moduli (GPa) = 71.31061 58.49884 144.35965
#
# Poissons Ratio (x) = -0.06841 0.39519
# Poissons Ratio (y) = -0.08339 -0.06141
# Poissons Ratio (z) = 0.19522 -0.02489
#
# Static dielectric constant tensor:
#      x y z
#    x 1.856180 0.000000 0.030300 
#    y 0.000000 1.902900 0.000000 
#    z 0.030300 0.000000 1.886720 
# 
# From -- ./inp_files/187186.got.cif
#   From: 2010.05.17/outbox.cif.g08.bks.cpg/sg12_94_cif.got.tgz:187186.got - 2010.06.03 13:09:07.
