data_PCOD9184685
_publ_section_title
;
Structure prediction by ZEFSAII (Michael W. Deem and Ramdas Pophale) SiO2 
 PCOD9184685
Probable space group: C 2/M
;
_chemical_formula_sum "Si O2"
_cell_formula_units_Z 48
_cell_length_a 33.955509
_cell_length_b 8.598365
_cell_length_c 9.958881
_cell_angle_alpha 90.000000
_cell_angle_beta 67.967756
_cell_angle_gamma 90.000000
_cell_volume 2695.278824
_symmetry_space_group_name_H-M "C 2/M"
_symmetry_group_IT_number 12
_symmetry_cell_setting 'monoclinic'
loop_
_space_group_symop_operation_xyz
x,y,z
-x,y,-z
-x,-y,-z
x,-y,z
1/2+x,1/2+y,z
1/2-x,1/2+y,-z
1/2-x,1/2-y,-z
1/2+x,1/2-y,z
loop_
_atom_site_type_symbol
_atom_site_label
_atom_site_fract_x
_atom_site_fract_y
_atom_site_fract_z
Si Si1 0.315916 0.186368 0.198169
Si Si2 0.264019 0.814167 0.837341
Si Si3 0.379880 0.811076 0.342804
Si Si4 0.861774 0.688388 0.664934
Si Si5 0.111993 0.184803 0.090395
Si Si6 0.951291 0.311746 0.041297
O O1 0.269920 0.255251 0.227746
O O2 0.338904 0.236263 0.306780
O O3 0.347813 0.239822 0.038901
O O4 0.313563 0.000000 0.198633
O O5 0.312206 0.767150 0.743697
O O6 0.262559 0.000000 0.844221
O O7 0.250000 0.750000 0.000000
O O8 0.377964 0.758978 0.498465
O O9 0.421369 0.764699 0.204967
O O10 0.379430 0.000000 0.345652
O O11 0.864246 0.500000 0.668649
O O12 0.886718 0.758332 0.758568
O O13 0.070677 0.241077 0.062107
O O14 0.115864 0.000000 0.078526
O O15 0.949338 0.500000 0.033240
O O16 0.000000 0.266270 0.000000
#
# Coordination Sequence:
#
# PCOD9184685 Si02
#       6
#     8   8   8   8   8   8
#     4  10  19  34  54  75 103 140 181 224 263 308
#     4  11  21  31  49  75 105 141 185 225 259 303
#     4   8  17  34  55  78 104 135 174 217 263 312
#     4  10  20  35  53  74 105 143 178 217 262 308
#     4  11  21  33  53  79 107 139 176 215 259 313
#     4   9  18  36  62  85 104 132 171 213 260 317
#
# _framework density 17.808918999999999
#
# number of rings (size 3 to 8) (size 9 to 14) (size 15 to 20)
#    0.000    2.167    1.667    3.500    0.000    1.667 
#    0.000    5.000    0.000    5.000    0.000    0.000 
#    0.000    0.000    0.000    0.000    0.000    0.000 
#
# Total GULP energy -133948.861754 kJ/mol
# GULP energy per Si atom -5581.202573 kJ/mol
# Density = 1.776838 g / cm^3
# Si number density = 17.808919 Si / 1000 Ang^3
#
#
#
# Elastic Constant Matrix: (Units=GPa)
#
#
# Indices 1 2 3 4 5 6 
#
# 1 138.9304 31.6324 72.3368 0.0000 14.1294 0.0000
# 2 31.6324 33.5679 26.2880 0.0000 2.7011 0.0000
# 3 72.3368 26.2880 151.6107 0.0000 21.6487 0.0000
# 4 0.0000 0.0000 0.0000 9.0511 0.0000 8.7852
# 5 14.1294 2.7011 21.6487 0.0000 18.2773 0.0000
# 6 0.0000 0.0000 0.0000 8.7852 0.0000 25.2925
#
#
#
# Elastic Compliance Matrix: (Units=1/GPa)
#
#
# Indices 1 2 3 4 5 6 
#
# 1 0.011047 -0.007388 -0.003522 0.000000 -0.003277 0.000000
# 2 -0.007388 0.039499 -0.003979 0.000000 0.004587 0.000000
# 3 -0.003522 -0.003979 0.010222 0.000000 -0.008797 0.000000
# 4 0.000000 0.000000 0.000000 0.166680 0.000000 -0.057896
# 5 -0.003277 0.004587 -0.008797 0.000000 0.066988 0.000000
# 6 0.000000 0.000000 0.000000 -0.057896 0.000000 0.059647
#
#
# Mechanical properties :
#
#
# Convention : Reuss Voigt Hill
#
# Bulk Modulus (GPa) = 32.26745 64.95814 48.61280
# Shear Modulus (GPa) = 12.68420 23.44762 18.06591
#
# Velocity S-wave (km/s) = 2.67168 3.63247 3.18847
# Velocity P-wave (km/s) = 5.26072 7.35849 6.39619
#
# Compressibility (1/GPa) = 0.03099098
#
# Stress axis : x y z
#
# Youngs Moduli (GPa) = 90.52239 25.31687 97.82617
#
# Poissons Ratio (x) = 0.18705 0.34453
# Poissons Ratio (y) = 0.66881 0.38922
# Poissons Ratio (z) = 0.31880 0.10073
#
# Static dielectric constant tensor:
#      x y z
#    x 1.597490 0.000000 0.006830 
#    y 0.000000 1.599160 0.000000 
#    z 0.006830 0.000000 1.605810 
# 
# From -- ./inp_files/108768.got.cif
#   From: 2010.05.17/outbox.cif.g08.bks.cpg/sg12_55_cif.got.tgz:108768.got - 2010.06.03 13:09:07.
