data_PCOD9184752
_publ_section_title
;
Structure prediction by ZEFSAII (Michael W. Deem and Ramdas Pophale) SiO2 
 PCOD9184752
Probable space group: C 2/M
;
_chemical_formula_sum "Si O2"
_cell_formula_units_Z 50
_cell_length_a 16.244259
_cell_length_b 7.411617
_cell_length_c 17.783252
_cell_angle_alpha 90.000000
_cell_angle_beta 75.283491
_cell_angle_gamma 90.000000
_cell_volume 2070.798864
_symmetry_space_group_name_H-M "C 2/M"
_symmetry_group_IT_number 12
_symmetry_cell_setting 'monoclinic'
loop_
_space_group_symop_operation_xyz
x,y,z
-x,y,-z
-x,-y,-z
x,-y,z
1/2+x,1/2+y,z
1/2-x,1/2+y,-z
1/2-x,1/2-y,-z
1/2+x,1/2-y,z
loop_
_atom_site_type_symbol
_atom_site_label
_atom_site_fract_x
_atom_site_fract_y
_atom_site_fract_z
Si Si1 0.093076 0.290023 0.983871
Si Si2 0.502715 0.711517 0.311726
Si Si3 0.187467 0.283767 0.663450
Si Si4 0.500000 0.000000 0.500000
Si Si5 0.215194 0.719905 0.825182
Si Si6 0.395046 0.716858 0.847142
Si Si7 0.878311 0.218754 0.576759
O O1 0.085286 0.500000 0.964230
O O2 0.116739 0.283725 0.065626
O O3 0.158416 0.214633 0.908001
O O4 0.000000 0.205867 0.000000
O O5 0.521756 0.500000 0.304985
O O6 0.403010 0.731747 0.350043
O O7 0.526145 0.781497 0.222396
O O8 0.568381 0.778921 0.360097
O O9 0.189131 0.500000 0.664717
O O10 0.187008 0.217242 0.749990
O O11 0.278579 0.233015 0.606785
O O12 0.426852 0.840544 0.505901
O O13 0.213734 0.500000 0.824325
O O14 0.312204 0.767750 0.819002
O O15 0.399282 0.500000 0.853826
O O16 0.886256 0.000000 0.565300
#
# Coordination Sequence:
#
# PCOD9184752 Si02
#       7
#     8   8   8   2   8   8   8
#     4  10  20  32  47  74 114 154 208 268 319 373
#     4  10  21  38  63  92 128 166 213 265 320 380
#     4  10  20  38  67  93 123 167 217 262 320 383
#     4  12  26  44  80 102 136 170 218 260 312 394
#     4   9  17  33  54  78 113 163 208 259 324 381
#     4  10  19  34  54  78 112 163 209 258 323 380
#     4  10  23  46  71  99 137 175 208 261 327 385
#
# _framework density 24.145271999999999
#
# number of rings (size 3 to 8) (size 9 to 14) (size 15 to 20)
#    0.000    2.080    1.600    1.680    2.240    2.240 
#    0.000    2.400    0.000    0.000    0.000    0.000 
#    0.000    0.000    0.000    0.000    0.000    0.000 
#
# Total GULP energy -139389.770592 kJ/mol
# GULP energy per Si atom -5575.590824 kJ/mol
# Density = 2.409032 g / cm^3
# Si number density = 24.145272 Si / 1000 Ang^3
#
#
#
# Elastic Constant Matrix: (Units=GPa)
#
#
# Indices 1 2 3 4 5 6 
#
# 1 75.0309 1.6289 27.9978 0.0000 -26.0947 0.0000
# 2 1.6289 88.1025 13.5119 0.0000 -11.3103 0.0000
# 3 27.9978 13.5119 96.3946 0.0000 -19.3671 0.0000
# 4 0.0000 0.0000 0.0000 -3.4743 0.0000 -11.2028
# 5 -26.0947 -11.3103 -19.3671 0.0000 44.6571 0.0000
# 6 0.0000 0.0000 0.0000 -11.2028 0.0000 -10.0577
#
#
#
# Elastic Compliance Matrix: (Units=1/GPa)
#
#
# Indices 1 2 3 4 5 6 
#
# 1 0.017824 0.001396 -0.003515 0.000000 0.009244 0.000000
# 2 0.001396 0.011958 -0.001434 0.000000 0.003223 0.000000
# 3 -0.003515 -0.001434 0.012171 0.000000 0.002861 0.000000
# 4 0.000000 0.000000 0.000000 0.111063 0.000000 -0.123707
# 5 0.009244 0.003223 0.002861 0.000000 0.029852 0.000000
# 6 0.000000 0.000000 0.000000 -0.123707 0.000000 0.038365
#
#
# Mechanical properties :
#
#
# Convention : Reuss Voigt Hill
#
# Bulk Modulus (GPa) = 28.69708 38.42280 33.55994
# Shear Modulus (GPa) = 20.83716 20.65098 20.74407
#
# Velocity S-wave (km/s) = 2.94086 2.92769 2.93428
# Velocity P-wave (km/s) = 4.84175 5.23223 5.04077
#
# Compressibility (1/GPa) = 0.03484675
#
# Stress axis : x y z
#
# Youngs Moduli (GPa) = 56.10281 83.62412 82.16295
#
# Poissons Ratio (x) = -0.11677 0.28884
# Poissons Ratio (y) = -0.07834 0.11785
# Poissons Ratio (z) = 0.19723 0.11994
#
# Static dielectric constant tensor:
#      x y z
#    x 1.918920 0.000000 0.033700 
#    y 0.000000 1.944960 0.000000 
#    z 0.033700 0.000000 2.067410 
# 
# From -- ./inp_files/337809.got.cif
#   From: 2010.05.17/outbox.cif.g08.bks.cpg/sg12_169_cif.got.tgz:337809.got - 2010.06.03 13:09:07.
