data_PCOD9184338
_publ_section_title
;
Structure prediction by ZEFSAII (Michael W. Deem and Ramdas Pophale) SiO2 
 PCOD9184338
Probable space group: C 2/M
;
_chemical_formula_sum "Si O2"
_cell_formula_units_Z 36
_cell_length_a 17.275312
_cell_length_b 14.013831
_cell_length_c 16.104269
_cell_angle_alpha 90.000000
_cell_angle_beta 154.069286
_cell_angle_gamma 90.000000
_cell_volume 1704.854507
_symmetry_space_group_name_H-M "C 2/M"
_symmetry_group_IT_number 12
_symmetry_cell_setting 'monoclinic'
loop_
_space_group_symop_operation_xyz
x,y,z
-x,y,-z
-x,-y,-z
x,-y,z
1/2+x,1/2+y,z
1/2-x,1/2+y,-z
1/2-x,1/2-y,-z
1/2+x,1/2-y,z
loop_
_atom_site_type_symbol
_atom_site_label
_atom_site_fract_x
_atom_site_fract_y
_atom_site_fract_z
Si Si1 0.325393 0.104055 0.447592
Si Si2 0.000000 0.766786 0.500000
Si Si3 0.066725 0.831811 0.904217
Si Si4 0.414734 0.862364 0.162216
Si Si5 0.346891 0.843929 0.912200
O O1 0.407334 0.193987 0.476506
O O2 0.415492 0.103304 0.625265
O O3 0.116312 0.116918 0.258671
O O4 0.358806 0.000000 0.440475
O O5 0.151596 0.834427 0.686073
O O6 0.056164 0.752667 0.819739
O O7 0.244639 0.886767 0.053626
O O8 0.106716 0.766597 0.022266
O O9 0.129359 0.608758 0.974481
O O10 0.500000 0.881181 0.000000
#
# Coordination Sequence:
#
# PCOD9184338 Si02
#       5
#     8   4   8   8   8
#     4  12  23  33  53  82 116 148 174 212 268 334
#     4  12  19  36  50  84 115 142 180 212 269 318
#     4   9  18  35  54  78 102 144 183 222 259 305
#     4   9  19  37  56  75 107 144 184 226 260 312
#     4  10  19  33  59  82 105 136 182 232 263 307
#
# _framework density 21.116171000000001
#
# number of rings (size 3 to 8) (size 9 to 14) (size 15 to 20)
#    1.333    0.444    4.444    1.000    0.000    2.667 
#    0.000    1.111    0.000    0.667    0.000    2.333 
#    0.000    0.000    0.000    0.000    0.000    0.000 
#
# Total GULP energy -100206.289353 kJ/mol
# GULP energy per Si atom -5567.016075 kJ/mol
# Density = 2.106811 g / cm^3
# Si number density = 21.116171 Si / 1000 Ang^3
#
#
#
# Elastic Constant Matrix: (Units=GPa)
#
#
# Indices 1 2 3 4 5 6 
#
# 1 87.7119 -6.6659 31.5162 -0.0025 6.1288 0.0013
# 2 -6.6659 41.9121 -0.4176 -0.0041 -0.6672 0.0021
# 3 31.5162 -0.4176 147.5580 -0.0041 -5.7010 0.0019
# 4 -0.0025 -0.0041 -0.0041 -243.3988 -0.0015 76.1457
# 5 6.1288 -0.6672 -5.7010 -0.0015 32.5978 0.0008
# 6 0.0013 0.0021 0.0019 76.1457 0.0008 -28.3715
#
#
#
# Elastic Compliance Matrix: (Units=1/GPa)
#
#
# Indices 1 2 3 4 5 6 
#
# 1 0.012767 0.001957 -0.002832 0.000000 -0.002855 0.000001
# 2 0.001957 0.024168 -0.000347 0.000001 0.000066 0.000005
# 3 -0.002832 -0.000347 0.007451 0.000000 0.001828 0.000001
# 4 0.000000 0.000001 0.000000 -0.025620 0.000000 -0.068760
# 5 -0.002855 0.000066 0.001828 0.000000 0.031535 0.000002
# 6 0.000001 0.000005 0.000001 -0.068760 0.000002 -0.219789
#
#
# Mechanical properties :
#
#
# Convention : Reuss Voigt Hill
#
# Bulk Modulus (GPa) = 23.84198 36.22750 30.03474
# Shear Modulus (GPa) = -32.66625 -30.98455 -31.82540
#
# Velocity S-wave (km/s) = -3.93743 -3.83474 -3.88642
# Velocity P-wave (km/s) = 3.05872 1.55353 2.42582
#
# Compressibility (1/GPa) = 0.04194283
#
# Stress axis : x y z
#
# Youngs Moduli (GPa) = 78.32929 41.37655 134.20232
#
# Poissons Ratio (x) = -0.08097 0.38000
# Poissons Ratio (y) = -0.15327 0.04657
# Poissons Ratio (z) = 0.22179 0.01436
#
# Static dielectric constant tensor:
#      x y z
#    x 1.772450 0.000000 -0.007350 
#    y 0.000000 1.800500 0.000000 
#    z -0.007350 0.000000 1.737490 
# 
# From -- ./inp_files/110955.got.cif
#   From: 2010.05.17/outbox.cif.g08.bks.cpg/sg12_56_cif.got.tgz:110955.got - 2010.06.03 13:09:07.
