data_PCOD9184575
_publ_section_title
;
Structure prediction by ZEFSAII (Michael W. Deem and Ramdas Pophale) SiO2 
 PCOD9184575
Probable space group: C 2/M
;
_chemical_formula_sum "Si O2"
_cell_formula_units_Z 42
_cell_length_a 12.999262
_cell_length_b 13.763881
_cell_length_c 22.786251
_cell_angle_alpha 90.000000
_cell_angle_beta 157.159456
_cell_angle_gamma 90.000000
_cell_volume 1582.530235
_symmetry_space_group_name_H-M "C 2/M"
_symmetry_group_IT_number 12
_symmetry_cell_setting 'monoclinic'
loop_
_space_group_symop_operation_xyz
x,y,z
-x,y,-z
-x,-y,-z
x,-y,z
1/2+x,1/2+y,z
1/2-x,1/2+y,-z
1/2-x,1/2-y,-z
1/2+x,1/2-y,z
loop_
_atom_site_type_symbol
_atom_site_label
_atom_site_fract_x
_atom_site_fract_y
_atom_site_fract_z
Si Si1 0.955166 0.114438 0.362785
Si Si2 0.500000 0.000000 0.000000
Si Si3 0.097206 0.611274 0.900430
Si Si4 0.876880 0.688934 0.669144
Si Si5 0.363779 0.386089 0.864083
Si Si6 0.550106 0.602200 0.281881
O O1 0.106194 0.167707 0.493795
O O2 0.109040 0.114653 0.382311
O O3 0.652530 0.148587 0.194414
O O4 0.938575 0.000000 0.369726
O O5 0.735496 0.082350 0.114264
O O6 0.132029 0.500000 0.938712
O O7 0.970688 0.614436 0.768465
O O8 0.397055 0.648945 0.052799
O O9 0.099850 0.675959 0.735264
O O10 0.878819 0.792377 0.703061
O O11 0.300672 0.500000 0.817106
O O12 0.500000 0.386095 0.000000
O O13 0.670908 0.500000 0.323333
#
# Coordination Sequence:
#
# PCOD9184575 Si02
#       6
#     8   2   8   8   8   8
#     4  10  19  34  52  83 114 135 168 223 276 320
#     4   8  20  40  56  72  94 152 200 228 238 296
#     4   9  18  30  50  80 113 140 166 207 277 337
#     4  11  18  29  55  79 109 138 174 218 272 324
#     4   8  15  26  43  72 105 139 170 199 250 324
#     4   9  21  35  55  75  99 142 195 227 248 303
#
# _framework density 26.539777000000001
#
# number of rings (size 3 to 8) (size 9 to 14) (size 15 to 20)
#    0.571    2.095    0.000    4.000    4.000    1.524 
#    0.000    0.952    0.000    2.286    0.000    0.000 
#    0.000    0.000    0.000    0.000    0.000    0.000 
#
# Total GULP energy -116990.452388 kJ/mol
# GULP energy per Si atom -5570.973923 kJ/mol
# Density = 2.647937 g / cm^3
# Si number density = 26.539777 Si / 1000 Ang^3
#
#
#
# Elastic Constant Matrix: (Units=GPa)
#
#
# Indices 1 2 3 4 5 6 
#
# 1 69.4057 8.5914 22.5828 0.0028 -7.2500 0.0016
# 2 8.5914 124.9534 41.9038 0.0034 -6.0264 0.0017
# 3 22.5828 41.9038 91.3900 0.0093 2.4990 0.0024
# 4 0.0028 0.0034 0.0093 38.2786 0.0019 -0.1214
# 5 -7.2500 -6.0264 2.4990 0.0019 42.1730 0.0037
# 6 0.0016 0.0017 0.0024 -0.1214 0.0037 14.8948
#
#
#
# Elastic Compliance Matrix: (Units=1/GPa)
#
#
# Indices 1 2 3 4 5 6 
#
# 1 0.016061 0.000477 -0.004272 0.000000 0.003082 -0.000002
# 2 0.000477 0.009582 -0.004558 0.000000 0.001721 -0.000001
# 3 -0.004272 -0.004558 0.014149 -0.000003 -0.002224 -0.000001
# 4 0.000000 0.000000 -0.000003 0.026125 -0.000001 0.000213
# 5 0.003082 0.001721 -0.002224 -0.000001 0.024619 -0.000006
# 6 -0.000002 -0.000001 -0.000001 0.000213 -0.000006 0.067139
#
#
# Mechanical properties :
#
#
# Convention : Reuss Voigt Hill
#
# Bulk Modulus (GPa) = 43.31805 47.98945 45.65375
# Shear Modulus (GPa) = 27.46103 33.24735 30.35419
#
# Velocity S-wave (km/s) = 3.22018 3.54324 3.38557
# Velocity P-wave (km/s) = 5.49395 5.90430 5.70282
#
# Compressibility (1/GPa) = 0.02308507
#
# Stress axis : x y z
#
# Youngs Moduli (GPa) = 62.26317 104.36364 70.67860
#
# Poissons Ratio (x) = -0.04977 0.30191
# Poissons Ratio (y) = -0.02969 0.32218
# Poissons Ratio (z) = 0.26597 0.47573
#
# Static dielectric constant tensor:
#      x y z
#    x 2.182590 0.000000 0.090250 
#    y 0.000000 2.093970 0.000000 
#    z 0.090250 0.000000 2.040760 
# 
# From -- ./inp_files/310895.got.cif
#   From: 2010.05.17/outbox.cif.g08.bks.cpg/sg12_156_cif.got.tgz:310895.got - 2010.06.03 13:09:07.
