data_PCOD9184864
_publ_section_title
;
Structure prediction by ZEFSAII (Michael W. Deem and Ramdas Pophale) SiO2 
 PCOD9184864
Probable space group: C 2/M
;
_chemical_formula_sum "Si O2"
_cell_formula_units_Z 64
_cell_length_a 20.859857
_cell_length_b 7.641201
_cell_length_c 19.588554
_cell_angle_alpha 90.000000
_cell_angle_beta 89.355605
_cell_angle_gamma 90.000000
_cell_volume 3122.107562
_symmetry_space_group_name_H-M "C 2/M"
_symmetry_group_IT_number 12
_symmetry_cell_setting 'monoclinic'
loop_
_space_group_symop_operation_xyz
x,y,z
-x,y,-z
-x,-y,-z
x,-y,z
1/2+x,1/2+y,z
1/2-x,1/2+y,-z
1/2-x,1/2-y,-z
1/2+x,1/2-y,z
loop_
_atom_site_type_symbol
_atom_site_label
_atom_site_fract_x
_atom_site_fract_y
_atom_site_fract_z
Si Si1 0.943233 0.290103 0.709188
Si Si2 0.052201 0.285771 0.444611
Si Si3 0.393681 0.702252 0.073886
Si Si4 0.727695 0.204630 0.847803
Si Si5 0.801690 0.709469 0.556830
Si Si6 0.296647 0.788193 0.710103
Si Si7 0.981808 0.791007 0.853649
Si Si8 0.147893 0.214525 0.073264
O O1 0.940765 0.500000 0.706478
O O2 0.962798 0.230892 0.633175
O O3 0.869976 0.229251 0.723204
O O4 0.986263 0.241498 0.772939
O O5 0.051590 0.500000 0.445893
O O6 0.125509 0.229159 0.458742
O O7 0.000000 0.225744 0.500000
O O8 0.408448 0.500000 0.057200
O O9 0.338849 0.708352 0.131506
O O10 0.459006 0.780846 0.103072
O O11 0.364703 0.774688 0.003901
O O12 0.750037 0.224790 0.769722
O O13 0.785801 0.275101 0.894138
O O14 0.719519 0.000000 0.862758
O O15 0.806247 0.500000 0.561364
O O16 0.750000 0.750000 0.500000
O O17 0.781760 0.770288 0.632989
O O18 0.295726 0.000000 0.712025
O O19 0.913301 0.726799 0.881827
O O20 0.981337 0.000000 0.862651
O O21 0.150489 0.000000 0.075148
#
# Coordination Sequence:
#
# PCOD9184864 Si02
#       8
#     8   8   8   8   8   8   8   8
#     4   9  17  31  54  79 102 134 174 215 252 298
#     4   8  15  31  54  77 102 134 172 206 245 304
#     4  10  21  36  53  74 106 143 170 206 264 322
#     4  11  21  34  54  79 105 131 172 227 263 298
#     4   9  18  33  54  79 106 136 172 211 252 302
#     4   9  18  34  54  75 103 142 179 209 252 313
#     4  10  19  34  55  77 103 136 174 214 254 306
#     4   9  18  34  56  78  98 132 180 216 252 308
#
# _framework density 20.498972999999999
#
# number of rings (size 3 to 8) (size 9 to 14) (size 15 to 20)
#    0.000    2.625    1.250    2.625    0.000    2.500 
#    2.250    3.125    0.000    2.250    0.000    0.000 
#    0.000    0.000    0.000    0.000    0.000    0.000 
#
# Total GULP energy -178554.422102 kJ/mol
# GULP energy per Si atom -5579.825691 kJ/mol
# Density = 2.045232 g / cm^3
# Si number density = 20.498973 Si / 1000 Ang^3
#
#
#
# Elastic Constant Matrix: (Units=GPa)
#
#
# Indices 1 2 3 4 5 6 
#
# 1 38.2912 -5.4477 13.0901 0.0000 5.7357 0.0000
# 2 -5.4477 37.3749 -8.7595 0.0000 2.6767 0.0000
# 3 13.0901 -8.7595 97.5346 0.0000 0.6999 0.0000
# 4 0.0000 0.0000 0.0000 13.0164 0.0000 0.9872
# 5 5.7357 2.6767 0.6999 0.0000 34.9187 0.0000
# 6 0.0000 0.0000 0.0000 0.9872 0.0000 8.9127
#
#
#
# Elastic Compliance Matrix: (Units=1/GPa)
#
#
# Indices 1 2 3 4 5 6 
#
# 1 0.028562 0.003702 -0.003466 0.000000 -0.004906 0.000000
# 2 0.003702 0.027973 0.002035 0.000000 -0.002793 0.000000
# 3 -0.003466 0.002035 0.010899 0.000000 0.000195 0.000000
# 4 0.000000 0.000000 0.000000 0.077477 0.000000 -0.008582
# 5 -0.004906 -0.002793 0.000195 0.000000 0.029654 0.000000
# 6 0.000000 0.000000 0.000000 -0.008582 0.000000 0.113150
#
#
# Mechanical properties :
#
#
# Convention : Reuss Voigt Hill
#
# Bulk Modulus (GPa) = 13.89312 18.99626 16.44469
# Shear Modulus (GPa) = 16.27797 22.99074 19.63435
#
# Velocity S-wave (km/s) = 2.82101 3.35260 3.09823
# Velocity P-wave (km/s) = 4.17169 4.92682 4.56490
#
# Compressibility (1/GPa) = 0.07197805
#
# Stress axis : x y z
#
# Youngs Moduli (GPa) = 35.01161 35.74920 91.74917
#
# Poissons Ratio (x) = -0.13235 0.31796
# Poissons Ratio (y) = -0.12962 -0.18674
# Poissons Ratio (z) = 0.12134 -0.07276
#
# Static dielectric constant tensor:
#      x y z
#    x 1.709050 0.000000 0.008180 
#    y 0.000000 1.789530 0.000000 
#    z 0.008180 0.000000 1.733740 
# 
# From -- ./inp_files/281240.got.cif
#   From: 2010.05.17/outbox.cif.g08.bks.cpg/sg12_141_cif.got.tgz:281240.got - 2010.06.03 13:09:07.
