data_PCOD9184585
_publ_section_title
;
Structure prediction by ZEFSAII (Michael W. Deem and Ramdas Pophale) SiO2 
 PCOD9184585
Probable space group: C 2/M
;
_chemical_formula_sum "Si O2"
_cell_formula_units_Z 64
_cell_length_a 22.533328
_cell_length_b 7.495968
_cell_length_c 18.648381
_cell_angle_alpha 90.000000
_cell_angle_beta 70.152642
_cell_angle_gamma 90.000000
_cell_volume 2962.779861
_symmetry_space_group_name_H-M "C 2/M"
_symmetry_group_IT_number 12
_symmetry_cell_setting 'monoclinic'
loop_
_space_group_symop_operation_xyz
x,y,z
-x,y,-z
-x,-y,-z
x,-y,z
1/2+x,1/2+y,z
1/2-x,1/2+y,-z
1/2-x,1/2-y,-z
1/2+x,1/2-y,z
loop_
_atom_site_type_symbol
_atom_site_label
_atom_site_fract_x
_atom_site_fract_y
_atom_site_fract_z
Si Si1 0.898836 0.782082 0.063646
Si Si2 0.870438 0.297867 0.275060
Si Si3 0.004983 0.201002 0.264035
Si Si4 0.830028 0.716956 0.669571
Si Si5 0.021174 0.217948 0.105267
Si Si6 0.766656 0.789424 0.412913
Si Si7 0.475691 0.293435 0.587127
Si Si8 0.222359 0.204144 0.813511
O O1 0.827730 0.717223 0.109027
O O2 0.952293 0.730325 0.100816
O O3 0.896884 0.000000 0.066718
O O4 0.927813 0.729365 0.975396
O O5 0.883640 0.500000 0.247073
O O6 0.933713 0.194912 0.264858
O O7 0.831119 0.301319 0.364081
O O8 0.823453 0.208205 0.237584
O O9 0.036460 0.282608 0.179549
O O10 0.003713 0.285732 0.343702
O O11 0.030662 0.000000 0.262777
O O12 0.832866 0.500000 0.672023
O O13 0.788087 0.770101 0.618573
O O14 0.900094 0.784375 0.626517
O O15 0.789008 0.778111 0.756196
O O16 0.020731 0.000000 0.107994
O O17 0.750000 0.750000 0.500000
O O18 0.774735 0.000000 0.399460
O O19 0.500000 0.219119 0.500000
O O20 0.497883 0.500000 0.577944
O O21 0.235065 0.000000 0.829366
#
# Coordination Sequence:
#
# PCOD9184585 Si02
#       8
#     8   8   8   8   8   8   8   8
#     4   8  12  21  44  78 106 128 163 207 250 304
#     4  11  21  31  47  76 106 136 170 203 252 309
#     4  10  19  34  53  71  99 136 174 219 261 305
#     4   9  20  36  53  74  99 131 168 205 254 306
#     4   8  13  22  44  76 103 130 166 209 254 300
#     4  10  21  36  54  77 103 131 164 208 261 315
#     4  10  23  39  54  73  94 130 178 220 263 303
#     4   9  16  31  53  75 104 137 168 206 252 304
#
# _framework density 21.601334999999999
#
# number of rings (size 3 to 8) (size 9 to 14) (size 15 to 20)
#    0.000    2.625    1.250    3.000    1.750    3.250 
#    0.000    0.000    0.000    2.250    0.000    0.000 
#    0.000    0.000    0.000    0.000    0.000    0.250 
#
# Total GULP energy -178215.472409 kJ/mol
# GULP energy per Si atom -5569.233513 kJ/mol
# Density = 2.155217 g / cm^3
# Si number density = 21.601335 Si / 1000 Ang^3
#
#
#
# Elastic Constant Matrix: (Units=GPa)
#
#
# Indices 1 2 3 4 5 6 
#
# 1 46.0998 -3.3082 40.6934 -0.0001 -9.9661 0.0000
# 2 -3.3082 71.8302 4.9074 -0.0003 1.6021 -0.0001
# 3 40.6934 4.9074 188.4324 0.0000 -1.1011 0.0000
# 4 -0.0001 -0.0003 0.0000 -23.7262 0.0000 6.0239
# 5 -9.9661 1.6021 -1.1011 0.0000 39.2585 0.0000
# 6 0.0000 -0.0001 0.0000 6.0239 0.0000 3.0918
#
#
#
# Elastic Compliance Matrix: (Units=1/GPa)
#
#
# Indices 1 2 3 4 5 6 
#
# 1 0.028834 0.001595 -0.006227 0.000000 0.007080 0.000000
# 2 0.001595 0.014048 -0.000712 0.000000 -0.000188 0.000001
# 3 -0.006227 -0.000712 0.006662 0.000000 -0.001365 0.000000
# 4 0.000000 0.000000 0.000000 -0.028198 0.000000 0.054941
# 5 0.007080 -0.000188 -0.001365 0.000000 0.027239 0.000000
# 6 0.000000 0.000001 0.000000 0.054941 0.000000 0.216394
#
#
# Mechanical properties :
#
#
# Convention : Reuss Voigt Hill
#
# Bulk Modulus (GPa) = 25.73472 43.43862 34.58667
# Shear Modulus (GPa) = 17.32398 21.32947 19.32672
#
# Velocity S-wave (km/s) = 2.83501 3.14572 2.99440
# Velocity P-wave (km/s) = 4.75980 5.77469 5.29163
#
# Compressibility (1/GPa) = 0.03885801
#
# Stress axis : x y z
#
# Youngs Moduli (GPa) = 34.68136 71.18450 150.09859
#
# Poissons Ratio (x) = -0.11357 0.93468
# Poissons Ratio (y) = -0.05533 0.10680
# Poissons Ratio (z) = 0.21596 0.05065
#
# Static dielectric constant tensor:
#      x y z
#    x 1.752660 0.000000 -0.011520 
#    y 0.000000 2.069630 0.000000 
#    z -0.011520 0.000000 1.884900 
# 
# From -- ./inp_files/323637.got.cif
#   From: 2010.05.17/outbox.cif.g08.bks.cpg/sg12_162_cif.got.tgz:323637.got - 2010.06.03 13:09:07.
