data_PCOD9184118
_publ_section_title
;
Structure prediction by ZEFSAII (Michael W. Deem and Ramdas Pophale) SiO2 
 PCOD9184118
Probable space group: C 2/M
;
_chemical_formula_sum "Si O2"
_cell_formula_units_Z 56
_cell_length_a 10.994273
_cell_length_b 16.070585
_cell_length_c 26.573079
_cell_angle_alpha 90.000000
_cell_angle_beta 34.497300
_cell_angle_gamma 90.000000
_cell_volume 2659.122405
_symmetry_space_group_name_H-M "C 2/M"
_symmetry_group_IT_number 12
_symmetry_cell_setting 'monoclinic'
loop_
_space_group_symop_operation_xyz
x,y,z
-x,y,-z
-x,-y,-z
x,-y,z
1/2+x,1/2+y,z
1/2-x,1/2+y,-z
1/2-x,1/2-y,-z
1/2+x,1/2-y,z
loop_
_atom_site_type_symbol
_atom_site_label
_atom_site_fract_x
_atom_site_fract_y
_atom_site_fract_z
Si Si1 0.277137 0.602084 0.604325
Si Si2 0.999795 0.815031 0.195976
Si Si3 0.195804 0.596718 0.460387
Si Si4 0.124420 0.687684 0.850555
Si Si5 0.427066 0.096107 0.649987
Si Si6 0.314968 0.090494 0.021225
Si Si7 0.342524 0.597796 0.694293
O O1 0.500000 0.626581 0.500000
O O2 0.273611 0.500000 0.602830
O O3 0.268662 0.630176 0.665241
O O4 0.055327 0.630007 0.654251
O O5 0.186601 0.790572 0.173011
O O6 0.926671 0.748942 0.178426
O O7 0.781616 0.851752 0.294126
O O8 0.107069 0.885314 0.123839
O O9 0.209583 0.500000 0.436516
O O10 0.424282 0.636748 0.375628
O O11 0.000000 0.640326 0.500000
O O12 0.117751 0.593822 0.543995
O O13 0.207862 0.608876 0.790297
O O14 0.906333 0.661279 0.953242
O O15 0.359345 0.000000 0.680431
O O16 0.290146 0.000000 0.005025
O O17 0.500000 0.084771 0.000000
O O18 0.373874 0.500000 0.674515
#
# Coordination Sequence:
#
# PCOD9184118 Si02
#       7
#     8   8   8   8   8   8   8
#     4   9  16  30  54  85 117 153 193 243 305 350
#     4  11  24  40  61  88 121 159 194 236 293 354
#     4   9  16  27  48  79 111 143 189 251 297 329
#     4  11  24  40  61  88 121 159 194 236 293 354
#     4  10  19  33  57  85 115 152 200 249 291 343
#     4   9  19  40  69  95 116 145 192 244 289 342
#     4  10  19  33  57  85 115 152 200 249 291 343
#
# _framework density 21.059581000000001
#
# number of rings (size 3 to 8) (size 9 to 14) (size 15 to 20)
#    0.000    2.143    1.429    2.143    2.000    2.857 
#    0.000    0.714    0.000    0.857    0.000    0.000 
#    0.000    0.000    0.000    0.000    0.000    0.000 
#
# Total GULP energy -155902.272074 kJ/mol
# GULP energy per Si atom -5567.938288 kJ/mol
# Density = 2.101165 g / cm^3
# Si number density = 21.059581 Si / 1000 Ang^3
#
#
#
# Elastic Constant Matrix: (Units=GPa)
#
#
# Indices 1 2 3 4 5 6 
#
# 1 101.6257 10.7393 -11.0762 0.0036 0.6686 0.0047
# 2 10.7393 30.6186 -7.5303 0.0056 -4.3839 0.0043
# 3 -11.0762 -7.5303 51.0930 0.0136 3.9758 0.0205
# 4 0.0036 0.0056 0.0136 -3.9249 0.0011 -0.3249
# 5 0.6686 -4.3839 3.9758 0.0011 25.8509 0.0013
# 6 0.0047 0.0043 0.0205 -0.3249 0.0013 7.7509
#
#
#
# Elastic Compliance Matrix: (Units=1/GPa)
#
#
# Indices 1 2 3 4 5 6 
#
# 1 0.010403 -0.003355 0.001848 0.000012 -0.001122 -0.000009
# 2 -0.003355 0.035632 0.004096 0.000066 0.005499 -0.000027
# 3 0.001848 0.004096 0.020775 0.000083 -0.002548 -0.000054
# 4 0.000012 0.000066 0.000083 -0.253904 0.000010 -0.010645
# 5 -0.001122 0.005499 -0.002548 0.000010 0.040037 -0.000002
# 6 -0.000009 -0.000027 -0.000054 -0.010645 -0.000002 0.128572
#
#
# Mechanical properties :
#
#
# Convention : Reuss Voigt Hill
#
# Bulk Modulus (GPa) = 13.89116 18.62257 16.25687
# Shear Modulus (GPa) = 15063.68388 18.68234 7541.18311
#
# Velocity S-wave (km/s) = 84.66651 2.98168 59.90537
# Velocity P-wave (km/s) = 97.79826 4.55147 69.22866
#
# Compressibility (1/GPa) = 0.07198821
#
# Stress axis : x y z
#
# Youngs Moduli (GPa) = 96.12250 28.06503 48.13525
#
# Poissons Ratio (x) = 0.09416 -0.08896
# Poissons Ratio (y) = 0.32250 -0.19717
# Poissons Ratio (z) = -0.17765 -0.11496
#
# Static dielectric constant tensor:
#      x y z
#    x 1.842200 0.000000 0.000650 
#    y 0.000000 1.822100 0.000000 
#    z 0.000650 0.000000 1.804120 
# 
# From -- ./inp_files/374187.got.cif
#   From: 2010.05.17/outbox.cif.g08.bks.cpg/sg12_188_cif.got.tgz:374187.got - 2010.06.03 13:09:07.
