data_PCOD9184904
_publ_section_title
;
Structure prediction by ZEFSAII (Michael W. Deem and Ramdas Pophale) SiO2 
 PCOD9184904
Probable space group: C 2/M
;
_chemical_formula_sum "Si O2"
_cell_formula_units_Z 56
_cell_length_a 30.976606
_cell_length_b 8.493733
_cell_length_c 12.911211
_cell_angle_alpha 90.000000
_cell_angle_beta 105.920975
_cell_angle_gamma 90.000000
_cell_volume 3266.723417
_symmetry_space_group_name_H-M "C 2/M"
_symmetry_group_IT_number 12
_symmetry_cell_setting 'monoclinic'
loop_
_space_group_symop_operation_xyz
x,y,z
-x,y,-z
-x,-y,-z
x,-y,z
1/2+x,1/2+y,z
1/2-x,1/2+y,-z
1/2-x,1/2-y,-z
1/2+x,1/2-y,z
loop_
_atom_site_type_symbol
_atom_site_label
_atom_site_fract_x
_atom_site_fract_y
_atom_site_fract_z
Si Si1 0.049205 0.185959 0.644966
Si Si2 0.452564 0.812110 0.587933
Si Si3 0.142598 0.309846 0.392468
Si Si4 0.703288 0.690073 0.251397
Si Si5 0.637934 0.811043 0.794309
Si Si6 0.303860 0.808310 0.368322
Si Si7 0.297492 0.689196 0.987953
O O1 0.055827 0.271335 0.538435
O O2 0.088533 0.241530 0.746274
O O3 0.999333 0.231818 0.648765
O O4 0.051564 0.000000 0.629555
O O5 0.408800 0.760256 0.622570
O O6 0.457533 0.000000 0.600024
O O7 0.143043 0.500000 0.393906
O O8 0.165233 0.251133 0.302855
O O9 0.172215 0.255178 0.510611
O O10 0.703279 0.500000 0.253705
O O11 0.752443 0.744060 0.323146
O O12 0.697462 0.739078 0.128299
O O13 0.667593 0.760906 0.713729
O O14 0.663418 0.753459 0.912925
O O15 0.635684 0.000000 0.792428
O O16 0.303772 0.000000 0.369032
O O17 0.297160 0.500000 0.991062
O O18 0.250000 0.750000 0.000000
#
# Coordination Sequence:
#
# PCOD9184904 Si02
#       7
#     8   8   8   8   8   8   8
#     4  11  21  33  52  83 113 139 179 226 272 328
#     4  10  19  34  55  78 109 148 181 219 273 325
#     4  10  20  34  54  79 109 144 185 222 261 324
#     4  10  21  36  53  75 110 148 182 221 270 320
#     4  11  20  36  58  79 110 145 181 226 276 323
#     4   9  17  33  52  76 108 144 177 215 264 316
#     4  11  22  37  56  80 108 144 187 230 271 317
#
# _framework density 17.142558999999999
#
# number of rings (size 3 to 8) (size 9 to 14) (size 15 to 20)
#    0.000    1.714    2.857    3.857    0.000    2.286 
#    0.000    0.000    0.000    0.857    0.000    6.000 
#    0.000    0.000    0.000    0.000    0.000    0.000 
#
# Total GULP energy -156361.827929 kJ/mol
# GULP energy per Si atom -5584.350997 kJ/mol
# Density = 1.710354 g / cm^3
# Si number density = 17.142559 Si / 1000 Ang^3
#
#
#
# Elastic Constant Matrix: (Units=GPa)
#
#
# Indices 1 2 3 4 5 6 
#
# 1 146.3392 10.6236 76.2164 0.0000 3.0638 0.0000
# 2 10.6236 16.6676 5.0855 0.0000 -0.4689 0.0000
# 3 76.2164 5.0855 97.4254 0.0000 -2.2047 0.0000
# 4 0.0000 0.0000 0.0000 26.5978 0.0000 1.1410
# 5 3.0638 -0.4689 -2.2047 0.0000 33.0805 0.0000
# 6 0.0000 0.0000 0.0000 1.1410 0.0000 25.9983
#
#
#
# Elastic Compliance Matrix: (Units=1/GPa)
#
#
# Indices 1 2 3 4 5 6 
#
# 1 0.012007 -0.004903 -0.009178 0.000000 -0.001793 0.000000
# 2 -0.004903 0.062984 0.000579 0.000000 0.001385 0.000000
# 3 -0.009178 0.000579 0.017459 0.000000 0.002022 0.000000
# 4 0.000000 0.000000 0.000000 0.037668 0.000000 -0.001653
# 5 -0.001793 0.001385 0.002022 0.000000 0.030550 0.000000
# 6 0.000000 0.000000 0.000000 -0.001653 0.000000 0.038537
#
#
# Mechanical properties :
#
#
# Convention : Reuss Voigt Hill
#
# Bulk Modulus (GPa) = 15.27938 49.36478 32.32208
# Shear Modulus (GPa) = 20.15940 28.36912 24.26426
#
# Velocity S-wave (km/s) = 3.43298 4.07245 3.76631
# Velocity P-wave (km/s) = 4.96451 7.13949 6.14893
#
# Compressibility (1/GPa) = 0.06544766
#
# Stress axis : x y z
#
# Youngs Moduli (GPa) = 83.28594 15.87703 57.27542
#
# Poissons Ratio (x) = 0.07785 0.52565
# Poissons Ratio (y) = 0.40836 -0.03319
# Poissons Ratio (z) = 0.76437 -0.00920
#
# Static dielectric constant tensor:
#      x y z
#    x 1.576530 0.000000 0.008860 
#    y 0.000000 1.584840 0.000000 
#    z 0.008860 0.000000 1.558090 
# 
# From -- ./inp_files/186858.got.cif
#   From: 2010.05.17/outbox.cif.g08.bks.cpg/sg12_94_cif.got.tgz:186858.got - 2010.06.03 13:09:07.
