data_PCOD9184965
_publ_section_title
;
Structure prediction by ZEFSAII (Michael W. Deem and Ramdas Pophale) SiO2 
 PCOD9184965
Probable space group: C 2/M
;
_chemical_formula_sum "Si O2"
_cell_formula_units_Z 64
_cell_length_a 18.900758
_cell_length_b 12.423712
_cell_length_c 15.239693
_cell_angle_alpha 90.000000
_cell_angle_beta 99.241660
_cell_angle_gamma 90.000000
_cell_volume 3532.097308
_symmetry_space_group_name_H-M "C 2/M"
_symmetry_group_IT_number 12
_symmetry_cell_setting 'monoclinic'
loop_
_space_group_symop_operation_xyz
x,y,z
-x,y,-z
-x,-y,-z
x,-y,z
1/2+x,1/2+y,z
1/2-x,1/2+y,-z
1/2-x,1/2-y,-z
1/2+x,1/2-y,z
loop_
_atom_site_type_symbol
_atom_site_label
_atom_site_fract_x
_atom_site_fract_y
_atom_site_fract_z
Si Si1 0.838022 0.373315 0.931508
Si Si2 0.027442 0.874205 0.282586
Si Si3 0.613868 0.748451 0.694735
Si Si4 0.524889 0.262134 0.097542
Si Si5 0.174796 0.626884 0.545059
Si Si6 0.112907 0.372435 0.874104
Si Si7 0.673409 0.724777 0.375804
Si Si8 0.753682 0.375812 0.748546
O O1 0.858994 0.500000 0.929881
O O2 0.901135 0.300079 0.904876
O O3 0.769763 0.359994 0.855066
O O4 0.833051 0.349543 0.034142
O O5 0.029902 0.842447 0.180035
O O6 0.103233 0.842855 0.339983
O O7 0.964427 0.802658 0.312555
O O8 0.012443 0.000000 0.290009
O O9 0.626844 0.823312 0.613387
O O10 0.630114 0.816152 0.786069
O O11 0.673309 0.654682 0.706142
O O12 0.463549 0.174908 0.109667
O O13 0.500000 0.312740 0.000000
O O14 0.163642 0.500000 0.532062
O O15 0.257721 0.651546 0.587289
O O16 0.160715 0.694313 0.454160
O O17 0.108807 0.500000 0.860927
O O18 0.695686 0.797426 0.297050
O O19 0.768959 0.500000 0.730585
#
# Coordination Sequence:
#
# PCOD9184965 Si02
#       8
#     8   8   8   8   8   8   8   8
#     4   9  16  28  51  79 107 141 184 228 272 320
#     4  11  22  38  57  81 113 148 185 223 271 331
#     4  10  22  36  53  79 114 151 182 221 271 329
#     4   9  17  31  52  80 112 144 182 230 270 318
#     4  10  21  40  62  84 111 141 180 231 281 325
#     4   9  17  30  49  76 110 148 184 223 273 324
#     4  10  21  38  61  86 108 140 184 230 276 326
#     4  10  19  34  55  80 109 143 183 229 277 323
#
# _framework density 18.119546
#
# number of rings (size 3 to 8) (size 9 to 14) (size 15 to 20)
#    0.000    2.250    1.250    1.875    0.000    2.750 
#    0.000    5.000    0.000    0.000    0.000    0.000 
#    0.000    0.000    0.000    0.000    0.000    0.000 
#
# Total GULP energy -178487.839102 kJ/mol
# GULP energy per Si atom -5577.744972 kJ/mol
# Density = 1.807831 g / cm^3
# Si number density = 18.119546 Si / 1000 Ang^3
#
#
#
# Elastic Constant Matrix: (Units=GPa)
#
#
# Indices 1 2 3 4 5 6 
#
# 1 41.6165 10.6351 21.1257 0.0000 -3.4310 0.0000
# 2 10.6351 76.3381 33.0466 0.0000 -4.5362 0.0000
# 3 21.1257 33.0466 93.1137 0.0000 -5.9648 0.0000
# 4 0.0000 0.0000 0.0000 20.4701 0.0000 4.2482
# 5 -3.4310 -4.5362 -5.9648 0.0000 24.1283 0.0000
# 6 0.0000 0.0000 0.0000 4.2482 0.0000 10.6865
#
#
#
# Elastic Compliance Matrix: (Units=1/GPa)
#
#
# Indices 1 2 3 4 5 6 
#
# 1 0.027391 -0.001245 -0.005627 0.000000 0.002270 0.000000
# 2 -0.001245 0.015593 -0.005157 0.000000 0.001480 0.000000
# 3 -0.005627 -0.005157 0.013954 0.000000 0.001680 0.000000
# 4 0.000000 0.000000 0.000000 0.053244 0.000000 -0.021166
# 5 0.002270 0.001480 0.001680 0.000000 0.042461 0.000000
# 6 0.000000 0.000000 0.000000 -0.021166 0.000000 0.101991
#
#
# Mechanical properties :
#
#
# Convention : Reuss Voigt Hill
#
# Bulk Modulus (GPa) = 30.41374 37.85370 34.13372
# Shear Modulus (GPa) = 17.26204 20.80771 19.03487
#
# Velocity S-wave (km/s) = 3.08989 3.39242 3.24468
# Velocity P-wave (km/s) = 5.43612 6.02338 5.73727
#
# Compressibility (1/GPa) = 0.03287988
#
# Stress axis : x y z
#
# Youngs Moduli (GPa) = 36.50873 64.12957 71.66355
#
# Poissons Ratio (x) = 0.07985 0.40326
# Poissons Ratio (y) = 0.04546 0.36956
# Poissons Ratio (z) = 0.20544 0.33071
#
# Static dielectric constant tensor:
#      x y z
#    x 1.601070 0.000000 0.010880 
#    y 0.000000 1.584500 0.000000 
#    z 0.010880 0.000000 1.635250 
# 
# From -- ./inp_files/223815.got.cif
#   From: 2010.05.17/outbox.cif.g08.bks.cpg/sg12_112_cif.got.tgz:223815.got - 2010.06.03 13:09:07.
