data_PCOD9184291
_publ_section_title
;
Structure prediction by ZEFSAII (Michael W. Deem and Ramdas Pophale) SiO2 
 PCOD9184291
Probable space group: C 2/M
;
_chemical_formula_sum "Si O2"
_cell_formula_units_Z 48
_cell_length_a 18.164786
_cell_length_b 21.397272
_cell_length_c 12.228833
_cell_angle_alpha 90.000000
_cell_angle_beta 148.515371
_cell_angle_gamma 90.000000
_cell_volume 2482.382064
_symmetry_space_group_name_H-M "C 2/M"
_symmetry_group_IT_number 12
_symmetry_cell_setting 'monoclinic'
loop_
_space_group_symop_operation_xyz
x,y,z
-x,y,-z
-x,-y,-z
x,-y,z
1/2+x,1/2+y,z
1/2-x,1/2+y,-z
1/2-x,1/2-y,-z
1/2+x,1/2-y,z
loop_
_atom_site_type_symbol
_atom_site_label
_atom_site_fract_x
_atom_site_fract_y
_atom_site_fract_z
Si Si1 0.074077 0.224329 0.476345
Si Si2 0.189905 0.817714 0.961888
Si Si3 0.362191 0.140372 0.387659
Si Si4 0.814745 0.570780 0.974252
Si Si5 0.664477 0.858738 0.219072
Si Si6 0.651928 0.070740 0.424196
O O1 0.079566 0.298961 0.473560
O O2 0.229948 0.197253 0.671969
O O3 0.000000 0.211664 0.500000
O O4 0.976986 0.192040 0.262442
O O5 0.238631 0.874411 0.945050
O O6 0.250000 0.750000 0.000000
O O7 0.252955 0.834614 0.159464
O O8 0.500000 0.113474 0.500000
O O9 0.297985 0.094281 0.394737
O O10 0.763056 0.500000 0.929304
O O11 0.806746 0.588440 0.836111
O O12 0.980807 0.572315 0.213258
O O13 0.691740 0.885497 0.373805
O O14 0.500000 0.841265 0.000000
O O15 0.695329 0.000000 0.456678
#
# Coordination Sequence:
#
# PCOD9184291 Si02
#       6
#     8   8   8   8   8   8
#     4  11  21  38  63  91 119 157 194 250 304 353
#     4  12  20  36  60  89 124 151 194 248 302 351
#     4  11  21  36  60  90 119 157 198 246 297 355
#     4  10  19  33  58  89 116 152 200 250 295 346
#     4  10  21  39  61  88 122 155 199 247 298 354
#     4  10  21  37  58  84 120 162 202 244 294 354
#
# _framework density 19.336265999999998
#
# number of rings (size 3 to 8) (size 9 to 14) (size 15 to 20)
#    0.000    1.333    6.667    0.500    0.000    5.000 
#    0.000    3.333    0.000    1.000    0.000    0.000 
#    0.000    0.000    0.000    0.000    0.000    0.000 
#
# Total GULP energy -133979.524564 kJ/mol
# GULP energy per Si atom -5582.480190 kJ/mol
# Density = 1.929226 g / cm^3
# Si number density = 19.336266 Si / 1000 Ang^3
#
#
#
# Elastic Constant Matrix: (Units=GPa)
#
#
# Indices 1 2 3 4 5 6 
#
# 1 63.9950 35.3252 12.5240 0.0000 -5.5505 0.0000
# 2 35.3252 63.0522 -4.0449 0.0000 12.0899 0.0000
# 3 12.5240 -4.0449 51.4407 0.0000 -8.7026 0.0000
# 4 0.0000 0.0000 0.0000 14.6632 0.0000 -4.3660
# 5 -5.5505 12.0899 -8.7026 0.0000 28.5995 0.0000
# 6 0.0000 0.0000 0.0000 -4.3660 0.0000 12.7114
#
#
#
# Elastic Compliance Matrix: (Units=1/GPa)
#
#
# Indices 1 2 3 4 5 6 
#
# 1 0.027846 -0.018144 -0.006320 0.000000 0.011151 0.000000
# 2 -0.018144 0.029082 0.004247 0.000000 -0.014523 0.000000
# 3 -0.006320 0.004247 0.021930 0.000000 0.003651 0.000000
# 4 0.000000 0.000000 0.000000 0.075967 0.000000 0.026092
# 5 0.011151 -0.014523 0.003651 0.000000 0.044380 0.000000
# 6 0.000000 0.000000 0.000000 0.026092 0.000000 0.087632
#
#
# Mechanical properties :
#
#
# Convention : Reuss Voigt Hill
#
# Bulk Modulus (GPa) = 26.02457 29.56628 27.79542
# Shear Modulus (GPa) = 14.70246 20.17372 17.43809
#
# Velocity S-wave (km/s) = 2.76045 3.23354 3.00631
# Velocity P-wave (km/s) = 4.86295 5.40969 5.14359
#
# Compressibility (1/GPa) = 0.03842522
#
# Stress axis : x y z
#
# Youngs Moduli (GPa) = 35.91203 34.38501 45.59930
#
# Poissons Ratio (x) = 0.62389 0.28817
# Poissons Ratio (y) = 0.65160 -0.19368
# Poissons Ratio (z) = 0.22695 -0.14605
#
# Static dielectric constant tensor:
#      x y z
#    x 1.674740 0.000000 -0.024290 
#    y 0.000000 1.661110 0.000000 
#    z -0.024290 0.000000 1.716070 
# 
# From -- ./inp_files/134098.got.cif
#   From: 2010.05.17/outbox.cif.g08.bks.cpg/sg12_68_cif.got.tgz:134098.got - 2010.06.03 13:09:07.
