data_PCOD9184729
_publ_section_title
;
Structure prediction by ZEFSAII (Michael W. Deem and Ramdas Pophale) SiO2 
 PCOD9184729
Probable space group: C 2/M
;
_chemical_formula_sum "Si O2"
_cell_formula_units_Z 56
_cell_length_a 19.845223
_cell_length_b 8.616571
_cell_length_c 22.251965
_cell_angle_alpha 90.000000
_cell_angle_beta 124.257827
_cell_angle_gamma 90.000000
_cell_volume 3144.911560
_symmetry_space_group_name_H-M "C 2/M"
_symmetry_group_IT_number 12
_symmetry_cell_setting 'monoclinic'
loop_
_space_group_symop_operation_xyz
x,y,z
-x,y,-z
-x,-y,-z
x,-y,z
1/2+x,1/2+y,z
1/2-x,1/2+y,-z
1/2-x,1/2-y,-z
1/2+x,1/2-y,z
loop_
_atom_site_type_symbol
_atom_site_label
_atom_site_fract_x
_atom_site_fract_y
_atom_site_fract_z
Si Si1 0.459636 0.812058 0.314108
Si Si2 0.377817 0.187282 0.547857
Si Si3 0.759145 0.313339 0.598695
Si Si4 0.517676 0.187208 0.814136
Si Si5 0.660854 0.812314 0.236451
Si Si6 0.719643 0.186296 0.800137
Si Si7 0.807521 0.815426 0.080782
O O1 0.529775 0.757460 0.394649
O O2 0.485468 0.773599 0.258571
O O3 0.366156 0.760514 0.273509
O O4 0.459462 0.000000 0.317656
O O5 0.328079 0.250803 0.466358
O O6 0.324850 0.232414 0.580352
O O7 0.377865 0.000000 0.544860
O O8 0.756968 0.500000 0.597827
O O9 0.790182 0.261009 0.679199
O O10 0.433361 0.233865 0.802790
O O11 0.598957 0.262241 0.881269
O O12 0.525356 0.000000 0.821422
O O13 0.705230 0.746239 0.200735
O O14 0.662944 0.000000 0.235863
O O15 0.718464 0.248633 0.867346
O O16 0.719250 0.000000 0.801926
O O17 0.802885 0.000000 0.079765
O O18 0.750000 0.750000 0.000000
#
# Coordination Sequence:
#
# PCOD9184729 Si02
#       7
#     8   8   8   8   8   8   8
#     4   8  14  29  51  72  96 135 182 223 264 314
#     4   9  15  27  47  70  96 132 181 229 269 314
#     4   9  17  28  45  71 102 137 175 223 273 315
#     4   9  17  33  57  81 106 141 180 217 261 315
#     4  10  19  34  54  77 110 147 180 218 270 323
#     4  10  21  36  56  80 109 142 178 220 265 316
#     4  11  22  39  62  87 112 138 171 211 256 311
#
# _framework density 17.806542
#
# number of rings (size 3 to 8) (size 9 to 14) (size 15 to 20)
#    0.000    2.571    1.429    2.571    0.000    1.143 
#    0.000    5.000    0.000    8.571    0.000    0.000 
#    0.000    0.000    0.000    0.000    0.000    0.000 
#
# Total GULP energy -156128.059386 kJ/mol
# GULP energy per Si atom -5576.002121 kJ/mol
# Density = 1.776601 g / cm^3
# Si number density = 17.806542 Si / 1000 Ang^3
#
#
#
# Elastic Constant Matrix: (Units=GPa)
#
#
# Indices 1 2 3 4 5 6 
#
# 1 127.4460 34.8453 61.7608 0.0000 13.2987 0.0000
# 2 34.8453 33.7611 32.4157 0.0000 6.0264 0.0000
# 3 61.7608 32.4157 129.3484 0.0000 24.0642 0.0000
# 4 0.0000 0.0000 0.0000 27.4762 0.0000 2.2896
# 5 13.2987 6.0264 24.0642 0.0000 20.9487 0.0000
# 6 0.0000 0.0000 0.0000 2.2896 0.0000 23.7406
#
#
#
# Elastic Compliance Matrix: (Units=1/GPa)
#
#
# Indices 1 2 3 4 5 6 
#
# 1 0.012030 -0.009088 -0.003220 0.000000 -0.001323 0.000000
# 2 -0.009088 0.045871 -0.007344 0.000000 0.001010 0.000000
# 3 -0.003220 -0.007344 0.013145 0.000000 -0.010943 0.000000
# 4 0.000000 0.000000 0.000000 0.036690 0.000000 -0.003538
# 5 -0.001323 0.001010 -0.010943 0.000000 0.060856 0.000000
# 6 0.000000 0.000000 0.000000 -0.003538 0.000000 0.042463
#
#
# Mechanical properties :
#
#
# Convention : Reuss Voigt Hill
#
# Bulk Modulus (GPa) = 31.50501 60.95546 46.23024
# Shear Modulus (GPa) = 19.16148 25.20201 22.18175
#
# Velocity S-wave (km/s) = 3.28394 3.76616 3.53329
# Velocity P-wave (km/s) = 5.66660 7.29509 6.53180
#
# Compressibility (1/GPa) = 0.03174098
#
# Stress axis : x y z
#
# Youngs Moduli (GPa) = 83.12630 21.80026 76.07448
#
# Poissons Ratio (x) = 0.19812 0.24498
# Poissons Ratio (y) = 0.75546 0.55870
# Poissons Ratio (z) = 0.26769 0.16010
#
# Static dielectric constant tensor:
#      x y z
#    x 1.605100 0.000000 0.020520 
#    y 0.000000 1.606480 0.000000 
#    z 0.020520 0.000000 1.601360 
# 
# From -- ./inp_files/314440.got.cif
#   From: 2010.05.17/outbox.cif.g08.bks.cpg/sg12_158_cif.got.tgz:314440.got - 2010.06.03 13:09:07.
