data_PCOD9184141
_publ_section_title
;
Structure prediction by ZEFSAII (Michael W. Deem and Ramdas Pophale) SiO2 
 PCOD9184141
Probable space group: C 2/M
;
_chemical_formula_sum "Si O2"
_cell_formula_units_Z 40
_cell_length_a 17.571866
_cell_length_b 15.659593
_cell_length_c 17.296342
_cell_angle_alpha 90.000000
_cell_angle_beta 26.189439
_cell_angle_gamma 90.000000
_cell_volume 2100.517767
_symmetry_space_group_name_H-M "C 2/M"
_symmetry_group_IT_number 12
_symmetry_cell_setting 'monoclinic'
loop_
_space_group_symop_operation_xyz
x,y,z
-x,y,-z
-x,-y,-z
x,-y,z
1/2+x,1/2+y,z
1/2-x,1/2+y,-z
1/2-x,1/2-y,-z
1/2+x,1/2-y,z
loop_
_atom_site_type_symbol
_atom_site_label
_atom_site_fract_x
_atom_site_fract_y
_atom_site_fract_z
Si Si1 0.000000 0.850719 0.500000
Si Si2 0.180871 0.000000 0.268430
Si Si3 0.236468 0.654754 0.049927
Si Si4 0.318552 0.500000 0.502702
Si Si5 0.574690 0.000000 0.097491
Si Si6 0.045953 0.278792 0.597729
Si Si7 0.615398 0.652542 0.673294
O O1 0.017843 0.791853 0.558456
O O2 0.160647 0.914320 0.337246
O O3 0.338515 0.000000 0.066179
O O4 0.999811 0.000000 0.384184
O O5 0.145758 0.584622 0.077201
O O6 0.121341 0.664102 0.231918
O O7 0.250000 0.750000 0.000000
O O8 0.436194 0.628694 0.877265
O O9 0.326239 0.580920 0.439839
O O10 0.132802 0.500000 0.713520
O O11 0.223236 0.327766 0.419361
O O12 0.077358 0.233045 0.651909
#
# Coordination Sequence:
#
# PCOD9184141 Si02
#       7
#     4   4   8   4   4   8   8
#     4  11  22  40  58  79 134 168 186 231 314 383
#     4  11  22  38  56  86 126 165 185 239 311 378
#     4  10  19  33  57  86 115 150 201 255 298 340
#     4  12  19  35  61  90 119 148 200 258 300 345
#     4  12  21  35  61  96 119 150 209 258 302 350
#     4  10  20  35  54  84 112 156 198 238 290 358
#     4  10  19  34  58  82 111 148 202 252 290 335
#
# _framework density 19.042923999999999
#
# number of rings (size 3 to 8) (size 9 to 14) (size 15 to 20)
#    0.000    1.400    6.000    1.200    0.000    0.000 
#    0.000    5.000    0.000    2.400    0.000    2.800 
#    0.000    0.000    0.000    0.000    0.000    0.000 
#
# Total GULP energy -111436.285289 kJ/mol
# GULP energy per Si atom -5571.814264 kJ/mol
# Density = 1.899958 g / cm^3
# Si number density = 19.042924 Si / 1000 Ang^3
#
#
#
# Elastic Constant Matrix: (Units=GPa)
#
#
# Indices 1 2 3 4 5 6 
#
# 1 33.7339 10.2552 36.9707 0.0004 2.3529 -0.0002
# 2 10.2552 46.0327 27.9970 0.0006 3.6585 -0.0003
# 3 36.9707 27.9970 203.0623 0.0011 -1.4542 -0.0005
# 4 0.0004 0.0006 0.0011 27.4435 -0.0001 10.3512
# 5 2.3529 3.6585 -1.4542 -0.0001 24.8584 -0.0001
# 6 -0.0002 -0.0003 -0.0005 10.3512 -0.0001 59.1566
#
#
#
# Elastic Compliance Matrix: (Units=1/GPa)
#
#
# Indices 1 2 3 4 5 6 
#
# 1 0.038191 -0.004365 -0.006375 0.000000 -0.003346 0.000000
# 2 -0.004365 0.024553 -0.002615 0.000000 -0.003353 0.000000
# 3 -0.006375 -0.002615 0.006456 0.000000 0.001366 0.000000
# 4 0.000000 0.000000 0.000000 0.039013 0.000000 -0.006827
# 5 -0.003346 -0.003353 0.001366 0.000000 0.041118 0.000000
# 6 0.000000 0.000000 0.000000 -0.006827 0.000000 0.018099
#
#
# Mechanical properties :
#
#
# Convention : Reuss Voigt Hill
#
# Bulk Modulus (GPa) = 23.53499 48.14164 35.83832
# Shear Modulus (GPa) = 24.00353 36.13210 30.06781
#
# Velocity S-wave (km/s) = 3.55420 4.36064 3.97791
# Velocity P-wave (km/s) = 5.40637 7.11963 6.32131
#
# Compressibility (1/GPa) = 0.04248992
#
# Stress axis : x y z
#
# Youngs Moduli (GPa) = 26.18399 40.72866 154.90411
#
# Poissons Ratio (x) = 0.17778 0.98759
# Poissons Ratio (y) = 0.11429 0.40500
# Poissons Ratio (z) = 0.16694 0.10649
#
# Static dielectric constant tensor:
#      x y z
#    x 1.655550 0.000000 -0.020990 
#    y 0.000000 1.616480 0.000000 
#    z -0.020990 0.000000 1.746620 
# 
# From -- ./inp_files/322090.got.cif
#   From: 2010.05.17/outbox.cif.g08.bks.cpg/sg12_162_cif.got.tgz:322090.got - 2010.06.03 13:09:07.
