data_PCOD9184112
_publ_section_title
;
Structure prediction by ZEFSAII (Michael W. Deem and Ramdas Pophale) SiO2 
 PCOD9184112
Probable space group: C 2/M
;
_chemical_formula_sum "Si O2"
_cell_formula_units_Z 56
_cell_length_a 19.050476
_cell_length_b 12.514279
_cell_length_c 12.412377
_cell_angle_alpha 90.000000
_cell_angle_beta 66.656014
_cell_angle_gamma 90.000000
_cell_volume 2716.918994
_symmetry_space_group_name_H-M "C 2/M"
_symmetry_group_IT_number 12
_symmetry_cell_setting 'monoclinic'
loop_
_space_group_symop_operation_xyz
x,y,z
-x,y,-z
-x,-y,-z
x,-y,z
1/2+x,1/2+y,z
1/2-x,1/2+y,-z
1/2-x,1/2-y,-z
1/2+x,1/2-y,z
loop_
_atom_site_type_symbol
_atom_site_label
_atom_site_fract_x
_atom_site_fract_y
_atom_site_fract_z
Si Si1 0.838320 0.774579 0.472265
Si Si2 0.127113 0.880123 0.092164
Si Si3 0.756749 0.618755 0.853393
Si Si4 0.007379 0.703117 0.110198
Si Si5 0.117901 0.222211 0.313659
Si Si6 0.479472 0.122642 0.356748
Si Si7 0.882653 0.881797 0.230304
O O1 0.750000 0.750000 0.500000
O O2 0.852510 0.809780 0.586658
O O3 0.863363 0.859254 0.366577
O O4 0.894674 0.672008 0.423545
O O5 0.081077 0.779799 0.072820
O O6 0.111339 0.871279 0.229516
O O7 0.104241 0.000000 0.069102
O O8 0.213082 0.868085 0.993679
O O9 0.791146 0.500000 0.830609
O O10 0.819819 0.702622 0.782229
O O11 0.691591 0.623596 0.800550
O O12 0.000358 0.628627 0.217419
O O13 0.939491 0.789303 0.161199
O O14 0.000000 0.647886 0.000000
O O15 0.040924 0.293615 0.368899
O O16 0.484557 0.000000 0.390115
O O17 0.916047 0.000000 0.197975
#
# Coordination Sequence:
#
# PCOD9184112 Si02
#       7
#     8   8   8   8   8   8   8
#     4  11  23  40  60  85 117 154 203 253 298 347
#     4  10  21  35  56  88 119 156 199 243 303 360
#     4  10  19  33  57  85 113 151 202 251 296 352
#     4  10  19  35  61  87 120 156 194 245 298 356
#     4  11  22  39  61  83 123 164 199 249 299 364
#     4  10  24  42  61  90 122 159 202 244 300 364
#     4  10  20  34  56  86 115 148 195 250 302 349
#
# _framework density 20.611583
#
# number of rings (size 3 to 8) (size 9 to 14) (size 15 to 20)
#    0.000    1.714    2.857    1.714    0.000    3.714 
#    0.000    0.000    0.000    5.143    0.000    0.000 
#    0.000    0.000    0.000    0.000    0.000    0.000 
#
# Total GULP energy -156237.312056 kJ/mol
# GULP energy per Si atom -5579.904002 kJ/mol
# Density = 2.056467 g / cm^3
# Si number density = 20.611583 Si / 1000 Ang^3
#
#
#
# Elastic Constant Matrix: (Units=GPa)
#
#
# Indices 1 2 3 4 5 6 
#
# 1 78.1478 9.8288 28.6297 0.0000 3.4944 0.0000
# 2 9.8288 71.4485 8.6517 0.0000 -5.6008 0.0000
# 3 28.6297 8.6517 112.9361 0.0000 23.2747 0.0000
# 4 0.0000 0.0000 0.0000 9.1290 0.0000 0.3494
# 5 3.4944 -5.6008 23.2747 0.0000 47.6691 0.0000
# 6 0.0000 0.0000 0.0000 0.3494 0.0000 3.4262
#
#
#
# Elastic Compliance Matrix: (Units=1/GPa)
#
#
# Indices 1 2 3 4 5 6 
#
# 1 0.014285 -0.001484 -0.003620 0.000000 0.000546 0.000000
# 2 -0.001484 0.014540 -0.001237 0.000000 0.002421 0.000000
# 3 -0.003620 -0.001237 0.010943 0.000000 -0.005223 0.000000
# 4 0.000000 0.000000 0.000000 0.109970 0.000000 -0.011213
# 5 0.000546 0.002421 -0.005223 0.000000 0.023773 0.000000
# 6 0.000000 0.000000 0.000000 -0.011213 0.000000 0.293014
#
#
# Mechanical properties :
#
#
# Convention : Reuss Voigt Hill
#
# Bulk Modulus (GPa) = 36.91844 39.63919 38.27881
# Shear Modulus (GPa) = 10.24097 26.40633 18.32365
#
# Velocity S-wave (km/s) = 2.23144 3.58319 2.98484
# Velocity P-wave (km/s) = 4.95878 6.03260 5.52185
#
# Compressibility (1/GPa) = 0.02708673
#
# Stress axis : x y z
#
# Youngs Moduli (GPa) = 70.00488 68.77700 91.37917
#
# Poissons Ratio (x) = 0.10206 0.33080
# Poissons Ratio (y) = 0.10388 0.11300
# Poissons Ratio (z) = 0.25342 0.08505
#
# Static dielectric constant tensor:
#      x y z
#    x 1.772720 0.000000 0.028430 
#    y 0.000000 1.687730 0.000000 
#    z 0.028430 0.000000 1.770990 
# 
# From -- ./inp_files/156524.got.cif
#   From: 2010.05.17/outbox.cif.g08.bks.cpg/sg12_79_cif.got.tgz:156524.got - 2010.06.03 13:09:07.
