data_PCOD9184275
_publ_section_title
;
Structure prediction by ZEFSAII (Michael W. Deem and Ramdas Pophale) SiO2 
 PCOD9184275
Probable space group: C 2/M
;
_chemical_formula_sum "Si O2"
_cell_formula_units_Z 56
_cell_length_a 17.591638
_cell_length_b 13.938252
_cell_length_c 13.462434
_cell_angle_alpha 90.000000
_cell_angle_beta 127.100714
_cell_angle_gamma 90.000000
_cell_volume 2632.755206
_symmetry_space_group_name_H-M "C 2/M"
_symmetry_group_IT_number 12
_symmetry_cell_setting 'monoclinic'
loop_
_space_group_symop_operation_xyz
x,y,z
-x,y,-z
-x,-y,-z
x,-y,z
1/2+x,1/2+y,z
1/2-x,1/2+y,-z
1/2-x,1/2-y,-z
1/2+x,1/2-y,z
loop_
_atom_site_type_symbol
_atom_site_label
_atom_site_fract_x
_atom_site_fract_y
_atom_site_fract_z
Si Si1 0.414879 0.383791 0.858723
Si Si2 0.606687 0.883864 0.099568
Si Si3 0.399066 0.294659 0.302858
Si Si4 0.765100 0.885095 0.364084
Si Si5 0.760320 0.888653 0.055985
Si Si6 0.710867 0.111127 0.785431
Si Si7 0.416286 0.616376 0.630504
O O1 0.413621 0.500000 0.860998
O O2 0.309001 0.355557 0.810841
O O3 0.429820 0.357587 0.755989
O O4 0.500000 0.355091 0.000000
O O5 0.662493 0.851421 0.242742
O O6 0.672169 0.860141 0.056622
O O7 0.602763 0.000000 0.100154
O O8 0.500000 0.849819 0.000000
O O9 0.340946 0.353712 0.339930
O O10 0.348066 0.324150 0.158858
O O11 0.374948 0.183847 0.303852
O O12 0.506513 0.328366 0.375378
O O13 0.811509 0.858134 0.505605
O O14 0.760380 0.000000 0.360455
O O15 0.784849 0.000000 0.097847
O O16 0.733417 0.884338 0.920453
O O17 0.691479 0.000000 0.743999
O O18 0.429600 0.500000 0.631426
#
# Coordination Sequence:
#
# PCOD9184275 Si02
#       7
#     8   8   8   8   8   8   8
#     4   9  18  34  56  81 111 149 192 237 283 332
#     4   8  14  27  49  78 113 147 176 214 272 342
#     4  11  19  31  52  80 112 148 186 230 287 344
#     4   9  18  32  53  84 115 142 178 232 299 354
#     4   9  17  30  50  78 111 145 184 234 288 338
#     4  10  21  36  52  74 110 155 198 235 274 332
#     4  10  19  33  58  88 114 142 181 237 298 346
#
# _framework density 21.270493999999999
#
# number of rings (size 3 to 8) (size 9 to 14) (size 15 to 20)
#    0.000    2.571    0.000    3.857    0.000    3.429 
#    0.000    6.429    0.000    3.429    0.000    5.000 
#    0.000    0.000    0.000    0.000    0.000    0.000 
#
# Total GULP energy -156306.372048 kJ/mol
# GULP energy per Si atom -5582.370430 kJ/mol
# Density = 2.122208 g / cm^3
# Si number density = 21.270494 Si / 1000 Ang^3
#
#
#
# Elastic Constant Matrix: (Units=GPa)
#
#
# Indices 1 2 3 4 5 6 
#
# 1 68.9569 22.7651 51.7632 0.0000 15.8514 0.0000
# 2 22.7651 69.5377 10.1286 0.0000 15.6158 0.0000
# 3 51.7632 10.1286 132.0712 0.0000 18.0706 0.0000
# 4 0.0000 0.0000 0.0000 5.3789 0.0000 2.2657
# 5 15.8514 15.6158 18.0706 0.0000 27.9603 0.0000
# 6 0.0000 0.0000 0.0000 2.2657 0.0000 13.9872
#
#
#
# Elastic Compliance Matrix: (Units=1/GPa)
#
#
# Indices 1 2 3 4 5 6 
#
# 1 0.023543 -0.005381 -0.008117 0.000000 -0.005096 0.000000
# 2 -0.005381 0.017673 0.001850 0.000000 -0.008016 0.000000
# 3 -0.008117 0.001850 0.011105 0.000000 -0.003609 0.000000
# 4 0.000000 0.000000 0.000000 0.199527 0.000000 -0.032320
# 5 -0.005096 -0.008016 -0.003609 0.000000 0.045463 0.000000
# 6 0.000000 0.000000 0.000000 -0.032320 0.000000 0.076729
#
#
# Mechanical properties :
#
#
# Convention : Reuss Voigt Hill
#
# Bulk Modulus (GPa) = 34.45312 48.87549 41.66430
# Shear Modulus (GPa) = 12.28469 21.85920 17.07194
#
# Velocity S-wave (km/s) = 2.40583 3.20922 2.83611
# Velocity P-wave (km/s) = 4.89388 6.06301 5.50954
#
# Compressibility (1/GPa) = 0.02902495
#
# Stress axis : x y z
#
# Youngs Moduli (GPa) = 42.47550 56.58432 90.04956
#
# Poissons Ratio (x) = 0.30447 0.73097
# Poissons Ratio (y) = 0.22855 -0.16662
# Poissons Ratio (z) = 0.34479 -0.10470
#
# Static dielectric constant tensor:
#      x y z
#    x 1.745300 0.000000 0.006500 
#    y 0.000000 1.805910 0.000000 
#    z 0.006500 0.000000 1.796500 
# 
# From -- ./inp_files/225404.got.cif
#   From: 2010.05.17/outbox.cif.g08.bks.cpg/sg12_113_cif.got.tgz:225404.got - 2010.06.03 13:09:07.
