data_PCOD9184453
_publ_section_title
;
Structure prediction by ZEFSAII (Michael W. Deem and Ramdas Pophale) SiO2 
 PCOD9184453
Probable space group: C 2/M
;
_chemical_formula_sum "Si O2"
_cell_formula_units_Z 56
_cell_length_a 13.888928
_cell_length_b 24.707637
_cell_length_c 12.806812
_cell_angle_alpha 90.000000
_cell_angle_beta 44.002652
_cell_angle_gamma 90.000000
_cell_volume 3053.043985
_symmetry_space_group_name_H-M "C 2/M"
_symmetry_group_IT_number 12
_symmetry_cell_setting 'monoclinic'
loop_
_space_group_symop_operation_xyz
x,y,z
-x,y,-z
-x,-y,-z
x,-y,z
1/2+x,1/2+y,z
1/2-x,1/2+y,-z
1/2-x,1/2-y,-z
1/2+x,1/2-y,z
loop_
_atom_site_type_symbol
_atom_site_label
_atom_site_fract_x
_atom_site_fract_y
_atom_site_fract_z
Si Si1 0.726915 0.725379 0.334765
Si Si2 0.971367 0.439024 0.348071
Si Si3 0.018643 0.333767 0.797207
Si Si4 0.265857 0.939694 0.703205
Si Si5 0.650418 0.669432 0.845364
Si Si6 0.996628 0.776007 0.677735
Si Si7 0.225596 0.185788 0.017374
O O1 0.856639 0.685036 0.225929
O O2 0.785644 0.786606 0.282750
O O3 0.619784 0.724137 0.322425
O O4 0.640206 0.712420 0.506889
O O5 0.967149 0.500000 0.306076
O O6 0.954156 0.389993 0.281915
O O7 0.851829 0.435492 0.528867
O O8 0.116242 0.434253 0.298816
O O9 0.013268 0.282779 0.719301
O O10 0.862774 0.337566 0.964707
O O11 0.159090 0.890762 0.794711
O O12 0.205390 0.000000 0.758208
O O13 0.500000 0.688122 0.000000
O O14 0.729716 0.667925 0.894395
O O15 0.927220 0.818567 0.812864
O O16 0.250000 0.250000 0.000000
#
# Coordination Sequence:
#
# PCOD9184453 Si02
#       7
#     8   8   8   8   8   8   8
#     4  11  22  33  54  75 107 148 178 217 268 326
#     4   9  17  32  55  79 103 136 182 226 266 315
#     4  11  19  32  54  78 107 141 174 220 270 312
#     4   9  18  33  52  75 106 144 180 218 267 318
#     4  12  21  32  52  77 108 149 180 221 267 325
#     4  10  21  36  48  76 111 138 182 217 259 333
#     4  10  19  34  48  70 109 137 174 216 265 313
#
# _framework density 18.34235
#
# number of rings (size 3 to 8) (size 9 to 14) (size 15 to 20)
#    0.000    1.714    4.286    3.857    0.000    3.714 
#    0.000    0.000    0.000    0.000    0.000    5.000 
#    0.000    1.143    0.000    0.000    0.000    0.000 
#
# Total GULP energy -156008.765863 kJ/mol
# GULP energy per Si atom -5571.741638 kJ/mol
# Density = 1.830060 g / cm^3
# Si number density = 18.342350 Si / 1000 Ang^3
#
#
#
# Elastic Constant Matrix: (Units=GPa)
#
#
# Indices 1 2 3 4 5 6 
#
# 1 53.6884 16.9024 12.9855 0.0000 -7.3787 0.0000
# 2 16.9024 100.7729 28.9656 0.0000 7.6556 0.0000
# 3 12.9855 28.9656 84.8047 0.0000 -4.3015 0.0000
# 4 0.0000 0.0000 0.0000 24.8230 0.0000 0.2711
# 5 -7.3787 7.6556 -4.3015 0.0000 24.1319 0.0000
# 6 0.0000 0.0000 0.0000 0.2711 0.0000 21.1222
#
#
#
# Elastic Compliance Matrix: (Units=1/GPa)
#
#
# Indices 1 2 3 4 5 6 
#
# 1 0.021175 -0.003642 -0.001626 0.000000 0.007340 0.000000
# 2 -0.003642 0.012068 -0.003850 0.000000 -0.005628 0.000000
# 3 -0.001626 -0.003850 0.013515 0.000000 0.003133 0.000000
# 4 0.000000 0.000000 0.000000 0.040291 0.000000 -0.000517
# 5 0.007340 -0.005628 0.003133 0.000000 0.046027 0.000000
# 6 0.000000 0.000000 0.000000 -0.000517 0.000000 0.047350
#
#
# Mechanical properties :
#
#
# Convention : Reuss Voigt Hill
#
# Bulk Modulus (GPa) = 35.06059 39.66364 37.36212
# Shear Modulus (GPa) = 24.01899 26.04291 25.03095
#
# Velocity S-wave (km/s) = 3.62260 3.77214 3.69813
# Velocity P-wave (km/s) = 6.05423 6.37519 6.21679
#
# Compressibility (1/GPa) = 0.02852205
#
# Stress axis : x y z
#
# Youngs Moduli (GPa) = 47.22640 82.86183 73.99377
#
# Poissons Ratio (x) = 0.30176 0.12032
# Poissons Ratio (y) = 0.17199 0.28486
# Poissons Ratio (z) = 0.07680 0.31900
#
# Static dielectric constant tensor:
#      x y z
#    x 1.713960 0.000000 -0.011170 
#    y 0.000000 1.592290 0.000000 
#    z -0.011170 0.000000 1.709990 
# 
# From -- ./inp_files/217674.got.cif
#   From: 2010.05.17/outbox.cif.g08.bks.cpg/sg12_109_cif.got.tgz:217674.got - 2010.06.03 13:09:07.
