data_PCOD9184994
_publ_section_title
;
Structure prediction by ZEFSAII (Michael W. Deem and Ramdas Pophale) SiO2 
 PCOD9184994
Probable space group: C 2/M
;
_chemical_formula_sum "Si O2"
_cell_formula_units_Z 48
_cell_length_a 14.113916
_cell_length_b 18.039656
_cell_length_c 15.424607
_cell_angle_alpha 90.000000
_cell_angle_beta 146.387352
_cell_angle_gamma 90.000000
_cell_volume 2174.035704
_symmetry_space_group_name_H-M "C 2/M"
_symmetry_group_IT_number 12
_symmetry_cell_setting 'monoclinic'
loop_
_space_group_symop_operation_xyz
x,y,z
-x,y,-z
-x,-y,-z
x,-y,z
1/2+x,1/2+y,z
1/2-x,1/2+y,-z
1/2-x,1/2-y,-z
1/2+x,1/2-y,z
loop_
_atom_site_type_symbol
_atom_site_label
_atom_site_fract_x
_atom_site_fract_y
_atom_site_fract_z
Si Si1 0.609459 0.676214 0.421189
Si Si2 0.474989 0.158451 0.658696
Si Si3 0.500000 0.136504 0.500000
Si Si4 0.799235 0.083452 0.981305
Si Si5 0.298466 0.417137 0.190126
Si Si6 0.000000 0.303948 0.000000
Si Si7 0.888154 0.179577 0.786524
O O1 0.542826 0.758152 0.395521
O O2 0.806324 0.656267 0.590241
O O3 0.483381 0.613649 0.357898
O O4 0.603887 0.681794 0.311802
O O5 0.462089 0.103223 0.566318
O O6 0.650719 0.140032 0.839327
O O7 0.690567 0.170903 0.663159
O O8 0.764776 0.000000 0.923834
O O9 0.798177 0.081471 0.085028
O O10 0.984742 0.112277 0.092903
O O11 0.263170 0.500000 0.194931
O O12 0.161465 0.357019 0.113639
O O13 0.030748 0.250814 0.105654
#
# Coordination Sequence:
#
# PCOD9184994 Si02
#       7
#     8   8   4   8   8   4   8
#     4   9  19  35  56  79 108 144 185 222 260 322
#     4  10  19  34  55  81 106 141 184 224 269 313
#     4  10  20  34  51  78 109 132 174 228 274 314
#     4  10  21  38  57  78 109 147 184 218 262 325
#     4  10  21  36  55  81 112 144 178 220 271 322
#     4  12  21  34  59  84 110 138 178 230 271 316
#     4  10  20  34  55  81 108 142 179 221 270 316
#
# _framework density 22.078754
#
# number of rings (size 3 to 8) (size 9 to 14) (size 15 to 20)
#    0.000    2.000    0.000    4.250    0.000    3.333 
#    0.000    7.083    0.000    0.000    0.000   15.750 
#    0.000    0.000    0.000    0.000    0.000    0.000 
#
# Total GULP energy -133790.919024 kJ/mol
# GULP energy per Si atom -5574.621626 kJ/mol
# Density = 2.202850 g / cm^3
# Si number density = 22.078754 Si / 1000 Ang^3
#
#
#
# Elastic Constant Matrix: (Units=GPa)
#
#
# Indices 1 2 3 4 5 6 
#
# 1 39.6957 8.0747 2.1088 -0.0028 20.1742 -0.0015
# 2 8.0747 83.9271 28.6741 -0.0057 18.1944 -0.0028
# 3 2.1088 28.6741 111.1046 -0.0085 34.3384 -0.0046
# 4 -0.0028 -0.0057 -0.0085 -7.3162 -0.0012 -11.0513
# 5 20.1742 18.1944 34.3384 -0.0012 33.2226 -0.0006
# 6 -0.0015 -0.0028 -0.0046 -11.0513 -0.0006 9.8777
#
#
#
# Elastic Compliance Matrix: (Units=1/GPa)
#
#
# Indices 1 2 3 4 5 6 
#
# 1 0.043869 0.000318 0.010833 -0.000014 -0.038010 -0.000006
# 2 0.000318 0.013762 -0.001717 -0.000004 -0.005955 -0.000002
# 3 0.010833 -0.001717 0.016135 -0.000011 -0.022314 -0.000005
# 4 -0.000014 -0.000004 -0.000011 -0.050812 0.000019 -0.056849
# 5 -0.038010 -0.005955 -0.022314 0.000019 0.079506 0.000009
# 6 -0.000006 -0.000002 -0.000005 -0.056849 0.000009 0.037635
#
#
# Mechanical properties :
#
#
# Convention : Reuss Voigt Hill
#
# Bulk Modulus (GPa) = 10.79525 34.71585 22.75555
# Shear Modulus (GPa) = 32.87196 20.21481 26.54339
#
# Velocity S-wave (km/s) = 3.86275 3.02913 3.47106
# Velocity P-wave (km/s) = 4.97941 5.29074 5.13743
#
# Compressibility (1/GPa) = 0.09263331
#
# Stress axis : x y z
#
# Youngs Moduli (GPa) = 22.79523 72.66271 61.97873
#
# Poissons Ratio (x) = -0.02314 -0.67139
# Poissons Ratio (y) = -0.00726 0.10643
# Poissons Ratio (z) = -0.24693 0.12478
#
# Static dielectric constant tensor:
#      x y z
#    x 1.847330 0.000000 -0.008060 
#    y 0.000000 1.851990 0.000000 
#    z -0.008060 0.000000 1.825910 
# 
# From -- ./inp_files/271812.got.cif
#   From: 2010.05.17/outbox.cif.g08.bks.cpg/sg12_136_cif.got.tgz:271812.got - 2010.06.03 13:09:07.
