data_PCOD9184023
_publ_section_title
;
Structure prediction by ZEFSAII (Michael W. Deem and Ramdas Pophale) SiO2 
 PCOD9184023
Probable space group: C 2/M
;
_chemical_formula_sum "Si O2"
_cell_formula_units_Z 40
_cell_length_a 23.799035
_cell_length_b 10.904665
_cell_length_c 6.448045
_cell_angle_alpha 90.000000
_cell_angle_beta 112.725869
_cell_angle_gamma 90.000000
_cell_volume 1543.483411
_symmetry_space_group_name_H-M "C 2/M"
_symmetry_group_IT_number 12
_symmetry_cell_setting 'monoclinic'
loop_
_space_group_symop_operation_xyz
x,y,z
-x,y,-z
-x,-y,-z
x,-y,z
1/2+x,1/2+y,z
1/2-x,1/2+y,-z
1/2-x,1/2-y,-z
1/2+x,1/2-y,z
loop_
_atom_site_type_symbol
_atom_site_label
_atom_site_fract_x
_atom_site_fract_y
_atom_site_fract_z
Si Si1 0.907225 0.636020 0.984743
Si Si2 0.283480 0.638159 0.664643
Si Si3 0.690978 0.860299 0.853567
Si Si4 0.019642 0.134033 0.784759
Si Si5 0.606605 0.277834 0.419052
O O1 0.929318 0.500000 0.065259
O O2 0.836098 0.644322 0.953563
O O3 0.941449 0.741980 0.159097
O O4 0.913905 0.663044 0.751351
O O5 0.263985 0.500000 0.570374
O O6 0.250000 0.750000 0.500000
O O7 0.260903 0.648418 0.873632
O O8 0.353621 0.646591 0.693706
O O9 0.652252 0.766905 0.659774
O O10 0.673711 0.000000 0.765599
O O11 0.953270 0.154310 0.585247
O O12 0.046909 0.000000 0.779750
O O13 0.000000 0.128408 0.000000
#
# Coordination Sequence:
#
# PCOD9184023 Si02
#       5
#     8   8   8   8   8
#     4  10  21  36  55  79 106 139 179 217 258 313
#     4   9  18  34  56  80 108 140 175 217 263 312
#     4   9  19  35  53  79 110 136 172 220 262 308
#     4   9  19  35  54  78 108 139 174 218 264 311
#     4  10  19  33  57  79 104 140 176 214 265 312
#
# _framework density 25.915406999999998
#
# number of rings (size 3 to 8) (size 9 to 14) (size 15 to 20)
#    0.000    2.600    0.000    1.200    0.000    7.600 
#    0.000    8.000    0.000    0.000    0.000    0.000 
#    0.000    0.000    0.000    0.000    0.000    0.000 
#
# Total GULP energy -111596.455283 kJ/mol
# GULP energy per Si atom -5579.822764 kJ/mol
# Density = 2.585642 g / cm^3
# Si number density = 25.915407 Si / 1000 Ang^3
#
#
#
# Elastic Constant Matrix: (Units=GPa)
#
#
# Indices 1 2 3 4 5 6 
#
# 1 138.3075 49.5391 -7.9210 0.0000 -10.7175 0.0000
# 2 49.5391 192.2377 16.8313 0.0000 5.9879 0.0000
# 3 -7.9210 16.8313 58.1329 0.0000 5.2249 0.0000
# 4 0.0000 0.0000 0.0000 24.5755 0.0000 -2.2366
# 5 -10.7175 5.9879 5.2249 0.0000 39.4923 0.0000
# 6 0.0000 0.0000 0.0000 -2.2366 0.0000 35.1085
#
#
#
# Elastic Compliance Matrix: (Units=1/GPa)
#
#
# Indices 1 2 3 4 5 6 
#
# 1 0.008358 -0.002370 0.001608 0.000000 0.002415 0.000000
# 2 -0.002370 0.006024 -0.001950 0.000000 -0.001298 0.000000
# 3 0.001608 -0.001950 0.018136 0.000000 -0.001667 0.000000
# 4 0.000000 0.000000 0.000000 0.040928 0.000000 0.002607
# 5 0.002415 -0.001298 -0.001667 0.000000 0.026394 0.000000
# 6 0.000000 0.000000 0.000000 0.002607 0.000000 0.028649
#
#
# Mechanical properties :
#
#
# Convention : Reuss Voigt Hill
#
# Bulk Modulus (GPa) = 36.90945 56.17518 46.54232
# Shear Modulus (GPa) = 34.97847 41.85050 38.41448
#
# Velocity S-wave (km/s) = 3.67784 4.02293 3.85425
# Velocity P-wave (km/s) = 5.68406 6.58043 6.14860
#
# Compressibility (1/GPa) = 0.02709333
#
# Stress axis : x y z
#
# Youngs Moduli (GPa) = 119.64078 166.00761 55.14016
#
# Poissons Ratio (x) = 0.39343 -0.08867
# Poissons Ratio (y) = 0.28354 0.10754
# Poissons Ratio (z) = -0.19238 0.32376
#
# Static dielectric constant tensor:
#      x y z
#    x 2.109750 0.000000 -0.027820 
#    y 0.000000 2.059980 0.000000 
#    z -0.027820 0.000000 2.151210 
# 
# From -- ./inp_files/83649.got.cif
#   From: 2010.05.17/outbox.cif.g08.bks.cpg/sg12_42_cif.got.tgz:83649.got - 2010.06.03 13:09:07.
