data_PCOD9184345
_publ_section_title
;
Structure prediction by ZEFSAII (Michael W. Deem and Ramdas Pophale) SiO2 
 PCOD9184345
Probable space group: C 2/M
;
_chemical_formula_sum "Si O2"
_cell_formula_units_Z 56
_cell_length_a 14.408665
_cell_length_b 11.847111
_cell_length_c 19.069870
_cell_angle_alpha 90.000000
_cell_angle_beta 61.202587
_cell_angle_gamma 90.000000
_cell_volume 2852.665410
_symmetry_space_group_name_H-M "C 2/M"
_symmetry_group_IT_number 12
_symmetry_cell_setting 'monoclinic'
loop_
_space_group_symop_operation_xyz
x,y,z
-x,y,-z
-x,-y,-z
x,-y,z
1/2+x,1/2+y,z
1/2-x,1/2+y,-z
1/2-x,1/2-y,-z
1/2+x,1/2-y,z
loop_
_atom_site_type_symbol
_atom_site_label
_atom_site_fract_x
_atom_site_fract_y
_atom_site_fract_z
Si Si1 0.084897 0.625120 0.316014
Si Si2 0.728150 0.195657 0.738785
Si Si3 0.985164 0.710299 0.805588
Si Si4 0.619277 0.130194 0.513866
Si Si5 0.707966 0.627185 0.133482
Si Si6 0.304623 0.374579 0.562980
Si Si7 0.091996 0.366013 0.016725
O O1 0.127936 0.500000 0.304755
O O2 0.182837 0.708356 0.287967
O O3 0.028745 0.640889 0.261002
O O4 0.994430 0.639531 0.407351
O O5 0.608075 0.237541 0.772871
O O6 0.739588 0.131147 0.808321
O O7 0.758331 0.127404 0.658230
O O8 0.904891 0.813363 0.824247
O O9 0.940985 0.650576 0.891305
O O10 0.637838 0.251626 0.468168
O O11 0.709738 0.128431 0.540947
O O12 0.625224 0.000000 0.479919
O O13 0.689085 0.500000 0.118255
O O14 0.794855 0.680905 0.049728
O O15 0.358200 0.500000 0.533497
O O16 0.098069 0.500000 0.000928
O O17 0.000000 0.318554 0.000000
#
# Coordination Sequence:
#
# PCOD9184345 Si02
#       7
#     8   8   8   8   8   8   8
#     4  10  22  39  60  86 116 154 200 241 290 357
#     4  11  22  36  59  87 117 151 194 242 294 349
#     4  11  21  37  60  84 116 154 189 240 292 345
#     4   9  19  38  61  85 115 156 202 246 295 357
#     4  10  22  38  56  84 117 150 191 237 290 347
#     4  10  20  36  61  88 117 155 199 248 300 354
#     4  10  19  33  59  87 110 146 195 239 282 340
#
# _framework density 19.630763000000002
#
# number of rings (size 3 to 8) (size 9 to 14) (size 15 to 20)
#    0.000    1.857    2.857    1.286    0.000    2.857 
#    0.000    5.714    0.000    0.429    0.000    0.000 
#    0.000    0.000    0.000    0.000    0.000    0.000 
#
# Total GULP energy -156004.865758 kJ/mol
# GULP energy per Si atom -5571.602348 kJ/mol
# Density = 1.958608 g / cm^3
# Si number density = 19.630763 Si / 1000 Ang^3
#
#
#
# Elastic Constant Matrix: (Units=GPa)
#
#
# Indices 1 2 3 4 5 6 
#
# 1 87.0375 40.3039 23.4402 0.0000 -8.5493 0.0000
# 2 40.3039 105.8546 37.3455 0.0000 -14.8218 0.0000
# 3 23.4402 37.3455 80.4786 0.0000 -5.1889 0.0000
# 4 0.0000 0.0000 0.0000 16.0118 0.0000 -10.4268
# 5 -8.5493 -14.8218 -5.1889 0.0000 29.6742 0.0000
# 6 0.0000 0.0000 0.0000 -10.4268 0.0000 -9.6952
#
#
#
# Elastic Compliance Matrix: (Units=1/GPa)
#
#
# Indices 1 2 3 4 5 6 
#
# 1 0.014261 -0.004530 -0.001955 0.000000 0.001504 0.000000
# 2 -0.004530 0.013447 -0.004624 0.000000 0.004603 0.000000
# 3 -0.001955 -0.004624 0.015126 0.000000 -0.000228 0.000000
# 4 0.000000 0.000000 0.000000 0.036731 0.000000 -0.039502
# 5 0.001504 0.004603 -0.000228 0.000000 0.036392 0.000000
# 6 0.000000 0.000000 0.000000 -0.039502 0.000000 -0.060661
#
#
# Mechanical properties :
#
#
# Convention : Reuss Voigt Hill
#
# Bulk Modulus (GPa) = 48.50205 52.83890 50.67047
# Shear Modulus (GPa) = 59.25192 18.68357 38.96774
#
# Velocity S-wave (km/s) = 5.49988 3.08839 4.46021
# Velocity P-wave (km/s) = 8.06799 6.30019 7.23826
#
# Compressibility (1/GPa) = 0.02061769
#
# Stress axis : x y z
#
# Youngs Moduli (GPa) = 70.12139 74.36343 66.11085
#
# Poissons Ratio (x) = 0.33683 0.12923
# Poissons Ratio (y) = 0.31762 0.30571
# Poissons Ratio (z) = 0.13707 0.34387
#
# Static dielectric constant tensor:
#      x y z
#    x 1.681650 0.000000 0.016450 
#    y 0.000000 1.701080 0.000000 
#    z 0.016450 0.000000 1.704470 
# 
# From -- ./inp_files/268848.got.cif
#   From: 2010.05.17/outbox.cif.g08.bks.cpg/sg12_135_cif.got.tgz:268848.got - 2010.06.03 13:09:07.
