data_PCOD9184292
_publ_section_title
;
Structure prediction by ZEFSAII (Michael W. Deem and Ramdas Pophale) SiO2 
 PCOD9184292
Probable space group: C 2/M
;
_chemical_formula_sum "Si O2"
_cell_formula_units_Z 52
_cell_length_a 30.320102
_cell_length_b 15.921380
_cell_length_c 8.769576
_cell_angle_alpha 90.000000
_cell_angle_beta 138.093832
_cell_angle_gamma 90.000000
_cell_volume 2827.545807
_symmetry_space_group_name_H-M "C 2/M"
_symmetry_group_IT_number 12
_symmetry_cell_setting 'monoclinic'
loop_
_space_group_symop_operation_xyz
x,y,z
-x,y,-z
-x,-y,-z
x,-y,z
1/2+x,1/2+y,z
1/2-x,1/2+y,-z
1/2-x,1/2-y,-z
1/2+x,1/2-y,z
loop_
_atom_site_type_symbol
_atom_site_label
_atom_site_fract_x
_atom_site_fract_y
_atom_site_fract_z
Si Si1 0.614931 0.258051 0.978457
Si Si2 0.577520 0.903963 0.726374
Si Si3 0.138566 0.403030 0.547038
Si Si4 0.222657 0.171897 0.029832
Si Si5 0.606948 0.593877 0.536927
Si Si6 0.421479 0.742912 0.773880
Si Si7 0.000000 0.853146 0.500000
O O1 0.607841 0.159655 0.924667
O O2 0.550742 0.298577 0.731375
O O3 0.678618 0.293198 0.055330
O O4 0.612280 0.274110 0.150394
O O5 0.500000 0.887748 0.500000
O O6 0.612272 0.892570 0.652513
O O7 0.584988 0.000000 0.794580
O O8 0.126432 0.500000 0.470298
O O9 0.215902 0.381463 0.752096
O O10 0.103054 0.331779 0.356104
O O11 0.250000 0.250000 0.000000
O O12 0.173655 0.117138 0.799139
O O13 0.610526 0.500000 0.480553
O O14 0.595051 0.667809 0.385072
O O15 0.546784 0.597598 0.503416
O O16 0.500000 0.746220 0.000000
#
# Coordination Sequence:
#
# PCOD9184292 Si02
#       7
#     8   8   8   8   8   8   4
#     4  11  21  36  65  88 124 166 207 246 314 372
#     4  10  19  33  58  89 116 157 210 256 298 358
#     4  11  23  42  65  90 127 163 208 261 306 362
#     4  11  21  42  68  89 116 169 216 254 299 362
#     4  11  23  41  66  95 125 162 209 258 307 370
#     4  12  24  40  62  96 131 164 195 252 328 378
#     4  10  19  40  63  90 120 162 207 260 294 364
#
# _framework density 18.390506999999999
#
# number of rings (size 3 to 8) (size 9 to 14) (size 15 to 20)
#    0.000    1.077    5.385    2.538    0.000    1.846 
#    0.000    1.538    0.000    0.000    0.000    0.000 
#    0.000    0.000    0.000    0.000    0.000    0.000 
#
# Total GULP energy -145250.608906 kJ/mol
# GULP energy per Si atom -5586.561881 kJ/mol
# Density = 1.834865 g / cm^3
# Si number density = 18.390507 Si / 1000 Ang^3
#
#
#
# Elastic Constant Matrix: (Units=GPa)
#
#
# Indices 1 2 3 4 5 6 
#
# 1 103.1878 48.7079 39.1155 0.0000 3.8020 0.0000
# 2 48.7079 132.1166 53.6950 0.0000 -8.8116 0.0000
# 3 39.1155 53.6950 81.3708 0.0000 5.8919 0.0000
# 4 0.0000 0.0000 0.0000 3.1984 0.0000 6.9122
# 5 3.8020 -8.8116 5.8919 0.0000 34.4720 0.0000
# 6 0.0000 0.0000 0.0000 6.9122 0.0000 14.7007
#
#
#
# Elastic Compliance Matrix: (Units=1/GPa)
#
#
# Indices 1 2 3 4 5 6 
#
# 1 0.012743 -0.003223 -0.003885 0.000000 -0.001565 0.000000
# 2 -0.003223 0.011691 -0.006488 0.000000 0.004453 0.000000
# 3 -0.003885 -0.006488 0.018759 0.000000 -0.004436 0.000000
# 4 0.000000 0.000000 0.000000-19.342634 0.000000 9.094833
# 5 -0.001565 0.004453 -0.004436 0.000000 0.031078 0.000000
# 6 0.000000 0.000000 0.000000 9.094833 0.000000 -4.208332
#
#
# Mechanical properties :
#
#
# Convention : Reuss Voigt Hill
#
# Bulk Modulus (GPa) = 62.49636 66.63469 64.56552
# Shear Modulus (GPa) = -0.21327 22.15134 10.96903
#
# Velocity S-wave (km/s) = -0.34091 3.47435 2.44488
# Velocity P-wave (km/s) = 5.82252 7.23925 6.56919
#
# Compressibility (1/GPa) = 0.01600093
#
# Stress axis : x y z
#
# Youngs Moduli (GPa) = 78.47389 85.53470 53.30657
#
# Poissons Ratio (x) = 0.27571 0.20711
# Poissons Ratio (y) = 0.25295 0.34584
# Poissons Ratio (z) = 0.30490 0.55492
#
# Static dielectric constant tensor:
#      x y z
#    x 1.631020 0.000000 0.007710 
#    y 0.000000 1.638260 0.000000 
#    z 0.007710 0.000000 1.603980 
# 
# From -- ./inp_files/112084.got.cif
#   From: 2010.05.17/outbox.cif.g08.bks.cpg/sg12_57_cif.got.tgz:112084.got - 2010.06.03 13:09:07.
