data_PCOD9184566
_publ_section_title
;
Structure prediction by ZEFSAII (Michael W. Deem and Ramdas Pophale) SiO2 
 PCOD9184566
Probable space group: C 2/M
;
_chemical_formula_sum "Si O2"
_cell_formula_units_Z 44
_cell_length_a 13.724024
_cell_length_b 28.631874
_cell_length_c 4.974823
_cell_angle_alpha 90.000000
_cell_angle_beta 106.150225
_cell_angle_gamma 90.000000
_cell_volume 1877.683476
_symmetry_space_group_name_H-M "C 2/M"
_symmetry_group_IT_number 12
_symmetry_cell_setting 'monoclinic'
loop_
_space_group_symop_operation_xyz
x,y,z
-x,y,-z
-x,-y,-z
x,-y,z
1/2+x,1/2+y,z
1/2-x,1/2+y,-z
1/2-x,1/2-y,-z
1/2+x,1/2-y,z
loop_
_atom_site_type_symbol
_atom_site_label
_atom_site_fract_x
_atom_site_fract_y
_atom_site_fract_z
Si Si1 0.685171 0.219100 0.242659
Si Si2 0.370795 0.312030 0.002903
Si Si3 0.404088 0.552563 0.129019
Si Si4 0.755147 0.394222 0.304309
Si Si5 0.614746 0.121190 0.114975
Si Si6 0.500000 0.369389 0.500000
O O1 0.750000 0.250000 0.500000
O O2 0.773660 0.197545 0.122725
O O3 0.619682 0.173346 0.251411
O O4 0.612529 0.259349 0.075623
O O5 0.464437 0.334024 0.237873
O O6 0.325458 0.350244 0.756308
O O7 0.404734 0.500000 0.232906
O O8 0.412940 0.591328 0.370318
O O9 0.500000 0.559171 0.000000
O O10 0.307531 0.563828 0.874157
O O11 0.810911 0.405429 0.623336
O O12 0.838755 0.380222 0.146651
O O13 0.500000 0.104948 0.000000
#
# Coordination Sequence:
#
# PCOD9184566 Si02
#       6
#     8   8   8   8   8   4
#     4  10  19  34  52  78 120 163 215 268 306 360
#     4   9  20  34  51  81 119 166 207 253 312 370
#     4  10  23  40  66 100 129 160 205 259 335 419
#     4  10  22  41  64  89 130 168 205 268 326 384
#     4  11  23  40  64  90 123 175 225 268 316 372
#     4  10  21  36  58  86 124 162 204 252 315 392
#
# _framework density 23.433129000000001
#
# number of rings (size 3 to 8) (size 9 to 14) (size 15 to 20)
#    0.000    2.000    1.818    0.818    7.636    1.455 
#    0.000    0.909    0.000    3.273    0.000    0.000 
#    0.000    0.000    0.000    0.000    0.000    0.000 
#
# Total GULP energy -122685.406315 kJ/mol
# GULP energy per Si atom -5576.609378 kJ/mol
# Density = 2.337979 g / cm^3
# Si number density = 23.433129 Si / 1000 Ang^3
#
#
#
# Elastic Constant Matrix: (Units=GPa)
#
#
# Indices 1 2 3 4 5 6 
#
# 1 97.2985 8.2631 32.8598 0.0000 27.4965 0.0000
# 2 8.2631 97.4782 26.1227 0.0000 3.4745 0.0000
# 3 32.8598 26.1227 137.5267 0.0000 28.0772 0.0000
# 4 0.0000 0.0000 0.0000 24.7223 0.0000 0.5618
# 5 27.4965 3.4745 28.0772 0.0000 36.9953 0.0000
# 6 0.0000 0.0000 0.0000 0.5618 0.0000 13.8624
#
#
#
# Elastic Compliance Matrix: (Units=1/GPa)
#
#
# Indices 1 2 3 4 5 6 
#
# 1 0.013243 -0.000467 -0.001272 0.000000 -0.008834 0.000000
# 2 -0.000467 0.010838 -0.002142 0.000000 0.000955 0.000000
# 3 -0.001272 -0.002142 0.009169 0.000000 -0.005812 0.000000
# 4 0.000000 0.000000 0.000000 0.040487 0.000000 -0.001641
# 5 -0.008834 0.000955 -0.005812 0.000000 0.037917 0.000000
# 6 0.000000 0.000000 0.000000 -0.001641 0.000000 0.072204
#
#
# Mechanical properties :
#
#
# Convention : Reuss Voigt Hill
#
# Bulk Modulus (GPa) = 39.23386 51.86607 45.54997
# Shear Modulus (GPa) = 24.98547 32.78651 28.88599
#
# Velocity S-wave (km/s) = 3.26888 3.74458 3.51479
# Velocity P-wave (km/s) = 5.57016 6.39356 5.99601
#
# Compressibility (1/GPa) = 0.02548819
#
# Stress axis : x y z
#
# Youngs Moduli (GPa) = 75.50975 92.26552 109.06700
#
# Poissons Ratio (x) = 0.04307 0.13875
# Poissons Ratio (y) = 0.03525 0.23363
# Poissons Ratio (z) = 0.09606 0.19764
#
# Static dielectric constant tensor:
#      x y z
#    x 1.961560 0.000000 -0.047430 
#    y 0.000000 1.876800 0.000000 
#    z -0.047430 0.000000 1.984960 
# 
# From -- ./inp_files/12990.got.cif
#   From: 2010.05.17/outbox.cif.g08.bks.cpg/sg12_7_cif.got.tgz:12990.got - 2010.06.03 13:09:07.
