data_PCOD9184611
_publ_section_title
;
Structure prediction by ZEFSAII (Michael W. Deem and Ramdas Pophale) SiO2 
 PCOD9184611
Probable space group: C 2/M
;
_chemical_formula_sum "Si O2"
_cell_formula_units_Z 56
_cell_length_a 27.040864
_cell_length_b 22.258185
_cell_length_c 12.107687
_cell_angle_alpha 90.000000
_cell_angle_beta 20.728034
_cell_angle_gamma 90.000000
_cell_volume 2579.241106
_symmetry_space_group_name_H-M "C 2/M"
_symmetry_group_IT_number 12
_symmetry_cell_setting 'monoclinic'
loop_
_space_group_symop_operation_xyz
x,y,z
-x,y,-z
-x,-y,-z
x,-y,z
1/2+x,1/2+y,z
1/2-x,1/2+y,-z
1/2-x,1/2-y,-z
1/2+x,1/2-y,z
loop_
_atom_site_type_symbol
_atom_site_label
_atom_site_fract_x
_atom_site_fract_y
_atom_site_fract_z
Si Si1 0.724306 0.301615 0.963021
Si Si2 0.405863 0.931923 0.307757
Si Si3 0.180070 0.428318 0.842417
Si Si4 0.358034 0.387232 0.266049
Si Si5 0.606176 0.254069 0.861649
Si Si6 0.018529 0.273882 0.280589
Si Si7 0.640340 0.887018 0.159080
O O1 0.758053 0.363992 0.954930
O O2 0.853632 0.285593 0.610895
O O3 0.750000 0.250000 0.000000
O O4 0.574217 0.287773 0.222322
O O5 0.258009 0.905212 0.581748
O O6 0.375245 0.000000 0.404120
O O7 0.500000 0.931782 0.000000
O O8 0.516938 0.909029 0.165667
O O9 0.190792 0.500000 0.791691
O O10 0.272378 0.390889 0.561447
O O11 0.211760 0.419254 0.905613
O O12 0.418101 0.325570 0.087084
O O13 0.500000 0.422996 0.000000
O O14 0.750000 0.250000 0.500000
O O15 0.500000 0.222652 0.000000
O O16 0.592659 0.226999 0.008679
O O17 0.077286 0.326473 0.234643
O O18 0.500000 0.918494 0.500000
#
# Coordination Sequence:
#
# PCOD9184611 Si02
#       7
#     8   8   8   8   8   8   8
#     4   9  18  33  54  77 102 137 179 219 260 315
#     4   8  16  32  53  75  99 134 181 224 266 321
#     4  10  20  35  56  79 106 140 178 226 277 322
#     4  10  21  34  50  79 111 143 180 217 264 327
#     4  11  23  35  50  78 114 147 179 215 261 323
#     4  10  19  34  53  75 106 141 175 214 264 314
#     4   9  19  34  54  78 102 132 179 226 269 313
#
# _framework density 21.711812999999999
#
# number of rings (size 3 to 8) (size 9 to 14) (size 15 to 20)
#    0.000    2.429    0.000    4.286    0.000   10.000 
#    0.000    0.000    0.000    0.000    0.000    0.000 
#    0.000   17.143    0.000    0.000    0.000    0.000 
#
# Total GULP energy -155873.396889 kJ/mol
# GULP energy per Si atom -5566.907032 kJ/mol
# Density = 2.166240 g / cm^3
# Si number density = 21.711813 Si / 1000 Ang^3
#
#
#
# Elastic Constant Matrix: (Units=GPa)
#
#
# Indices 1 2 3 4 5 6 
#
# 1 86.8619 5.7532 31.7751 -0.0001 3.4812 0.0004
# 2 5.7532 44.8204 1.6624 -0.0009 2.0587 -0.0001
# 3 31.7751 1.6624 81.8492 -0.0003 -1.4183 0.0000
# 4 -0.0001 -0.0009 -0.0003 0.0715 0.0008 11.9618
# 5 3.4812 2.0587 -1.4183 0.0008 46.1149 -0.0012
# 6 0.0004 -0.0001 0.0000 11.9618 -0.0012 6.3212
#
#
#
# Elastic Compliance Matrix: (Units=1/GPa)
#
#
# Indices 1 2 3 4 5 6 
#
# 1 0.013581 -0.001497 -0.005261 -0.000001 -0.001120 0.000000
# 2 -0.001497 0.022540 0.000108 -0.000001 -0.000890 0.000002
# 3 -0.005261 0.000108 0.014272 0.000000 0.000831 0.000000
# 4 -0.000001 -0.000001 0.000000 -0.044318 0.000003 0.083864
# 5 -0.001120 -0.000890 0.000831 0.000003 0.021835 -0.000002
# 6 0.000000 0.000002 0.000000 0.083864 -0.000002 -0.000501
#
#
# Mechanical properties :
#
#
# Convention : Reuss Voigt Hill
#
# Bulk Modulus (GPa) = 26.95910 32.43477 29.69694
# Shear Modulus (GPa) = 94.20725 22.12423 58.16574
#
# Velocity S-wave (km/s) = 6.59424 3.19563 5.18151
# Velocity P-wave (km/s) = 8.39181 5.34671 7.03597
#
# Compressibility (1/GPa) = 0.03709322
#
# Stress axis : x y z
#
# Youngs Moduli (GPa) = 73.63088 44.36501 70.06532
#
# Poissons Ratio (x) = 0.06640 0.36865
# Poissons Ratio (y) = 0.11020 -0.00755
# Poissons Ratio (z) = 0.38741 -0.00478
#
# Static dielectric constant tensor:
#      x y z
#    x 1.853600 0.000000 -0.042010 
#    y 0.000000 1.775310 0.000000 
#    z -0.042010 0.000000 1.852850 
# 
# From -- ./inp_files/185120.got.cif
#   From: 2010.05.17/outbox.cif.g08.bks.cpg/sg12_93_cif.got.tgz:185120.got - 2010.06.03 13:09:07.
