data_PCOD9184637
_publ_section_title
;
Structure prediction by ZEFSAII (Michael W. Deem and Ramdas Pophale) SiO2 
 PCOD9184637
Probable space group: C 2/M
;
_chemical_formula_sum "Si O2"
_cell_formula_units_Z 56
_cell_length_a 19.354737
_cell_length_b 17.712249
_cell_length_c 24.900889
_cell_angle_alpha 90.000000
_cell_angle_beta 158.702708
_cell_angle_gamma 90.000000
_cell_volume 3100.489599
_symmetry_space_group_name_H-M "C 2/M"
_symmetry_group_IT_number 12
_symmetry_cell_setting 'monoclinic'
loop_
_space_group_symop_operation_xyz
x,y,z
-x,y,-z
-x,-y,-z
x,-y,z
1/2+x,1/2+y,z
1/2-x,1/2+y,-z
1/2-x,1/2-y,-z
1/2+x,1/2-y,z
loop_
_atom_site_type_symbol
_atom_site_label
_atom_site_fract_x
_atom_site_fract_y
_atom_site_fract_z
Si Si1 0.163826 0.413842 0.923870
Si Si2 0.883093 0.084287 0.732072
Si Si3 0.722385 0.241532 0.648284
Si Si4 0.040206 0.640456 0.116778
Si Si5 0.879335 0.862549 0.611855
Si Si6 0.080227 0.298377 0.315938
Si Si7 0.756401 0.915052 0.177403
O O1 0.130128 0.500000 0.881001
O O2 0.047494 0.400685 0.894841
O O3 0.087292 0.349951 0.828278
O O4 0.388859 0.404990 0.096797
O O5 0.775657 0.153268 0.682535
O O6 0.842458 0.091229 0.639087
O O7 0.834838 0.000000 0.716270
O O8 0.500000 0.252005 0.500000
O O9 0.860981 0.283123 0.791088
O O10 0.778005 0.278945 0.631094
O O11 0.201568 0.597272 0.199407
O O12 0.867029 0.641672 0.948842
O O13 0.972834 0.783469 0.699411
O O14 0.691917 0.841437 0.443510
O O15 0.025748 0.903070 0.678686
O O16 0.701447 0.000000 0.121179
#
# Coordination Sequence:
#
# PCOD9184637 Si02
#       7
#     8   8   8   8   8   8   8
#     4  10  19  34  53  79 111 139 173 217 263 315
#     4  10  21  35  57  81 103 137 182 226 266 308
#     4  10  21  37  55  75 106 139 182 222 263 315
#     4  10  20  32  52  77 108 139 171 211 258 313
#     4  10  19  34  53  78 110 142 177 219 255 316
#     4   9  21  34  53  79 110 140 179 213 268 314
#     4  11  20  31  52  81 110 139 176 213 256 315
#
# _framework density 18.061662999999999
#
# number of rings (size 3 to 8) (size 9 to 14) (size 15 to 20)
#    0.000    2.000    1.429    3.000    2.000    3.143 
#    0.000    0.000    0.000    6.857    0.000    2.000 
#    0.000    0.000    0.000    0.000    0.000    0.000 
#
# Total GULP energy -156094.801681 kJ/mol
# GULP energy per Si atom -5574.814346 kJ/mol
# Density = 1.802055 g / cm^3
# Si number density = 18.061663 Si / 1000 Ang^3
#
#
#
# Elastic Constant Matrix: (Units=GPa)
#
#
# Indices 1 2 3 4 5 6 
#
# 1 35.5948 13.5954 14.8981 -0.0066 -3.2304 -0.0030
# 2 13.5954 80.5020 41.8401 -0.0358 -9.6771 0.0058
# 3 14.8981 41.8401 41.8785 -0.0431 -5.2265 -0.0018
# 4 -0.0066 -0.0358 -0.0431 10.9525 -0.0050 0.4846
# 5 -3.2304 -9.6771 -5.2265 -0.0050 28.6530 0.0016
# 6 -0.0030 0.0058 -0.0018 0.4846 0.0016 17.4917
#
#
#
# Elastic Compliance Matrix: (Units=1/GPa)
#
#
# Indices 1 2 3 4 5 6 
#
# 1 0.033148 0.001315 -0.012877 -0.000026 0.001832 0.000004
# 2 0.001315 0.026374 -0.026286 -0.000014 0.004261 -0.000011
# 3 -0.012877 -0.026286 0.054677 0.000121 -0.000356 0.000009
# 4 -0.000026 -0.000014 0.000121 0.091416 0.000031 -0.002533
# 5 0.001832 0.004261 -0.000356 0.000031 0.036481 -0.000005
# 6 0.000004 -0.000011 0.000009 -0.002533 -0.000005 0.057240
#
#
# Mechanical properties :
#
#
# Convention : Reuss Voigt Hill
#
# Bulk Modulus (GPa) = 25.97232 33.18252 29.57742
# Shear Modulus (GPa) = 12.89103 17.26222 15.07663
#
# Velocity S-wave (km/s) = 2.67446 3.09486 2.89231
# Velocity P-wave (km/s) = 4.89367 5.58413 5.25026
#
# Compressibility (1/GPa) = 0.03850252
#
# Stress axis : x y z
#
# Youngs Moduli (GPa) = 30.16787 37.91624 18.28922
#
# Poissons Ratio (x) = -0.04986 0.23552
# Poissons Ratio (y) = -0.03967 0.48075
# Poissons Ratio (z) = 0.38848 0.99666
#
# Static dielectric constant tensor:
#      x y z
#    x 1.619010 -0.000010 -0.004270 
#    y -0.000010 1.628780 -0.000020 
#    z -0.004270 -0.000020 1.602080 
# 
# From -- ./inp_files/87820.got.cif
#   From: 2010.05.17/outbox.cif.g08.bks.cpg/sg12_44_cif.got.tgz:87820.got - 2010.06.03 13:09:07.
