data_PCOD9184574
_publ_section_title
;
Structure prediction by ZEFSAII (Michael W. Deem and Ramdas Pophale) SiO2 
 PCOD9184574
Probable space group: C 2/M
;
_chemical_formula_sum "Si O2"
_cell_formula_units_Z 64
_cell_length_a 26.811898
_cell_length_b 15.719209
_cell_length_c 20.754406
_cell_angle_alpha 90.000000
_cell_angle_beta 21.167852
_cell_angle_gamma 90.000000
_cell_volume 3158.622493
_symmetry_space_group_name_H-M "C 2/M"
_symmetry_group_IT_number 12
_symmetry_cell_setting 'monoclinic'
loop_
_space_group_symop_operation_xyz
x,y,z
-x,y,-z
-x,-y,-z
x,-y,z
1/2+x,1/2+y,z
1/2-x,1/2+y,-z
1/2-x,1/2-y,-z
1/2+x,1/2-y,z
loop_
_atom_site_type_symbol
_atom_site_label
_atom_site_fract_x
_atom_site_fract_y
_atom_site_fract_z
Si Si1 0.065737 0.904692 0.856894
Si Si2 0.148704 0.809836 0.042128
Si Si3 0.029200 0.404471 0.888554
Si Si4 0.104378 0.740475 0.433249
Si Si5 0.631673 0.741764 0.694388
Si Si6 0.257424 0.593916 0.186881
Si Si7 0.881132 0.825834 0.780740
Si Si8 0.715945 0.405894 0.231026
O O1 0.159892 0.838999 0.706495
O O2 0.122019 0.000000 0.802439
O O3 0.000000 0.865087 0.000000
O O4 0.922802 0.915618 0.990897
O O5 0.108327 0.855081 0.157987
O O6 0.012876 0.778818 0.167688
O O7 0.251610 0.864223 0.872638
O O8 0.239067 0.726897 0.948225
O O9 0.089445 0.500000 0.808626
O O10 0.116025 0.326963 0.755425
O O11 0.000000 0.392375 0.000000
O O12 0.882202 0.403950 0.028338
O O13 0.204076 0.659048 0.306084
O O14 0.179297 0.827610 0.321767
O O15 0.000000 0.723098 0.500000
O O16 0.011268 0.764577 0.606674
O O17 0.750000 0.750000 0.500000
O O18 0.195010 0.500000 0.267969
O O19 0.861029 0.889638 0.744490
O O20 0.677821 0.500000 0.301431
#
# Coordination Sequence:
#
# PCOD9184574 Si02
#       8
#     8   8   8   8   8   8   8   8
#     4   9  19  36  57  79 107 144 184 227 273 326
#     4  10  20  38  53  79 110 149 187 217 273 333
#     4  10  21  38  59  83 113 149 189 235 283 335
#     4  10  19  34  52  83 108 141 176 232 277 312
#     4  11  22  36  59  86 111 147 186 233 283 333
#     4  10  19  34  57  80 109 145 183 224 271 329
#     4  10  20  35  57  74 115 151 176 224 273 328
#     4  10  19  35  59  83 110 146 188 230 280 337
#
# _framework density 20.261997000000001
#
# number of rings (size 3 to 8) (size 9 to 14) (size 15 to 20)
#    0.000    2.000    3.750    1.125    0.000    5.500 
#    0.000    0.000    0.000    0.750    0.000    0.000 
#    0.000    0.000    0.000    0.000    0.000    0.000 
#
# Total GULP energy -178177.499764 kJ/mol
# GULP energy per Si atom -5568.046868 kJ/mol
# Density = 2.021588 g / cm^3
# Si number density = 20.261997 Si / 1000 Ang^3
#
#
#
# Elastic Constant Matrix: (Units=GPa)
#
#
# Indices 1 2 3 4 5 6 
#
# 1 43.9624 22.5677 5.5995 0.0003 22.0488 0.0000
# 2 22.5677 119.4813 57.6263 0.0001 10.5254 0.0001
# 3 5.5995 57.6263 90.6991 0.0005 23.9368 -0.0001
# 4 0.0003 0.0001 0.0005 -7.1721 -0.0003 7.8387
# 5 22.0488 10.5254 23.9368 -0.0003 26.5075 0.0000
# 6 0.0000 0.0001 -0.0001 7.8387 0.0000 13.1971
#
#
#
# Elastic Compliance Matrix: (Units=1/GPa)
#
#
# Indices 1 2 3 4 5 6 
#
# 1 0.063523 -0.018472 0.026026 0.000004 -0.069005 -0.000002
# 2 -0.018472 0.017599 -0.016085 -0.000002 0.022902 0.000001
# 3 0.026026 -0.016085 0.031071 0.000003 -0.043319 -0.000001
# 4 0.000004 -0.000002 0.000003 -0.084545 -0.000007 0.050217
# 5 -0.069005 0.022902 -0.043319 -0.000007 0.125148 0.000004
# 6 -0.000002 0.000001 -0.000001 0.050217 0.000004 0.045946
#
#
# Mechanical properties :
#
#
# Convention : Reuss Voigt Hill
#
# Bulk Modulus (GPa) = 10.51188 47.30331 28.90759
# Shear Modulus (GPa) = 20.20077 17.72980 18.96528
#
# Velocity S-wave (km/s) = 3.16092 2.96130 3.06274
# Velocity P-wave (km/s) = 4.30362 5.92359 5.17735
#
# Compressibility (1/GPa) = 0.09513048
#
# Stress axis : x y z
#
# Youngs Moduli (GPa) = 15.74237 56.82123 32.18409
#
# Poissons Ratio (x) = 1.04959 -0.83762
# Poissons Ratio (y) = 0.29079 0.51770
# Poissons Ratio (z) = -0.40971 0.91400
#
# Static dielectric constant tensor:
#      x y z
#    x 1.826980 0.000000 -0.011960 
#    y 0.000000 1.792860 0.000000 
#    z -0.011960 0.000000 1.724470 
# 
# From -- ./inp_files/330354.got.cif
#   From: 2010.05.17/outbox.cif.g08.bks.cpg/sg12_166_cif.got.tgz:330354.got - 2010.06.03 13:09:07.
