data_PCOD9184236
_publ_section_title
;
Structure prediction by ZEFSAII (Michael W. Deem and Ramdas Pophale) SiO2 
 PCOD9184236
Probable space group: C 2/M
;
_chemical_formula_sum "Si O2"
_cell_formula_units_Z 44
_cell_length_a 27.851896
_cell_length_b 14.478029
_cell_length_c 8.177696
_cell_angle_alpha 90.000000
_cell_angle_beta 131.079915
_cell_angle_gamma 90.000000
_cell_volume 2485.694340
_symmetry_space_group_name_H-M "C 2/M"
_symmetry_group_IT_number 12
_symmetry_cell_setting 'monoclinic'
loop_
_space_group_symop_operation_xyz
x,y,z
-x,y,-z
-x,-y,-z
x,-y,z
1/2+x,1/2+y,z
1/2-x,1/2+y,-z
1/2-x,1/2-y,-z
1/2+x,1/2-y,z
loop_
_atom_site_type_symbol
_atom_site_label
_atom_site_fract_x
_atom_site_fract_y
_atom_site_fract_z
Si Si1 0.314936 0.795100 0.710506
Si Si2 0.931141 0.110641 0.271405
Si Si3 0.274681 0.500000 0.071918
Si Si4 0.720337 0.000000 0.298892
Si Si5 0.195991 0.193599 0.973120
Si Si6 0.136606 0.000000 0.423414
Si Si7 0.571732 0.326977 0.114840
O O1 0.250000 0.750000 0.500000
O O2 0.315959 0.753235 0.893757
O O3 0.376504 0.754686 0.757147
O O4 0.309966 0.905306 0.706469
O O5 0.000000 0.130421 0.500000
O O6 0.921060 0.000000 0.255409
O O7 0.876318 0.168740 0.242611
O O8 0.928417 0.137189 0.073365
O O9 0.222439 0.500000 0.102618
O O10 0.336666 0.500000 0.332305
O O11 0.274858 0.590142 0.959686
O O12 0.795300 0.000000 0.518929
O O13 0.250000 0.250000 0.000000
O O14 0.096458 0.089294 0.283964
O O15 0.500000 0.300925 0.000000
#
# Coordination Sequence:
#
# PCOD9184236 Si02
#       7
#     8   8   4   4   8   4   8
#     4  11  22  38  59  85 114 149 191 235 282 342
#     4  10  22  33  52  80 115 148 185 236 289 344
#     4  10  20  33  56  85 117 151 184 232 291 341
#     4  10  20  36  59  82 115 150 182 234 292 323
#     4  11  21  35  55  83 113 147 188 229 282 342
#     4  10  19  33  58  84 118 151 184 238 296 340
#     4  11  23  35  54  84 116 154 192 232 291 344
#
# _framework density 17.701293
#
# number of rings (size 3 to 8) (size 9 to 14) (size 15 to 20)
#    0.545    0.909    5.455    0.273    2.545    0.727 
#    0.000    0.455    0.000    0.000    0.000   15.909 
#    0.000    0.000    0.000    0.000    0.000    0.000 
#
# Total GULP energy -122468.641267 kJ/mol
# GULP energy per Si atom -5566.756421 kJ/mol
# Density = 1.766100 g / cm^3
# Si number density = 17.701293 Si / 1000 Ang^3
#
#
#
# Elastic Constant Matrix: (Units=GPa)
#
#
# Indices 1 2 3 4 5 6 
#
# 1 110.4874 51.9901 20.1341 0.0000 39.7840 0.0000
# 2 51.9901 156.9634 31.4342 0.0000 25.6717 0.0000
# 3 20.1341 31.4342 55.0495 0.0000 22.9375 0.0000
# 4 0.0000 0.0000 0.0000 16.0984 0.0000 13.4400
# 5 39.7840 25.6717 22.9375 0.0000 31.8275 0.0000
# 6 0.0000 0.0000 0.0000 13.4400 0.0000 22.7631
#
#
#
# Elastic Compliance Matrix: (Units=1/GPa)
#
#
# Indices 1 2 3 4 5 6 
#
# 1 0.018203 -0.003142 0.005089 0.000000 -0.023887 0.000000
# 2 -0.003142 0.008123 -0.003424 0.000000 -0.000157 0.000000
# 3 0.005089 -0.003424 0.028239 0.000000 -0.023951 0.000000
# 4 0.000000 0.000000 0.000000 0.122503 0.000000 -0.072329
# 5 -0.023887 -0.000157 -0.023951 0.000000 0.078666 0.000000
# 6 0.000000 0.000000 0.000000 -0.072329 0.000000 0.086636
#
#
# Mechanical properties :
#
#
# Convention : Reuss Voigt Hill
#
# Bulk Modulus (GPa) = 19.37509 58.84636 39.11072
# Shear Modulus (GPa) = 13.79211 28.73394 21.26303
#
# Velocity S-wave (km/s) = 2.79437 4.03335 3.46961
# Velocity P-wave (km/s) = 4.62392 7.41666 6.18011
#
# Compressibility (1/GPa) = 0.05161266
#
# Stress axis : x y z
#
# Youngs Moduli (GPa) = 54.93633 123.10888 35.41230
#
# Poissons Ratio (x) = 0.38677 -0.18023
# Poissons Ratio (y) = 0.17259 0.12124
# Poissons Ratio (z) = -0.27959 0.42148
#
# Static dielectric constant tensor:
#      x y z
#    x 1.662090 0.000000 0.002830 
#    y 0.000000 1.586330 0.000000 
#    z 0.002830 0.000000 1.609220 
# 
# From -- ./inp_files/96614.got.cif
#   From: 2010.05.17/outbox.cif.g08.bks.cpg/sg12_49_cif.got.tgz:96614.got - 2010.06.03 13:09:07.
