data_PCOD9184454
_publ_section_title
;
Structure prediction by ZEFSAII (Michael W. Deem and Ramdas Pophale) SiO2 
 PCOD9184454
Probable space group: C 2/M
;
_chemical_formula_sum "Si O2"
_cell_formula_units_Z 52
_cell_length_a 23.669051
_cell_length_b 19.827869
_cell_length_c 5.402635
_cell_angle_alpha 90.000000
_cell_angle_beta 73.703366
_cell_angle_gamma 90.000000
_cell_volume 2433.621952
_symmetry_space_group_name_H-M "C 2/M"
_symmetry_group_IT_number 12
_symmetry_cell_setting 'monoclinic'
loop_
_space_group_symop_operation_xyz
x,y,z
-x,y,-z
-x,-y,-z
x,-y,z
1/2+x,1/2+y,z
1/2-x,1/2+y,-z
1/2-x,1/2-y,-z
1/2+x,1/2-y,z
loop_
_atom_site_type_symbol
_atom_site_label
_atom_site_fract_x
_atom_site_fract_y
_atom_site_fract_z
Si Si1 0.891056 0.820221 0.396778
Si Si2 0.037155 0.304748 0.709135
Si Si3 0.918910 0.070377 0.980871
Si Si4 0.380072 0.081365 0.303915
Si Si5 0.000000 0.884812 0.500000
Si Si6 0.310200 0.576811 0.738703
Si Si7 0.685031 0.081076 0.115713
O O1 0.902937 0.741028 0.363288
O O2 0.911827 0.860186 0.130234
O O3 0.943009 0.840671 0.521263
O O4 0.831602 0.860566 0.541708
O O5 0.059166 0.381108 0.715561
O O6 0.000000 0.298509 0.500000
O O7 0.000000 0.284779 0.000000
O O8 0.913575 0.000000 0.136374
O O9 0.864694 0.068403 0.856835
O O10 0.979824 0.072081 0.757232
O O11 0.336487 0.101050 0.584971
O O12 0.385285 0.000000 0.296689
O O13 0.355689 0.103502 0.064650
O O14 0.299951 0.500000 0.640879
O O15 0.251915 0.597087 0.959287
O O16 0.681993 0.000000 0.119955
#
# Coordination Sequence:
#
# PCOD9184454 Si02
#       7
#     8   8   8   8   4   8   8
#     4  11  22  36  55  81 120 166 209 249 304 364
#     4  12  26  44  67  91 125 166 204 251 317 378
#     4  10  20  32  52  79 112 157 213 262 301 344
#     4  10  22  42  69  98 123 154 200 256 314 380
#     4  10  19  34  48  72 111 156 210 258 305 352
#     4   9  20  36  59  89 122 165 211 255 297 354
#     4   9  19  39  66  95 128 159 198 251 313 367
#
# _framework density 21.367329999999999
#
# number of rings (size 3 to 8) (size 9 to 14) (size 15 to 20)
#    0.000    1.846    0.769    3.000    4.308    3.077 
#    0.000    1.538    0.000    0.000    0.000    0.000 
#    0.000    0.000    0.000    0.000    0.000    0.000 
#
# Total GULP energy -144805.236837 kJ/mol
# GULP energy per Si atom -5569.432186 kJ/mol
# Density = 2.131870 g / cm^3
# Si number density = 21.367330 Si / 1000 Ang^3
#
#
#
# Elastic Constant Matrix: (Units=GPa)
#
#
# Indices 1 2 3 4 5 6 
#
# 1 20.1682 4.8518 -12.0722 0.0000 -0.0212 0.0000
# 2 4.8518 64.8302 1.7456 0.0000 -4.9909 0.0000
# 3 -12.0722 1.7456 54.5063 0.0000 3.8972 0.0000
# 4 0.0000 0.0000 0.0000 14.3700 0.0000 -6.7276
# 5 -0.0212 -4.9909 3.8972 0.0000 23.8665 0.0000
# 6 0.0000 0.0000 0.0000 -6.7276 0.0000 24.1674
#
#
#
# Elastic Compliance Matrix: (Units=1/GPa)
#
#
# Indices 1 2 3 4 5 6 
#
# 1 0.058814 -0.005008 0.013415 0.000000 -0.003185 0.000000
# 2 -0.005008 0.016134 -0.001889 0.000000 0.003678 0.000000
# 3 0.013415 -0.001889 0.021658 0.000000 -0.003920 0.000000
# 4 0.000000 0.000000 0.000000 0.080018 0.000000 0.022275
# 5 -0.003185 0.003678 -0.003920 0.000000 0.043306 0.000000
# 6 0.000000 0.000000 0.000000 0.022275 0.000000 0.047579
#
#
# Mechanical properties :
#
#
# Convention : Reuss Voigt Hill
#
# Bulk Modulus (GPa) = 9.12062 14.28387 11.70225
# Shear Modulus (GPa) = 17.18088 22.14606 19.66347
#
# Velocity S-wave (km/s) = 2.83869 3.22288 3.03687
# Velocity P-wave (km/s) = 3.87582 4.53307 4.21727
#
# Compressibility (1/GPa) = 0.10964163
#
# Stress axis : x y z
#
# Youngs Moduli (GPa) = 17.00271 61.98210 46.17154
#
# Poissons Ratio (x) = 0.31040 -0.61937
# Poissons Ratio (y) = 0.08515 0.08721
# Poissons Ratio (z) = -0.22808 0.11707
#
# Static dielectric constant tensor:
#      x y z
#    x 1.786190 0.000000 0.028200 
#    y 0.000000 1.884450 0.000000 
#    z 0.028200 0.000000 1.860180 
# 
# From -- ./inp_files/25585.got.cif
#   From: 2010.05.17/outbox.cif.g08.bks.cpg/sg12_13_cif.got.tgz:25585.got - 2010.06.03 13:09:07.
