data_PCOD9184468
_publ_section_title
;
Structure prediction by ZEFSAII (Michael W. Deem and Ramdas Pophale) SiO2 
 PCOD9184468
Probable space group: C 2/M
;
_chemical_formula_sum "Si O2"
_cell_formula_units_Z 36
_cell_length_a 10.345411
_cell_length_b 25.914791
_cell_length_c 6.840489
_cell_angle_alpha 90.000000
_cell_angle_beta 42.755300
_cell_angle_gamma 90.000000
_cell_volume 1244.997199
_symmetry_space_group_name_H-M "C 2/M"
_symmetry_group_IT_number 12
_symmetry_cell_setting 'monoclinic'
loop_
_space_group_symop_operation_xyz
x,y,z
-x,y,-z
-x,-y,-z
x,-y,z
1/2+x,1/2+y,z
1/2-x,1/2+y,-z
1/2-x,1/2-y,-z
1/2+x,1/2-y,z
loop_
_atom_site_type_symbol
_atom_site_label
_atom_site_fract_x
_atom_site_fract_y
_atom_site_fract_z
Si Si1 0.325052 0.667588 0.993629
Si Si2 0.500000 0.241270 0.000000
Si Si3 0.257498 0.157229 0.377976
Si Si4 0.225543 0.058715 0.810047
Si Si5 0.272106 0.556519 0.737335
O O1 0.551599 0.660524 0.700519
O O2 0.255016 0.663809 0.847531
O O3 0.237795 0.622401 0.229205
O O4 0.336974 0.722880 0.084382
O O5 0.603110 0.203777 0.728284
O O6 0.316295 0.097172 0.314235
O O7 0.279056 0.055645 0.980534
O O8 0.289105 0.000000 0.673695
O O9 0.000000 0.057856 0.000000
O O10 0.500000 0.566280 0.500000
O O11 0.242038 0.500000 0.693118
#
# Coordination Sequence:
#
# PCOD9184468 Si02
#       5
#     8   4   8   8   8
#     4  10  19  34  50  70  96 129 163 198 236 285
#     4  12  22  32  48  70  98 138 160 196 238 284
#     4  10  20  34  49  71 100 123 166 200 237 284
#     4   9  15  25  46  75  95 110 149 206 244 272
#     4   9  15  28  51  71  91 120 155 197 241 280
#
# _framework density 28.91573
#
# number of rings (size 3 to 8) (size 9 to 14) (size 15 to 20)
#    0.000    2.222    5.556    1.333    0.000    0.000 
#    0.000    0.556    0.000    0.000    0.000    0.000 
#    0.000    9.778    0.000    0.000    0.000    0.000 
#
# Total GULP energy -100220.172368 kJ/mol
# GULP energy per Si atom -5567.787354 kJ/mol
# Density = 2.884992 g / cm^3
# Si number density = 28.915730 Si / 1000 Ang^3
#
#
#
# Elastic Constant Matrix: (Units=GPa)
#
#
# Indices 1 2 3 4 5 6 
#
# 1 75.2787 -3.7676 29.1122 0.0000 10.8429 0.0000
# 2 -3.7676 249.4769 22.0781 0.0000 -7.6492 0.0000
# 3 29.1122 22.0781 54.1994 0.0000 -10.1781 0.0000
# 4 0.0000 0.0000 0.0000 4.7690 0.0000 17.2985
# 5 10.8429 -7.6492 -10.1781 0.0000 41.0358 0.0000
# 6 0.0000 0.0000 0.0000 17.2985 0.0000 9.7465
#
#
#
# Elastic Compliance Matrix: (Units=1/GPa)
#
#
# Indices 1 2 3 4 5 6 
#
# 1 0.019228 0.001134 -0.012276 0.000000 -0.007914 0.000000
# 2 0.001134 0.004231 -0.002350 0.000000 -0.000094 0.000000
# 3 -0.012276 -0.002350 0.027825 0.000000 0.009707 0.000000
# 4 0.000000 0.000000 0.000000 -0.038561 0.000000 0.068440
# 5 -0.007914 -0.000094 0.009707 0.000000 0.028850 0.000000
# 6 0.000000 0.000000 0.000000 0.068440 0.000000 -0.018868
#
#
# Mechanical properties :
#
#
# Convention : Reuss Voigt Hill
#
# Bulk Modulus (GPa) = 41.15428 52.64451 46.89940
# Shear Modulus (GPa) = 86.52220 33.21241 59.86731
#
# Velocity S-wave (km/s) = 5.47605 3.39277 4.55511
# Velocity P-wave (km/s) = 7.36521 5.79599 6.62721
#
# Compressibility (1/GPa) = 0.02429881
#
# Stress axis : x y z
#
# Youngs Moduli (GPa) = 52.00689 236.37204 35.93939
#
# Poissons Ratio (x) = -0.26808 0.44120
# Poissons Ratio (y) = -0.05898 0.08446
# Poissons Ratio (z) = 0.63845 0.55552
#
# Static dielectric constant tensor:
#      x y z
#    x -0.099290 0.000000 -2.900270 
#    y 0.000000 2.527140 0.000000 
#    z -2.900270 0.000000 -1.132050 
# 
# From -- ./inp_files/50150.got.cif
#   From: 2010.05.17/outbox.cif.g08.bks.cpg/sg12_26_cif.got.tgz:50150.got - 2010.06.03 13:09:07.
