data_PCOD9184996
_publ_section_title
;
Structure prediction by ZEFSAII (Michael W. Deem and Ramdas Pophale) SiO2 
 PCOD9184996
Probable space group: C 2/M
;
_chemical_formula_sum "Si O2"
_cell_formula_units_Z 40
_cell_length_a 15.165958
_cell_length_b 10.721164
_cell_length_c 12.454475
_cell_angle_alpha 90.000000
_cell_angle_beta 82.035002
_cell_angle_gamma 90.000000
_cell_volume 2005.520905
_symmetry_space_group_name_H-M "C 2/M"
_symmetry_group_IT_number 12
_symmetry_cell_setting 'monoclinic'
loop_
_space_group_symop_operation_xyz
x,y,z
-x,y,-z
-x,-y,-z
x,-y,z
1/2+x,1/2+y,z
1/2-x,1/2+y,-z
1/2-x,1/2-y,-z
1/2+x,1/2-y,z
loop_
_atom_site_type_symbol
_atom_site_label
_atom_site_fract_x
_atom_site_fract_y
_atom_site_fract_z
Si Si1 0.574725 0.725720 0.731806
Si Si2 0.326309 0.354501 0.495646
Si Si3 0.602337 0.633279 0.949406
Si Si4 0.694770 0.141114 0.864688
Si Si5 0.113142 0.145064 0.270036
O O1 0.605933 0.679106 0.611223
O O2 0.601894 0.629007 0.820209
O O3 0.630017 0.842454 0.770254
O O4 0.468200 0.732392 0.750548
O O5 0.296953 0.500000 0.488905
O O6 0.250000 0.250000 0.500000
O O7 0.369132 0.343372 0.606122
O O8 0.633385 0.500000 0.988318
O O9 0.659341 0.757583 0.956045
O O10 0.500000 0.650974 0.000000
O O11 0.794353 0.168288 0.806806
O O12 0.688332 0.000000 0.903979
O O13 0.087451 0.000000 0.254045
#
# Coordination Sequence:
#
# PCOD9184996 Si02
#       5
#     8   8   8   8   8
#     4  10  20  33  56  78 106 140 182 220 259 314
#     4  11  20  33  54  79 107 142 179 218 263 318
#     4   9  18  34  57  81 107 140 179 221 266 316
#     4   9  20  36  55  78 111 140 173 222 271 316
#     4  10  19  34  55  81 107 142 183 217 259 322
#
# _framework density 19.944944
#
# number of rings (size 3 to 8) (size 9 to 14) (size 15 to 20)
#    1.200    1.000    2.000    2.400    0.000    2.000 
#    0.000    3.000    0.000    2.400    0.000    0.000 
#    0.000    0.000    0.000    0.000    0.000    0.000 
#
# Total GULP energy -111362.236598 kJ/mol
# GULP energy per Si atom -5568.111830 kJ/mol
# Density = 1.989955 g / cm^3
# Si number density = 19.944944 Si / 1000 Ang^3
#
#
#
# Elastic Constant Matrix: (Units=GPa)
#
#
# Indices 1 2 3 4 5 6 
#
# 1 112.9201 58.8919 13.2549 0.0000 -16.0421 0.0000
# 2 58.8919 116.8764 36.8060 0.0000 -20.7729 0.0000
# 3 13.2549 36.8060 75.0849 0.0000 -4.1619 0.0000
# 4 0.0000 0.0000 0.0000 -30.9690 0.0000 5.5554
# 5 -16.0421 -20.7729 -4.1619 0.0000 35.6639 0.0000
# 6 0.0000 0.0000 0.0000 5.5554 0.0000 0.1742
#
#
#
# Elastic Compliance Matrix: (Units=1/GPa)
#
#
# Indices 1 2 3 4 5 6 
#
# 1 0.012210 -0.006083 0.000940 0.000000 0.002059 0.000000
# 2 -0.006083 0.014275 -0.005651 0.000000 0.004919 0.000000
# 3 0.000940 -0.005651 0.015866 0.000000 -0.001017 0.000000
# 4 0.000000 0.000000 0.000000 -0.004805 0.000000 0.153218
# 5 0.002059 0.004919 -0.001017 0.000000 0.031712 0.000000
# 6 0.000000 0.000000 0.000000 0.153218 0.000000 0.854128
#
#
# Mechanical properties :
#
#
# Convention : Reuss Voigt Hill
#
# Bulk Modulus (GPa) = 48.15930 58.08744 53.12337
# Shear Modulus (GPa) = 5.25268 14.03575 9.64422
#
# Velocity S-wave (km/s) = 1.62460 2.65566 2.20134
# Velocity P-wave (km/s) = 5.26475 6.21212 5.75796
#
# Compressibility (1/GPa) = 0.02076442
#
# Stress axis : x y z
#
# Youngs Moduli (GPa) = 81.89794 70.05333 63.02810
#
# Poissons Ratio (x) = 0.42611 -0.05927
# Poissons Ratio (y) = 0.49816 0.35617
# Poissons Ratio (z) = -0.07701 0.39587
#
# Static dielectric constant tensor:
#      x y z
#    x 1.728260 0.000000 0.016940 
#    y 0.000000 1.714000 0.000000 
#    z 0.016940 0.000000 1.717690 
# 
# From -- ./inp_files/273535.got.cif
#   From: 2010.05.17/outbox.cif.g08.bks.cpg/sg12_137_cif.got.tgz:273535.got - 2010.06.03 13:09:07.
