data_PCOD9184915
_publ_section_title
;
Structure prediction by ZEFSAII (Michael W. Deem and Ramdas Pophale) SiO2 
 PCOD9184915
Probable space group: C 2/M
;
_chemical_formula_sum "Si O2"
_cell_formula_units_Z 56
_cell_length_a 30.951915
_cell_length_b 7.540714
_cell_length_c 12.328599
_cell_angle_alpha 90.000000
_cell_angle_beta 114.976489
_cell_angle_gamma 90.000000
_cell_volume 2608.389770
_symmetry_space_group_name_H-M "C 2/M"
_symmetry_group_IT_number 12
_symmetry_cell_setting 'monoclinic'
loop_
_space_group_symop_operation_xyz
x,y,z
-x,y,-z
-x,-y,-z
x,-y,z
1/2+x,1/2+y,z
1/2-x,1/2+y,-z
1/2-x,1/2-y,-z
1/2+x,1/2-y,z
loop_
_atom_site_type_symbol
_atom_site_label
_atom_site_fract_x
_atom_site_fract_y
_atom_site_fract_z
Si Si1 0.164422 0.205692 0.700506
Si Si2 0.933364 0.785513 0.017551
Si Si3 0.039688 0.783191 0.191418
Si Si4 0.772418 0.282440 0.812864
Si Si5 0.198634 0.288747 0.392208
Si Si6 0.609575 0.296866 0.443326
Si Si7 0.343283 0.204456 0.066531
O O1 0.217925 0.279840 0.749950
O O2 0.127310 0.285043 0.575304
O O3 0.148982 0.210431 0.808606
O O4 0.169456 0.000000 0.672503
O O5 0.934213 0.728778 0.892566
O O6 0.931217 0.000000 0.017084
O O7 0.889433 0.716378 0.039590
O O8 0.984473 0.732482 0.121769
O O9 0.067360 0.716988 0.326285
O O10 0.040886 0.000000 0.193174
O O11 0.772698 0.500000 0.815817
O O12 0.798954 0.229648 0.730402
O O13 0.799757 0.220453 0.949106
O O14 0.191310 0.500000 0.386599
O O15 0.250000 0.250000 0.500000
O O16 0.156247 0.204528 0.415924
O O17 0.594709 0.500000 0.449659
O O18 0.332493 0.000000 0.078196
#
# Coordination Sequence:
#
# PCOD9184915 Si02
#       7
#     8   8   8   8   8   8   8
#     4  10  20  36  53  70 101 141 176 214 256 303
#     4   9  17  34  57  81 107 132 166 213 258 304
#     4   8  16  32  58  85 105 130 168 211 255 310
#     4   9  19  35  52  73 103 137 172 214 258 299
#     4  11  20  33  52  77 108 138 168 208 256 306
#     4  10  19  34  55  79 106 137 172 211 259 310
#     4  11  22  35  52  75 103 136 177 218 256 303
#
# _framework density 21.469185
#
# number of rings (size 3 to 8) (size 9 to 14) (size 15 to 20)
#    0.000    2.286    1.429    3.000    0.000    0.571 
#    0.000    5.714    0.000    4.286    0.000    0.000 
#    0.000    0.000    0.000    0.000    0.000    0.000 
#
# Total GULP energy -156395.537941 kJ/mol
# GULP energy per Si atom -5585.554926 kJ/mol
# Density = 2.142032 g / cm^3
# Si number density = 21.469185 Si / 1000 Ang^3
#
#
#
# Elastic Constant Matrix: (Units=GPa)
#
#
# Indices 1 2 3 4 5 6 
#
# 1 29.0094 -5.0126 36.9351 0.0000 -1.4101 0.0000
# 2 -5.0126 59.0707 7.2053 0.0000 -1.1146 0.0000
# 3 36.9351 7.2053 209.2905 0.0000 7.5868 0.0000
# 4 0.0000 0.0000 0.0000 -6.8661 0.0000 -1.2439
# 5 -1.4101 -1.1146 7.5868 0.0000 25.9363 0.0000
# 6 0.0000 0.0000 0.0000 -1.2439 0.0000 18.6756
#
#
#
# Elastic Compliance Matrix: (Units=1/GPa)
#
#
# Indices 1 2 3 4 5 6 
#
# 1 0.046528 0.005094 -0.008577 0.000000 0.005257 0.000000
# 2 0.005094 0.017579 -0.001558 0.000000 0.001488 0.000000
# 3 -0.008577 -0.001558 0.006433 0.000000 -0.002415 0.000000
# 4 0.000000 0.000000 0.000000 -0.143908 0.000000 -0.009585
# 5 0.005257 0.001488 -0.002415 0.000000 0.039612 0.000000
# 6 0.000000 0.000000 0.000000 -0.009585 0.000000 0.052907
#
#
# Mechanical properties :
#
#
# Convention : Reuss Voigt Hill
#
# Bulk Modulus (GPa) = 16.54072 41.73627 29.13850
# Shear Modulus (GPa) = 101.24123 24.76536 63.00329
#
# Velocity S-wave (km/s) = 6.87451 3.40005 5.42306
# Velocity P-wave (km/s) = 8.41029 5.90729 7.26736
#
# Compressibility (1/GPa) = 0.06045685
#
# Stress axis : x y z
#
# Youngs Moduli (GPa) = 21.49256 56.88538 155.45112
#
# Poissons Ratio (x) = -0.28975 1.33331
# Poissons Ratio (y) = -0.10947 0.24220
# Poissons Ratio (z) = 0.18434 0.08863
#
# Static dielectric constant tensor:
#      x y z
#    x 1.722310 0.000000 0.014540 
#    y 0.000000 1.799810 0.000000 
#    z 0.014540 0.000000 1.808410 
# 
# From -- ./inp_files/186475.got.cif
#   From: 2010.05.17/outbox.cif.g08.bks.cpg/sg12_94_cif.got.tgz:186475.got - 2010.06.03 13:09:07.
