data_PCOD9184831
_publ_section_title
;
Structure prediction by ZEFSAII (Michael W. Deem and Ramdas Pophale) SiO2 
 PCOD9184831
Probable space group: C 2/M
;
_chemical_formula_sum "Si O2"
_cell_formula_units_Z 64
_cell_length_a 18.870883
_cell_length_b 10.400608
_cell_length_c 18.216226
_cell_angle_alpha 90.000000
_cell_angle_beta 99.710074
_cell_angle_gamma 90.000000
_cell_volume 3524.054219
_symmetry_space_group_name_H-M "C 2/M"
_symmetry_group_IT_number 12
_symmetry_cell_setting 'monoclinic'
loop_
_space_group_symop_operation_xyz
x,y,z
-x,y,-z
-x,-y,-z
x,-y,z
1/2+x,1/2+y,z
1/2-x,1/2+y,-z
1/2-x,1/2-y,-z
1/2+x,1/2-y,z
loop_
_atom_site_type_symbol
_atom_site_label
_atom_site_fract_x
_atom_site_fract_y
_atom_site_fract_z
Si Si1 0.058296 0.345533 0.677529
Si Si2 0.356583 0.151658 0.772059
Si Si3 0.167082 0.653149 0.579020
Si Si4 0.737564 0.852337 0.102807
Si Si5 0.483577 0.844964 0.167982
Si Si6 0.826702 0.855466 0.639933
Si Si7 0.848545 0.651342 0.058017
Si Si8 0.444175 0.715886 0.549999
O O1 0.057090 0.500000 0.679884
O O2 0.132408 0.304878 0.651065
O O3 0.046623 0.298209 0.758347
O O4 0.994351 0.300032 0.612736
O O5 0.295467 0.163178 0.822676
O O6 0.433062 0.189645 0.821421
O O7 0.343467 0.247350 0.702800
O O8 0.360771 0.000000 0.750236
O O9 0.161968 0.500000 0.574260
O O10 0.251113 0.684483 0.589160
O O11 0.113791 0.706397 0.508269
O O12 0.796006 0.745229 0.093603
O O13 0.764723 0.000000 0.099996
O O14 0.674450 0.838084 0.030773
O O15 0.429507 0.809891 0.093416
O O16 0.482829 0.000000 0.169856
O O17 0.892554 0.862538 0.594652
O O18 0.816078 0.000000 0.669388
O O19 0.838449 0.500000 0.076441
O O20 0.500000 0.656619 0.500000
#
# Coordination Sequence:
#
# PCOD9184831 Si02
#       8
#     8   8   8   8   8   8   8   8
#     4   9  16  29  51  79 105 131 173 221 261 308
#     4  10  21  37  56  77 108 144 180 223 266 312
#     4   9  19  32  51  79 106 135 174 223 269 317
#     4   9  19  35  54  82 114 143 176 216 266 319
#     4   9  17  30  52  80 105 137 180 223 263 307
#     4  11  23  37  53  79 111 141 177 220 267 322
#     4   9  18  33  57  83 110 143 179 219 263 314
#     4  10  19  34  55  74 102 140 176 216 267 322
#
# _framework density 18.160900000000002
#
# number of rings (size 3 to 8) (size 9 to 14) (size 15 to 20)
#    0.000    2.500    1.250    0.750    1.750    3.250 
#    0.000    3.750    0.000    0.750    0.000    4.375 
#    0.000    0.000    0.000    0.000    0.000    0.000 
#
# Total GULP energy -178150.829534 kJ/mol
# GULP energy per Si atom -5567.213423 kJ/mol
# Density = 1.811957 g / cm^3
# Si number density = 18.160900 Si / 1000 Ang^3
#
#
#
# Elastic Constant Matrix: (Units=GPa)
#
#
# Indices 1 2 3 4 5 6 
#
# 1 87.6962 32.4619 25.6776 0.0000 8.5726 0.0000
# 2 32.4619 51.2649 23.9265 0.0000 0.5767 0.0000
# 3 25.6776 23.9265 31.0674 0.0000 3.8858 0.0000
# 4 0.0000 0.0000 0.0000 55.1261 0.0000 8.9945
# 5 8.5726 0.5767 3.8858 0.0000 31.2833 0.0000
# 6 0.0000 0.0000 0.0000 8.9945 0.0000 21.7712
#
#
#
# Elastic Compliance Matrix: (Units=1/GPa)
#
#
# Indices 1 2 3 4 5 6 
#
# 1 0.016590 -0.006660 -0.008156 0.000000 -0.003410 0.000000
# 2 -0.006660 0.033303 -0.020615 0.000000 0.003772 0.000000
# 3 -0.008156 -0.020615 0.055339 0.000000 -0.004259 0.000000
# 4 0.000000 0.000000 0.000000 0.019451 0.000000 -0.008036
# 5 -0.003410 0.003772 -0.004259 0.000000 0.033360 0.000000
# 6 0.000000 0.000000 0.000000 -0.008036 0.000000 0.049252
#
#
# Mechanical properties :
#
#
# Convention : Reuss Voigt Hill
#
# Bulk Modulus (GPa) = 29.09622 37.12895 33.11258
# Shear Modulus (GPa) = 17.26436 27.50028 22.38232
#
# Velocity S-wave (km/s) = 3.08658 3.89557 3.51443
# Velocity P-wave (km/s) = 5.36272 6.38144 5.89413
#
# Compressibility (1/GPa) = 0.03436873
#
# Stress axis : x y z
#
# Youngs Moduli (GPa) = 60.27833 30.02731 18.07056
#
# Poissons Ratio (x) = 0.19998 0.14738
# Poissons Ratio (y) = 0.40145 0.37253
# Poissons Ratio (z) = 0.49162 0.61903
#
# Static dielectric constant tensor:
#      x y z
#    x 1.641440 0.000000 -0.013380 
#    y 0.000000 1.604020 0.000000 
#    z -0.013380 0.000000 1.628110 
# 
# From -- ./inp_files/276583.got.cif
#   From: 2010.05.17/outbox.cif.g08.bks.cpg/sg12_139_cif.got.tgz:276583.got - 2010.06.03 13:09:07.
