data_PCOD9184722
_publ_section_title
;
Structure prediction by ZEFSAII (Michael W. Deem and Ramdas Pophale) SiO2 
 PCOD9184722
Probable space group: C 2/M
;
_chemical_formula_sum "Si O2"
_cell_formula_units_Z 32
_cell_length_a 34.430399
_cell_length_b 7.678668
_cell_length_c 5.003032
_cell_angle_alpha 90.000000
_cell_angle_beta 90.283516
_cell_angle_gamma 90.000000
_cell_volume 1322.683421
_symmetry_space_group_name_H-M "C 2/M"
_symmetry_group_IT_number 12
_symmetry_cell_setting 'monoclinic'
loop_
_space_group_symop_operation_xyz
x,y,z
-x,y,-z
-x,-y,-z
x,-y,z
1/2+x,1/2+y,z
1/2-x,1/2+y,-z
1/2-x,1/2-y,-z
1/2+x,1/2-y,z
loop_
_atom_site_type_symbol
_atom_site_label
_atom_site_fract_x
_atom_site_fract_y
_atom_site_fract_z
Si Si1 0.585045 0.799181 0.146892
Si Si2 0.038213 0.200829 0.644471
Si Si3 0.791714 0.291526 0.622060
Si Si4 0.336008 0.213211 0.122624
O O1 0.571091 0.709681 0.416862
O O2 0.592477 0.000000 0.220440
O O3 0.552283 0.789012 0.916220
O O4 0.623628 0.728099 0.004630
O O5 0.000000 0.276561 0.500000
O O6 0.029979 0.000000 0.712672
O O7 0.794454 0.500000 0.630923
O O8 0.750000 0.250000 0.500000
O O9 0.824651 0.227606 0.416873
O O10 0.801792 0.230972 0.919160
O O11 0.337793 0.000000 0.132465
#
# Coordination Sequence:
#
# PCOD9184722 Si02
#       4
#     8   8   8   8
#     4  11  22  39  64  89 112 149 202 245 279 335
#     4  11  24  41  59  84 122 159 186 229 299 355
#     4  10  19  34  54  77 107 142 179 221 275 333
#     4   9  19  35  55  78 108 143 178 227 285 329
#
# _framework density 24.193244
#
# number of rings (size 3 to 8) (size 9 to 14) (size 15 to 20)
#    0.000    1.750    0.000    4.500    0.000    9.000 
#    0.000    7.500    0.000    0.000    0.000    0.000 
#    0.000    0.000    0.000    0.000    0.000    0.000 
#
# Total GULP energy -89520.834548 kJ/mol
# GULP energy per Si atom -5595.052159 kJ/mol
# Density = 2.413818 g / cm^3
# Si number density = 24.193244 Si / 1000 Ang^3
#
#
#
# Elastic Constant Matrix: (Units=GPa)
#
#
# Indices 1 2 3 4 5 6 
#
# 1 59.2032 -9.1266 -12.8012 0.0000 -0.9204 0.0000
# 2 -9.1266 45.8708 -1.8044 0.0000 -1.7084 0.0000
# 3 -12.8012 -1.8044 98.5963 0.0000 -4.4291 0.0000
# 4 0.0000 0.0000 0.0000 30.5642 0.0000 -8.1009
# 5 -0.9204 -1.7084 -4.4291 0.0000 40.9295 0.0000
# 6 0.0000 0.0000 0.0000 -8.1009 0.0000 18.9577
#
#
#
# Elastic Compliance Matrix: (Units=1/GPa)
#
#
# Indices 1 2 3 4 5 6 
#
# 1 0.018004 0.003709 0.002442 0.000000 0.000824 0.000000
# 2 0.003709 0.022618 0.000946 0.000000 0.001130 0.000000
# 3 0.002442 0.000946 0.010532 0.000000 0.001234 0.000000
# 4 0.000000 0.000000 0.000000 0.036897 0.000000 0.015767
# 5 0.000824 0.001130 0.001234 0.000000 0.024631 0.000000
# 6 0.000000 0.000000 0.000000 0.015767 0.000000 0.059486
#
#
# Mechanical properties :
#
#
# Convention : Reuss Voigt Hill
#
# Bulk Modulus (GPa) = 15.30262 17.35621 16.32941
# Shear Modulus (GPa) = 27.81547 33.25045 30.53296
#
# Velocity S-wave (km/s) = 3.39443 3.71127 3.55638
# Velocity P-wave (km/s) = 4.65852 5.05512 4.86087
#
# Compressibility (1/GPa) = 0.06534830
#
# Stress axis : x y z
#
# Youngs Moduli (GPa) = 55.54430 44.21335 94.94661
#
# Poissons Ratio (x) = -0.16398 -0.23190
# Poissons Ratio (y) = -0.20600 -0.08984
# Poissons Ratio (z) = -0.13566 -0.04183
#
# Static dielectric constant tensor:
#      x y z
#    x 1.965710 0.000000 0.010570 
#    y 0.000000 1.872140 0.000000 
#    z 0.010570 0.000000 1.867590 
# 
# From -- ./inp_files/3516.got.cif
#   From: 2010.05.17/outbox.cif.g08.bks.cpg/sg12_2_cif.got.tgz:3516.got - 2010.06.03 13:09:07.
