data_PCOD9184567
_publ_section_title
;
Structure prediction by ZEFSAII (Michael W. Deem and Ramdas Pophale) SiO2 
 PCOD9184567
Probable space group: C 2/M
;
_chemical_formula_sum "Si O2"
_cell_formula_units_Z 56
_cell_length_a 20.691330
_cell_length_b 11.387125
_cell_length_c 14.614546
_cell_angle_alpha 90.000000
_cell_angle_beta 112.556384
_cell_angle_gamma 90.000000
_cell_volume 3179.991033
_symmetry_space_group_name_H-M "C 2/M"
_symmetry_group_IT_number 12
_symmetry_cell_setting 'monoclinic'
loop_
_space_group_symop_operation_xyz
x,y,z
-x,y,-z
-x,-y,-z
x,-y,z
1/2+x,1/2+y,z
1/2-x,1/2+y,-z
1/2-x,1/2-y,-z
1/2+x,1/2-y,z
loop_
_atom_site_type_symbol
_atom_site_label
_atom_site_fract_x
_atom_site_fract_y
_atom_site_fract_z
Si Si1 0.462032 0.500000 0.332271
Si Si2 0.260605 0.862204 0.379229
Si Si3 0.301283 0.136898 0.033529
Si Si4 0.456401 0.140203 0.065978
Si Si5 0.355962 0.264716 0.564999
Si Si6 0.988102 0.248398 0.278546
Si Si7 0.389533 0.500000 0.480439
Si Si8 0.145417 0.365833 0.729003
O O1 0.464354 0.613652 0.270609
O O2 0.402448 0.500000 0.378395
O O3 0.534413 0.500000 0.429157
O O4 0.318263 0.838339 0.489050
O O5 0.191356 0.795444 0.373255
O O6 0.296363 0.814635 0.306550
O O7 0.244133 0.000000 0.361828
O O8 0.372381 0.158576 0.013766
O O9 0.327493 0.135992 0.152764
O O10 0.276467 0.000000 0.001068
O O11 0.250000 0.250000 0.000000
O O12 0.482505 0.201519 0.173250
O O13 0.466034 0.000000 0.083198
O O14 0.500000 0.176752 0.000000
O O15 0.434735 0.239700 0.638050
O O16 0.354342 0.381242 0.499314
O O17 0.930695 0.309650 0.311974
O O18 0.137043 0.500000 0.694823
#
# Coordination Sequence:
#
# PCOD9184567 Si02
#       8
#     4   8   8   8   8   8   4   8
#     4   9  18  28  49  74 102 138 167 211 259 306
#     4  10  20  34  50  74 105 140 176 212 264 315
#     4   9  18  35  58  80 107 141 179 221 272 326
#     4   9  19  37  59  79 105 141 175 217 273 326
#     4  10  20  32  52  73 104 140 176 220 257 303
#     4  10  19  34  52  79 104 133 179 221 262 314
#     4   9  16  32  48  68 100 139 180 201 252 320
#     4   9  19  35  54  75 103 137 173 217 266 314
#
# _framework density 17.610112999999998
#
# number of rings (size 3 to 8) (size 9 to 14) (size 15 to 20)
#    0.000    2.571    0.714    2.143    0.000    4.000 
#    5.143    1.786    0.000    0.000    0.000    0.000 
#    0.000    0.000    0.000    0.000    0.000    0.000 
#
# Total GULP energy -155905.614629 kJ/mol
# GULP energy per Si atom -5568.057665 kJ/mol
# Density = 1.757003 g / cm^3
# Si number density = 17.610113 Si / 1000 Ang^3
#
#
#
# Elastic Constant Matrix: (Units=GPa)
#
#
# Indices 1 2 3 4 5 6 
#
# 1 107.9973 22.2217 22.5069 0.0000 -17.9575 0.0000
# 2 22.2217 47.1590 9.1527 0.0000 4.0478 0.0000
# 3 22.5069 9.1527 22.2304 0.0000 -9.6511 0.0000
# 4 0.0000 0.0000 0.0000 21.4119 0.0000 -0.2152
# 5 -17.9575 4.0478 -9.6511 0.0000 33.3675 0.0000
# 6 0.0000 0.0000 0.0000 -0.2152 0.0000 19.4457
#
#
#
# Elastic Compliance Matrix: (Units=1/GPa)
#
#
# Indices 1 2 3 4 5 6 
#
# 1 0.012937 -0.004776 -0.008985 0.000000 0.004943 0.000000
# 2 -0.004776 0.026044 -0.009577 0.000000 -0.008500 0.000000
# 3 -0.008985 -0.009577 0.064532 0.000000 0.014991 0.000000
# 4 0.000000 0.000000 0.000000 0.046708 0.000000 0.000517
# 5 0.004943 -0.008500 0.014991 0.000000 0.037996 0.000000
# 6 0.000000 0.000000 0.000000 0.000517 0.000000 0.051431
#
#
# Mechanical properties :
#
#
# Convention : Reuss Voigt Hill
#
# Bulk Modulus (GPa) = 17.59487 31.68325 24.63906
# Shear Modulus (GPa) = 16.37894 23.07870 19.72882
#
# Velocity S-wave (km/s) = 3.05304 3.62406 3.35074
# Velocity P-wave (km/s) = 4.73721 5.96174 5.38440
#
# Compressibility (1/GPa) = 0.05683475
#
# Stress axis : x y z
#
# Youngs Moduli (GPa) = 77.29960 38.39687 15.49628
#
# Poissons Ratio (x) = 0.18339 0.13924
# Poissons Ratio (y) = 0.36920 0.14841
# Poissons Ratio (z) = 0.69456 0.36773
#
# Static dielectric constant tensor:
#      x y z
#    x 1.632390 0.000000 -0.023090 
#    y 0.000000 1.643560 0.000000 
#    z -0.023090 0.000000 1.579290 
# 
# From -- ./inp_files/232003.got.cif
#   From: 2010.05.17/outbox.cif.g08.bks.cpg/sg12_117_cif.got.tgz:232003.got - 2010.06.03 13:09:07.
