data_PCOD9184963
_publ_section_title
;
Structure prediction by ZEFSAII (Michael W. Deem and Ramdas Pophale) SiO2 
 PCOD9184963
Probable space group: C 2/M
;
_chemical_formula_sum "Si O2"
_cell_formula_units_Z 56
_cell_length_a 9.197566
_cell_length_b 29.723034
_cell_length_c 17.018990
_cell_angle_alpha 90.000000
_cell_angle_beta 33.945132
_cell_angle_gamma 90.000000
_cell_volume 2598.030604
_symmetry_space_group_name_H-M "C 2/M"
_symmetry_group_IT_number 12
_symmetry_cell_setting 'monoclinic'
loop_
_space_group_symop_operation_xyz
x,y,z
-x,y,-z
-x,-y,-z
x,-y,z
1/2+x,1/2+y,z
1/2-x,1/2+y,-z
1/2-x,1/2-y,-z
1/2+x,1/2-y,z
loop_
_atom_site_type_symbol
_atom_site_label
_atom_site_fract_x
_atom_site_fract_y
_atom_site_fract_z
Si Si1 0.153919 0.449183 0.574750
Si Si2 0.346408 0.116956 0.287620
Si Si3 0.888821 0.140263 0.122030
Si Si4 0.919487 0.796816 0.847818
Si Si5 0.129839 0.702998 0.816581
Si Si6 0.967942 0.051424 0.156702
Si Si7 0.153262 0.948811 0.246784
O O1 0.178296 0.500000 0.596241
O O2 0.246924 0.413848 0.597990
O O3 0.356855 0.445446 0.412594
O O4 0.848025 0.444362 0.689296
O O5 0.617024 0.129300 0.206257
O O6 0.262939 0.165725 0.292076
O O7 0.323861 0.085494 0.220750
O O8 0.033254 0.092661 0.070549
O O9 0.891294 0.164578 0.204119
O O10 0.000000 0.170211 0.000000
O O11 0.834275 0.794629 0.796197
O O12 0.058146 0.750425 0.809461
O O13 0.651290 0.808058 0.016386
O O14 0.126523 0.058395 0.165973
O O15 0.014132 0.000000 0.108457
O O16 0.243964 0.000000 0.219395
#
# Coordination Sequence:
#
# PCOD9184963 Si02
#       7
#     8   8   8   8   8   8   8
#     4   9  18  33  55  81 109 141 180 226 272 317
#     4  11  20  31  50  81 109 141 175 220 269 319
#     4  11  21  35  52  74 109 146 182 221 265 320
#     4  10  20  35  54  76 103 138 175 219 265 311
#     4  10  20  33  55  79 104 133 173 222 269 314
#     4   9  19  34  53  78 108 144 184 222 266 320
#     4  10  19  34  55  80 109 140 182 232 272 313
#
# _framework density 21.554789
#
# number of rings (size 3 to 8) (size 9 to 14) (size 15 to 20)
#    0.000    2.000    1.429    3.000    2.000    3.714 
#    0.000    0.000    0.000    1.714    0.000   38.000 
#    0.000    0.000    0.000    0.000    0.000    0.000 
#
# Total GULP energy -155916.015178 kJ/mol
# GULP energy per Si atom -5568.429113 kJ/mol
# Density = 2.150573 g / cm^3
# Si number density = 21.554789 Si / 1000 Ang^3
#
#
#
# Elastic Constant Matrix: (Units=GPa)
#
#
# Indices 1 2 3 4 5 6 
#
# 1 134.8281 37.5136 1.5149 0.0000 1.9459 0.0000
# 2 37.5136 79.0348 -6.8456 0.0000 13.2902 0.0000
# 3 1.5149 -6.8456 7.4798 0.0000 -1.8712 0.0000
# 4 0.0000 0.0000 0.0000 15.4216 0.0000 7.0105
# 5 1.9459 13.2902 -1.8712 0.0000 30.7617 0.0000
# 6 0.0000 0.0000 0.0000 7.0105 0.0000 45.8955
#
#
#
# Elastic Compliance Matrix: (Units=1/GPa)
#
#
# Indices 1 2 3 4 5 6 
#
# 1 0.008834 -0.004913 -0.005986 0.000000 0.001200 0.000000
# 2 -0.004913 0.017364 0.015321 0.000000 -0.006259 0.000000
# 3 -0.005986 0.015321 0.149645 0.000000 0.002862 0.000000
# 4 0.000000 0.000000 0.000000 0.069683 0.000000 -0.010644
# 5 0.001200 -0.006259 0.002862 0.000000 0.035310 0.000000
# 6 0.000000 0.000000 0.000000 -0.010644 0.000000 0.023414
#
#
# Mechanical properties :
#
#
# Convention : Reuss Voigt Hill
#
# Bulk Modulus (GPa) = 5.41454 31.74539 18.57997
# Shear Modulus (GPa) = 14.00687 31.02642 22.51664
#
# Velocity S-wave (km/s) = 2.55193 3.79809 3.23557
# Velocity P-wave (km/s) = 3.34673 5.83041 4.75365
#
# Compressibility (1/GPa) = 0.18468789
#
# Stress axis : x y z
#
# Youngs Moduli (GPa) = 113.20175 57.58965 6.68249
#
# Poissons Ratio (x) = 0.28294 0.04000
# Poissons Ratio (y) = 0.55617 -0.10238
# Poissons Ratio (z) = 0.67758 -0.88235
#
# Static dielectric constant tensor:
#      x y z
#    x 1.759120 0.000000 -0.026510 
#    y 0.000000 1.836610 0.000000 
#    z -0.026510 0.000000 1.862580 
# 
# From -- ./inp_files/125174.got.cif
#   From: 2010.05.17/outbox.cif.g08.bks.cpg/sg12_63_cif.got.tgz:125174.got - 2010.06.03 13:09:07.
