data_PCOD9184702
_publ_section_title
;
Structure prediction by ZEFSAII (Michael W. Deem and Ramdas Pophale) SiO2 
 PCOD9184702
Probable space group: C 2/M
;
_chemical_formula_sum "Si O2"
_cell_formula_units_Z 56
_cell_length_a 17.620691
_cell_length_b 28.661830
_cell_length_c 8.679009
_cell_angle_alpha 90.000000
_cell_angle_beta 47.102963
_cell_angle_gamma 90.000000
_cell_volume 3211.078493
_symmetry_space_group_name_H-M "C 2/M"
_symmetry_group_IT_number 12
_symmetry_cell_setting 'monoclinic'
loop_
_space_group_symop_operation_xyz
x,y,z
-x,y,-z
-x,-y,-z
x,-y,z
1/2+x,1/2+y,z
1/2-x,1/2+y,-z
1/2-x,1/2-y,-z
1/2+x,1/2-y,z
loop_
_atom_site_type_symbol
_atom_site_label
_atom_site_fract_x
_atom_site_fract_y
_atom_site_fract_z
Si Si1 0.883885 0.623721 0.719367
Si Si2 0.781485 0.691854 0.623264
Si Si3 0.707375 0.553692 0.861607
Si Si4 0.887890 0.626808 0.079487
Si Si5 0.293211 0.599739 0.457768
Si Si6 0.509175 0.444653 0.672016
Si Si7 0.617495 0.768368 0.810890
O O1 0.839070 0.669275 0.690214
O O2 0.802703 0.583900 0.787994
O O3 0.000000 0.615743 0.500000
O O4 0.889183 0.622735 0.895492
O O5 0.728305 0.649045 0.600733
O O6 0.692864 0.729596 0.775460
O O7 0.858768 0.719636 0.401232
O O8 0.723413 0.500000 0.876654
O O9 0.705550 0.562254 0.681281
O O10 0.598356 0.567265 0.092319
O O11 0.800225 0.597469 0.289907
O O12 0.865288 0.681438 0.137055
O O13 0.000000 0.617005 0.000000
O O14 0.400991 0.590028 0.394575
O O15 0.500000 0.440895 0.500000
O O16 0.531885 0.500000 0.674657
O O17 0.500000 0.754096 0.000000
#
# Coordination Sequence:
#
# PCOD9184702 Si02
#       7
#     8   8   8   8   8   8   8
#     4  11  21  36  57  79 104 136 177 219 266 319
#     4   9  20  33  52  80 104 135 176 215 257 312
#     4  10  21  36  55  79 105 136 175 218 264 317
#     4  10  20  36  56  77 105 141 177 218 264 313
#     4  10  19  34  54  76 106 141 177 214 262 314
#     4  10  20  34  53  78 108 140 174 216 264 314
#     4   9  17  34  54  75 107 138 168 210 261 309
#
# _framework density 17.439624999999999
#
# number of rings (size 3 to 8) (size 9 to 14) (size 15 to 20)
#    0.000    2.143    0.000    5.143    0.000    4.286 
#    0.000    0.714    0.000   12.429    0.000    0.000 
#    0.000    0.000    0.000    0.000    0.000    0.000 
#
# Total GULP energy -155997.383941 kJ/mol
# GULP energy per Si atom -5571.335141 kJ/mol
# Density = 1.739993 g / cm^3
# Si number density = 17.439625 Si / 1000 Ang^3
#
#
#
# Elastic Constant Matrix: (Units=GPa)
#
#
# Indices 1 2 3 4 5 6 
#
# 1 131.2168 44.1528 77.6934 0.0000 1.5672 0.0000
# 2 44.1528 28.5962 54.0621 0.0000 -24.3721 0.0000
# 3 77.6934 54.0621 156.8738 0.0000 -6.2506 0.0000
# 4 0.0000 0.0000 0.0000 23.9225 0.0000 -4.7808
# 5 1.5672 -24.3721 -6.2506 0.0000 29.3584 0.0000
# 6 0.0000 0.0000 0.0000 -4.7808 0.0000 9.3278
#
#
#
# Elastic Compliance Matrix: (Units=1/GPa)
#
#
# Indices 1 2 3 4 5 6 
#
# 1 0.006465 0.019357 -0.009325 0.000000 0.013739 0.000000
# 2 0.019357 -0.085047 0.017013 0.000000 -0.068014 0.000000
# 3 -0.009325 0.017013 0.005761 0.000000 0.015848 0.000000
# 4 0.000000 0.000000 0.000000 0.046572 0.000000 0.023870
# 5 0.013739 -0.068014 0.015848 0.000000 -0.019760 0.000000
# 6 0.000000 0.000000 0.000000 0.023870 0.000000 0.119441
#
#
# Mechanical properties :
#
#
# Convention : Reuss Voigt Hill
#
# Bulk Modulus (GPa) = -53.38235 74.27816 10.44791
# Shear Modulus (GPa) = 381.69674 21.90697 201.80185
#
# Velocity S-wave (km/s) = 14.81022 3.54808 10.76874
# Velocity P-wave (km/s) = 16.17964 7.71163 12.67379
#
# Compressibility (1/GPa) = -0.01873278
#
# Stress axis : x y z
#
# Youngs Moduli (GPa) = 154.67705 -11.75815 173.56734
#
# Poissons Ratio (x) = 0.22760 1.61855
# Poissons Ratio (y) = -2.99402 -2.95284
# Poissons Ratio (z) = 1.44239 0.20004
#
# Static dielectric constant tensor:
#      x y z
#    x 1.606450 0.000000 0.015880 
#    y 0.000000 1.583090 0.000000 
#    z 0.015880 0.000000 1.612690 
# 
# From -- ./inp_files/79175.got.cif
#   From: 2010.05.17/outbox.cif.g08.bks.cpg/sg12_40_cif.got.tgz:79175.got - 2010.06.03 13:09:07.
