data_PCOD9184480
_publ_section_title
;
Structure prediction by ZEFSAII (Michael W. Deem and Ramdas Pophale) SiO2 
 PCOD9184480
Probable space group: C 2/M
;
_chemical_formula_sum "Si O2"
_cell_formula_units_Z 64
_cell_length_a 28.697111
_cell_length_b 17.609089
_cell_length_c 18.781559
_cell_angle_alpha 90.000000
_cell_angle_beta 155.342913
_cell_angle_gamma 90.000000
_cell_volume 3959.469119
_symmetry_space_group_name_H-M "C 2/M"
_symmetry_group_IT_number 12
_symmetry_cell_setting 'monoclinic'
loop_
_space_group_symop_operation_xyz
x,y,z
-x,y,-z
-x,-y,-z
x,-y,z
1/2+x,1/2+y,z
1/2-x,1/2+y,-z
1/2-x,1/2-y,-z
1/2+x,1/2-y,z
loop_
_atom_site_type_symbol
_atom_site_label
_atom_site_fract_x
_atom_site_fract_y
_atom_site_fract_z
Si Si1 0.058166 0.409376 0.754672
Si Si2 0.162855 0.350082 0.597229
Si Si3 0.324953 0.909411 0.228232
Si Si4 0.391065 0.288237 0.393366
Si Si5 0.259750 0.313793 0.075732
Si Si6 0.931273 0.908342 0.125327
Si Si7 0.910316 0.908163 0.936231
Si Si8 0.483217 0.408843 0.350304
O O1 0.071164 0.500000 0.781149
O O2 0.097143 0.386440 0.728532
O O3 0.929717 0.385447 0.582905
O O4 0.145959 0.361648 0.922240
O O5 0.143810 0.385632 0.649491
O O6 0.136539 0.262697 0.576775
O O7 0.290189 0.369847 0.755731
O O8 0.325859 0.000000 0.228802
O O9 0.197098 0.885363 0.038042
O O10 0.500000 0.261307 0.500000
O O11 0.292469 0.282577 0.198981
O O12 0.426244 0.370682 0.472049
O O13 0.363772 0.370508 0.203494
O O14 0.250000 0.250000 0.000000
O O15 0.001821 0.886923 0.292853
O O16 0.953881 0.884477 0.075532
O O17 0.933938 0.000000 0.128117
O O18 0.892316 0.000000 0.912899
O O19 0.000000 0.891396 0.000000
O O20 0.478373 0.500000 0.350347
#
# Coordination Sequence:
#
# PCOD9184480 Si02
#       8
#     8   8   8   8   8   8   8   8
#     4  11  19  27  43  67  96 128 161 192 230 286
#     4  11  19  31  44  68 100 129 157 190 247 299
#     4   9  15  24  41  65  93 126 159 190 223 278
#     4  10  22  33  46  70  99 137 171 207 239 275
#     4  11  21  31  44  66 100 136 170 202 242 278
#     4   8  14  26  47  71  90 121 162 202 240 276
#     4   9  18  32  52  77 101 125 157 201 254 306
#     4  10  19  34  51  68  96 137 182 212 234 274
#
# _framework density 16.163782999999999
#
# number of rings (size 3 to 8) (size 9 to 14) (size 15 to 20)
#    0.000    2.125    1.250    5.625    1.750    3.750 
#    0.000    0.000    0.000    0.750    0.000    0.000 
#    0.000    0.500    0.000    0.500    0.000    0.000 
#
# Total GULP energy -178267.842085 kJ/mol
# GULP energy per Si atom -5570.870065 kJ/mol
# Density = 1.612699 g / cm^3
# Si number density = 16.163783 Si / 1000 Ang^3
#
#
#
# Elastic Constant Matrix: (Units=GPa)
#
#
# Indices 1 2 3 4 5 6 
#
# 1 44.6676 14.1332 20.7001 0.0000 6.2284 0.0000
# 2 14.1332 72.3096 32.2345 0.0000 -4.1834 0.0000
# 3 20.7001 32.2345 79.1106 0.0000 -12.5149 0.0000
# 4 0.0000 0.0000 0.0000 22.3219 0.0000 -5.5274
# 5 6.2284 -4.1834 -12.5149 0.0000 24.8277 0.0000
# 6 0.0000 0.0000 0.0000 -5.5274 0.0000 12.1289
#
#
#
# Elastic Compliance Matrix: (Units=1/GPa)
#
#
# Indices 1 2 3 4 5 6 
#
# 1 0.028719 -0.002582 -0.008336 0.000000 -0.011841 0.000000
# 2 -0.002582 0.017142 -0.006248 0.000000 0.000387 0.000000
# 3 -0.008336 -0.006248 0.019051 0.000000 0.010641 0.000000
# 4 0.000000 0.000000 0.000000 0.050498 0.000000 0.023013
# 5 -0.011841 0.000387 0.010641 0.000000 0.048677 0.000000
# 6 0.000000 0.000000 0.000000 0.023013 0.000000 0.092936
#
#
# Mechanical properties :
#
#
# Convention : Reuss Voigt Hill
#
# Bulk Modulus (GPa) = 32.70125 36.69148 34.69637
# Shear Modulus (GPa) = 16.58121 20.45702 18.51911
#
# Velocity S-wave (km/s) = 3.20632 3.56140 3.38852
# Velocity P-wave (km/s) = 5.82945 6.29766 6.06807
#
# Compressibility (1/GPa) = 0.03057987
#
# Stress axis : x y z
#
# Youngs Moduli (GPa) = 34.82048 58.33748 52.49159
#
# Poissons Ratio (x) = 0.15065 0.43755
# Poissons Ratio (y) = 0.08992 0.32795
# Poissons Ratio (z) = 0.29025 0.36447
#
# Static dielectric constant tensor:
#      x y z
#    x 1.550060 0.000000 -0.038520 
#    y 0.000000 1.590790 0.000000 
#    z -0.038520 0.000000 1.570010 
# 
# From -- ./inp_files/330511.got.cif
#   From: 2010.05.17/outbox.cif.g08.bks.cpg/sg12_166_cif.got.tgz:330511.got - 2010.06.03 13:09:07.
