data_PCOD9184429
_publ_section_title
;
Structure prediction by ZEFSAII (Michael W. Deem and Ramdas Pophale) SiO2 
 PCOD9184429
Probable space group: C 2/M
;
_chemical_formula_sum "Si O2"
_cell_formula_units_Z 42
_cell_length_a 9.456198
_cell_length_b 27.614405
_cell_length_c 8.793679
_cell_angle_alpha 90.000000
_cell_angle_beta 108.526793
_cell_angle_gamma 90.000000
_cell_volume 2177.265718
_symmetry_space_group_name_H-M "C 2/M"
_symmetry_group_IT_number 12
_symmetry_cell_setting 'monoclinic'
loop_
_space_group_symop_operation_xyz
x,y,z
-x,y,-z
-x,-y,-z
x,-y,z
1/2+x,1/2+y,z
1/2-x,1/2+y,-z
1/2-x,1/2-y,-z
1/2+x,1/2-y,z
loop_
_atom_site_type_symbol
_atom_site_label
_atom_site_fract_x
_atom_site_fract_y
_atom_site_fract_z
Si Si1 0.409320 0.767770 0.614177
Si Si2 0.463781 0.323095 0.162292
Si Si3 0.000000 0.000000 0.000000
Si Si4 0.861975 0.352124 0.840067
Si Si5 0.571204 0.573381 0.286324
Si Si6 0.240565 0.945719 0.644470
O O1 0.500000 0.785798 0.500000
O O2 0.250000 0.750000 0.500000
O O3 0.495354 0.722456 0.719120
O O4 0.389598 0.809660 0.729492
O O5 0.291920 0.338593 0.126309
O O6 0.559514 0.369776 0.246684
O O7 0.500000 0.311670 0.000000
O O8 0.924037 0.957757 0.864634
O O9 0.839239 0.402801 0.744989
O O10 0.000000 0.355178 0.000000
O O11 0.415583 0.558093 0.315454
O O12 0.697798 0.562728 0.453863
O O13 0.300033 0.000000 0.686099
#
# Coordination Sequence:
#
# PCOD9184429 Si02
#       6
#     8   8   2   8   8   8
#     4  12  25  44  68  95 126 168 213 274 335 393
#     4  11  24  40  65  97 129 167 214 268 319 389
#     4  12  16  30  56 108 130 158 202 280 322 374
#     4  11  26  44  63  95 131 175 221 265 326 388
#     4  10  19  33  61  98 129 160 211 268 326 378
#     4  10  19  38  62  88 127 173 212 262 321 387
#
# _framework density 19.290251999999999
#
# number of rings (size 3 to 8) (size 9 to 14) (size 15 to 20)
#    0.000    1.143    4.762    2.286    5.333    1.905 
#    0.000    0.000    0.000    0.571    0.000    0.000 
#    0.000    0.000    0.000    0.000    0.000    0.000 
#
# Total GULP energy -117110.692046 kJ/mol
# GULP energy per Si atom -5576.699621 kJ/mol
# Density = 1.924635 g / cm^3
# Si number density = 19.290252 Si / 1000 Ang^3
#
#
#
# Elastic Constant Matrix: (Units=GPa)
#
#
# Indices 1 2 3 4 5 6 
#
# 1 56.6137 26.0381 46.5371 0.0000 11.4828 0.0000
# 2 26.0381 148.4834 71.1949 0.0000 20.4236 0.0000
# 3 46.5371 71.1949 148.6604 0.0000 20.6476 0.0000
# 4 0.0000 0.0000 0.0000 -1.0251 0.0000 21.2688
# 5 11.4828 20.4236 20.6476 0.0000 32.7739 0.0000
# 6 0.0000 0.0000 0.0000 21.2688 0.0000 -5.8925
#
#
#
# Elastic Compliance Matrix: (Units=1/GPa)
#
#
# Indices 1 2 3 4 5 6 
#
# 1 0.024291 -0.000435 -0.006851 0.000000 -0.003923 0.000000
# 2 -0.000435 0.009043 -0.003762 0.000000 -0.003113 0.000000
# 3 -0.006851 -0.003762 0.010974 0.000000 -0.002169 0.000000
# 4 0.000000 0.000000 0.000000 0.013202 0.000000 0.047653
# 5 -0.003923 -0.003113 -0.002169 0.000000 0.035193 0.000000
# 6 0.000000 0.000000 0.000000 0.047653 0.000000 0.002297
#
#
# Mechanical properties :
#
#
# Convention : Reuss Voigt Hill
#
# Bulk Modulus (GPa) = 45.02078 71.25529 58.13803
# Shear Modulus (GPa) = 40.16032 19.17043 29.66537
#
# Velocity S-wave (km/s) = 4.56773 3.15586 3.92579
# Velocity P-wave (km/s) = 7.15599 7.09211 7.12412
#
# Compressibility (1/GPa) = 0.02221197
#
# Stress axis : x y z
#
# Youngs Moduli (GPa) = 41.16768 110.58078 91.12127
#
# Poissons Ratio (x) = 0.04813 0.62425
# Poissons Ratio (y) = 0.01792 0.34283
# Poissons Ratio (z) = 0.28203 0.41604
#
# Static dielectric constant tensor:
#      x y z
#    x 1.620730 0.000000 -0.006880 
#    y 0.000000 1.668190 0.000000 
#    z -0.006880 0.000000 1.656390 
# 
# From -- ./inp_files/41773.got.cif
#   From: 2010.05.17/outbox.cif.g08.bks.cpg/sg12_21_cif.got.tgz:41773.got - 2010.06.03 13:09:07.
