data_PCOD9184816
_publ_section_title
;
Structure prediction by ZEFSAII (Michael W. Deem and Ramdas Pophale) SiO2 
 PCOD9184816
Probable space group: C 2/M
;
_chemical_formula_sum "Si O2"
_cell_formula_units_Z 64
_cell_length_a 18.703592
_cell_length_b 21.185805
_cell_length_c 11.729347
_cell_angle_alpha 90.000000
_cell_angle_beta 43.198438
_cell_angle_gamma 90.000000
_cell_volume 3181.519253
_symmetry_space_group_name_H-M "C 2/M"
_symmetry_group_IT_number 12
_symmetry_cell_setting 'monoclinic'
loop_
_space_group_symop_operation_xyz
x,y,z
-x,y,-z
-x,-y,-z
x,-y,z
1/2+x,1/2+y,z
1/2-x,1/2+y,-z
1/2-x,1/2-y,-z
1/2+x,1/2-y,z
loop_
_atom_site_type_symbol
_atom_site_label
_atom_site_fract_x
_atom_site_fract_y
_atom_site_fract_z
Si Si1 0.962619 0.902764 0.669378
Si Si2 0.715045 0.175214 0.156525
Si Si3 0.345801 0.073497 0.216876
Si Si4 0.354369 0.568050 0.386434
Si Si5 0.922948 0.768615 0.797891
Si Si6 0.720433 0.317331 0.667148
Si Si7 0.216318 0.428028 0.970661
Si Si8 0.899971 0.699701 0.269579
O O1 0.977825 0.828470 0.677322
O O2 0.841834 0.920837 0.818347
O O3 0.000000 0.919075 0.500000
O O4 0.035064 0.933379 0.680040
O O5 0.624618 0.226306 0.246816
O O6 0.737106 0.160604 0.261073
O O7 0.822943 0.204588 0.982581
O O8 0.683644 0.118569 0.109111
O O9 0.234082 0.076171 0.412590
O O10 0.327937 0.086518 0.103814
O O11 0.409703 0.131078 0.199470
O O12 0.382788 0.000000 0.187269
O O13 0.334032 0.500000 0.353899
O O14 0.346838 0.626926 0.311157
O O15 0.996023 0.729054 0.797301
O O16 0.817684 0.306600 0.469286
O O17 0.653527 0.252544 0.749943
O O18 0.188841 0.500000 0.028581
#
# Coordination Sequence:
#
# PCOD9184816 Si02
#       8
#     8   8   8   8   8   8   8   8
#     4  11  20  31  58  90 118 151 197 245 297 353
#     4  10  24  40  56  83 118 157 196 236 295 354
#     4   9  19  35  57  84 116 150 191 247 300 343
#     4  10  19  34  54  85 120 152 189 240 298 349
#     4  10  23  39  56  86 117 153 194 243 292 351
#     4  10  22  37  58  88 116 154 197 235 288 354
#     4  10  21  38  57  82 119 159 197 241 295 355
#     4  10  21  37  62  85 115 150 196 249 290 339
#
# _framework density 20.116174999999998
#
# number of rings (size 3 to 8) (size 9 to 14) (size 15 to 20)
#    0.000    2.000    2.500    0.375    7.000    1.500 
#    0.000    0.625    0.000    3.750    0.000    4.375 
#    0.000    0.000    0.000    0.000    0.000    0.000 
#
# Total GULP energy -178692.906547 kJ/mol
# GULP energy per Si atom -5584.153330 kJ/mol
# Density = 2.007039 g / cm^3
# Si number density = 20.116175 Si / 1000 Ang^3
#
#
#
# Elastic Constant Matrix: (Units=GPa)
#
#
# Indices 1 2 3 4 5 6 
#
# 1 86.2022 59.8574 9.0719 0.0000 18.3415 0.0000
# 2 59.8574 133.4961 13.1041 0.0000 18.0061 0.0000
# 3 9.0719 13.1041 15.7285 0.0000 10.4738 0.0000
# 4 0.0000 0.0000 0.0000 10.9584 0.0000 -1.4745
# 5 18.3415 18.0061 10.4738 0.0000 31.6334 0.0000
# 6 0.0000 0.0000 0.0000 -1.4745 0.0000 29.5019
#
#
#
# Elastic Compliance Matrix: (Units=1/GPa)
#
#
# Indices 1 2 3 4 5 6 
#
# 1 0.017937 -0.007180 -0.000205 0.000000 -0.006245 0.000000
# 2 -0.007180 0.011271 -0.004810 0.000000 -0.000660 0.000000
# 3 -0.000205 -0.004810 0.084414 0.000000 -0.025093 0.000000
# 4 0.000000 0.000000 0.000000 0.091872 0.000000 0.004592
# 5 -0.006245 -0.000660 -0.025093 0.000000 0.043917 0.000000
# 6 0.000000 0.000000 0.000000 0.004592 0.000000 0.034126
#
#
# Mechanical properties :
#
#
# Convention : Reuss Voigt Hill
#
# Bulk Modulus (GPa) = 11.20660 44.38818 27.79739
# Shear Modulus (GPa) = 14.80731 24.64496 19.72613
#
# Velocity S-wave (km/s) = 2.71604 3.50398 3.13487
# Velocity P-wave (km/s) = 3.92669 6.20358 5.19149
#
# Compressibility (1/GPa) = 0.08923314
#
# Stress axis : x y z
#
# Youngs Moduli (GPa) = 55.75157 88.71956 11.84635
#
# Poissons Ratio (x) = 0.63701 0.00242
# Poissons Ratio (y) = 0.40030 0.05698
# Poissons Ratio (z) = 0.01141 0.42673
#
# Static dielectric constant tensor:
#      x y z
#    x 1.678300 0.000000 -0.018620 
#    y 0.000000 1.760720 0.000000 
#    z -0.018620 0.000000 1.699500 
# 
# From -- ./inp_files/159560.got.cif
#   From: 2010.05.17/outbox.cif.g08.bks.cpg/sg12_80_cif.got.tgz:159560.got - 2010.06.03 13:09:07.
