data_PCOD9184564
_publ_section_title
;
Structure prediction by ZEFSAII (Michael W. Deem and Ramdas Pophale) SiO2 
 PCOD9184564
Probable space group: C 2/M
;
_chemical_formula_sum "Si O2"
_cell_formula_units_Z 64
_cell_length_a 14.247463
_cell_length_b 22.245338
_cell_length_c 9.920906
_cell_angle_alpha 90.000000
_cell_angle_beta 90.217271
_cell_angle_gamma 90.000000
_cell_volume 3144.305670
_symmetry_space_group_name_H-M "C 2/M"
_symmetry_group_IT_number 12
_symmetry_cell_setting 'monoclinic'
loop_
_space_group_symop_operation_xyz
x,y,z
-x,y,-z
-x,-y,-z
x,-y,z
1/2+x,1/2+y,z
1/2-x,1/2+y,-z
1/2-x,1/2-y,-z
1/2+x,1/2-y,z
loop_
_atom_site_type_symbol
_atom_site_label
_atom_site_fract_x
_atom_site_fract_y
_atom_site_fract_z
Si Si1 0.733026 0.432558 0.153572
Si Si2 0.104882 0.571770 0.032186
Si Si3 0.020563 0.932679 0.158016
Si Si4 0.078966 0.603570 0.327258
Si Si5 0.134329 0.596426 0.618851
Si Si6 0.878514 0.257044 0.640775
Si Si7 0.658635 0.760604 0.658135
Si Si8 0.019333 0.194279 0.838947
O O1 0.717196 0.500000 0.099306
O O2 0.628167 0.409672 0.169233
O O3 0.785582 0.434718 0.295758
O O4 0.810011 0.402331 0.056427
O O5 0.101115 0.500000 0.004491
O O6 0.123299 0.583273 0.188518
O O7 0.000000 0.596145 0.000000
O O8 0.959837 0.875269 0.200921
O O9 0.009918 0.000000 0.218534
O O10 0.000000 0.938965 0.000000
O O11 0.131148 0.581557 0.461327
O O12 0.080097 0.675833 0.342020
O O13 0.970592 0.582338 0.329006
O O14 0.151466 0.667476 0.642310
O O15 0.767051 0.257993 0.665309
O O16 0.886220 0.237354 0.483763
O O17 0.931488 0.216807 0.749571
O O18 0.603387 0.735922 0.786082
O O19 0.000000 0.198373 0.000000
#
# Coordination Sequence:
#
# PCOD9184564 Si02
#       8
#     8   8   8   8   8   8   8   8
#     4  10  20  35  58  82 109 149 192 234 286 343
#     4  10  20  34  51  78 111 146 187 230 280 337
#     4   9  20  39  60  83 112 148 190 237 288 339
#     4  10  20  32  52  77 112 149 187 225 279 331
#     4  10  19  34  52  78 112 150 186 229 273 340
#     4  10  21  38  58  82 113 156 191 233 279 343
#     4  10  21  38  59  80 114 155 195 227 284 343
#     4  11  22  35  58  89 115 146 188 242 287 335
#
# _framework density 20.354255999999999
#
# number of rings (size 3 to 8) (size 9 to 14) (size 15 to 20)
#    0.000    2.000    2.500    1.125    0.000    4.500 
#    0.000    1.250    0.000    1.500    0.000    7.000 
#    0.000    0.000    0.000    0.000    0.000    0.000 
#
# Total GULP energy -178431.131487 kJ/mol
# GULP energy per Si atom -5575.972859 kJ/mol
# Density = 2.030793 g / cm^3
# Si number density = 20.354256 Si / 1000 Ang^3
#
#
#
# Elastic Constant Matrix: (Units=GPa)
#
#
# Indices 1 2 3 4 5 6 
#
# 1 47.8935 5.6976 16.0040 0.0000 13.4125 0.0000
# 2 5.6976 44.5623 6.1358 0.0000 0.1971 0.0000
# 3 16.0040 6.1358 91.5160 0.0000 4.5171 0.0000
# 4 0.0000 0.0000 0.0000 17.8292 0.0000 10.0511
# 5 13.4125 0.1971 4.5171 0.0000 26.1125 0.0000
# 6 0.0000 0.0000 0.0000 10.0511 0.0000 -1.4316
#
#
#
# Elastic Compliance Matrix: (Units=1/GPa)
#
#
# Indices 1 2 3 4 5 6 
#
# 1 0.026011 -0.002755 -0.003737 0.000000 -0.012693 0.000000
# 2 -0.002755 0.022942 -0.001127 0.000000 0.001437 0.000000
# 3 -0.003737 -0.001127 0.011661 0.000000 -0.000089 0.000000
# 4 0.000000 0.000000 0.000000 0.011312 0.000000 0.079425
# 5 -0.012693 0.001437 -0.000089 0.000000 0.044820 0.000000
# 6 0.000000 0.000000 0.000000 0.079425 0.000000 -0.140890
#
#
# Mechanical properties :
#
#
# Convention : Reuss Voigt Hill
#
# Bulk Modulus (GPa) = 22.03920 26.62743 24.33332
# Shear Modulus (GPa) = 803.84030 18.91097 411.37564
#
# Velocity S-wave (km/s) = 19.89428 3.05141 14.23189
# Velocity P-wave (km/s) = 23.20692 5.05225 16.79414
#
# Compressibility (1/GPa) = 0.04537370
#
# Stress axis : x y z
#
# Youngs Moduli (GPa) = 38.44537 43.58892 85.75876
#
# Poissons Ratio (x) = 0.12008 0.32052
# Poissons Ratio (y) = 0.10591 0.09668
# Poissons Ratio (z) = 0.14369 0.04914
#
# Static dielectric constant tensor:
#      x y z
#    x 1.761730 0.000000 -0.012460 
#    y 0.000000 1.763980 0.000000 
#    z -0.012460 0.000000 1.719940 
# 
# From -- ./inp_files/65905.got.cif
#   From: 2010.05.17/outbox.cif.g08.bks.cpg/sg12_33_cif.got.tgz:65905.got - 2010.06.03 13:09:07.
