data_PCOD9184377
_publ_section_title
;
Structure prediction by ZEFSAII (Michael W. Deem and Ramdas Pophale) SiO2 
 PCOD9184377
Probable space group: C 2/M
;
_chemical_formula_sum "Si O2"
_cell_formula_units_Z 58
_cell_length_a 22.731258
_cell_length_b 14.514937
_cell_length_c 15.882747
_cell_angle_alpha 90.000000
_cell_angle_beta 149.764108
_cell_angle_gamma 90.000000
_cell_volume 2638.861244
_symmetry_space_group_name_H-M "C 2/M"
_symmetry_group_IT_number 12
_symmetry_cell_setting 'monoclinic'
loop_
_space_group_symop_operation_xyz
x,y,z
-x,y,-z
-x,-y,-z
x,-y,z
1/2+x,1/2+y,z
1/2-x,1/2+y,-z
1/2-x,1/2-y,-z
1/2+x,1/2-y,z
loop_
_atom_site_type_symbol
_atom_site_label
_atom_site_fract_x
_atom_site_fract_y
_atom_site_fract_z
Si Si1 0.386913 0.900872 0.300194
Si Si2 0.180342 0.849342 0.167563
Si Si3 0.301481 0.835977 0.734034
Si Si4 0.500000 0.500000 0.000000
Si Si5 0.981619 0.262231 0.822132
Si Si6 0.334839 0.105671 0.961194
Si Si7 0.925228 0.103412 0.631273
Si Si8 0.416759 0.305777 0.313511
O O1 0.500000 0.903863 0.500000
O O2 0.272940 0.893806 0.219064
O O3 0.397778 0.802113 0.268710
O O4 0.381380 0.000000 0.247432
O O5 0.243417 0.767113 0.296271
O O6 0.082383 0.796041 0.992910
O O7 0.104230 0.920440 0.126676
O O8 0.398416 0.813802 0.784609
O O9 0.348317 0.883835 0.876277
O O10 0.196430 0.894974 0.568135
O O11 0.916021 0.184889 0.687712
O O12 0.055987 0.339263 0.865208
O O13 0.210550 0.152378 0.826360
O O14 0.332799 0.000000 0.982302
O O15 0.023645 0.136551 0.687311
O O16 0.950051 0.000000 0.695683
O O17 0.500000 0.312241 0.500000
#
# Coordination Sequence:
#
# PCOD9184377 Si02
#       8
#     8   8   8   2   8   8   8   8
#     4  10  19  33  59  92 126 165 210 267 329 379
#     4  11  20  38  64  95 130 171 221 275 318 390
#     4  11  21  42  66  96 130 172 219 283 325 380
#     4  12  20  32  70 100 126 176 234 256 328 394
#     4  11  25  42  60  95 139 171 210 272 338 396
#     4  11  22  40  71  99 128 172 226 276 330 388
#     4  12  27  43  68  96 132 180 223 272 341 407
#     4  11  21  42  67  97 131 167 226 288 325 386
#
# _framework density 21.979178000000001
#
# number of rings (size 3 to 8) (size 9 to 14) (size 15 to 20)
#    0.000    0.966    6.207    3.310    0.966    2.759 
#    0.000    0.690    1.517    0.000    0.000    0.000 
#    0.000    0.000    0.000    0.000    0.000    0.000 
#
# Total GULP energy -161711.843190 kJ/mol
# GULP energy per Si atom -5576.270455 kJ/mol
# Density = 2.192915 g / cm^3
# Si number density = 21.979178 Si / 1000 Ang^3
#
#
#
# Elastic Constant Matrix: (Units=GPa)
#
#
# Indices 1 2 3 4 5 6 
#
# 1 80.8265 11.1247 18.6969 0.0000 17.5972 0.0000
# 2 11.1247 169.0676 21.2940 0.0000 5.7632 0.0000
# 3 18.6969 21.2940 27.0963 0.0000 13.0605 0.0000
# 4 0.0000 0.0000 0.0000 19.7919 0.0000 -11.5836
# 5 17.5972 5.7632 13.0605 0.0000 25.3196 0.0000
# 6 0.0000 0.0000 0.0000 -11.5836 0.0000 16.6235
#
#
#
# Elastic Compliance Matrix: (Units=1/GPa)
#
#
# Indices 1 2 3 4 5 6 
#
# 1 0.015616 0.000159 -0.007522 0.000000 -0.007010 0.000000
# 2 0.000159 0.006612 -0.006025 0.000000 0.001493 0.000000
# 3 -0.007522 -0.006025 0.058094 0.000000 -0.023367 0.000000
# 4 0.000000 0.000000 0.000000 0.085323 0.000000 0.059455
# 5 -0.007010 0.001493 -0.023367 0.000000 0.056080 0.000000
# 6 0.000000 0.000000 0.000000 0.059455 0.000000 0.101585
#
#
# Mechanical properties :
#
#
# Convention : Reuss Voigt Hill
#
# Bulk Modulus (GPa) = 18.67559 42.13571 30.40565
# Shear Modulus (GPa) = 13.58932 27.40533 20.49732
#
# Velocity S-wave (km/s) = 2.48922 3.53495 3.05713
# Velocity P-wave (km/s) = 4.09598 5.98945 5.13081
#
# Compressibility (1/GPa) = 0.05354583
#
# Stress axis : x y z
#
# Youngs Moduli (GPa) = 64.03548 151.23188 17.21362
#
# Poissons Ratio (x) = -0.02400 0.12947
# Poissons Ratio (y) = -0.01016 0.10372
# Poissons Ratio (z) = 0.48165 0.91123
#
# Static dielectric constant tensor:
#      x y z
#    x 1.836070 0.000000 -0.045820 
#    y 0.000000 1.852490 0.000000 
#    z -0.045820 0.000000 1.807090 
# 
# From -- ./inp_files/289941.got.cif
#   From: 2010.05.17/outbox.cif.g08.bks.cpg/sg12_145_cif.got.tgz:289941.got - 2010.06.03 13:09:07.
