data_PCOD9184336
_publ_section_title
;
Structure prediction by ZEFSAII (Michael W. Deem and Ramdas Pophale) SiO2 
 PCOD9184336
Probable space group: C 2/M
;
_chemical_formula_sum "Si O2"
_cell_formula_units_Z 42
_cell_length_a 8.583495
_cell_length_b 30.888536
_cell_length_c 9.620547
_cell_angle_alpha 90.000000
_cell_angle_beta 43.484944
_cell_angle_gamma 90.000000
_cell_volume 1755.307308
_symmetry_space_group_name_H-M "C 2/M"
_symmetry_group_IT_number 12
_symmetry_cell_setting 'monoclinic'
loop_
_space_group_symop_operation_xyz
x,y,z
-x,y,-z
-x,-y,-z
x,-y,z
1/2+x,1/2+y,z
1/2-x,1/2+y,-z
1/2-x,1/2-y,-z
1/2+x,1/2-y,z
loop_
_atom_site_type_symbol
_atom_site_label
_atom_site_fract_x
_atom_site_fract_y
_atom_site_fract_z
Si Si1 0.925927 0.710316 0.388928
Si Si2 0.500000 0.000000 0.000000
Si Si3 0.682953 0.547559 0.682178
Si Si4 0.336252 0.935507 0.886204
Si Si5 0.170481 0.337336 0.019548
Si Si6 0.892736 0.132065 0.425360
O O1 0.750000 0.750000 0.500000
O O2 0.137905 0.703086 0.146580
O O3 0.780986 0.669691 0.432521
O O4 0.000000 0.705307 0.500000
O O5 0.502808 0.962135 0.876193
O O6 0.713739 0.500000 0.599216
O O7 0.820997 0.550854 0.735995
O O8 0.720634 0.590470 0.569918
O O9 0.414415 0.551584 0.893107
O O10 0.365188 0.884249 0.884796
O O11 0.420077 0.344981 0.793797
O O12 0.000000 0.332095 0.000000
O O13 0.000000 0.117270 0.500000
#
# Coordination Sequence:
#
# PCOD9184336 Si02
#       6
#     8   2   8   8   8   8
#     4  12  28  51  76 107 143 179 235 307 368 440
#     4  12  16  26  56  96 138 178 242 298 338 404
#     4  10  19  36  60  93 145 192 236 296 355 419
#     4  10  19  33  59 100 135 184 242 291 348 423
#     4  11  23  43  76 104 140 190 234 292 366 428
#     4  11  24  45  72 105 144 193 246 296 357 433
#
# _framework density 23.927434999999999
#
# number of rings (size 3 to 8) (size 9 to 14) (size 15 to 20)
#    0.000    1.143    4.762    2.286    0.000    3.429 
#    0.000    0.000    2.095    1.714    0.000    0.000 
#    0.000    0.000    0.000    0.000    0.000    0.000 
#
# Total GULP energy -117220.993287 kJ/mol
# GULP energy per Si atom -5581.952061 kJ/mol
# Density = 2.387298 g / cm^3
# Si number density = 23.927435 Si / 1000 Ang^3
#
#
#
# Elastic Constant Matrix: (Units=GPa)
#
#
# Indices 1 2 3 4 5 6 
#
# 1 58.5318 19.6493 16.0586 0.0000 23.4345 0.0000
# 2 19.6493 115.5163 35.0736 0.0000 6.9958 0.0000
# 3 16.0586 35.0736 103.1687 0.0000 2.6737 0.0000
# 4 0.0000 0.0000 0.0000 27.2804 0.0000 25.0409
# 5 23.4345 6.9958 2.6737 0.0000 48.3401 0.0000
# 6 0.0000 0.0000 0.0000 25.0409 0.0000 -245.6617
#
#
#
# Elastic Compliance Matrix: (Units=1/GPa)
#
#
# Indices 1 2 3 4 5 6 
#
# 1 0.022822 -0.002505 -0.002427 0.000000 -0.010567 0.000000
# 2 -0.002505 0.010000 -0.003008 0.000000 -0.000066 0.000000
# 3 -0.002427 -0.003008 0.011067 0.000000 0.001000 0.000000
# 4 0.000000 0.000000 0.000000 0.033520 0.000000 0.003417
# 5 -0.010567 -0.000066 0.001000 0.000000 0.025764 0.000000
# 6 0.000000 0.000000 0.000000 0.003417 0.000000 -0.003722
#
#
# Mechanical properties :
#
#
# Convention : Reuss Voigt Hill
#
# Bulk Modulus (GPa) = 35.70200 46.53110 41.11655
# Shear Modulus (GPa) = 40.10640 -20.24590 9.93025
#
# Velocity S-wave (km/s) = 4.09854 -2.91200 2.03940
# Velocity P-wave (km/s) = 6.11153 2.86053 4.77145
#
# Compressibility (1/GPa) = 0.02800963
#
# Stress axis : x y z
#
# Youngs Moduli (GPa) = 43.81669 99.99725 90.35607
#
# Poissons Ratio (x) = 0.25052 0.21928
# Poissons Ratio (y) = 0.10977 0.27180
# Poissons Ratio (z) = 0.10634 0.30080
#
# Static dielectric constant tensor:
#      x y z
#    x 1.898390 0.000000 -0.126590 
#    y 0.000000 1.800110 0.000000 
#    z -0.126590 0.000000 1.949520 
# 
# From -- ./inp_files/42063.got.cif
#   From: 2010.05.17/outbox.cif.g08.bks.cpg/sg12_22_cif.got.tgz:42063.got - 2010.06.03 13:09:07.
