data_PCOD9184758
_publ_section_title
;
Structure prediction by ZEFSAII (Michael W. Deem and Ramdas Pophale) SiO2 
 PCOD9184758
Probable space group: C 2/M
;
_chemical_formula_sum "Si O2"
_cell_formula_units_Z 56
_cell_length_a 21.272098
_cell_length_b 8.003414
_cell_length_c 18.156280
_cell_angle_alpha 90.000000
_cell_angle_beta 109.158175
_cell_angle_gamma 90.000000
_cell_volume 2919.899222
_symmetry_space_group_name_H-M "C 2/M"
_symmetry_group_IT_number 12
_symmetry_cell_setting 'monoclinic'
loop_
_space_group_symop_operation_xyz
x,y,z
-x,y,-z
-x,-y,-z
x,-y,z
1/2+x,1/2+y,z
1/2-x,1/2+y,-z
1/2-x,1/2-y,-z
1/2+x,1/2-y,z
loop_
_atom_site_type_symbol
_atom_site_label
_atom_site_fract_x
_atom_site_fract_y
_atom_site_fract_z
Si Si1 0.174896 0.703027 0.662279
Si Si2 0.675785 0.201316 0.495536
Si Si3 0.799409 0.802068 0.923007
Si Si4 0.433348 0.802824 0.262708
Si Si5 0.322361 0.800836 0.771479
Si Si6 0.584128 0.794721 0.325808
Si Si7 0.847554 0.804584 0.096787
O O1 0.174400 0.500000 0.663430
O O2 0.163046 0.759729 0.573920
O O3 0.118570 0.765710 0.696931
O O4 0.247994 0.756900 0.716267
O O5 0.750000 0.250000 0.500000
O O6 0.623499 0.259806 0.414096
O O7 0.672439 0.000000 0.495266
O O8 0.831835 0.770599 0.856745
O O9 0.726521 0.719296 0.898283
O O10 0.788394 0.000000 0.928447
O O11 0.840868 0.742368 0.010064
O O12 0.508101 0.735476 0.295313
O O13 0.400133 0.781394 0.170152
O O14 0.438694 0.000000 0.280016
O O15 0.374478 0.740657 0.730141
O O16 0.327710 0.000000 0.778374
O O17 0.584414 0.000000 0.325364
O O18 0.863734 0.000000 0.101729
#
# Coordination Sequence:
#
# PCOD9184758 Si02
#       7
#     8   8   8   8   8   8   8
#     4  10  20  32  54  82 106 139 182 227 270 318
#     4  10  19  34  54  79 109 140 182 228 271 317
#     4  10  20  34  54  81 110 139 179 224 266 319
#     4  10  20  36  55  78 111 146 182 221 270 324
#     4  11  20  33  55  81 109 142 182 224 266 318
#     4   9  20  36  54  78 110 148 182 221 270 322
#     4  10  20  34  54  81 110 141 177 221 272 319
#
# _framework density 19.178743999999998
#
# number of rings (size 3 to 8) (size 9 to 14) (size 15 to 20)
#    0.000    2.000    2.857    1.286    0.000    2.286 
#    0.000    5.714    0.000    4.286    0.000    3.000 
#    0.000    0.000    0.000    0.000    0.000    0.000 
#
# Total GULP energy -156298.795020 kJ/mol
# GULP energy per Si atom -5582.099822 kJ/mol
# Density = 1.913509 g / cm^3
# Si number density = 19.178744 Si / 1000 Ang^3
#
#
#
# Elastic Constant Matrix: (Units=GPa)
#
#
# Indices 1 2 3 4 5 6 
#
# 1 136.4452 -0.4254 79.4769 0.0000 3.6881 0.0000
# 2 -0.4254 9.9699 -5.6591 0.0000 -3.2496 0.0000
# 3 79.4769 -5.6591 146.4802 0.0000 -7.6818 0.0000
# 4 0.0000 0.0000 0.0000 22.4909 0.0000 0.8789
# 5 3.6881 -3.2496 -7.6818 0.0000 31.8061 0.0000
# 6 0.0000 0.0000 0.0000 0.8789 0.0000 18.6180
#
#
#
# Elastic Compliance Matrix: (Units=1/GPa)
#
#
# Indices 1 2 3 4 5 6 
#
# 1 0.011108 -0.004196 -0.006360 0.000000 -0.003253 0.000000
# 2 -0.004196 0.108529 0.007167 0.000000 0.013306 0.000000
# 3 -0.006360 0.007167 0.010768 0.000000 0.004070 0.000000
# 4 0.000000 0.000000 0.000000 0.044545 0.000000 -0.002103
# 5 -0.003253 0.013306 0.004070 0.000000 0.034160 0.000000
# 6 0.000000 0.000000 0.000000 -0.002103 0.000000 0.053811
#
#
# Mechanical properties :
#
#
# Convention : Reuss Voigt Hill
#
# Bulk Modulus (GPa) = 8.08881 48.85334 28.47108
# Shear Modulus (GPa) = 16.08200 29.21652 22.64926
#
# Velocity S-wave (km/s) = 2.89888 3.90728 3.44023
# Velocity P-wave (km/s) = 3.92829 6.77376 5.53693
#
# Compressibility (1/GPa) = 0.12362759
#
# Stress axis : x y z
#
# Youngs Moduli (GPa) = 90.02318 9.21416 92.86856
#
# Poissons Ratio (x) = 0.03866 0.59062
# Poissons Ratio (y) = 0.37776 -0.66563
# Poissons Ratio (z) = 0.57253 -0.06604
#
# Static dielectric constant tensor:
#      x y z
#    x 1.642230 0.000000 -0.021830 
#    y 0.000000 1.695370 0.000000 
#    z -0.021830 0.000000 1.669100 
# 
# From -- ./inp_files/281743.got.cif
#   From: 2010.05.17/outbox.cif.g08.bks.cpg/sg12_141_cif.got.tgz:281743.got - 2010.06.03 13:09:07.
