data_PCOD9184788
_publ_section_title
;
Structure prediction by ZEFSAII (Michael W. Deem and Ramdas Pophale) SiO2 
 PCOD9184788
Probable space group: C 2/M
;
_chemical_formula_sum "Si O2"
_cell_formula_units_Z 60
_cell_length_a 18.556951
_cell_length_b 11.045485
_cell_length_c 24.124037
_cell_angle_alpha 90.000000
_cell_angle_beta 42.236377
_cell_angle_gamma 90.000000
_cell_volume 3323.792890
_symmetry_space_group_name_H-M "C 2/M"
_symmetry_group_IT_number 12
_symmetry_cell_setting 'monoclinic'
loop_
_space_group_symop_operation_xyz
x,y,z
-x,y,-z
-x,-y,-z
x,-y,z
1/2+x,1/2+y,z
1/2-x,1/2+y,-z
1/2-x,1/2-y,-z
1/2+x,1/2-y,z
loop_
_atom_site_type_symbol
_atom_site_label
_atom_site_fract_x
_atom_site_fract_y
_atom_site_fract_z
Si Si1 0.950595 0.141300 0.402125
Si Si2 0.500000 0.253008 0.000000
Si Si3 0.271887 0.143159 0.154525
Si Si4 0.177634 0.140659 0.323198
Si Si5 0.844933 0.289265 0.875015
Si Si6 0.027123 0.365828 0.691315
Si Si7 0.112810 0.134897 0.042559
Si Si8 0.272615 0.640581 0.586682
O O1 0.981404 0.244273 0.340440
O O2 0.844361 0.185182 0.494809
O O3 0.050340 0.139090 0.387430
O O4 0.938952 0.000000 0.388288
O O5 0.396349 0.175413 0.076145
O O6 0.541897 0.327692 0.029651
O O7 0.230219 0.193205 0.237409
O O8 0.204410 0.195745 0.141753
O O9 0.256047 0.000000 0.163597
O O10 0.205774 0.198813 0.365896
O O11 0.215343 0.000000 0.303647
O O12 0.893078 0.225931 0.902278
O O13 0.937962 0.358960 0.789921
O O14 0.738618 0.361950 0.953565
O O15 0.016534 0.500000 0.669846
O O16 0.147257 0.358753 0.646473
O O17 0.083459 0.000000 0.076963
O O18 0.308806 0.500000 0.569932
#
# Coordination Sequence:
#
# PCOD9184788 Si02
#       8
#     8   4   8   8   8   8   8   8
#     4  10  19  35  59  84 109 146 191 234 277 330
#     4  10  22  34  54  84 110 144 176 220 290 342
#     4  10  19  34  54  81 111 141 183 234 279 322
#     4   9  17  31  55  81 108 142 184 233 274 318
#     4  10  21  36  56  80 106 147 190 225 271 329
#     4  11  22  36  56  84 116 149 181 228 283 336
#     4  10  21  38  57  78 109 146 186 229 275 334
#     4   9  19  33  53  82 113 146 187 233 281 329
#
# _framework density 18.051666000000001
#
# number of rings (size 3 to 8) (size 9 to 14) (size 15 to 20)
#    0.000    2.133    1.333    2.000    1.867    2.133 
#    0.000    1.333    0.000    2.400    0.000    0.000 
#    0.000    0.000    0.000    0.000    0.000    0.000 
#
# Total GULP energy -167039.771347 kJ/mol
# GULP energy per Si atom -5567.992378 kJ/mol
# Density = 1.801058 g / cm^3
# Si number density = 18.051666 Si / 1000 Ang^3
#
#
#
# Elastic Constant Matrix: (Units=GPa)
#
#
# Indices 1 2 3 4 5 6 
#
# 1 64.6464 26.8633 17.1765 0.0000 11.6138 0.0000
# 2 26.8633 71.7753 13.5248 0.0000 11.9761 0.0000
# 3 17.1765 13.5248 89.9002 0.0000 -5.7373 0.0000
# 4 0.0000 0.0000 0.0000 19.2605 0.0000 -0.0578
# 5 11.6138 11.9761 -5.7373 0.0000 24.7607 0.0000
# 6 0.0000 0.0000 0.0000 -0.0578 0.0000 6.4562
#
#
#
# Elastic Compliance Matrix: (Units=1/GPa)
#
#
# Indices 1 2 3 4 5 6 
#
# 1 0.020068 -0.005605 -0.003470 0.000000 -0.007506 0.000000
# 2 -0.005605 0.017443 -0.001953 0.000000 -0.006260 0.000000
# 3 -0.003470 -0.001953 0.012428 0.000000 0.005452 0.000000
# 4 0.000000 0.000000 0.000000 0.051921 0.000000 0.000465
# 5 -0.007506 -0.006260 0.005452 0.000000 0.048198 0.000000
# 6 0.000000 0.000000 0.000000 0.000465 0.000000 0.154895
#
#
# Mechanical properties :
#
#
# Convention : Reuss Voigt Hill
#
# Bulk Modulus (GPa) = 35.86304 37.93902 36.90103
# Shear Modulus (GPa) = 14.86754 21.34594 18.10674
#
# Velocity S-wave (km/s) = 2.87297 3.44247 3.17053
# Velocity P-wave (km/s) = 5.56016 6.07152 5.82145
#
# Compressibility (1/GPa) = 0.02788386
#
# Stress axis : x y z
#
# Youngs Moduli (GPa) = 49.83002 57.33116 80.46240
#
# Poissons Ratio (x) = 0.32132 0.27921
# Poissons Ratio (y) = 0.27928 0.15713
# Poissons Ratio (z) = 0.17292 0.11196
#
# Static dielectric constant tensor:
#      x y z
#    x 1.609670 0.000000 0.024750 
#    y 0.000000 1.628960 0.000000 
#    z 0.024750 0.000000 1.650570 
# 
# From -- ./inp_files/343366.got.cif
#   From: 2010.05.17/outbox.cif.g08.bks.cpg/sg12_172_cif.got.tgz:343366.got - 2010.06.03 13:09:07.
