data_PCOD9184206
_publ_section_title
;
Structure prediction by ZEFSAII (Michael W. Deem and Ramdas Pophale) SiO2 
 PCOD9184206
Probable space group: C 2/M
;
_chemical_formula_sum "Si O2"
_cell_formula_units_Z 48
_cell_length_a 13.885239
_cell_length_b 19.182203
_cell_length_c 14.323839
_cell_angle_alpha 90.000000
_cell_angle_beta 137.997359
_cell_angle_gamma 90.000000
_cell_volume 2552.962290
_symmetry_space_group_name_H-M "C 2/M"
_symmetry_group_IT_number 12
_symmetry_cell_setting 'monoclinic'
loop_
_space_group_symop_operation_xyz
x,y,z
-x,y,-z
-x,-y,-z
x,-y,z
1/2+x,1/2+y,z
1/2-x,1/2+y,-z
1/2-x,1/2-y,-z
1/2+x,1/2-y,z
loop_
_atom_site_type_symbol
_atom_site_label
_atom_site_fract_x
_atom_site_fract_y
_atom_site_fract_z
Si Si1 0.860047 0.580683 0.595249
Si Si2 0.054478 0.917214 0.823253
Si Si3 0.627202 0.666652 0.155736
Si Si4 0.690606 0.082332 0.864264
Si Si5 0.854139 0.291934 0.452912
Si Si6 0.417904 0.640789 0.538993
O O1 0.854957 0.500000 0.560197
O O2 0.833921 0.636994 0.495201
O O3 0.727920 0.595538 0.569046
O O4 0.020332 0.594581 0.749200
O O5 0.951986 0.886314 0.830433
O O6 0.012885 0.885016 0.694177
O O7 0.034746 0.000000 0.803851
O O8 0.216061 0.902148 0.976118
O O9 0.738334 0.626145 0.168359
O O10 0.720870 0.717833 0.286603
O O11 0.500000 0.697397 0.000000
O O12 0.711132 0.000000 0.858730
O O13 0.876028 0.221509 0.526573
O O14 0.000000 0.301338 0.500000
O O15 0.500000 0.637219 0.500000
#
# Coordination Sequence:
#
# PCOD9184206 Si02
#       6
#     8   8   8   8   8   8
#     4  11  22  37  61  89 116 151 195 247 298 343
#     4  10  20  36  59  87 119 158 198 237 290 350
#     4  10  19  33  57  90 123 153 183 230 301 367
#     4   9  19  35  57  91 125 147 181 242 307 361
#     4  11  22  39  59  86 125 154 189 242 298 355
#     4  11  25  41  58  80 118 164 207 244 277 335
#
# _framework density 18.801686
#
# number of rings (size 3 to 8) (size 9 to 14) (size 15 to 20)
#    0.000    1.667    3.333    1.500    0.000    4.333 
#    0.000    5.000    0.000    3.000    0.000    0.000 
#    0.000    0.000    0.000    0.000    0.000    0.000 
#
# Total GULP energy -133905.130734 kJ/mol
# GULP energy per Si atom -5579.380447 kJ/mol
# Density = 1.875889 g / cm^3
# Si number density = 18.801686 Si / 1000 Ang^3
#
#
#
# Elastic Constant Matrix: (Units=GPa)
#
#
# Indices 1 2 3 4 5 6 
#
# 1 70.1149 12.8326 33.0254 0.0000 1.8163 0.0000
# 2 12.8326 56.9242 31.4166 0.0000 -6.3057 0.0000
# 3 33.0254 31.4166 135.1422 0.0000 5.8271 0.0000
# 4 0.0000 0.0000 0.0000 25.6604 0.0000 -2.0018
# 5 1.8163 -6.3057 5.8271 0.0000 28.4435 0.0000
# 6 0.0000 0.0000 0.0000 -2.0018 0.0000 13.6603
#
#
#
# Elastic Compliance Matrix: (Units=1/GPa)
#
#
# Indices 1 2 3 4 5 6 
#
# 1 0.016272 -0.001801 -0.003527 0.000000 -0.000716 0.000000
# 2 -0.001801 0.021235 -0.004746 0.000000 0.005795 0.000000
# 3 -0.003527 -0.004746 0.009484 0.000000 -0.002770 0.000000
# 4 0.000000 0.000000 0.000000 0.039421 0.000000 0.005777
# 5 -0.000716 0.005795 -0.002770 0.000000 0.037055 0.000000
# 6 0.000000 0.000000 0.000000 0.005777 0.000000 0.074051
#
#
# Mechanical properties :
#
#
# Convention : Reuss Voigt Hill
#
# Bulk Modulus (GPa) = 37.25435 46.30339 41.77887
# Shear Modulus (GPa) = 22.06399 25.87997 23.97198
#
# Velocity S-wave (km/s) = 3.42937 3.71411 3.57458
# Velocity P-wave (km/s) = 5.96139 6.56304 6.26944
#
# Compressibility (1/GPa) = 0.02684251
#
# Stress axis : x y z
#
# Youngs Moduli (GPa) = 61.45647 47.09309 105.43778
#
# Poissons Ratio (x) = 0.08481 0.37186
# Poissons Ratio (y) = 0.11068 0.50042
# Poissons Ratio (z) = 0.21675 0.22351
#
# Static dielectric constant tensor:
#      x y z
#    x 1.651630 0.000000 0.017270 
#    y 0.000000 1.642290 0.000000 
#    z 0.017270 0.000000 1.675070 
# 
# From -- ./inp_files/216475.got.cif
#   From: 2010.05.17/outbox.cif.g08.bks.cpg/sg12_109_cif.got.tgz:216475.got - 2010.06.03 13:09:07.
