data_PCOD9184569
_publ_section_title
;
Structure prediction by ZEFSAII (Michael W. Deem and Ramdas Pophale) SiO2 
 PCOD9184569
Probable space group: C 2/M
;
_chemical_formula_sum "Si O2"
_cell_formula_units_Z 56
_cell_length_a 20.630167
_cell_length_b 19.005924
_cell_length_c 16.110991
_cell_angle_alpha 90.000000
_cell_angle_beta 150.576992
_cell_angle_gamma 90.000000
_cell_volume 3103.270982
_symmetry_space_group_name_H-M "C 2/M"
_symmetry_group_IT_number 12
_symmetry_cell_setting 'monoclinic'
loop_
_space_group_symop_operation_xyz
x,y,z
-x,y,-z
-x,-y,-z
x,-y,z
1/2+x,1/2+y,z
1/2-x,1/2+y,-z
1/2-x,1/2-y,-z
1/2+x,1/2-y,z
loop_
_atom_site_type_symbol
_atom_site_label
_atom_site_fract_x
_atom_site_fract_y
_atom_site_fract_z
Si Si1 0.675824 0.833166 0.003254
Si Si2 0.589901 0.326596 0.861641
Si Si3 0.713779 0.317104 0.517473
Si Si4 0.346581 0.208075 0.841305
Si Si5 0.624187 0.627115 0.084232
Si Si6 0.079597 0.584273 0.335190
Si Si7 0.400668 0.918238 0.455078
O O1 0.800274 0.848220 0.083104
O O2 0.707500 0.828962 0.136253
O O3 0.621331 0.755020 0.919447
O O4 0.557016 0.886786 0.853880
O O5 0.441771 0.329859 0.662695
O O6 0.599827 0.370563 0.958441
O O7 0.750000 0.250000 0.500000
O O8 0.763501 0.304437 0.666140
O O9 0.798071 0.381956 0.576320
O O10 0.350629 0.291718 0.861984
O O11 0.500000 0.186274 0.000000
O O12 0.755048 0.586547 0.255975
O O13 0.500000 0.602174 0.000000
O O14 0.084703 0.500000 0.338398
O O15 0.089488 0.611209 0.441515
O O16 0.500000 0.883851 0.500000
O O17 0.438978 0.000000 0.506821
#
# Coordination Sequence:
#
# PCOD9184569 Si02
#       7
#     8   8   8   8   8   8   8
#     4  10  20  38  54  83 119 146 191 238 286 345
#     4  10  21  34  58  85 113 150 190 240 288 334
#     4  12  20  37  61  83 114 151 190 240 291 333
#     4  10  19  35  57  83 109 141 188 238 285 340
#     4  10  19  34  52  80 110 143 187 229 276 337
#     4  11  22  37  59  86 115 153 197 236 286 350
#     4  10  21  35  52  78 112 149 186 223 274 342
#
# _framework density 18.045475
#
# number of rings (size 3 to 8) (size 9 to 14) (size 15 to 20)
#    0.000    1.571    2.857    4.286    0.000    0.857 
#    0.000    2.857    0.000    0.000    0.000    2.000 
#    0.000    0.000    0.000    0.000    0.000    0.000 
#
# Total GULP energy -156312.934826 kJ/mol
# GULP energy per Si atom -5582.604815 kJ/mol
# Density = 1.800440 g / cm^3
# Si number density = 18.045475 Si / 1000 Ang^3
#
#
#
# Elastic Constant Matrix: (Units=GPa)
#
#
# Indices 1 2 3 4 5 6 
#
# 1 149.0141 20.2992 70.6439 0.0000 -9.4639 0.0000
# 2 20.2992 33.1309 9.8126 0.0000 1.1845 0.0000
# 3 70.6439 9.8126 116.4047 0.0000 -12.4727 0.0000
# 4 0.0000 0.0000 0.0000 -2.6380 0.0000 -12.7043
# 5 -9.4639 1.1845 -12.4727 0.0000 43.9342 0.0000
# 6 0.0000 0.0000 0.0000 -12.7043 0.0000 0.1878
#
#
#
# Elastic Compliance Matrix: (Units=1/GPa)
#
#
# Indices 1 2 3 4 5 6 
#
# 1 0.010043 -0.004507 -0.005642 0.000000 0.000683 0.000000
# 2 -0.004507 0.033091 -0.000262 0.000000 -0.001937 0.000000
# 3 -0.005642 -0.000262 0.012281 0.000000 0.002278 0.000000
# 4 0.000000 0.000000 0.000000 -0.001160 0.000000 -0.078473
# 5 0.000683 -0.001937 0.002278 0.000000 0.023607 0.000000
# 6 0.000000 0.000000 0.000000 -0.078473 0.000000 0.016294
#
#
# Mechanical properties :
#
#
# Convention : Reuss Voigt Hill
#
# Bulk Modulus (GPa) = 28.90669 55.56237 42.23453
# Shear Modulus (GPa) = 39.52298 21.48307 30.50302
#
# Velocity S-wave (km/s) = 4.68502 3.45410 4.11584
# Velocity P-wave (km/s) = 6.73197 6.83848 6.78543
#
# Compressibility (1/GPa) = 0.03459407
#
# Stress axis : x y z
#
# Youngs Moduli (GPa) = 99.57581 30.21933 81.42860
#
# Poissons Ratio (x) = 0.13619 0.45939
# Poissons Ratio (y) = 0.44875 0.02135
# Poissons Ratio (z) = 0.56176 0.00792
#
# Static dielectric constant tensor:
#      x y z
#    x 1.655520 0.000000 -0.014160 
#    y 0.000000 1.626340 0.000000 
#    z -0.014160 0.000000 1.606310 
# 
# From -- ./inp_files/75885.got.cif
#   From: 2010.05.17/outbox.cif.g08.bks.cpg/sg12_38_cif.got.tgz:75885.got - 2010.06.03 13:09:07.
