data_PCOD9184704
_publ_section_title
;
Structure prediction by ZEFSAII (Michael W. Deem and Ramdas Pophale) SiO2 
 PCOD9184704
Probable space group: C 2/M
;
_chemical_formula_sum "Si O2"
_cell_formula_units_Z 56
_cell_length_a 9.420898
_cell_length_b 18.714442
_cell_length_c 27.079026
_cell_angle_alpha 90.000000
_cell_angle_beta 139.732891
_cell_angle_gamma 90.000000
_cell_volume 3085.824518
_symmetry_space_group_name_H-M "C 2/M"
_symmetry_group_IT_number 12
_symmetry_cell_setting 'monoclinic'
loop_
_space_group_symop_operation_xyz
x,y,z
-x,y,-z
-x,-y,-z
x,-y,z
1/2+x,1/2+y,z
1/2-x,1/2+y,-z
1/2-x,1/2-y,-z
1/2+x,1/2-y,z
loop_
_atom_site_type_symbol
_atom_site_label
_atom_site_fract_x
_atom_site_fract_y
_atom_site_fract_z
Si Si1 0.766573 0.332949 0.448398
Si Si2 0.056601 0.914804 0.873774
Si Si3 0.004613 0.084837 0.305039
Si Si4 0.260655 0.329700 0.441791
Si Si5 0.828254 0.826346 0.999740
Si Si6 0.387327 0.914180 0.871835
Si Si7 0.161379 0.584680 0.695140
O O1 0.564915 0.374286 0.370718
O O2 0.766182 0.327437 0.506690
O O3 0.768022 0.252835 0.426194
O O4 0.000000 0.369865 0.500000
O O5 0.071861 0.870253 0.927627
O O6 0.255448 0.898427 0.887992
O O7 0.830244 0.900534 0.784465
O O8 0.068852 0.000000 0.886914
O O9 0.779783 0.103412 0.217176
O O10 0.200151 0.100576 0.317884
O O11 0.002014 0.000000 0.312615
O O12 0.500000 0.363722 0.500000
O O13 0.061252 0.370991 0.364021
O O14 0.750000 0.750000 0.000000
O O15 0.610758 0.870707 0.926908
O O16 0.000000 0.819842 0.000000
O O17 0.425554 0.000000 0.881512
O O18 0.115092 0.500000 0.683075
#
# Coordination Sequence:
#
# PCOD9184704 Si02
#       7
#     8   8   8   8   8   8   8
#     4  10  19  34  54  76 106 148 192 230 272 330
#     4   9  19  38  63  86 112 152 191 227 281 343
#     4   9  18  34  59  86 106 138 189 234 270 321
#     4  10  21  34  49  77 113 149 188 229 282 330
#     4  12  25  40  59  87 118 149 188 231 279 334
#     4   9  19  38  62  87 116 148 186 231 283 343
#     4   9  18  35  58  82 110 144 184 227 275 331
#
# _framework density 18.147499
#
# number of rings (size 3 to 8) (size 9 to 14) (size 15 to 20)
#    0.000    2.286    1.429    3.429    0.000    4.571 
#    2.571    0.000    0.000    0.000    0.000    0.000 
#    0.000    0.000    0.000    0.000    0.000    0.000 
#
# Total GULP energy -156122.135174 kJ/mol
# GULP energy per Si atom -5575.790542 kJ/mol
# Density = 1.810619 g / cm^3
# Si number density = 18.147499 Si / 1000 Ang^3
#
#
#
# Elastic Constant Matrix: (Units=GPa)
#
#
# Indices 1 2 3 4 5 6 
#
# 1 78.9336 35.4303 48.8712 -0.0027 12.5874 0.0011
# 2 35.4303 54.0109 59.4459 0.0003 7.6535 -0.0002
# 3 48.8712 59.4459 116.0655 -0.0001 11.4826 0.0002
# 4 -0.0027 0.0003 -0.0001 -558.6258 0.0000 248.3439
# 5 12.5874 7.6535 11.4826 0.0000 33.1026 0.0000
# 6 0.0011 -0.0002 0.0002 248.3439 0.0000 -76.0858
#
#
#
# Elastic Compliance Matrix: (Units=1/GPa)
#
#
# Indices 1 2 3 4 5 6 
#
# 1 0.019143 -0.008133 -0.003480 0.000000 -0.004191 0.000000
# 2 -0.008133 0.046070 -0.020114 0.000000 -0.000582 0.000000
# 3 -0.003480 -0.020114 0.020495 0.000000 -0.001136 0.000000
# 4 0.000000 0.000000 0.000000 0.003969 0.000000 0.012954
# 5 -0.004191 -0.000582 -0.001136 0.000000 0.032331 0.000000
# 6 0.000000 0.000000 0.000000 0.012954 0.000000 0.029139
#
#
# Mechanical properties :
#
#
# Convention : Reuss Voigt Hill
#
# Bulk Modulus (GPa) = 44.93537 59.61163 52.27350
# Shear Modulus (GPa) = 22.52052 -113.30429 -45.39188
#
# Velocity S-wave (km/s) = 3.52656 -7.91017 -5.00670
# Velocity P-wave (km/s) = 6.43406 7.10689 2.13434
#
# Compressibility (1/GPa) = 0.02225419
#
# Stress axis : x y z
#
# Youngs Moduli (GPa) = 52.23961 21.70588 48.79137
#
# Poissons Ratio (x) = 0.17653 0.16980
# Poissons Ratio (y) = 0.42487 0.98139
# Poissons Ratio (z) = 0.18180 0.43659
#
# Static dielectric constant tensor:
#      x y z
#    x 1.862860 0.000000 -0.060750 
#    y 0.000000 1.620860 0.000000 
#    z -0.060750 0.000000 1.634890 
# 
# From -- ./inp_files/257169.got.cif
#   From: 2010.05.17/outbox.cif.g08.bks.cpg/sg12_129_cif.got.tgz:257169.got - 2010.06.03 13:09:07.
