data_PCOD9184721
_publ_section_title
;
Structure prediction by ZEFSAII (Michael W. Deem and Ramdas Pophale) SiO2 
 PCOD9184721
Probable space group: C 2/M
;
_chemical_formula_sum "Si O2"
_cell_formula_units_Z 56
_cell_length_a 21.109271
_cell_length_b 7.528514
_cell_length_c 17.808833
_cell_angle_alpha 90.000000
_cell_angle_beta 103.891274
_cell_angle_gamma 90.000000
_cell_volume 2747.430567
_symmetry_space_group_name_H-M "C 2/M"
_symmetry_group_IT_number 12
_symmetry_cell_setting 'monoclinic'
loop_
_space_group_symop_operation_xyz
x,y,z
-x,y,-z
-x,-y,-z
x,-y,z
1/2+x,1/2+y,z
1/2-x,1/2+y,-z
1/2-x,1/2-y,-z
1/2+x,1/2-y,z
loop_
_atom_site_type_symbol
_atom_site_label
_atom_site_fract_x
_atom_site_fract_y
_atom_site_fract_z
Si Si1 0.045887 0.293180 0.741043
Si Si2 0.812077 0.282570 0.764446
Si Si3 0.178097 0.288522 0.511641
Si Si4 0.950682 0.716099 0.091977
Si Si5 0.404033 0.215958 0.922105
Si Si6 0.404825 0.217418 0.652008
Si Si7 0.669582 0.704621 0.682346
O O1 0.030983 0.500000 0.750810
O O2 0.064390 0.219946 0.828530
O O3 0.105283 0.284985 0.700533
O O4 0.978167 0.219448 0.689087
O O5 0.811003 0.500000 0.763457
O O6 0.846332 0.224098 0.851226
O O7 0.857511 0.230546 0.707092
O O8 0.738398 0.219331 0.730975
O O9 0.171145 0.500000 0.516266
O O10 0.250000 0.250000 0.500000
O O11 0.126024 0.223038 0.435433
O O12 0.169870 0.214103 0.592447
O O13 0.946526 0.500000 0.089032
O O14 0.025892 0.761884 0.094503
O O15 0.907022 0.777685 0.009248
O O16 0.401583 0.000000 0.921924
O O17 0.404332 0.000000 0.649652
O O18 0.668074 0.500000 0.705035
#
# Coordination Sequence:
#
# PCOD9184721 Si02
#       7
#     8   8   8   8   8   8   8
#     4  10  19  34  54  77 106 137 171 213 260 307
#     4   9  15  28  49  73 100 134 173 208 248 306
#     4  11  21  36  57  81 105 132 172 216 260 306
#     4   8  13  22  43  76 106 126 157 215 264 293
#     4   8  12  21  43  76 104 126 163 213 258 295
#     4   9  17  31  54  77  99 133 173 210 251 308
#     4  11  23  37  52  73 106 143 176 211 258 311
#
# _framework density 20.382680000000001
#
# number of rings (size 3 to 8) (size 9 to 14) (size 15 to 20)
#    0.000    2.571    2.857    1.714    0.000    0.571 
#    0.000    5.000    0.000    0.000    0.000    3.000 
#    0.000    0.000    0.000    0.000    0.000    0.000 
#
# Total GULP energy -156230.035861 kJ/mol
# GULP energy per Si atom -5579.644138 kJ/mol
# Density = 2.033629 g / cm^3
# Si number density = 20.382680 Si / 1000 Ang^3
#
#
#
# Elastic Constant Matrix: (Units=GPa)
#
#
# Indices 1 2 3 4 5 6 
#
# 1 121.5967 -5.0981 78.4222 0.0000 17.2949 0.0000
# 2 -5.0981 47.5221 -7.2172 0.0000 5.8019 0.0000
# 3 78.4222 -7.2172 166.7801 0.0000 24.8022 0.0000
# 4 0.0000 0.0000 0.0000 1.9933 0.0000 0.8407
# 5 17.2949 5.8019 24.8022 0.0000 35.8661 0.0000
# 6 0.0000 0.0000 0.0000 0.8407 0.0000 10.2301
#
#
#
# Elastic Compliance Matrix: (Units=1/GPa)
#
#
# Indices 1 2 3 4 5 6 
#
# 1 0.011969 0.000761 -0.005259 0.000000 -0.002258 0.000000
# 2 0.000761 0.021911 0.001306 0.000000 -0.004815 0.000000
# 3 -0.005259 0.001306 0.009117 0.000000 -0.003980 0.000000
# 4 0.000000 0.000000 0.000000 0.519685 0.000000 -0.042709
# 5 -0.002258 -0.004815 -0.003980 0.000000 0.032501 0.000000
# 6 0.000000 0.000000 0.000000 -0.042709 0.000000 0.101260
#
#
# Mechanical properties :
#
#
# Convention : Reuss Voigt Hill
#
# Bulk Modulus (GPa) = 27.31279 52.01251 39.66265
# Shear Modulus (GPa) = 6.99269 27.60404 17.29837
#
# Velocity S-wave (km/s) = 1.85423 3.68406 2.91637
# Velocity P-wave (km/s) = 4.24421 6.60831 5.55352
#
# Compressibility (1/GPa) = 0.03661288
#
# Stress axis : x y z
#
# Youngs Moduli (GPa) = 83.55074 45.63985 109.68180
#
# Poissons Ratio (x) = -0.03473 0.57684
# Poissons Ratio (y) = -0.06357 -0.14329
# Poissons Ratio (z) = 0.43941 -0.05962
#
# Static dielectric constant tensor:
#      x y z
#    x 1.675620 0.000000 0.041570 
#    y 0.000000 1.830410 0.000000 
#    z 0.041570 0.000000 1.713820 
# 
# From -- ./inp_files/280315.got.cif
#   From: 2010.05.17/outbox.cif.g08.bks.cpg/sg12_141_cif.got.tgz:280315.got - 2010.06.03 13:09:07.
