data_PCOD9184723
_publ_section_title
;
Structure prediction by ZEFSAII (Michael W. Deem and Ramdas Pophale) SiO2 
 PCOD9184723
Probable space group: C 2/M
;
_chemical_formula_sum "Si O2"
_cell_formula_units_Z 56
_cell_length_a 14.315022
_cell_length_b 13.590877
_cell_length_c 17.072905
_cell_angle_alpha 90.000000
_cell_angle_beta 56.855224
_cell_angle_gamma 90.000000
_cell_volume 2781.145471
_symmetry_space_group_name_H-M "C 2/M"
_symmetry_group_IT_number 12
_symmetry_cell_setting 'monoclinic'
loop_
_space_group_symop_operation_xyz
x,y,z
-x,y,-z
-x,-y,-z
x,-y,z
1/2+x,1/2+y,z
1/2-x,1/2+y,-z
1/2-x,1/2-y,-z
1/2+x,1/2-y,z
loop_
_atom_site_type_symbol
_atom_site_label
_atom_site_fract_x
_atom_site_fract_y
_atom_site_fract_z
Si Si1 0.532526 0.209050 0.205093
Si Si2 0.160535 0.110618 0.512983
Si Si3 0.102546 0.617605 0.011403
Si Si4 0.635896 0.819002 0.481555
Si Si5 0.580135 0.109724 0.346567
Si Si6 0.700925 0.111615 0.711024
Si Si7 0.327681 0.615421 0.812293
O O1 0.589732 0.173429 0.098887
O O2 0.575785 0.148715 0.260770
O O3 0.402257 0.184789 0.252682
O O4 0.568070 0.319501 0.209542
O O5 0.245480 0.145319 0.541230
O O6 0.092800 0.211171 0.529631
O O7 0.232299 0.106572 0.400298
O O8 0.113215 0.000000 0.547286
O O9 0.095767 0.500000 0.028015
O O10 0.220355 0.638025 0.915864
O O11 0.000000 0.643091 0.000000
O O12 0.546477 0.890677 0.562367
O O13 0.638809 0.826399 0.386889
O O14 0.626519 0.000000 0.327265
O O15 0.783048 0.135237 0.744931
O O16 0.655918 0.000000 0.748071
O O17 0.352695 0.500000 0.806193
#
# Coordination Sequence:
#
# PCOD9184723 Si02
#       7
#     8   8   8   8   8   8   8
#     4  12  21  34  60  87 111 144 190 229 275 333
#     4  10  19  34  54  77 107 145 186 226 273 328
#     4  10  19  35  60  89 113 140 184 233 274 324
#     4  10  20  33  53  77 108 143 181 226 282 328
#     4  11  21  35  54  80 108 138 181 235 280 322
#     4  10  19  35  59  85 111 144 189 238 275 320
#     4  10  22  38  57  84 119 149 179 227 283 333
#
# _framework density 20.135587999999998
#
# number of rings (size 3 to 8) (size 9 to 14) (size 15 to 20)
#    0.000    1.571    2.857    4.286    0.000    0.000 
#    0.000    2.143    0.000    3.000    0.000    0.000 
#    0.000    0.000    0.000    0.000    0.000    0.000 
#
# Total GULP energy -156290.329669 kJ/mol
# GULP energy per Si atom -5581.797488 kJ/mol
# Density = 2.008976 g / cm^3
# Si number density = 20.135588 Si / 1000 Ang^3
#
#
#
# Elastic Constant Matrix: (Units=GPa)
#
#
# Indices 1 2 3 4 5 6 
#
# 1 67.1134 36.6531 25.3988 0.0000 26.0414 0.0000
# 2 36.6531 111.8039 28.0031 0.0000 15.1601 0.0000
# 3 25.3988 28.0031 69.2470 0.0000 28.9687 0.0000
# 4 0.0000 0.0000 0.0000 26.4726 0.0000 5.0334
# 5 26.0414 15.1601 28.9687 0.0000 34.1745 0.0000
# 6 0.0000 0.0000 0.0000 5.0334 0.0000 43.5557
#
#
#
# Elastic Compliance Matrix: (Units=1/GPa)
#
#
# Indices 1 2 3 4 5 6 
#
# 1 0.024230 -0.005812 0.000168 0.000000 -0.016028 0.000000
# 2 -0.005812 0.011400 -0.003433 0.000000 0.002282 0.000000
# 3 0.000168 -0.003433 0.023527 0.000000 -0.018549 0.000000
# 4 0.000000 0.000000 0.000000 0.038623 0.000000 -0.004463
# 5 -0.016028 0.002282 -0.018549 0.000000 0.056186 0.000000
# 6 0.000000 0.000000 0.000000 -0.004463 0.000000 0.023475
#
#
# Mechanical properties :
#
#
# Convention : Reuss Voigt Hill
#
# Bulk Modulus (GPa) = 24.38799 47.58602 35.98700
# Shear Modulus (GPa) = 23.89336 31.38119 27.63727
#
# Velocity S-wave (km/s) = 3.44848 3.95206 3.70882
# Velocity P-wave (km/s) = 5.29095 6.67152 6.02093
#
# Compressibility (1/GPa) = 0.04100379
#
# Stress axis : x y z
#
# Youngs Moduli (GPa) = 41.27137 87.71854 42.50393
#
# Poissons Ratio (x) = 0.50984 -0.00716
# Poissons Ratio (y) = 0.23988 0.14591
# Poissons Ratio (z) = -0.00695 0.30112
#
# Static dielectric constant tensor:
#      x y z
#    x 1.721900 0.000000 -0.003920 
#    y 0.000000 1.771970 0.000000 
#    z -0.003920 0.000000 1.700710 
# 
# From -- ./inp_files/268656.got.cif
#   From: 2010.05.17/outbox.cif.g08.bks.cpg/sg12_135_cif.got.tgz:268656.got - 2010.06.03 13:09:07.
