data_PCOD9184570
_publ_section_title
;
Structure prediction by ZEFSAII (Michael W. Deem and Ramdas Pophale) SiO2 
 PCOD9184570
Probable space group: C 2/M
;
_chemical_formula_sum "Si O2"
_cell_formula_units_Z 44
_cell_length_a 8.182722
_cell_length_b 33.660252
_cell_length_c 8.443985
_cell_angle_alpha 90.000000
_cell_angle_beta 83.978092
_cell_angle_gamma 90.000000
_cell_volume 2312.913954
_symmetry_space_group_name_H-M "C 2/M"
_symmetry_group_IT_number 12
_symmetry_cell_setting 'monoclinic'
loop_
_space_group_symop_operation_xyz
x,y,z
-x,y,-z
-x,-y,-z
x,-y,z
1/2+x,1/2+y,z
1/2-x,1/2+y,-z
1/2-x,1/2-y,-z
1/2+x,1/2-y,z
loop_
_atom_site_type_symbol
_atom_site_label
_atom_site_fract_x
_atom_site_fract_y
_atom_site_fract_z
Si Si1 0.000000 0.416282 0.000000
Si Si2 0.540819 0.136163 0.678121
Si Si3 0.419133 0.217058 0.183545
Si Si4 0.533775 0.698897 0.182069
Si Si5 0.578525 0.618767 0.329089
Si Si6 0.849334 0.044268 0.893113
O O1 0.985124 0.389902 0.838539
O O2 0.168358 0.441915 0.972273
O O3 0.500000 0.124910 0.500000
O O4 0.498962 0.182054 0.721851
O O5 0.736311 0.132640 0.664343
O O6 0.441998 0.261382 0.247717
O O7 0.226913 0.207929 0.183162
O O8 0.500000 0.216446 0.000000
O O9 0.487656 0.657402 0.267942
O O10 0.500000 0.693915 0.000000
O O11 0.500000 0.607173 0.500000
O O12 0.590603 0.580078 0.222004
O O13 0.830415 0.000000 0.823470
O O14 0.000000 0.041397 0.000000
#
# Coordination Sequence:
#
# PCOD9184570 Si02
#       6
#     4   8   8   8   8   8
#     4  10  21  42  66  92 128 158 204 250 301 368
#     4  10  22  37  60  87 120 163 201 247 300 353
#     4  10  19  34  52  81 116 154 204 247 292 350
#     4  10  20  34  54  81 113 157 200 243 297 350
#     4  10  23  38  56  87 121 151 201 247 301 366
#     4  10  22  41  67  93 117 158 201 246 313 368
#
# _framework density 19.023622
#
# number of rings (size 3 to 8) (size 9 to 14) (size 15 to 20)
#    0.000    2.000    0.909    3.000    2.545    4.000 
#    0.000    3.636    0.000    2.727    0.000    0.000 
#    0.000    0.000    0.000    0.000    0.000    0.000 
#
# Total GULP energy -122557.841984 kJ/mol
# GULP energy per Si atom -5570.810999 kJ/mol
# Density = 1.898032 g / cm^3
# Si number density = 19.023622 Si / 1000 Ang^3
#
#
#
# Elastic Constant Matrix: (Units=GPa)
#
#
# Indices 1 2 3 4 5 6 
#
# 1 52.9247 48.1478 26.5036 0.0000 0.9560 0.0000
# 2 48.1478 146.9318 53.3925 0.0000 2.8836 0.0000
# 3 26.5036 53.3925 72.9670 0.0000 1.0576 0.0000
# 4 0.0000 0.0000 0.0000 2.6814 0.0000 3.7523
# 5 0.9560 2.8836 1.0576 0.0000 28.5449 0.0000
# 6 0.0000 0.0000 0.0000 3.7523 0.0000 33.9104
#
#
#
# Elastic Compliance Matrix: (Units=1/GPa)
#
#
# Indices 1 2 3 4 5 6 
#
# 1 0.028064 -0.007481 -0.004719 0.000000 -0.000009 0.000000
# 2 -0.007481 0.011279 -0.005526 0.000000 -0.000684 0.000000
# 3 -0.004719 -0.005526 0.019462 0.000000 -0.000005 0.000000
# 4 0.000000 0.000000 0.000000 0.441269 0.000000 -0.048828
# 5 -0.000009 -0.000684 -0.000005 0.000000 0.035102 0.000000
# 6 0.000000 0.000000 0.000000 -0.048828 0.000000 0.034893
#
#
# Mechanical properties :
#
#
# Convention : Reuss Voigt Hill
#
# Bulk Modulus (GPa) = 42.82117 58.76790 50.79454
# Shear Modulus (GPa) = 8.15253 22.67932 15.41593
#
# Velocity S-wave (km/s) = 2.07239 3.45652 2.84977
# Velocity P-wave (km/s) = 5.31834 6.84757 6.13082
#
# Compressibility (1/GPa) = 0.02335293
#
# Stress axis : x y z
#
# Youngs Moduli (GPa) = 35.63253 88.66199 51.38090
#
# Poissons Ratio (x) = 0.66330 0.24248
# Poissons Ratio (y) = 0.26658 0.28392
# Poissons Ratio (z) = 0.16816 0.48993
#
# Static dielectric constant tensor:
#      x y z
#    x 1.674560 0.000000 0.014060 
#    y 0.000000 1.718090 0.000000 
#    z 0.014060 0.000000 1.652500 
# 
# From -- ./inp_files/41605.got.cif
#   From: 2010.05.17/outbox.cif.g08.bks.cpg/sg12_21_cif.got.tgz:41605.got - 2010.06.03 13:09:07.
