data_PCOD9184892
_publ_section_title
;
Structure prediction by ZEFSAII (Michael W. Deem and Ramdas Pophale) SiO2 
 PCOD9184892
Probable space group: C 2/M
;
_chemical_formula_sum "Si O2"
_cell_formula_units_Z 32
_cell_length_a 16.024800
_cell_length_b 15.725742
_cell_length_c 10.851833
_cell_angle_alpha 90.000000
_cell_angle_beta 155.107393
_cell_angle_gamma 90.000000
_cell_volume 1151.079079
_symmetry_space_group_name_H-M "C 2/M"
_symmetry_group_IT_number 12
_symmetry_cell_setting 'monoclinic'
loop_
_space_group_symop_operation_xyz
x,y,z
-x,y,-z
-x,-y,-z
x,-y,z
1/2+x,1/2+y,z
1/2-x,1/2+y,-z
1/2-x,1/2-y,-z
1/2+x,1/2-y,z
loop_
_atom_site_type_symbol
_atom_site_label
_atom_site_fract_x
_atom_site_fract_y
_atom_site_fract_z
Si Si1 0.354605 0.089473 0.688911
Si Si2 0.167629 0.235992 0.577935
Si Si3 0.761560 0.593359 0.204951
Si Si4 0.309116 0.156155 0.018798
O O1 0.238489 0.176440 0.560775
O O2 0.505021 0.097597 0.777199
O O3 0.241707 0.000000 0.530204
O O4 0.500000 0.084950 0.000000
O O5 0.280914 0.324475 0.766416
O O6 0.941726 0.265581 0.251756
O O7 0.205860 0.180143 0.751747
O O8 0.704606 0.500000 0.173907
O O9 0.000000 0.594832 0.500000
O O10 0.691783 0.608697 0.970081
#
# Coordination Sequence:
#
# PCOD9184892 Si02
#       4
#     8   8   8   8
#     4   9  18  33  55  80 104 136 177 216 256 307
#     4  10  20  34  54  80 108 136 172 216 262 308
#     4   9  18  33  55  80 104 136 177 216 256 307
#     4  10  19  34  55  78 106 138 173 216 259 306
#
# _framework density 27.800003
#
# number of rings (size 3 to 8) (size 9 to 14) (size 15 to 20)
#    0.000    2.500    0.000    2.250    0.000    2.000 
#    0.000    1.250    0.000   16.500    0.000    0.000 
#    0.000    0.000    0.000    0.000    0.000    0.000 
#
# Total GULP energy -89388.545470 kJ/mol
# GULP energy per Si atom -5586.784092 kJ/mol
# Density = 2.773673 g / cm^3
# Si number density = 27.800003 Si / 1000 Ang^3
#
#
#
# Elastic Constant Matrix: (Units=GPa)
#
#
# Indices 1 2 3 4 5 6 
#
# 1 124.0745 70.3155 18.9896 0.0000 -10.9657 0.0000
# 2 70.3155 240.2310 30.7206 0.0000 13.5490 0.0000
# 3 18.9896 30.7206 105.2104 0.0000 -5.0873 0.0000
# 4 0.0000 0.0000 0.0000 20.4301 0.0000 5.6290
# 5 -10.9657 13.5490 -5.0873 0.0000 40.2318 0.0000
# 6 0.0000 0.0000 0.0000 5.6290 0.0000 17.5444
#
#
#
# Elastic Compliance Matrix: (Units=1/GPa)
#
#
# Indices 1 2 3 4 5 6 
#
# 1 0.010278 -0.003123 -0.000762 0.000000 0.003757 0.000000
# 2 -0.003123 0.005381 -0.001143 0.000000 -0.002808 0.000000
# 3 -0.000762 -0.001143 0.010046 0.000000 0.001448 0.000000
# 4 0.000000 0.000000 0.000000 0.053694 0.000000 -0.017227
# 5 0.003757 -0.002808 0.001448 0.000000 0.027009 0.000000
# 6 0.000000 0.000000 0.000000 -0.017227 0.000000 0.062525
#
#
# Mechanical properties :
#
#
# Convention : Reuss Voigt Hill
#
# Bulk Modulus (GPa) = 63.89905 78.84081 71.36993
# Shear Modulus (GPa) = 27.14353 38.94061 33.04207
#
# Velocity S-wave (km/s) = 3.12811 3.74671 3.45130
# Velocity P-wave (km/s) = 6.00682 6.86576 6.45060
#
# Compressibility (1/GPa) = 0.01564968
#
# Stress axis : x y z
#
# Youngs Moduli (GPa) = 97.29461 185.82801 99.54110
#
# Poissons Ratio (x) = 0.58032 0.07581
# Poissons Ratio (y) = 0.30384 0.11382
# Poissons Ratio (z) = 0.07410 0.21248
#
# Static dielectric constant tensor:
#      x y z
#    x 2.218490 0.000000 0.039020 
#    y 0.000000 2.328200 0.000000 
#    z 0.039020 0.000000 2.252410 
# 
# From -- ./inp_files/181792.got.cif
#   From: 2010.05.17/outbox.cif.g08.bks.cpg/sg12_91_cif.got.tgz:181792.got - 2010.06.03 13:09:07.
