data_PCOD9184394
_publ_section_title
;
Structure prediction by ZEFSAII (Michael W. Deem and Ramdas Pophale) SiO2 
 PCOD9184394
Probable space group: C 2/M
;
_chemical_formula_sum "Si O2"
_cell_formula_units_Z 56
_cell_length_a 14.785964
_cell_length_b 24.291431
_cell_length_c 9.712006
_cell_angle_alpha 90.000000
_cell_angle_beta 119.391382
_cell_angle_gamma 90.000000
_cell_volume 3039.297684
_symmetry_space_group_name_H-M "C 2/M"
_symmetry_group_IT_number 12
_symmetry_cell_setting 'monoclinic'
loop_
_space_group_symop_operation_xyz
x,y,z
-x,y,-z
-x,-y,-z
x,-y,z
1/2+x,1/2+y,z
1/2-x,1/2+y,-z
1/2-x,1/2-y,-z
1/2+x,1/2-y,z
loop_
_atom_site_type_symbol
_atom_site_label
_atom_site_fract_x
_atom_site_fract_y
_atom_site_fract_z
Si Si1 0.241430 0.389599 0.131775
Si Si2 0.385740 0.000000 0.978388
Si Si3 0.668969 0.323111 0.338261
Si Si4 0.548761 0.330168 0.687109
Si Si5 0.598989 0.000000 0.675986
Si Si6 0.333282 0.195917 0.705470
Si Si7 0.040945 0.291572 0.685519
Si Si8 0.292624 0.887203 0.214023
O O1 0.181476 0.446662 0.117893
O O2 0.361360 0.375366 0.253392
O O3 0.179593 0.341241 0.168089
O O4 0.244912 0.391135 0.969507
O O5 0.500000 0.000000 0.000000
O O6 0.409468 0.000000 0.161888
O O7 0.551059 0.336669 0.289943
O O8 0.680192 0.261430 0.284486
O O9 0.744205 0.322494 0.529196
O O10 0.708689 0.365629 0.257047
O O11 0.500000 0.327827 0.500000
O O12 0.589416 0.268418 0.755677
O O13 0.500000 0.000000 0.500000
O O14 0.661096 0.055974 0.696328
O O15 0.445507 0.192963 0.714674
O O16 0.119522 0.341064 0.734416
O O17 0.000000 0.285446 0.500000
#
# Coordination Sequence:
#
# PCOD9184394 Si02
#       8
#     8   4   8   8   4   8   8   8
#     4  11  24  40  61  85 124 160 198 257 308 352
#     4  10  26  46  64  90 122 154 200 255 311 359
#     4  10  20  36  60  90 121 158 207 241 292 366
#     4  10  20  38  60  88 120 162 201 244 297 364
#     4  10  24  42  63  86 115 155 204 247 297 360
#     4  10  20  34  60  91 121 162 197 242 303 362
#     4  10  19  33  60  89 122 159 201 248 301 359
#     4  11  23  38  58  89 121 157 200 256 303 354
#
# _framework density 18.425308999999999
#
# number of rings (size 3 to 8) (size 9 to 14) (size 15 to 20)
#    0.000    1.714    2.857    1.286    4.000    2.857 
#    0.000    3.929    0.000    2.571    0.000    0.000 
#    0.000    0.000    0.000    0.000    0.000    0.000 
#
# Total GULP energy -156009.640459 kJ/mol
# GULP energy per Si atom -5571.772874 kJ/mol
# Density = 1.838337 g / cm^3
# Si number density = 18.425309 Si / 1000 Ang^3
#
#
#
# Elastic Constant Matrix: (Units=GPa)
#
#
# Indices 1 2 3 4 5 6 
#
# 1 136.8179 84.0322 25.8005 0.0000 -4.6876 0.0000
# 2 84.0322 122.5095 43.0222 0.0000 1.6051 0.0000
# 3 25.8005 43.0222 44.6818 0.0000 3.8137 0.0000
# 4 0.0000 0.0000 0.0000 27.1971 0.0000 -3.5755
# 5 -4.6876 1.6051 3.8137 0.0000 25.6594 0.0000
# 6 0.0000 0.0000 0.0000 -3.5755 0.0000 24.5900
#
#
#
# Elastic Compliance Matrix: (Units=1/GPa)
#
#
# Indices 1 2 3 4 5 6 
#
# 1 0.012892 -0.009341 0.001316 0.000000 0.002744 0.000000
# 2 -0.009341 0.019126 -0.012939 0.000000 -0.000980 0.000000
# 3 0.001316 -0.012939 0.034426 0.000000 -0.004067 0.000000
# 4 0.000000 0.000000 0.000000 0.037485 0.000000 0.005451
# 5 0.002744 -0.000980 -0.004067 0.000000 0.040139 0.000000
# 6 0.000000 0.000000 0.000000 0.005451 0.000000 0.041459
#
#
# Mechanical properties :
#
#
# Convention : Reuss Voigt Hill
#
# Bulk Modulus (GPa) = 40.78897 67.74657 54.26777
# Shear Modulus (GPa) = 21.21989 25.56626 23.39307
#
# Velocity S-wave (km/s) = 3.39731 3.72904 3.56703
# Velocity P-wave (km/s) = 6.12980 7.44238 6.81775
#
# Compressibility (1/GPa) = 0.02451643
#
# Stress axis : x y z
#
# Youngs Moduli (GPa) = 77.56764 52.28407 29.04777
#
# Poissons Ratio (x) = 0.48838 -0.03821
# Poissons Ratio (y) = 0.72455 0.37584
# Poissons Ratio (z) = -0.10204 0.67648
#
# Static dielectric constant tensor:
#      x y z
#    x 1.651390 0.000000 0.010790 
#    y 0.000000 1.651400 0.000000 
#    z 0.010790 0.000000 1.636330 
# 
# From -- ./inp_files/65998.got.cif
#   From: 2010.05.17/outbox.cif.g08.bks.cpg/sg12_33_cif.got.tgz:65998.got - 2010.06.03 13:09:07.
