data_PCOD9184270
_publ_section_title
;
Structure prediction by ZEFSAII (Michael W. Deem and Ramdas Pophale) SiO2 
 PCOD9184270
Probable space group: C 2/M
;
_chemical_formula_sum "Si O2"
_cell_formula_units_Z 44
_cell_length_a 23.231186
_cell_length_b 8.066381
_cell_length_c 10.458610
_cell_angle_alpha 90.000000
_cell_angle_beta 73.508430
_cell_angle_gamma 90.000000
_cell_volume 1879.230137
_symmetry_space_group_name_H-M "C 2/M"
_symmetry_group_IT_number 12
_symmetry_cell_setting 'monoclinic'
loop_
_space_group_symop_operation_xyz
x,y,z
-x,y,-z
-x,-y,-z
x,-y,z
1/2+x,1/2+y,z
1/2-x,1/2+y,-z
1/2-x,1/2-y,-z
1/2+x,1/2-y,z
loop_
_atom_site_type_symbol
_atom_site_label
_atom_site_fract_x
_atom_site_fract_y
_atom_site_fract_z
Si Si1 0.571674 0.000000 0.454783
Si Si2 0.472868 0.681023 0.159042
Si Si3 0.145469 0.809373 0.492259
Si Si4 0.331325 0.694203 0.242165
Si Si5 0.780247 0.182364 0.817607
Si Si6 0.847722 0.500000 0.858133
Si Si7 0.531476 0.000000 0.119356
O O1 0.500000 0.000000 0.500000
O O2 0.595838 0.832724 0.507683
O O3 0.607759 0.000000 0.295489
O O4 0.480414 0.500000 0.215931
O O5 0.402646 0.718840 0.187067
O O6 0.508001 0.832487 0.200108
O O7 0.500000 0.667300 0.000000
O O8 0.181099 0.772596 0.600416
O O9 0.186277 0.805690 0.340848
O O10 0.122879 0.000000 0.518869
O O11 0.318711 0.500000 0.225130
O O12 0.289037 0.795692 0.175913
O O13 0.807061 0.336147 0.878477
O O14 0.792685 0.000000 0.864702
O O15 0.897307 0.500000 0.937118
O O16 0.500000 0.000000 0.000000
#
# Coordination Sequence:
#
# PCOD9184270 Si02
#       7
#     4   8   8   8   8   4   4
#     4  10  22  34  52  80 120 165 194 233 284 342
#     4   9  20  37  57  88 114 142 189 250 301 342
#     4   9  20  34  49  80 122 155 201 237 280 341
#     4  10  19  33  58  87 119 154 200 245 288 342
#     4  10  20  35  55  85 121 165 188 236 292 349
#     4  10  22  40  56  84 127 150 194 241 294 351
#     4  10  22  40  66  86 110 149 197 247 291 352
#
# _framework density 23.413844000000001
#
# number of rings (size 3 to 8) (size 9 to 14) (size 15 to 20)
#    0.000    2.364    0.909    0.545    5.091    1.091 
#    0.000    0.000    0.000    4.364    0.000    0.000 
#    0.000    0.000    0.000    0.000    0.000    0.000 
#
# Total GULP energy -122981.661292 kJ/mol
# GULP energy per Si atom -5590.075513 kJ/mol
# Density = 2.336055 g / cm^3
# Si number density = 23.413844 Si / 1000 Ang^3
#
#
#
# Elastic Constant Matrix: (Units=GPa)
#
#
# Indices 1 2 3 4 5 6 
#
# 1 128.1633 100.6336 9.1430 0.0000 5.6299 0.0000
# 2 100.6336 199.5844 14.3832 0.0000 13.0389 0.0000
# 3 9.1430 14.3832 83.9901 0.0000 -4.4018 0.0000
# 4 0.0000 0.0000 0.0000 4.3296 0.0000 1.2763
# 5 5.6299 13.0389 -4.4018 0.0000 29.4601 0.0000
# 6 0.0000 0.0000 0.0000 1.2763 0.0000 31.0807
#
#
#
# Elastic Compliance Matrix: (Units=1/GPa)
#
#
# Indices 1 2 3 4 5 6 
#
# 1 0.012927 -0.006523 -0.000270 0.000000 0.000376 0.000000
# 2 -0.006523 0.008538 -0.000892 0.000000 -0.002665 0.000000
# 3 -0.000270 -0.000892 0.012207 0.000000 0.002270 0.000000
# 4 0.000000 0.000000 0.000000 0.233798 0.000000 -0.009601
# 5 0.000376 -0.002665 0.002270 0.000000 0.035391 0.000000
# 6 0.000000 0.000000 0.000000 -0.009601 0.000000 0.032569
#
#
# Mechanical properties :
#
#
# Convention : Reuss Voigt Hill
#
# Bulk Modulus (GPa) = 54.63939 73.33971 63.98955
# Shear Modulus (GPa) = 14.00946 32.14594 23.07770
#
# Velocity S-wave (km/s) = 2.44875 3.70935 3.14290
# Velocity P-wave (km/s) = 5.60198 7.05244 6.36864
#
# Compressibility (1/GPa) = 0.01830181
#
# Stress axis : x y z
#
# Youngs Moduli (GPa) = 77.35525 117.12417 81.91828
#
# Poissons Ratio (x) = 0.76403 0.02215
# Poissons Ratio (y) = 0.50461 0.07305
# Poissons Ratio (z) = 0.02092 0.10444
#
# Static dielectric constant tensor:
#      x y z
#    x 1.827480 0.000000 -0.017260 
#    y 0.000000 1.965180 0.000000 
#    z -0.017260 0.000000 1.957160 
# 
# From -- ./inp_files/163169.got.cif
#   From: 2010.05.17/outbox.cif.g08.bks.cpg/sg12_82_cif.got.tgz:163169.got - 2010.06.03 13:09:07.
