data_PCOD9184544
_publ_section_title
;
Structure prediction by ZEFSAII (Michael W. Deem and Ramdas Pophale) SiO2 
 PCOD9184544
Probable space group: C 2/M
;
_chemical_formula_sum "Si O2"
_cell_formula_units_Z 56
_cell_length_a 25.225805
_cell_length_b 7.741192
_cell_length_c 15.827001
_cell_angle_alpha 90.000000
_cell_angle_beta 73.468766
_cell_angle_gamma 90.000000
_cell_volume 2962.908697
_symmetry_space_group_name_H-M "C 2/M"
_symmetry_group_IT_number 12
_symmetry_cell_setting 'monoclinic'
loop_
_space_group_symop_operation_xyz
x,y,z
-x,y,-z
-x,-y,-z
x,-y,z
1/2+x,1/2+y,z
1/2-x,1/2+y,-z
1/2-x,1/2-y,-z
1/2+x,1/2-y,z
loop_
_atom_site_type_symbol
_atom_site_label
_atom_site_fract_x
_atom_site_fract_y
_atom_site_fract_z
Si Si1 0.808708 0.798377 0.114205
Si Si2 0.397713 0.205974 0.212185
Si Si3 0.809585 0.800058 0.771973
Si Si4 0.173835 0.708005 0.599754
Si Si5 0.296470 0.706973 0.594479
Si Si6 0.364165 0.712385 0.917672
Si Si7 0.513488 0.707697 0.088181
O O1 0.861316 0.781345 0.152052
O O2 0.755739 0.706163 0.177697
O O3 0.794170 0.000000 0.114112
O O4 0.826062 0.733002 0.013824
O O5 0.371687 0.267613 0.312522
O O6 0.461667 0.248216 0.170266
O O7 0.390768 0.000000 0.211052
O O8 0.817078 0.723388 0.675058
O O9 0.841062 0.725034 0.838571
O O10 0.827311 0.000000 0.759500
O O11 0.175064 0.500000 0.601819
O O12 0.234323 0.772794 0.602719
O O13 0.167623 0.757720 0.504882
O O14 0.291769 0.500000 0.605458
O O15 0.362982 0.500000 0.919014
O O16 0.426947 0.768303 0.906808
O O17 0.516978 0.500000 0.081298
O O18 0.500000 0.773600 0.000000
#
# Coordination Sequence:
#
# PCOD9184544 Si02
#       7
#     8   8   8   8   8   8   8
#     4  11  20  32  50  76 105 138 171 202 247 301
#     4  11  21  34  52  76 104 134 168 210 257 297
#     4  10  19  34  52  74 105 137 167 204 251 301
#     4   9  18  32  48  71 100 128 161 205 254 298
#     4   9  17  30  49  73  99 128 162 202 248 300
#     4   9  19  34  52  72 102 140 171 204 248 295
#     4  10  19  35  54  74 101 134 173 212 248 291
#
# _framework density 18.900347
#
# number of rings (size 3 to 8) (size 9 to 14) (size 15 to 20)
#    0.000    2.143    2.857    1.286    0.000    2.000 
#    0.000    1.429    0.000    0.857    0.000    6.000 
#    0.000    0.000    0.000    0.000    0.000    0.000 
#
# Total GULP energy -156263.885760 kJ/mol
# GULP energy per Si atom -5580.853063 kJ/mol
# Density = 1.885733 g / cm^3
# Si number density = 18.900347 Si / 1000 Ang^3
#
#
#
# Elastic Constant Matrix: (Units=GPa)
#
#
# Indices 1 2 3 4 5 6 
#
# 1 45.5774 -3.9972 38.0241 0.0000 12.7706 0.0000
# 2 -3.9972 29.0493 -0.8656 0.0000 4.9068 0.0000
# 3 38.0241 -0.8656 170.5286 0.0000 19.5935 0.0000
# 4 0.0000 0.0000 0.0000 17.7897 0.0000 -4.3457
# 5 12.7706 4.9068 19.5935 0.0000 30.4490 0.0000
# 6 0.0000 0.0000 0.0000 -4.3457 0.0000 11.8065
#
#
#
# Elastic Compliance Matrix: (Units=1/GPa)
#
#
# Indices 1 2 3 4 5 6 
#
# 1 0.029762 0.005598 -0.005475 0.000000 -0.009862 0.000000
# 2 0.005598 0.036569 -0.000125 0.000000 -0.008160 0.000000
# 3 -0.005475 -0.000125 0.007362 0.000000 -0.002421 0.000000
# 4 0.000000 0.000000 0.000000 0.061766 0.000000 0.022735
# 5 -0.009862 -0.008160 -0.002421 0.000000 0.039851 0.000000
# 6 0.000000 0.000000 0.000000 0.022735 0.000000 0.093067
#
#
# Mechanical properties :
#
#
# Convention : Reuss Voigt Hill
#
# Bulk Modulus (GPa) = 13.57032 34.60867 24.08950
# Shear Modulus (GPa) = 17.06803 26.14197 21.60500
#
# Velocity S-wave (km/s) = 3.00835 3.72310 3.38465
# Velocity P-wave (km/s) = 4.38889 6.06901 5.29600
#
# Compressibility (1/GPa) = 0.07369024
#
# Stress axis : x y z
#
# Youngs Moduli (GPa) = 33.59947 27.34545 135.82431
#
# Poissons Ratio (x) = -0.15308 0.74362
# Poissons Ratio (y) = -0.18809 0.01698
# Poissons Ratio (z) = 0.18395 0.00342
#
# Static dielectric constant tensor:
#      x y z
#    x 1.626840 0.000000 0.018200 
#    y 0.000000 1.695460 0.000000 
#    z 0.018200 0.000000 1.675570 
# 
# From -- ./inp_files/237308.got.cif
#   From: 2010.05.17/outbox.cif.g08.bks.cpg/sg12_119_cif.got.tgz:237308.got - 2010.06.03 13:09:07.
