data_PCOD9184305
_publ_section_title
;
Structure prediction by ZEFSAII (Michael W. Deem and Ramdas Pophale) SiO2 
 PCOD9184305
Probable space group: C 2/M
;
_chemical_formula_sum "Si O2"
_cell_formula_units_Z 64
_cell_length_a 13.334920
_cell_length_b 18.243254
_cell_length_c 14.451721
_cell_angle_alpha 90.000000
_cell_angle_beta 87.091415
_cell_angle_gamma 90.000000
_cell_volume 3511.174826
_symmetry_space_group_name_H-M "C 2/M"
_symmetry_group_IT_number 12
_symmetry_cell_setting 'monoclinic'
loop_
_space_group_symop_operation_xyz
x,y,z
-x,y,-z
-x,-y,-z
x,-y,z
1/2+x,1/2+y,z
1/2-x,1/2+y,-z
1/2-x,1/2-y,-z
1/2+x,1/2-y,z
loop_
_atom_site_type_symbol
_atom_site_label
_atom_site_fract_x
_atom_site_fract_y
_atom_site_fract_z
Si Si1 0.169639 0.170008 0.553449
Si Si2 0.266401 0.416153 0.165697
Si Si3 0.884625 0.088619 0.977377
Si Si4 0.451461 0.582745 0.300244
Si Si5 0.766645 0.415267 0.379931
Si Si6 0.661604 0.804317 0.297927
Si Si7 0.953237 0.680072 0.408261
Si Si8 0.847556 0.146249 0.777046
O O1 0.098158 0.109806 0.603389
O O2 0.204609 0.137445 0.453844
O O3 0.265629 0.181565 0.616851
O O4 0.107401 0.245894 0.559804
O O5 0.231066 0.500000 0.160671
O O6 0.364182 0.415693 0.227698
O O7 0.185978 0.365885 0.220662
O O8 0.308761 0.392610 0.064172
O O9 0.851601 0.127161 0.884491
O O10 0.883199 0.000000 0.964679
O O11 0.000000 0.107133 0.000000
O O12 0.490188 0.500000 0.305326
O O13 0.539498 0.635513 0.265046
O O14 0.767094 0.500000 0.411131
O O15 0.875916 0.378612 0.372124
O O16 0.718494 0.408574 0.281200
O O17 0.546806 0.804082 0.337034
O O18 0.687632 0.727125 0.249244
O O19 0.000000 0.648931 0.500000
#
# Coordination Sequence:
#
# PCOD9184305 Si02
#       8
#     8   8   8   8   8   8   8   8
#     4  11  22  41  60  85 121 157 201 251 303 359
#     4   9  20  38  62  90 118 154 205 253 298 357
#     4  10  19  36  63  94 125 157 195 250 314 366
#     4  10  19  33  58  89 118 152 194 245 303 360
#     4  12  26  40  58  89 124 164 209 251 299 361
#     4  11  23  40  64  88 121 163 201 249 306 362
#     4  12  23  41  61  82 116 164 206 247 296 356
#     4  12  22  37  60  91 130 157 195 252 311 371
#
# _framework density 18.227518
#
# number of rings (size 3 to 8) (size 9 to 14) (size 15 to 20)
#    0.000    1.125    5.000    2.625    0.000    1.750 
#    0.000    1.250    0.000    0.000    0.000    2.625 
#    0.000    0.000    0.000    0.000    0.000    0.000 
#
# Total GULP energy -178706.895358 kJ/mol
# GULP energy per Si atom -5584.590480 kJ/mol
# Density = 1.818603 g / cm^3
# Si number density = 18.227518 Si / 1000 Ang^3
#
#
#
# Elastic Constant Matrix: (Units=GPa)
#
#
# Indices 1 2 3 4 5 6 
#
# 1 63.8635 29.8223 32.4498 0.0000 -12.3744 0.0000
# 2 29.8223 83.7759 32.1661 0.0000 -5.9731 0.0000
# 3 32.4498 32.1661 107.9840 0.0000 -0.3867 0.0000
# 4 0.0000 0.0000 0.0000 20.8711 0.0000 -2.0826
# 5 -12.3744 -5.9731 -0.3867 0.0000 23.4480 0.0000
# 6 0.0000 0.0000 0.0000 -2.0826 0.0000 21.7212
#
#
#
# Elastic Compliance Matrix: (Units=1/GPa)
#
#
# Indices 1 2 3 4 5 6 
#
# 1 0.022891 -0.005380 -0.005238 0.000000 0.010623 0.000000
# 2 -0.005380 0.015014 -0.002852 0.000000 0.000938 0.000000
# 3 -0.005238 -0.002852 0.011673 0.000000 -0.003298 0.000000
# 4 0.000000 0.000000 0.000000 0.048376 0.000000 0.004638
# 5 0.010623 0.000938 -0.003298 0.000000 0.048438 0.000000
# 6 0.000000 0.000000 0.000000 0.004638 0.000000 0.046483
#
#
# Mechanical properties :
#
#
# Convention : Reuss Voigt Hill
#
# Bulk Modulus (GPa) = 44.17674 49.38887 46.78280
# Shear Modulus (GPa) = 21.99157 23.95376 22.97266
#
# Velocity S-wave (km/s) = 3.47724 3.62906 3.55396
# Velocity P-wave (km/s) = 6.35693 6.68690 6.52400
#
# Compressibility (1/GPa) = 0.02263634
#
# Stress axis : x y z
#
# Youngs Moduli (GPa) = 43.68604 66.60559 85.67118
#
# Poissons Ratio (x) = 0.35833 0.44876
# Poissons Ratio (y) = 0.23503 0.24435
# Poissons Ratio (z) = 0.22883 0.18997
#
# Static dielectric constant tensor:
#      x y z
#    x 1.630960 0.000000 0.001010 
#    y 0.000000 1.632370 0.000000 
#    z 0.001010 0.000000 1.624010 
# 
# From -- ./inp_files/206672.got.cif
#   From: 2010.05.17/outbox.cif.g08.bks.cpg/sg12_104_cif.got.tgz:206672.got - 2010.06.03 13:09:07.
