data_PCOD9184711
_publ_section_title
;
Structure prediction by ZEFSAII (Michael W. Deem and Ramdas Pophale) SiO2 
 PCOD9184711
Probable space group: C 2/M
;
_chemical_formula_sum "Si O2"
_cell_formula_units_Z 40
_cell_length_a 15.152960
_cell_length_b 18.816333
_cell_length_c 7.147837
_cell_angle_alpha 90.000000
_cell_angle_beta 57.353674
_cell_angle_gamma 90.000000
_cell_volume 1716.041202
_symmetry_space_group_name_H-M "C 2/M"
_symmetry_group_IT_number 12
_symmetry_cell_setting 'monoclinic'
loop_
_space_group_symop_operation_xyz
x,y,z
-x,y,-z
-x,-y,-z
x,-y,z
1/2+x,1/2+y,z
1/2-x,1/2+y,-z
1/2-x,1/2-y,-z
1/2+x,1/2-y,z
loop_
_atom_site_type_symbol
_atom_site_label
_atom_site_fract_x
_atom_site_fract_y
_atom_site_fract_z
Si Si1 0.689675 0.662345 0.002068
Si Si2 0.228107 0.913230 0.358559
Si Si3 0.591415 0.798685 0.277342
Si Si4 0.452049 0.078312 0.259664
Si Si5 0.011926 0.918066 0.714563
O O1 0.725031 0.627900 0.163599
O O2 0.638574 0.740289 0.083933
O O3 0.587662 0.615962 0.071349
O O4 0.799317 0.669790 0.766166
O O5 0.333657 0.900316 0.350541
O O6 0.129267 0.888804 0.595621
O O7 0.221331 0.000000 0.332354
O O8 0.500000 0.759359 0.500000
O O9 0.523631 0.863592 0.275908
O O10 0.453516 0.000000 0.348462
O O11 0.500000 0.071142 0.000000
O O12 0.000000 0.915077 0.500000
O O13 0.013266 0.000000 0.765483
#
# Coordination Sequence:
#
# PCOD9184711 Si02
#       5
#     8   8   8   8   8
#     4  10  19  34  54  76 115 143 181 222 275 329
#     4   9  16  31  59  86 104 136 189 236 265 306
#     4  11  23  36  53  80 114 147 180 225 279 330
#     4  10  20  36  58  81 109 146 187 227 268 322
#     4   8  14  26  50  80 103 131 178 229 267 306
#
# _framework density 23.309464999999999
#
# number of rings (size 3 to 8) (size 9 to 14) (size 15 to 20)
#    0.000    2.400    2.000    3.600    0.000    1.200 
#    0.000    4.000    0.000    0.000    0.000    4.200 
#    0.000    0.000    0.000    0.000    0.000    0.000 
#
# Total GULP energy -111457.427029 kJ/mol
# GULP energy per Si atom -5572.871351 kJ/mol
# Density = 2.325641 g / cm^3
# Si number density = 23.309465 Si / 1000 Ang^3
#
#
#
# Elastic Constant Matrix: (Units=GPa)
#
#
# Indices 1 2 3 4 5 6 
#
# 1 132.6016 48.1122 63.4750 0.0000 -66.7993 0.0000
# 2 48.1122 83.0950 5.7953 0.0000 -10.0402 0.0000
# 3 63.4750 5.7953 103.5691 0.0000 -37.7319 0.0000
# 4 0.0000 0.0000 0.0000 19.8282 0.0000 -17.1035
# 5 -66.7993 -10.0402 -37.7319 0.0000 65.7169 0.0000
# 6 0.0000 0.0000 0.0000 -17.1035 0.0000 32.4256
#
#
#
# Elastic Compliance Matrix: (Units=1/GPa)
#
#
# Indices 1 2 3 4 5 6 
#
# 1 0.025389 -0.011797 -0.007783 0.000000 0.019536 0.000000
# 2 -0.011797 0.017742 0.003612 0.000000 -0.007207 0.000000
# 3 -0.007783 0.003612 0.014595 0.000000 0.001021 0.000000
# 4 0.000000 0.000000 0.000000 0.092536 0.000000 0.048810
# 5 0.019536 -0.007207 0.001021 0.000000 0.034560 0.000000
# 6 0.000000 0.000000 0.000000 0.048810 0.000000 0.056586
#
#
# Mechanical properties :
#
#
# Convention : Reuss Voigt Hill
#
# Bulk Modulus (GPa) = 38.77468 61.55898 50.16683
# Shear Modulus (GPa) = 17.73430 37.05300 27.39365
#
# Velocity S-wave (km/s) = 2.76129 3.99132 3.43186
# Velocity P-wave (km/s) = 5.18046 6.90707 6.10511
#
# Compressibility (1/GPa) = 0.02579003
#
# Stress axis : x y z
#
# Youngs Moduli (GPa) = 39.38782 56.36312 68.51667
#
# Poissons Ratio (x) = 0.66490 0.53324
# Poissons Ratio (y) = 0.46465 -0.24746
# Poissons Ratio (z) = 0.30654 -0.20356
#
# Static dielectric constant tensor:
#      x y z
#    x 1.950460 0.000000 0.039010 
#    y 0.000000 1.900820 0.000000 
#    z 0.039010 0.000000 2.022680 
# 
# From -- ./inp_files/60862.got.cif
#   From: 2010.05.17/outbox.cif.g08.bks.cpg/sg12_31_cif.got.tgz:60862.got - 2010.06.03 13:09:07.
