data_PCOD9184519
_publ_section_title
;
Structure prediction by ZEFSAII (Michael W. Deem and Ramdas Pophale) SiO2 
 PCOD9184519
Probable space group: C 2/M
;
_chemical_formula_sum "Si O2"
_cell_formula_units_Z 44
_cell_length_a 7.313677
_cell_length_b 21.753050
_cell_length_c 15.221306
_cell_angle_alpha 90.000000
_cell_angle_beta 71.622429
_cell_angle_gamma 90.000000
_cell_volume 2298.126000
_symmetry_space_group_name_H-M "C 2/M"
_symmetry_group_IT_number 12
_symmetry_cell_setting 'monoclinic'
loop_
_space_group_symop_operation_xyz
x,y,z
-x,y,-z
-x,-y,-z
x,-y,z
1/2+x,1/2+y,z
1/2-x,1/2+y,-z
1/2-x,1/2-y,-z
1/2+x,1/2-y,z
loop_
_atom_site_type_symbol
_atom_site_label
_atom_site_fract_x
_atom_site_fract_y
_atom_site_fract_z
Si Si1 0.715883 0.429491 0.429617
Si Si2 0.000000 0.347534 0.500000
Si Si3 0.748101 0.203515 0.306892
Si Si4 0.183759 0.157806 0.271276
Si Si5 0.276960 0.671193 0.924525
Si Si6 0.770283 0.815486 0.112375
O O1 0.500000 0.429243 0.500000
O O2 0.781158 0.500000 0.412162
O O3 0.717088 0.394315 0.337128
O O4 0.845998 0.390840 0.476134
O O5 0.104218 0.308189 0.408682
O O6 0.770238 0.276469 0.288379
O O7 0.679545 0.176363 0.222501
O O8 0.954971 0.173503 0.297153
O O9 0.259116 0.139282 0.163053
O O10 0.233152 0.742597 0.908638
O O11 0.506878 0.666978 0.906701
O O12 0.190060 0.655720 0.033666
#
# Coordination Sequence:
#
# PCOD9184519 Si02
#       6
#     8   4   8   8   8   8
#     4  11  24  41  58  76 103 142 188 228 263 314
#     4  12  23  38  58  80 107 140 176 224 274 322
#     4  10  20  30  52  81 115 142 173 216 272 326
#     4  10  19  34  51  81 110 142 177 219 270 322
#     4   8  14  25  46  67 104 138 168 206 253 309
#     4   8  14  26  41  72 104 138 169 202 252 317
#
# _framework density 19.146035000000001
#
# number of rings (size 3 to 8) (size 9 to 14) (size 15 to 20)
#    0.000    2.364    1.818    1.364    1.273    2.909 
#    0.000    0.000    0.000    0.000    0.000   14.000 
#    0.000    0.000    0.000    0.000    0.000    0.000 
#
# Total GULP energy -122681.999933 kJ/mol
# GULP energy per Si atom -5576.454542 kJ/mol
# Density = 1.910246 g / cm^3
# Si number density = 19.146035 Si / 1000 Ang^3
#
#
#
# Elastic Constant Matrix: (Units=GPa)
#
#
# Indices 1 2 3 4 5 6 
#
# 1 62.6140 8.3305 38.3724 0.0000 4.3161 0.0000
# 2 8.3305 36.9928 32.4847 0.0000 12.3989 0.0000
# 3 38.3724 32.4847 194.0524 0.0000 19.2230 0.0000
# 4 0.0000 0.0000 0.0000 -45.7083 0.0000 -22.4825
# 5 4.3161 12.3989 19.2230 0.0000 35.6014 0.0000
# 6 0.0000 0.0000 0.0000 -22.4825 0.0000 4.5604
#
#
#
# Elastic Compliance Matrix: (Units=1/GPa)
#
#
# Indices 1 2 3 4 5 6 
#
# 1 0.018211 -0.001107 -0.003418 0.000000 0.000023 0.000000
# 2 -0.001107 0.034487 -0.004625 0.000000 -0.009379 0.000000
# 3 -0.003418 -0.004625 0.006765 0.000000 -0.001627 0.000000
# 4 0.000000 0.000000 0.000000 -0.006388 0.000000 -0.031492
# 5 0.000023 -0.009379 -0.001627 0.000000 0.032231 0.000000
# 6 0.000000 0.000000 0.000000 -0.031492 0.000000 0.064025
#
#
# Mechanical properties :
#
#
# Convention : Reuss Voigt Hill
#
# Bulk Modulus (GPa) = 24.29450 50.22605 37.26028
# Shear Modulus (GPa) = 27.57060 13.18882 20.37971
#
# Velocity S-wave (km/s) = 3.79887 2.62745 3.26611
# Velocity P-wave (km/s) = 5.65318 5.95775 5.80746
#
# Compressibility (1/GPa) = 0.04116159
#
# Stress axis : x y z
#
# Youngs Moduli (GPa) = 54.91088 28.99671 147.82831
#
# Poissons Ratio (x) = 0.03211 0.50529
# Poissons Ratio (y) = 0.06081 0.68371
# Poissons Ratio (z) = 0.18769 0.13411
#
# Static dielectric constant tensor:
#      x y z
#    x 1.744250 0.000000 -0.023770 
#    y 0.000000 1.599360 0.000000 
#    z -0.023770 0.000000 1.750730 
# 
# From -- ./inp_files/196446.got.cif
#   From: 2010.05.17/outbox.cif.g08.bks.cpg/sg12_99_cif.got.tgz:196446.got - 2010.06.03 13:09:07.
