data_PCOD9184520
_publ_section_title
;
Structure prediction by ZEFSAII (Michael W. Deem and Ramdas Pophale) SiO2 
 PCOD9184520
Probable space group: C 2/M
;
_chemical_formula_sum "Si O2"
_cell_formula_units_Z 64
_cell_length_a 11.575888
_cell_length_b 19.943098
_cell_length_c 21.320556
_cell_angle_alpha 90.000000
_cell_angle_beta 41.020305
_cell_angle_gamma 90.000000
_cell_volume 3230.467465
_symmetry_space_group_name_H-M "C 2/M"
_symmetry_group_IT_number 12
_symmetry_cell_setting 'monoclinic'
loop_
_space_group_symop_operation_xyz
x,y,z
-x,y,-z
-x,-y,-z
x,-y,z
1/2+x,1/2+y,z
1/2-x,1/2+y,-z
1/2-x,1/2-y,-z
1/2+x,1/2-y,z
loop_
_atom_site_type_symbol
_atom_site_label
_atom_site_fract_x
_atom_site_fract_y
_atom_site_fract_z
Si Si1 0.966290 0.920463 0.874396
Si Si2 0.621666 0.159664 0.603106
Si Si3 0.287544 0.178419 0.951027
Si Si4 0.583180 0.927893 0.398449
Si Si5 0.147406 0.718998 0.768403
Si Si6 0.080375 0.844388 0.714744
Si Si7 0.526981 0.693721 0.593124
Si Si8 0.266846 0.832250 0.815075
O O1 0.964799 0.896351 0.802208
O O2 0.145077 0.890263 0.833676
O O3 0.955908 0.000000 0.885212
O O4 0.809531 0.880216 0.972247
O O5 0.569231 0.094447 0.585358
O O6 0.565712 0.226866 0.587109
O O7 0.832812 0.166891 0.514967
O O8 0.476326 0.155664 0.718107
O O9 0.497937 0.172063 0.857848
O O10 0.222520 0.176706 0.905781
O O11 0.250000 0.250000 0.000000
O O12 0.500000 0.933963 0.500000
O O13 0.724860 0.869558 0.347647
O O14 0.663145 0.000000 0.347726
O O15 0.060750 0.772056 0.755421
O O16 0.319146 0.686753 0.666702
O O17 0.217202 0.765403 0.796907
O O18 0.060201 0.838877 0.648580
#
# Coordination Sequence:
#
# PCOD9184520 Si02
#       8
#     8   8   8   8   8   8   8   8
#     4  11  24  40  62  90 119 151 195 252 309 356
#     4  10  19  34  51  83 120 152 193 234 288 349
#     4  12  23  39  59  86 115 155 201 252 298 356
#     4  11  20  32  53  83 124 162 192 236 293 351
#     4  10  20  35  56  86 115 153 192 243 292 350
#     4  11  19  35  57  86 121 149 195 240 298 350
#     4  10  20  33  55  82 121 161 188 238 288 346
#     4  10  21  36  57  87 117 146 197 242 302 345
#
# _framework density 19.811374000000001
#
# number of rings (size 3 to 8) (size 9 to 14) (size 15 to 20)
#    0.000    1.375    7.500    2.250    0.000    1.000 
#    0.000    1.875    0.000    3.000    0.000    0.000 
#    0.000    6.000    0.000    0.000    0.000    0.000 
#
# Total GULP energy -178410.174518 kJ/mol
# GULP energy per Si atom -5575.317954 kJ/mol
# Density = 1.976628 g / cm^3
# Si number density = 19.811374 Si / 1000 Ang^3
#
#
#
# Elastic Constant Matrix: (Units=GPa)
#
#
# Indices 1 2 3 4 5 6 
#
# 1 47.3776 29.2283 39.4012 -0.0021 4.5199 -0.0004
# 2 29.2283 99.5909 51.6053 -0.0009 -3.1892 -0.0005
# 3 39.4012 51.6053 153.1117 -0.0044 -14.1699 0.0071
# 4 -0.0021 -0.0009 -0.0044 45.5663 0.0006 42.8547
# 5 4.5199 -3.1892 -14.1699 0.0006 46.1384 0.0019
# 6 -0.0004 -0.0005 0.0071 42.8547 0.0019 89.6185
#
#
#
# Elastic Compliance Matrix: (Units=1/GPa)
#
#
# Indices 1 2 3 4 5 6 
#
# 1 0.030520 -0.005818 -0.006388 0.000000 -0.005354 0.000001
# 2 -0.005818 0.013283 -0.002925 -0.000001 0.000590 0.000001
# 3 -0.006388 -0.002925 0.009469 0.000002 0.003332 -0.000002
# 4 0.000000 -0.000001 0.000002 0.039882 0.000001 -0.019071
# 5 -0.005354 0.000590 0.003332 0.000001 0.023262 -0.000001
# 6 0.000001 0.000001 -0.000002 -0.019071 -0.000001 0.020278
#
#
# Mechanical properties :
#
#
# Convention : Reuss Voigt Hill
#
# Bulk Modulus (GPa) = 43.46126 60.06106 51.76116
# Shear Modulus (GPa) = 28.63208 48.25436 38.44322
#
# Velocity S-wave (km/s) = 3.80575 4.94062 4.40985
# Velocity P-wave (km/s) = 6.42626 7.93276 7.21891
#
# Compressibility (1/GPa) = 0.02300900
#
# Stress axis : x y z
#
# Youngs Moduli (GPa) = 32.76531 75.28246 105.60311
#
# Poissons Ratio (x) = 0.43802 0.67463
# Poissons Ratio (y) = 0.19064 0.30891
# Poissons Ratio (z) = 0.20932 0.22022
#
# Static dielectric constant tensor:
#      x y z
#    x 1.752870 0.000000 -0.014930 
#    y 0.000000 1.684240 0.000000 
#    z -0.014930 0.000000 1.773200 
# 
# From -- ./inp_files/306771.got.cif
#   From: 2010.05.17/outbox.cif.g08.bks.cpg/sg12_154_cif.got.tgz:306771.got - 2010.06.03 13:09:07.
