data_PCOD9184563
_publ_section_title
;
Structure prediction by ZEFSAII (Michael W. Deem and Ramdas Pophale) SiO2 
 PCOD9184563
Probable space group: C 2/M
;
_chemical_formula_sum "Si O2"
_cell_formula_units_Z 60
_cell_length_a 24.581154
_cell_length_b 21.252128
_cell_length_c 5.740960
_cell_angle_alpha 90.000000
_cell_angle_beta 89.948104
_cell_angle_gamma 90.000000
_cell_volume 2999.086787
_symmetry_space_group_name_H-M "C 2/M"
_symmetry_group_IT_number 12
_symmetry_cell_setting 'monoclinic'
loop_
_space_group_symop_operation_xyz
x,y,z
-x,y,-z
-x,-y,-z
x,-y,z
1/2+x,1/2+y,z
1/2-x,1/2+y,-z
1/2-x,1/2-y,-z
1/2+x,1/2-y,z
loop_
_atom_site_type_symbol
_atom_site_label
_atom_site_fract_x
_atom_site_fract_y
_atom_site_fract_z
Si Si1 0.500000 0.171316 0.000000
Si Si2 0.423766 0.247141 0.281012
Si Si3 0.147624 0.645872 0.464282
Si Si4 0.162785 0.752711 0.077739
Si Si5 0.743326 0.804335 0.691325
Si Si6 0.563539 0.575403 0.000125
Si Si7 0.050212 0.428111 0.315528
Si Si8 0.435119 0.623706 0.501497
O O1 0.480028 0.217544 0.201401
O O2 0.542914 0.123415 0.112920
O O3 0.389132 0.188109 0.365648
O O4 0.426851 0.301692 0.468957
O O5 0.392293 0.271877 0.051560
O O6 0.153229 0.693106 0.245307
O O7 0.207905 0.640083 0.575192
O O8 0.110118 0.585802 0.417557
O O9 0.196204 0.808691 0.203924
O O10 0.204230 0.725897 0.884686
O O11 0.750000 0.750000 0.500000
O O12 0.564164 0.500000 0.009689
O O13 0.586188 0.599620 0.249262
O O14 0.500000 0.597401 0.000000
O O15 0.586304 0.595004 0.744651
O O16 0.046286 0.500000 0.233884
O O17 0.000000 0.418808 0.500000
O O18 0.500000 0.609768 0.500000
#
# Coordination Sequence:
#
# PCOD9184563 Si02
#       8
#     4   8   8   8   8   8   8   8
#     4  12  23  36  50  70 109 166 194 250 302 352
#     4  11  23  30  51  76 114 149 189 238 300 364
#     4  10  19  34  52  78 106 145 186 241 309 351
#     4   9  17  32  52  75 110 139 168 219 296 368
#     4   8  16  31  53  79 104 130 167 216 286 370
#     4   9  18  35  52  69  99 140 184 228 271 317
#     4  11  23  38  53  74 108 158 216 253 288 355
#     4  10  22  31  49  78 107 143 187 230 275 344
#
# _framework density 20.00609
#
# number of rings (size 3 to 8) (size 9 to 14) (size 15 to 20)
#    0.000    2.133    2.667    0.600    6.533    1.600 
#    0.000    0.000    0.000    0.000    0.000    1.867 
#    0.000    0.000    0.000    0.000    0.000    0.000 
#
# Total GULP energy -167057.365058 kJ/mol
# GULP energy per Si atom -5568.578835 kJ/mol
# Density = 1.996055 g / cm^3
# Si number density = 20.006090 Si / 1000 Ang^3
#
#
#
# Elastic Constant Matrix: (Units=GPa)
#
#
# Indices 1 2 3 4 5 6 
#
# 1 52.0044 20.8061 15.5527 0.0000 8.7088 0.0000
# 2 20.8061 64.6904 29.9514 0.0000 10.7641 0.0000
# 3 15.5527 29.9514 83.8524 0.0000 17.8409 0.0000
# 4 0.0000 0.0000 0.0000 21.2778 0.0000 0.3651
# 5 8.7088 10.7641 17.8409 0.0000 22.3250 0.0000
# 6 0.0000 0.0000 0.0000 0.3651 0.0000 11.5988
#
#
#
# Elastic Compliance Matrix: (Units=1/GPa)
#
#
# Indices 1 2 3 4 5 6 
#
# 1 0.022800 -0.006016 -0.000970 0.000000 -0.005219 0.000000
# 2 -0.006016 0.020473 -0.005537 0.000000 -0.003099 0.000000
# 3 -0.000970 -0.005537 0.016187 0.000000 -0.009888 0.000000
# 4 0.000000 0.000000 0.000000 0.047023 0.000000 -0.001480
# 5 -0.005219 -0.003099 -0.009888 0.000000 0.056225 0.000000
# 6 0.000000 0.000000 0.000000 -0.001480 0.000000 0.086262
#
#
# Mechanical properties :
#
#
# Convention : Reuss Voigt Hill
#
# Bulk Modulus (GPa) = 29.05804 37.01860 33.03832
# Shear Modulus (GPa) = 17.51398 19.98947 18.75172
#
# Velocity S-wave (km/s) = 2.96198 3.16439 3.06486
# Velocity P-wave (km/s) = 5.12386 5.64757 5.39207
#
# Compressibility (1/GPa) = 0.03441388
#
# Stress axis : x y z
#
# Youngs Moduli (GPa) = 43.85992 48.84594 61.77678
#
# Poissons Ratio (x) = 0.29384 0.05991
# Poissons Ratio (y) = 0.26385 0.34209
# Poissons Ratio (z) = 0.04253 0.27048
#
# Static dielectric constant tensor:
#      x y z
#    x 1.810760 0.000000 0.020080 
#    y 0.000000 1.690400 0.000000 
#    z 0.020080 0.000000 1.844520 
# 
# From -- ./inp_files/25655.got.cif
#   From: 2010.05.17/outbox.cif.g08.bks.cpg/sg12_13_cif.got.tgz:25655.got - 2010.06.03 13:09:07.
