data_PCOD9184354
_publ_section_title
;
Structure prediction by ZEFSAII (Michael W. Deem and Ramdas Pophale) SiO2 
 PCOD9184354
Probable space group: C 2/M
;
_chemical_formula_sum "Si O2"
_cell_formula_units_Z 48
_cell_length_a 26.406294
_cell_length_b 11.958045
_cell_length_c 8.884593
_cell_angle_alpha 90.000000
_cell_angle_beta 60.781060
_cell_angle_gamma 90.000000
_cell_volume 2448.501572
_symmetry_space_group_name_H-M "C 2/M"
_symmetry_group_IT_number 12
_symmetry_cell_setting 'monoclinic'
loop_
_space_group_symop_operation_xyz
x,y,z
-x,y,-z
-x,-y,-z
x,-y,z
1/2+x,1/2+y,z
1/2-x,1/2+y,-z
1/2-x,1/2-y,-z
1/2+x,1/2-y,z
loop_
_atom_site_type_symbol
_atom_site_label
_atom_site_fract_x
_atom_site_fract_y
_atom_site_fract_z
Si Si1 0.866093 0.198002 0.041856
Si Si2 0.820303 0.285644 0.567055
Si Si3 0.752218 0.374421 0.918437
Si Si4 0.970872 0.132289 0.699463
Si Si5 0.912599 0.129496 0.303206
Si Si6 0.791786 0.626606 0.287876
O O1 0.808478 0.127425 0.086350
O O2 0.894132 0.156095 0.158501
O O3 0.840786 0.320989 0.110045
O O4 0.912575 0.190062 0.841782
O O5 0.807763 0.360731 0.729299
O O6 0.877296 0.211316 0.465089
O O7 0.813915 0.357561 0.425573
O O8 0.766508 0.198618 0.642276
O O9 0.754382 0.500000 0.986489
O O10 0.750000 0.250000 0.000000
O O11 0.000000 0.169213 0.500000
O O12 0.019760 0.143493 0.757834
O O13 0.957484 0.000000 0.701982
O O14 0.897799 0.000000 0.356122
O O15 0.779276 0.500000 0.276232
#
# Coordination Sequence:
#
# PCOD9184354 Si02
#       6
#     8   8   8   8   8   8
#     4  10  21  37  58  84 116 151 193 241 291 346
#     4   9  19  32  53  83 113 147 185 233 285 343
#     4  11  24  38  57  84 121 161 195 239 294 352
#     4  10  21  35  56  84 115 150 187 237 295 349
#     4  10  19  33  59  88 116 149 189 238 291 349
#     4   9  17  32  56  83 112 146 187 235 285 341
#
# _framework density 19.603826999999999
#
# number of rings (size 3 to 8) (size 9 to 14) (size 15 to 20)
#    0.000    2.167    0.000    4.000    2.333    4.667 
#    0.000    0.000    0.000    9.500    0.000    0.000 
#    0.000    0.000    0.000    0.000    0.000    0.000 
#
# Total GULP energy -133781.986246 kJ/mol
# GULP energy per Si atom -5574.249427 kJ/mol
# Density = 1.955921 g / cm^3
# Si number density = 19.603827 Si / 1000 Ang^3
#
#
#
# Elastic Constant Matrix: (Units=GPa)
#
#
# Indices 1 2 3 4 5 6 
#
# 1 37.4250 13.4344 14.0971 0.0000 -0.2601 0.0000
# 2 13.4344 108.5159 34.1478 0.0000 2.2534 0.0000
# 3 14.0971 34.1478 115.8895 0.0000 -17.2978 0.0000
# 4 0.0000 0.0000 0.0000 12.7780 0.0000 0.2230
# 5 -0.2601 2.2534 -17.2978 0.0000 30.8294 0.0000
# 6 0.0000 0.0000 0.0000 0.2230 0.0000 8.0127
#
#
#
# Elastic Compliance Matrix: (Units=1/GPa)
#
#
# Indices 1 2 3 4 5 6 
#
# 1 0.028746 -0.002620 -0.002903 0.000000 -0.001195 0.000000
# 2 -0.002620 0.010597 -0.003190 0.000000 -0.002586 0.000000
# 3 -0.002903 -0.003190 0.010863 0.000000 0.006304 0.000000
# 4 0.000000 0.000000 0.000000 0.078297 0.000000 -0.002179
# 5 -0.001195 -0.002586 0.006304 0.000000 0.036152 0.000000
# 6 0.000000 0.000000 0.000000 -0.002179 0.000000 0.124863
#
#
# Mechanical properties :
#
#
# Convention : Reuss Voigt Hill
#
# Bulk Modulus (GPa) = 30.50691 42.79877 36.65284
# Shear Modulus (GPa) = 15.72963 23.66742 19.69853
#
# Velocity S-wave (km/s) = 2.83570 3.47837 3.17335
# Velocity P-wave (km/s) = 5.13002 6.16533 5.67135
#
# Compressibility (1/GPa) = 0.03277946
#
# Stress axis : x y z
#
# Youngs Moduli (GPa) = 34.78752 94.36508 92.05709
#
# Poissons Ratio (x) = 0.24728 0.26723
# Poissons Ratio (y) = 0.09116 0.29365
# Poissons Ratio (z) = 0.10099 0.30101
#
# Static dielectric constant tensor:
#      x y z
#    x 1.703990 0.000000 0.060280 
#    y 0.000000 1.682210 0.000000 
#    z 0.060280 0.000000 1.741040 
# 
# From -- ./inp_files/94341.got.cif
#   From: 2010.05.17/outbox.cif.g08.bks.cpg/sg12_48_cif.got.tgz:94341.got - 2010.06.03 13:09:07.
