data_PCOD9184263
_publ_section_title
;
Structure prediction by ZEFSAII (Michael W. Deem and Ramdas Pophale) SiO2 
 PCOD9184263
Probable space group: C 2/M
;
_chemical_formula_sum "Si O2"
_cell_formula_units_Z 52
_cell_length_a 17.581129
_cell_length_b 14.011368
_cell_length_c 14.925281
_cell_angle_alpha 90.000000
_cell_angle_beta 141.260297
_cell_angle_gamma 90.000000
_cell_volume 2300.773086
_symmetry_space_group_name_H-M "C 2/M"
_symmetry_group_IT_number 12
_symmetry_cell_setting 'monoclinic'
loop_
_space_group_symop_operation_xyz
x,y,z
-x,y,-z
-x,-y,-z
x,-y,z
1/2+x,1/2+y,z
1/2-x,1/2+y,-z
1/2-x,1/2-y,-z
1/2+x,1/2-y,z
loop_
_atom_site_type_symbol
_atom_site_label
_atom_site_fract_x
_atom_site_fract_y
_atom_site_fract_z
Si Si1 0.207860 0.106371 0.422951
Si Si2 0.927938 0.392815 0.765486
Si Si3 0.558107 0.608267 0.786756
Si Si4 0.597995 0.812047 0.776271
Si Si5 0.160806 0.893674 0.066770
Si Si6 0.275040 0.246239 0.722950
Si Si7 0.000000 0.271626 0.500000
O O1 0.319611 0.105134 0.592845
O O2 0.084140 0.120522 0.365654
O O3 0.222610 0.189036 0.364410
O O4 0.199877 0.000000 0.373911
O O5 0.967646 0.500000 0.821630
O O6 0.865731 0.340751 0.791305
O O7 0.031132 0.336048 0.807033
O O8 0.597172 0.500000 0.799398
O O9 0.626793 0.698594 0.808383
O O10 0.561390 0.615911 0.898092
O O11 0.714182 0.878601 0.873145
O O12 0.520321 0.827362 0.613137
O O13 0.170347 0.813380 0.149681
O O14 0.153793 0.000000 0.098837
O O15 0.132676 0.222266 0.610921
#
# Coordination Sequence:
#
# PCOD9184263 Si02
#       7
#     8   8   8   8   8   8   4
#     4  10  19  33  58  87 115 152 190 236 291 346
#     4  11  22  37  62  89 119 156 198 242 296 360
#     4  10  21  38  61  88 117 156 202 239 288 352
#     4  11  20  40  62  88 121 155 194 242 301 345
#     4  10  23  39  59  90 120 154 199 246 293 344
#     4  11  20  38  56  87 123 155 193 241 300 344
#     4  10  22  34  62  86 120 154 186 244 294 352
#
# _framework density 22.601099999999999
#
# number of rings (size 3 to 8) (size 9 to 14) (size 15 to 20)
#    0.000    1.538    3.077    2.769    0.000    0.615 
#    0.000    8.462    0.000    2.769    0.000    0.000 
#    0.000    0.000    0.000    0.000    0.000    0.000 
#
# Total GULP energy -145185.052847 kJ/mol
# GULP energy per Si atom -5584.040494 kJ/mol
# Density = 2.254966 g / cm^3
# Si number density = 22.601100 Si / 1000 Ang^3
#
#
#
# Elastic Constant Matrix: (Units=GPa)
#
#
# Indices 1 2 3 4 5 6 
#
# 1 76.9742 35.9829 0.1413 0.0000 2.5866 0.0000
# 2 35.9829 127.6969 9.5184 0.0000 -6.9064 0.0000
# 3 0.1413 9.5184 31.1628 0.0000 -2.7968 0.0000
# 4 0.0000 0.0000 0.0000 18.7590 0.0000 -6.5655
# 5 2.5866 -6.9064 -2.7968 0.0000 19.7434 0.0000
# 6 0.0000 0.0000 0.0000 -6.5655 0.0000 26.7107
#
#
#
# Elastic Compliance Matrix: (Units=1/GPa)
#
#
# Indices 1 2 3 4 5 6 
#
# 1 0.015234 -0.004555 0.001013 0.000000 -0.003446 0.000000
# 2 -0.004555 0.009498 -0.002561 0.000000 0.003556 0.000000
# 3 0.001013 -0.002561 0.033197 0.000000 0.003674 0.000000
# 4 0.000000 0.000000 0.000000 0.058325 0.000000 0.014336
# 5 -0.003446 0.003556 0.003674 0.000000 0.052866 0.000000
# 6 0.000000 0.000000 0.000000 0.014336 0.000000 0.040962
#
#
# Mechanical properties :
#
#
# Convention : Reuss Voigt Hill
#
# Bulk Modulus (GPa) = 21.87071 36.34656 29.10863
# Shear Modulus (GPa) = 21.05003 25.72204 23.38603
#
# Velocity S-wave (km/s) = 3.05515 3.37722 3.22021
# Velocity P-wave (km/s) = 4.70564 5.59680 5.17046
#
# Compressibility (1/GPa) = 0.04572326
#
# Stress axis : x y z
#
# Youngs Moduli (GPa) = 65.64066 105.28841 30.12318
#
# Poissons Ratio (x) = 0.47955 -0.03051
# Poissons Ratio (y) = 0.29897 0.07715
# Poissons Ratio (z) = -0.06649 0.26966
#
# Static dielectric constant tensor:
#      x y z
#    x 1.861780 0.000000 -0.000440 
#    y 0.000000 1.845740 0.000000 
#    z -0.000440 0.000000 1.875540 
# 
# From -- ./inp_files/225799.got.cif
#   From: 2010.05.17/outbox.cif.g08.bks.cpg/sg12_113_cif.got.tgz:225799.got - 2010.06.03 13:09:07.
