data_PCOD9184450
_publ_section_title
;
Structure prediction by ZEFSAII (Michael W. Deem and Ramdas Pophale) SiO2 
 PCOD9184450
Probable space group: C 2/M
;
_chemical_formula_sum "Si O2"
_cell_formula_units_Z 56
_cell_length_a 24.820853
_cell_length_b 30.561599
_cell_length_c 5.254793
_cell_angle_alpha 90.000000
_cell_angle_beta 54.753431
_cell_angle_gamma 90.000000
_cell_volume 3255.354148
_symmetry_space_group_name_H-M "C 2/M"
_symmetry_group_IT_number 12
_symmetry_cell_setting 'monoclinic'
loop_
_space_group_symop_operation_xyz
x,y,z
-x,y,-z
-x,-y,-z
x,-y,z
1/2+x,1/2+y,z
1/2-x,1/2+y,-z
1/2-x,1/2-y,-z
1/2+x,1/2-y,z
loop_
_atom_site_type_symbol
_atom_site_label
_atom_site_fract_x
_atom_site_fract_y
_atom_site_fract_z
Si Si1 0.077250 0.752112 0.314839
Si Si2 0.808461 0.095177 0.651504
Si Si3 0.732334 0.319367 0.477047
Si Si4 0.809109 0.000000 0.582645
Si Si5 0.558906 0.583325 0.032749
Si Si6 0.885801 0.153659 0.833444
Si Si7 0.106316 0.000000 0.156287
Si Si8 0.157535 0.734658 0.574717
O O1 0.086648 0.803105 0.374636
O O2 0.115705 0.726761 0.434169
O O3 0.000000 0.742258 0.500000
O O4 0.111120 0.744662 0.946518
O O5 0.762077 0.135361 0.692384
O O6 0.776029 0.046864 0.745429
O O7 0.869764 0.086591 0.295569
O O8 0.848571 0.115731 0.778092
O O9 0.795537 0.304801 0.464029
O O10 0.706999 0.276367 0.393281
O O11 0.671387 0.328829 0.828344
O O12 0.833876 0.000000 0.220070
O O13 0.870152 0.000000 0.617569
O O14 0.565426 0.543059 0.204623
O O15 0.500000 0.576553 0.000000
O O16 0.555855 0.630104 0.174523
#
# Coordination Sequence:
#
# PCOD9184450 Si02
#       8
#     8   8   8   4   8   8   4   8
#     4  11  23  35  52  74 106 133 165 202 256 303
#     4  10  19  34  47  71  92 133 166 218 253 304
#     4   9  20  33  54  73  98 126 179 209 253 295
#     4  10  20  34  53  64 100 124 171 209 268 296
#     4  10  21  31  44  62  92 128 173 220 263 296
#     4  10  20  31  48  69  96 128 172 210 250 297
#     4  10  19  36  44  64  84 128 172 220 253 303
#     4  10  21  36  54  77  99 134 166 215 247 298
#
# _framework density 17.20243
#
# number of rings (size 3 to 8) (size 9 to 14) (size 15 to 20)
#    0.000    2.000    2.857    0.643    4.000    1.714 
#    0.000    1.429    0.000    0.000    0.000    0.000 
#    0.000    0.000    0.000    3.857    0.000    0.500 
#
# Total GULP energy -155978.150672 kJ/mol
# GULP energy per Si atom -5570.648238 kJ/mol
# Density = 1.716328 g / cm^3
# Si number density = 17.202430 Si / 1000 Ang^3
#
#
#
# Elastic Constant Matrix: (Units=GPa)
#
#
# Indices 1 2 3 4 5 6 
#
# 1 86.8839 31.4417 -1.3146 0.0000 9.0845 0.0000
# 2 31.4417 85.6452 -4.9522 0.0000 -2.2004 0.0000
# 3 -1.3146 -4.9522 24.1540 0.0000 5.4109 0.0000
# 4 0.0000 0.0000 0.0000 -25.6888 0.0000 23.0877
# 5 9.0845 -2.2004 5.4109 0.0000 18.4801 0.0000
# 6 0.0000 0.0000 0.0000 23.0877 0.0000 18.5403
#
#
#
# Elastic Compliance Matrix: (Units=1/GPa)
#
#
# Indices 1 2 3 4 5 6 
#
# 1 0.014330 -0.005383 0.001496 0.000000 -0.008123 0.000000
# 2 -0.005383 0.013848 0.001695 0.000000 0.003799 0.000000
# 3 0.001496 0.001695 0.044894 0.000000 -0.013678 0.000000
# 4 0.000000 0.000000 0.000000 -0.018369 0.000000 0.022875
# 5 -0.008123 0.003799 -0.013678 0.000000 0.062563 0.000000
# 6 0.000000 0.000000 0.000000 0.022875 0.000000 0.025452
#
#
# Mechanical properties :
#
#
# Convention : Reuss Voigt Hill
#
# Bulk Modulus (GPa) = 14.55846 27.44810 21.00328
# Shear Modulus (GPa) = 29.41242 13.70020 21.55631
#
# Velocity S-wave (km/s) = 4.13944 2.82514 3.54375
# Velocity P-wave (km/s) = 5.59714 5.16066 5.38333
#
# Compressibility (1/GPa) = 0.06868857
#
# Stress axis : x y z
#
# Youngs Moduli (GPa) = 69.78598 72.21365 22.27454
#
# Poissons Ratio (x) = 0.38871 -0.03332
# Poissons Ratio (y) = 0.37564 -0.03776
# Poissons Ratio (z) = -0.10440 -0.12242
#
# Static dielectric constant tensor:
#      x y z
#    x 1.583580 0.000000 0.046290 
#    y 0.000000 1.678490 0.000000 
#    z 0.046290 0.000000 1.649420 
# 
# From -- ./inp_files/22660.got.cif
#   From: 2010.05.17/outbox.cif.g08.bks.cpg/sg12_12_cif.got.tgz:22660.got - 2010.06.03 13:09:07.
