data_PCOD9184109
_publ_section_title
;
Structure prediction by ZEFSAII (Michael W. Deem and Ramdas Pophale) SiO2 
 PCOD9184109
Probable space group: C 2/M
;
_chemical_formula_sum "Si O2"
_cell_formula_units_Z 58
_cell_length_a 25.892060
_cell_length_b 7.271240
_cell_length_c 12.256270
_cell_angle_alpha 90.000000
_cell_angle_beta 108.093389
_cell_angle_gamma 90.000000
_cell_volume 2193.355806
_symmetry_space_group_name_H-M "C 2/M"
_symmetry_group_IT_number 12
_symmetry_cell_setting 'monoclinic'
loop_
_space_group_symop_operation_xyz
x,y,z
-x,y,-z
-x,-y,-z
x,-y,z
1/2+x,1/2+y,z
1/2-x,1/2+y,-z
1/2-x,1/2-y,-z
1/2+x,1/2-y,z
loop_
_atom_site_type_symbol
_atom_site_label
_atom_site_fract_x
_atom_site_fract_y
_atom_site_fract_z
Si Si1 0.445234 0.724236 0.898862
Si Si2 0.808284 0.217176 0.597736
Si Si3 0.349639 0.713135 0.992353
Si Si4 0.000000 0.500000 0.500000
Si Si5 0.648818 0.275276 0.591336
Si Si6 0.902225 0.782993 0.235210
Si Si7 0.474856 0.281248 0.681663
Si Si8 0.257303 0.203910 0.782064
O O1 0.445745 0.500000 0.895708
O O2 0.393582 0.787458 0.935389
O O3 0.442077 0.776338 0.768849
O O4 0.500000 0.778953 0.000000
O O5 0.750000 0.250000 0.500000
O O6 0.850163 0.285442 0.533278
O O7 0.800613 0.299776 0.711172
O O8 0.816501 0.000000 0.620893
O O9 0.364381 0.500000 0.012599
O O10 0.289519 0.719248 0.905079
O O11 0.360125 0.791493 0.119232
O O12 0.021908 0.660495 0.424973
O O13 0.650456 0.500000 0.582832
O O14 0.603904 0.208395 0.646567
O O15 0.703959 0.214702 0.690550
O O16 0.962855 0.764356 0.233286
O O17 0.892462 0.000000 0.243616
O O18 0.464382 0.500000 0.650365
O O19 0.240781 0.000000 0.803614
#
# Coordination Sequence:
#
# PCOD9184109 Si02
#       8
#     8   8   8   2   8   8   8   8
#     4   9  16  34  63  90 111 149 201 248 304 369
#     4   9  16  30  52  73 101 139 184 232 278 331
#     4  10  19  33  57  85 113 142 191 246 295 361
#     4  12  26  44  62  94 132 160 210 254 296 386
#     4   8  16  31  53  78 108 148 196 237 283 347
#     4   9  17  34  61  85 106 150 199 237 294 364
#     4  10  21  42  68  90 126 166 199 253 313 363
#     4  10  20  34  49  76 116 152 188 240 292 343
#
# _framework density 26.4435
#
# number of rings (size 3 to 8) (size 9 to 14) (size 15 to 20)
#    0.000    2.621    1.379    1.862    0.000    0.552 
#    4.966    0.345    7.586    0.000    0.000    0.000 
#    0.000    0.000    0.000    0.000    0.000    0.000 
#
# Total GULP energy -161753.264601 kJ/mol
# GULP energy per Si atom -5577.698779 kJ/mol
# Density = 2.638331 g / cm^3
# Si number density = 26.443500 Si / 1000 Ang^3
#
#
#
# Elastic Constant Matrix: (Units=GPa)
#
#
# Indices 1 2 3 4 5 6 
#
# 1 58.2624 -14.3899 26.6718 0.0000 -6.5664 0.0000
# 2 -14.3899 127.4500 9.5298 0.0000 -3.8584 0.0000
# 3 26.6718 9.5298 163.5178 0.0000 6.3691 0.0000
# 4 0.0000 0.0000 0.0000 -38.5697 0.0000 -19.5753
# 5 -6.5664 -3.8584 6.3691 0.0000 50.7981 0.0000
# 6 0.0000 0.0000 0.0000 -19.5753 0.0000 -51.1919
#
#
#
# Elastic Compliance Matrix: (Units=1/GPa)
#
#
# Indices 1 2 3 4 5 6 
#
# 1 0.019765 0.002590 -0.003499 0.000000 0.003190 0.000000
# 2 0.002590 0.008242 -0.000945 0.000000 0.001079 0.000000
# 3 -0.003499 -0.000945 0.006795 0.000000 -0.001376 0.000000
# 4 0.000000 0.000000 0.000000 -0.032171 0.000000 0.012302
# 5 0.003190 0.001079 -0.001376 0.000000 0.020353 0.000000
# 6 0.000000 0.000000 0.000000 0.012302 0.000000 -0.024238
#
#
# Mechanical properties :
#
#
# Convention : Reuss Voigt Hill
#
# Bulk Modulus (GPa) = 32.16112 43.65040 37.90576
# Shear Modulus (GPa) = 390.07611 14.03518 202.05565
#
# Velocity S-wave (km/s) = 12.15867 2.30632 8.75078
# Velocity P-wave (km/s) = 14.46719 4.86159 10.79200
#
# Compressibility (1/GPa) = 0.03109344
#
# Stress axis : x y z
#
# Youngs Moduli (GPa) = 50.59509 121.33072 147.16815
#
# Poissons Ratio (x) = -0.31422 0.51495
# Poissons Ratio (y) = -0.13103 0.13904
# Poissons Ratio (z) = 0.17704 0.11463
#
# Static dielectric constant tensor:
#      x y z
#    x 2.120340 0.000000 0.012600 
#    y 0.000000 1.988640 0.000000 
#    z 0.012600 0.000000 2.059400 
# 
# From -- ./inp_files/186725.got.cif
#   From: 2010.05.17/outbox.cif.g08.bks.cpg/sg12_94_cif.got.tgz:186725.got - 2010.06.03 13:09:07.
