data_PCOD9184807
_publ_section_title
;
Structure prediction by ZEFSAII (Michael W. Deem and Ramdas Pophale) SiO2 
 PCOD9184807
Probable space group: C 2/M
;
_chemical_formula_sum "Si O2"
_cell_formula_units_Z 56
_cell_length_a 26.813647
_cell_length_b 15.233033
_cell_length_c 24.821725
_cell_angle_alpha 90.000000
_cell_angle_beta 16.248502
_cell_angle_gamma 90.000000
_cell_volume 2836.795404
_symmetry_space_group_name_H-M "C 2/M"
_symmetry_group_IT_number 12
_symmetry_cell_setting 'monoclinic'
loop_
_space_group_symop_operation_xyz
x,y,z
-x,y,-z
-x,-y,-z
x,-y,z
1/2+x,1/2+y,z
1/2-x,1/2+y,-z
1/2-x,1/2-y,-z
1/2+x,1/2-y,z
loop_
_atom_site_type_symbol
_atom_site_label
_atom_site_fract_x
_atom_site_fract_y
_atom_site_fract_z
Si Si1 0.632224 0.739387 0.247664
Si Si2 0.652416 0.211103 0.884377
Si Si3 0.624144 0.598929 0.432153
Si Si4 0.335735 0.602317 0.880776
Si Si5 0.484207 0.902193 0.700114
Si Si6 0.057768 0.595104 0.813880
Si Si7 0.264370 0.353257 0.493432
O O1 0.744108 0.777362 0.183214
O O2 0.509283 0.669197 0.405401
O O3 0.702244 0.677208 0.125170
O O4 0.534692 0.820990 0.320810
O O5 0.777485 0.144707 0.720482
O O6 0.500000 0.241466 0.000000
O O7 0.565568 0.156007 0.022879
O O8 0.555755 0.500000 0.494101
O O9 0.770664 0.589185 0.326264
O O10 0.341796 0.500000 0.855169
O O11 0.532624 0.620924 0.702145
O O12 0.179464 0.607844 0.087376
O O13 0.671414 0.896192 0.537946
O O14 0.468091 0.000000 0.693062
O O15 0.972337 0.500000 0.896654
O O16 0.133916 0.623956 0.678096
O O17 0.250000 0.250000 0.500000
#
# Coordination Sequence:
#
# PCOD9184807 Si02
#       7
#     8   8   8   8   8   8   8
#     4  12  22  38  61  84 120 157 203 246 303 366
#     4  10  23  37  57  84 116 158 198 249 307 364
#     4  10  20  36  57  86 120 154 196 243 299 368
#     4  11  23  39  62  93 128 166 203 244 300 369
#     4  11  25  42  61  90 126 163 208 257 301 357
#     4  10  19  34  54  83 121 159 196 234 290 364
#     4  12  22  37  63  91 130 167 204 247 298 360
#
# _framework density 19.740584999999999
#
# number of rings (size 3 to 8) (size 9 to 14) (size 15 to 20)
#    0.000    1.143    2.857    3.857    2.000    5.714 
#    0.000    0.000    0.000    2.143    0.000    0.000 
#    0.000    0.000    0.000    0.000    0.000    0.000 
#
# Total GULP energy -156047.352044 kJ/mol
# GULP energy per Si atom -5573.119716 kJ/mol
# Density = 1.969565 g / cm^3
# Si number density = 19.740585 Si / 1000 Ang^3
#
#
#
# Elastic Constant Matrix: (Units=GPa)
#
#
# Indices 1 2 3 4 5 6 
#
# 1 140.4124 53.1814 25.1746 -0.0007 -6.8334 0.0021
# 2 53.1814 65.5519 -21.4944 0.0225 -22.6471 -0.0008
# 3 25.1746 -21.4944 31.3055 0.0100 -28.7966 0.0007
# 4 -0.0007 0.0225 0.0100 9.1641 0.0122 -12.6123
# 5 -6.8334 -22.6471 -28.7966 0.0122 -0.2612 -0.0120
# 6 0.0021 -0.0008 0.0007 -12.6123 -0.0120 -12.3007
#
#
#
# Elastic Compliance Matrix: (Units=1/GPa)
#
#
# Indices 1 2 3 4 5 6 
#
# 1 0.008827 -0.003333 0.000430 -0.000007 0.010672 -0.000001
# 2 -0.003333 0.009729 -0.006702 0.000012 -0.017462 0.000004
# 3 0.000430 -0.006702 0.005382 0.000031 -0.023497 -0.000008
# 4 -0.000007 0.000012 0.000031 0.045257 0.000033 -0.046404
# 5 0.010672 -0.017462 -0.023497 0.000033 -0.003181 -0.000029
# 6 -0.000001 0.000004 -0.000008 -0.046404 -0.000029 -0.033717
#
#
# Mechanical properties :
#
#
# Convention : Reuss Voigt Hill
#
# Bulk Modulus (GPa) = 211.54178 38.99923 125.27050
# Shear Modulus (GPa) = 94.19381 11.34766 52.77073
#
# Velocity S-wave (km/s) = 6.91516 2.40018 5.17592
# Velocity P-wave (km/s) = 13.08253 5.24213 9.96576
#
# Compressibility (1/GPa) = 0.00472720
#
# Stress axis : x y z
#
# Youngs Moduli (GPa) = 113.29469 102.78661 185.80805
#
# Poissons Ratio (x) = 0.34259 -0.07988
# Poissons Ratio (y) = 0.37761 1.24528
# Poissons Ratio (z) = -0.04871 0.68887
#
# Static dielectric constant tensor:
#      x y z
#    x 1.772530 -0.000010 -0.084230 
#    y -0.000010 1.684220 0.000020 
#    z -0.084230 0.000020 1.739500 
# 
# From -- ./inp_files/352042.got.cif
#   From: 2010.05.17/outbox.cif.g08.bks.cpg/sg12_177_cif.got.tgz:352042.got - 2010.06.03 13:09:07.
