data_PCOD9184732
_publ_section_title
;
Structure prediction by ZEFSAII (Michael W. Deem and Ramdas Pophale) SiO2 
 PCOD9184732
Probable space group: C 2/M
;
_chemical_formula_sum "Si O2"
_cell_formula_units_Z 64
_cell_length_a 18.845749
_cell_length_b 12.986523
_cell_length_c 19.707143
_cell_angle_alpha 90.000000
_cell_angle_beta 136.492017
_cell_angle_gamma 90.000000
_cell_volume 3320.518610
_symmetry_space_group_name_H-M "C 2/M"
_symmetry_group_IT_number 12
_symmetry_cell_setting 'monoclinic'
loop_
_space_group_symop_operation_xyz
x,y,z
-x,y,-z
-x,-y,-z
x,-y,z
1/2+x,1/2+y,z
1/2-x,1/2+y,-z
1/2-x,1/2-y,-z
1/2+x,1/2-y,z
loop_
_atom_site_type_symbol
_atom_site_label
_atom_site_fract_x
_atom_site_fract_y
_atom_site_fract_z
Si Si1 0.100962 0.698074 0.326227
Si Si2 0.781826 0.377993 0.912528
Si Si3 0.046969 0.884325 0.745408
Si Si4 0.095675 0.768807 0.107826
Si Si5 0.093064 0.382583 0.467946
Si Si6 0.977261 0.385829 0.125451
Si Si7 0.249578 0.709105 0.677333
Si Si8 0.054917 0.190163 0.603200
O O1 0.131523 0.650098 0.419471
O O2 0.194122 0.720679 0.340057
O O3 0.040724 0.805781 0.293090
O O4 0.018598 0.627501 0.229744
O O5 0.783122 0.500000 0.891555
O O6 0.663303 0.352063 0.845883
O O7 0.834159 0.301182 0.894043
O O8 0.856040 0.370497 0.029410
O O9 0.048453 0.878145 0.664937
O O10 0.027641 0.000000 0.755998
O O11 0.169777 0.831819 0.210393
O O12 0.037299 0.692183 0.118860
O O13 0.000000 0.819140 0.000000
O O14 0.055790 0.500000 0.441593
O O15 0.181469 0.369484 0.586015
O O16 0.005662 0.297801 0.423964
O O17 0.002020 0.500000 0.117948
O O18 0.170048 0.780279 0.663250
O O19 0.000000 0.142372 0.500000
#
# Coordination Sequence:
#
# PCOD9184732 Si02
#       8
#     8   8   8   8   8   8   8   8
#     4  10  21  35  51  76 111 141 171 210 259 317
#     4   9  16  28  49  75 103 136 175 212 257 310
#     4  10  20  34  50  72 106 145 177 208 256 315
#     4   9  16  28  50  78 107 134 165 212 266 314
#     4  10  21  37  57  78 103 138 178 220 259 304
#     4   9  17  29  49  78 107 135 172 218 259 300
#     4  10  19  34  54  78 105 133 173 217 261 308
#     4   9  19  35  55  77 102 131 175 225 261 306
#
# _framework density 19.274097000000001
#
# number of rings (size 3 to 8) (size 9 to 14) (size 15 to 20)
#    0.000    2.500    1.250    1.125    0.000    5.000 
#    0.000    0.625    0.000    3.375    0.000    2.625 
#    0.000    0.000    0.000    0.000    0.000    0.000 
#
# Total GULP energy -178251.273870 kJ/mol
# GULP energy per Si atom -5570.352308 kJ/mol
# Density = 1.923023 g / cm^3
# Si number density = 19.274097 Si / 1000 Ang^3
#
#
#
# Elastic Constant Matrix: (Units=GPa)
#
#
# Indices 1 2 3 4 5 6 
#
# 1 41.8405 5.2862 23.1072 0.0000 -1.5903 0.0000
# 2 5.2862 43.5628 10.6369 0.0000 9.5096 0.0000
# 3 23.1072 10.6369 97.2509 0.0000 4.1553 0.0000
# 4 0.0000 0.0000 0.0000 21.9823 0.0000 2.2890
# 5 -1.5903 9.5096 4.1553 0.0000 21.9907 0.0000
# 6 0.0000 0.0000 0.0000 2.2890 0.0000 5.4625
#
#
#
# Elastic Compliance Matrix: (Units=1/GPa)
#
#
# Indices 1 2 3 4 5 6 
#
# 1 0.028038 -0.002778 -0.006549 0.000000 0.004466 0.000000
# 2 -0.002778 0.026155 -0.001723 0.000000 -0.011186 0.000000
# 3 -0.006549 -0.001723 0.012113 0.000000 -0.002018 0.000000
# 4 0.000000 0.000000 0.000000 0.047567 0.000000 -0.019933
# 5 0.004466 -0.011186 -0.002018 0.000000 0.051015 0.000000
# 6 0.000000 0.000000 0.000000 -0.019933 0.000000 0.191419
#
#
# Mechanical properties :
#
#
# Convention : Reuss Voigt Hill
#
# Bulk Modulus (GPa) = 22.62109 28.96831 25.79470
# Shear Modulus (GPa) = 12.71805 19.46203 16.09004
#
# Velocity S-wave (km/s) = 2.57154 3.18110 2.89243
# Velocity P-wave (km/s) = 4.53642 5.34367 4.95651
#
# Compressibility (1/GPa) = 0.04420654
#
# Stress axis : x y z
#
# Youngs Moduli (GPa) = 35.66616 38.23368 82.55370
#
# Poissons Ratio (x) = 0.10622 0.54063
# Poissons Ratio (y) = 0.09909 0.14221
# Poissons Ratio (z) = 0.23357 0.06586
#
# Static dielectric constant tensor:
#      x y z
#    x 1.660520 0.000000 0.002790 
#    y 0.000000 1.645940 0.000000 
#    z 0.002790 0.000000 1.742680 
# 
# From -- ./inp_files/321283.got.cif
#   From: 2010.05.17/outbox.cif.g08.bks.cpg/sg12_161_cif.got.tgz:321283.got - 2010.06.03 13:09:07.
