data_PCOD9184318
_publ_section_title
;
Structure prediction by ZEFSAII (Michael W. Deem and Ramdas Pophale) SiO2 
 PCOD9184318
Probable space group: C 2/M
;
_chemical_formula_sum "Si O2"
_cell_formula_units_Z 58
_cell_length_a 14.632132
_cell_length_b 20.369843
_cell_length_c 28.778746
_cell_angle_alpha 90.000000
_cell_angle_beta 158.317027
_cell_angle_gamma 90.000000
_cell_volume 3169.181209
_symmetry_space_group_name_H-M "C 2/M"
_symmetry_group_IT_number 12
_symmetry_cell_setting 'monoclinic'
loop_
_space_group_symop_operation_xyz
x,y,z
-x,y,-z
-x,-y,-z
x,-y,z
1/2+x,1/2+y,z
1/2-x,1/2+y,-z
1/2-x,1/2-y,-z
1/2+x,1/2-y,z
loop_
_atom_site_type_symbol
_atom_site_label
_atom_site_fract_x
_atom_site_fract_y
_atom_site_fract_z
Si Si1 0.349449 0.676520 0.239444
Si Si2 0.948179 0.354196 0.600061
Si Si3 0.528700 0.215792 0.258841
Si Si4 0.000000 0.000000 0.000000
Si Si5 0.465994 0.708649 0.398479
Si Si6 0.724563 0.922719 0.572065
Si Si7 0.141984 0.252266 0.000682
Si Si8 0.808668 0.122993 0.852071
O O1 0.504733 0.738445 0.292739
O O2 0.349577 0.680325 0.295488
O O3 0.513612 0.615539 0.299571
O O4 0.065628 0.691062 0.091269
O O5 0.712994 0.334108 0.520378
O O6 0.868574 0.406371 0.523863
O O7 0.996099 0.285686 0.595349
O O8 0.173923 0.377879 0.738367
O O9 0.790924 0.205376 0.359758
O O10 0.400942 0.147195 0.210803
O O11 0.361455 0.253715 0.141421
O O12 0.929953 0.942269 0.928432
O O13 0.500000 0.900361 0.500000
O O14 0.759777 0.000000 0.595840
O O15 0.998859 0.183720 0.940622
O O16 0.250000 0.250000 0.000000
#
# Coordination Sequence:
#
# PCOD9184318 Si02
#       8
#     8   8   8   2   8   8   8   8
#     4  10  19  34  55  86 113 151 194 253 302 360
#     4  10  20  36  56  91 118 150 202 246 307 367
#     4  11  19  35  59  87 119 149 194 256 308 358
#     4  12  24  40  60  78 126 172 212 240 302 392
#     4  10  19  33  58  90 119 147 187 257 315 361
#     4  10  22  38  57  82 119 166 202 245 316 382
#     4  11  19  35  61  87 114 149 203 258 310 352
#     4  11  22  38  58  87 117 162 202 249 300 368
#
# _framework density 18.301258000000001
#
# number of rings (size 3 to 8) (size 9 to 14) (size 15 to 20)
#    0.000    1.517    5.517    2.069    0.966    0.552 
#    0.000    0.000   13.655    2.483    0.000    0.000 
#    0.000    0.000    0.000    0.000    0.000    0.000 
#
# Total GULP energy -161473.619953 kJ/mol
# GULP energy per Si atom -5568.055860 kJ/mol
# Density = 1.825960 g / cm^3
# Si number density = 18.301258 Si / 1000 Ang^3
#
#
#
# Elastic Constant Matrix: (Units=GPa)
#
#
# Indices 1 2 3 4 5 6 
#
# 1 87.9346 10.0911 23.7742 0.0017 20.2150 0.0000
# 2 10.0911 77.0053 24.7011 0.0059 7.1631 -0.0001
# 3 23.7742 24.7011 78.0808 0.0074 -6.0667 0.0033
# 4 0.0017 0.0059 0.0074 15.1872 0.0053 -2.7697
# 5 20.2150 7.1631 -6.0667 0.0053 43.2401 0.0007
# 6 0.0000 -0.0001 0.0033 -2.7697 0.0007 19.1594
#
#
#
# Elastic Compliance Matrix: (Units=1/GPa)
#
#
# Indices 1 2 3 4 5 6 
#
# 1 0.014441 0.000454 -0.005127 0.000004 -0.007546 0.000002
# 2 0.000454 0.014881 -0.005110 -0.000002 -0.003394 0.000001
# 3 -0.005127 -0.005110 0.016416 -0.000008 0.005546 -0.000004
# 4 0.000004 -0.000002 -0.000008 0.067628 -0.000011 0.009776
# 5 -0.007546 -0.003394 0.005546 -0.000011 0.027995 -0.000004
# 6 0.000002 0.000001 -0.000004 0.009776 -0.000004 0.053607
#
#
# Mechanical properties :
#
#
# Convention : Reuss Voigt Hill
#
# Bulk Modulus (GPa) = 38.20769 40.01707 39.11238
# Shear Modulus (GPa) = 22.39572 27.81429 25.10500
#
# Velocity S-wave (km/s) = 3.50197 3.90269 3.70775
# Velocity P-wave (km/s) = 6.10526 6.49779 6.30458
#
# Compressibility (1/GPa) = 0.02617274
#
# Stress axis : x y z
#
# Youngs Moduli (GPa) = 69.24861 67.19781 60.91720
#
# Poissons Ratio (x) = -0.03051 0.31231
# Poissons Ratio (y) = -0.03144 0.31127
# Poissons Ratio (z) = 0.35503 0.34337
#
# Static dielectric constant tensor:
#      x y z
#    x 1.663810 0.000000 -0.020810 
#    y 0.000000 1.595880 -0.000010 
#    z -0.020810 -0.000010 1.705990 
# 
# From -- ./inp_files/377036.got.cif
#   From: 2010.05.17/outbox.cif.g08.bks.cpg/sg12_189_cif.got.tgz:377036.got - 2010.06.03 13:09:07.
