data_PCOD9184525
_publ_section_title
;
Structure prediction by ZEFSAII (Michael W. Deem and Ramdas Pophale) SiO2 
 PCOD9184525
Probable space group: C 2/M
;
_chemical_formula_sum "Si O2"
_cell_formula_units_Z 64
_cell_length_a 35.624044
_cell_length_b 18.853040
_cell_length_c 19.630297
_cell_angle_alpha 90.000000
_cell_angle_beta 18.041506
_cell_angle_gamma 90.000000
_cell_volume 4083.202518
_symmetry_space_group_name_H-M "C 2/M"
_symmetry_group_IT_number 12
_symmetry_cell_setting 'monoclinic'
loop_
_space_group_symop_operation_xyz
x,y,z
-x,y,-z
-x,-y,-z
x,-y,z
1/2+x,1/2+y,z
1/2-x,1/2+y,-z
1/2-x,1/2-y,-z
1/2+x,1/2-y,z
loop_
_atom_site_type_symbol
_atom_site_label
_atom_site_fract_x
_atom_site_fract_y
_atom_site_fract_z
Si Si1 0.233486 0.585155 0.706378
Si Si2 0.598797 0.082566 0.384972
Si Si3 0.749070 0.310869 0.096726
Si Si4 0.970476 0.335589 0.360624
Si Si5 0.537595 0.085210 0.765681
Si Si6 0.685008 0.349498 0.057999
Si Si7 0.365178 0.915220 0.262629
Si Si8 0.587785 0.674192 0.509372
O O1 0.252975 0.500000 0.673885
O O2 0.223063 0.609870 0.645268
O O3 0.336005 0.626137 0.570522
O O4 0.101510 0.597241 0.969231
O O5 0.500000 0.108908 0.500000
O O6 0.586559 0.125893 0.475531
O O7 0.574102 0.000000 0.440914
O O8 0.728811 0.093652 0.126167
O O9 0.699272 0.348740 0.114906
O O10 0.661508 0.321152 0.311538
O O11 0.763858 0.227366 0.054382
O O12 0.884004 0.337856 0.880593
O O13 0.939617 0.374634 0.343730
O O14 0.929445 0.253857 0.432451
O O15 0.626075 0.109950 0.674637
O O16 0.550509 0.000000 0.734923
O O17 0.546302 0.354720 0.274866
O O18 0.347391 0.000000 0.297369
O O19 0.500000 0.904598 0.000000
#
# Coordination Sequence:
#
# PCOD9184525 Si02
#       8
#     8   8   8   8   8   8   8   8
#     4   9  17  31  51  74 103 129 158 206 258 302
#     4  11  22  36  52  72 102 134 170 211 250 290
#     4  10  19  34  52  69  96 129 174 211 246 288
#     4  11  20  32  52  75 100 133 172 207 250 298
#     4   9  16  29  51  76 100 127 164 208 250 295
#     4  10  21  34  52  70  94 136 173 207 240 299
#     4   7  12  25  47  73  97 127 161 196 247 304
#     4  11  21  32  52  77 100 133 168 208 252 306
#
# _framework density 15.673971
#
# number of rings (size 3 to 8) (size 9 to 14) (size 15 to 20)
#    0.000    2.250    3.750    2.250    0.000    0.500 
#    0.000    1.250    0.000    1.500    0.000    0.875 
#    0.000    4.000    0.000    0.000    0.000    0.000 
#
# Total GULP energy -178297.047388 kJ/mol
# GULP energy per Si atom -5571.782731 kJ/mol
# Density = 1.563830 g / cm^3
# Si number density = 15.673971 Si / 1000 Ang^3
#
#
#
# Elastic Constant Matrix: (Units=GPa)
#
#
# Indices 1 2 3 4 5 6 
#
# 1 169.1757 50.1387 54.7213 0.0000 -7.6840 0.0000
# 2 50.1387 37.3798 26.2761 0.0001 -4.0012 0.0000
# 3 54.7213 26.2761 77.8865 0.0001 -6.1930 0.0000
# 4 0.0000 0.0001 0.0001 14.4182 0.0000 -3.7664
# 5 -7.6840 -4.0012 -6.1930 0.0000 17.0841 0.0000
# 6 0.0000 0.0000 0.0000 -3.7664 0.0000 22.2239
#
#
#
# Elastic Compliance Matrix: (Units=1/GPa)
#
#
# Indices 1 2 3 4 5 6 
#
# 1 0.010477 -0.011587 -0.003390 0.000000 0.000769 0.000000
# 2 -0.011587 0.048157 -0.007850 0.000000 0.003222 0.000000
# 3 -0.003390 -0.007850 0.018124 0.000000 0.003207 0.000000
# 4 0.000000 0.000000 0.000000 0.072569 0.000000 0.012299
# 5 0.000769 0.003222 0.003207 0.000000 0.060797 0.000000
# 6 0.000000 0.000000 0.000000 0.012299 0.000000 0.047081
#
#
# Mechanical properties :
#
#
# Convention : Reuss Voigt Hill
#
# Bulk Modulus (GPa) = 32.14999 60.74599 46.44799
# Shear Modulus (GPa) = 15.96283 20.96564 18.46423
#
# Velocity S-wave (km/s) = 3.19475 3.66130 3.43595
# Velocity P-wave (km/s) = 5.84506 7.53084 6.74086
#
# Compressibility (1/GPa) = 0.03110421
#
# Stress axis : x y z
#
# Youngs Moduli (GPa) = 95.45004 20.76533 55.17426
#
# Poissons Ratio (x) = 0.24061 0.18707
# Poissons Ratio (y) = 1.10598 0.43309
# Poissons Ratio (z) = 0.32362 0.16300
#
# Static dielectric constant tensor:
#      x y z
#    x 1.535040 0.000000 -0.006490 
#    y 0.000000 1.512840 0.000000 
#    z -0.006490 0.000000 1.502020 
# 
# From -- ./inp_files/297075.got.cif
#   From: 2010.05.17/outbox.cif.g08.bks.cpg/sg12_149_cif.got.tgz:297075.got - 2010.06.03 13:09:07.
