data_PCOD9184883
_publ_section_title
;
Structure prediction by ZEFSAII (Michael W. Deem and Ramdas Pophale) SiO2 
 PCOD9184883
Probable space group: C 2/M
;
_chemical_formula_sum "Si O2"
_cell_formula_units_Z 48
_cell_length_a 14.560971
_cell_length_b 8.585437
_cell_length_c 23.097571
_cell_angle_alpha 90.000000
_cell_angle_beta 108.373309
_cell_angle_gamma 90.000000
_cell_volume 2740.285228
_symmetry_space_group_name_H-M "C 2/M"
_symmetry_group_IT_number 12
_symmetry_cell_setting 'monoclinic'
loop_
_space_group_symop_operation_xyz
x,y,z
-x,y,-z
-x,-y,-z
x,-y,z
1/2+x,1/2+y,z
1/2-x,1/2+y,-z
1/2-x,1/2-y,-z
1/2+x,1/2-y,z
loop_
_atom_site_type_symbol
_atom_site_label
_atom_site_fract_x
_atom_site_fract_y
_atom_site_fract_z
Si Si1 0.313146 0.312817 0.332073
Si Si2 0.880679 0.812483 0.761357
Si Si3 0.981074 0.687183 0.667928
Si Si4 0.215966 0.687165 0.431932
Si Si5 0.647641 0.312059 0.000000
Si Si6 0.049323 0.189584 0.098645
O O1 0.312485 0.500000 0.329506
O O2 0.226181 0.249250 0.275042
O O3 0.416515 0.250000 0.333030
O O4 0.285023 0.264806 0.392181
O O5 0.951140 0.750751 0.724958
O O6 0.915779 0.758901 0.831558
O O7 0.879908 0.000000 0.759817
O O8 0.982979 0.500000 0.670494
O O9 0.892842 0.735193 0.607819
O O10 0.217164 0.500000 0.434329
O O11 0.250000 0.750000 0.500000
O O12 0.649683 0.500000 0.000000
O O13 0.618532 0.262287 0.059321
O O14 0.750000 0.250000 0.000000
O O15 0.559212 0.262288 0.940680
O O16 0.049589 0.000000 0.099178
#
# Coordination Sequence:
#
# PCOD9184883 Si02
#       6
#     8   8   8   8   8   8
#     4  10  21  37  54  77 106 138 173 212 255 305
#     4  10  19  34  55  78 103 136 173 214 260 306
#     4  10  21  37  54  77 106 138 173 212 255 305
#     4   9  20  36  54  76 104 134 170 211 254 302
#     4   9  17  33  52  72 100 133 167 207 250 300
#     4   8  17  33  52  72 100 135 168 202 252 308
#
# _framework density 17.516424000000001
#
# number of rings (size 3 to 8) (size 9 to 14) (size 15 to 20)
#    0.000    2.667    0.000    3.500    0.000    6.000 
#    0.000   11.667    0.000    0.000    0.000    0.000 
#    0.000    0.000    0.000    0.000    0.000    0.000 
#
# Total GULP energy -133856.647015 kJ/mol
# GULP energy per Si atom -5577.360292 kJ/mol
# Density = 1.747656 g / cm^3
# Si number density = 17.516424 Si / 1000 Ang^3
#
#
#
# Elastic Constant Matrix: (Units=GPa)
#
#
# Indices 1 2 3 4 5 6 
#
# 1 203.2335 41.0598 113.1936 0.0000 -0.5885 0.0000
# 2 41.0598 39.2110 38.5824 0.0000 -0.0189 0.0000
# 3 113.1936 38.5824 205.0163 0.0000 0.6001 0.0000
# 4 0.0000 0.0000 0.0000 22.5261 0.0000 -0.0708
# 5 -0.5885 -0.0189 0.6001 0.0000 5.8894 0.0000
# 6 0.0000 0.0000 0.0000 -0.0708 0.0000 31.9602
#
#
#
# Elastic Compliance Matrix: (Units=1/GPa)
#
#
# Indices 1 2 3 4 5 6 
#
# 1 0.007788 -0.004812 -0.003398 0.000000 0.001109 0.000000
# 2 -0.004812 0.034274 -0.003794 0.000000 0.000016 0.000000
# 3 -0.003398 -0.003794 0.007471 0.000000 -0.001113 0.000000
# 4 0.000000 0.000000 0.000000 0.044393 0.000000 0.000098
# 5 0.001109 0.000016 -0.001113 0.000000 0.170022 0.000000
# 6 0.000000 0.000000 0.000000 0.000098 0.000000 0.031289
#
#
# Mechanical properties :
#
#
# Convention : Reuss Voigt Hill
#
# Bulk Modulus (GPa) = 39.17361 92.57028 65.87194
# Shear Modulus (GPa) = 15.25540 29.05012 22.15276
#
# Velocity S-wave (km/s) = 2.95434 4.07683 3.56010
# Velocity P-wave (km/s) = 5.83523 8.66736 7.38827
#
# Compressibility (1/GPa) = 0.02552739
#
# Stress axis : x y z
#
# Youngs Moduli (GPa) = 128.39973 29.17638 133.85402
#
# Poissons Ratio (x) = 0.14038 0.45480
# Poissons Ratio (y) = 0.61780 0.50779
# Poissons Ratio (z) = 0.43627 0.11068
#
# Static dielectric constant tensor:
#      x y z
#    x 1.568720 0.000000 0.000150 
#    y 0.000000 1.595750 0.000000 
#    z 0.000150 0.000000 1.588160 
# 
# From -- ./inp_files/308613.got.cif
#   From: 2010.05.17/outbox.cif.g08.bks.cpg/sg12_155_cif.got.tgz:308613.got - 2010.06.03 13:09:07.
