data_PCOD9184496
_publ_section_title
;
Structure prediction by ZEFSAII (Michael W. Deem and Ramdas Pophale) SiO2 
 PCOD9184496
Probable space group: C 2/M
;
_chemical_formula_sum "Si O2"
_cell_formula_units_Z 42
_cell_length_a 12.834549
_cell_length_b 12.870149
_cell_length_c 11.663859
_cell_angle_alpha 90.000000
_cell_angle_beta 82.387244
_cell_angle_gamma 90.000000
_cell_volume 1909.684567
_symmetry_space_group_name_H-M "C 2/M"
_symmetry_group_IT_number 12
_symmetry_cell_setting 'monoclinic'
loop_
_space_group_symop_operation_xyz
x,y,z
-x,y,-z
-x,-y,-z
x,-y,z
1/2+x,1/2+y,z
1/2-x,1/2+y,-z
1/2-x,1/2-y,-z
1/2+x,1/2-y,z
loop_
_atom_site_type_symbol
_atom_site_label
_atom_site_fract_x
_atom_site_fract_y
_atom_site_fract_z
Si Si1 0.200561 0.882937 0.676385
Si Si2 0.922468 0.287109 0.421993
Si Si3 0.613039 0.333797 0.924813
Si Si4 0.674292 0.112314 0.976124
Si Si5 0.923236 0.382760 0.762200
Si Si6 0.000000 0.500000 0.500000
O O1 0.169777 0.790239 0.596898
O O2 0.123324 0.882672 0.798463
O O3 0.312886 0.859475 0.718273
O O4 0.199812 0.000000 0.629133
O O5 0.000000 0.230770 0.500000
O O6 0.988470 0.307977 0.296246
O O7 0.914995 0.403378 0.477614
O O8 0.706769 0.377563 0.992890
O O9 0.500000 0.346276 0.000000
O O10 0.643933 0.212229 0.909164
O O11 0.600103 0.116114 0.100133
O O12 0.659742 0.000000 0.921874
O O13 0.951573 0.500000 0.715173
#
# Coordination Sequence:
#
# PCOD9184496 Si02
#       6
#     8   8   8   8   8   2
#     4  10  22  35  54  78 102 139 177 206 254 311
#     4  10  19  36  57  77 104 130 171 213 263 306
#     4  10  19  34  51  74 105 139 171 211 254 298
#     4   9  19  32  50  76 104 136 174 208 250 302
#     4   9  16  34  56  75 104 139 170 208 254 308
#     4   8  20  36  54  84  98 134 162 218 270 304
#
# _framework density 21.993161000000001
#
# number of rings (size 3 to 8) (size 9 to 14) (size 15 to 20)
#    0.571    1.905    0.952    2.857    0.000    3.048 
#    1.714    0.000    2.095    0.000    0.000    0.000 
#    0.000    0.000    0.000    0.000    0.000    0.000 
#
# Total GULP energy -116983.903836 kJ/mol
# GULP energy per Si atom -5570.662087 kJ/mol
# Density = 2.194310 g / cm^3
# Si number density = 21.993161 Si / 1000 Ang^3
#
#
#
# Elastic Constant Matrix: (Units=GPa)
#
#
# Indices 1 2 3 4 5 6 
#
# 1 47.2061 35.4021 27.3391 0.0000 -5.1043 0.0000
# 2 35.4021 160.5630 25.9989 0.0000 12.7964 0.0000
# 3 27.3391 25.9989 49.0633 0.0000 -6.0330 0.0000
# 4 0.0000 0.0000 0.0000 25.0967 0.0000 4.0978
# 5 -5.1043 12.7964 -6.0330 0.0000 38.1892 0.0000
# 6 0.0000 0.0000 0.0000 4.0978 0.0000 20.0380
#
#
#
# Elastic Compliance Matrix: (Units=1/GPa)
#
#
# Indices 1 2 3 4 5 6 
#
# 1 0.035040 -0.005423 -0.016166 0.000000 0.003946 0.000000
# 2 -0.005423 0.007984 -0.001660 0.000000 -0.003662 0.000000
# 3 -0.016166 -0.001660 0.030668 0.000000 0.003240 0.000000
# 4 0.000000 0.000000 0.000000 0.041222 0.000000 -0.008430
# 5 0.003946 -0.003662 0.003240 0.000000 0.028452 0.000000
# 6 0.000000 0.000000 0.000000 -0.008430 0.000000 0.051629
#
#
# Mechanical properties :
#
#
# Convention : Reuss Voigt Hill
#
# Bulk Modulus (GPa) = 36.77143 48.25694 42.51419
# Shear Modulus (GPa) = 19.95557 27.87093 23.91325
#
# Velocity S-wave (km/s) = 3.01550 3.56371 3.30101
# Velocity P-wave (km/s) = 5.37402 6.23882 5.82250
#
# Compressibility (1/GPa) = 0.02719502
#
# Stress axis : x y z
#
# Youngs Moduli (GPa) = 28.53919 125.24539 32.60756
#
# Poissons Ratio (x) = 0.67916 0.52713
# Poissons Ratio (y) = 0.15476 0.05412
# Poissons Ratio (z) = 0.46136 0.20786
#
# Static dielectric constant tensor:
#      x y z
#    x 1.822160 0.000000 0.019960 
#    y 0.000000 1.827470 0.000000 
#    z 0.019960 0.000000 1.556820 
# 
# From -- ./inp_files/142098.got.cif
#   From: 2010.05.17/outbox.cif.g08.bks.cpg/sg12_72_cif.got.tgz:142098.got - 2010.06.03 13:09:07.
