data_PCOD9184617
_publ_section_title
;
Structure prediction by ZEFSAII (Michael W. Deem and Ramdas Pophale) SiO2 
 PCOD9184617
Probable space group: C 2/M
;
_chemical_formula_sum "Si O2"
_cell_formula_units_Z 56
_cell_length_a 24.800198
_cell_length_b 7.628686
_cell_length_c 16.095455
_cell_angle_alpha 90.000000
_cell_angle_beta 118.069094
_cell_angle_gamma 90.000000
_cell_volume 2686.978546
_symmetry_space_group_name_H-M "C 2/M"
_symmetry_group_IT_number 12
_symmetry_cell_setting 'monoclinic'
loop_
_space_group_symop_operation_xyz
x,y,z
-x,y,-z
-x,-y,-z
x,-y,z
1/2+x,1/2+y,z
1/2-x,1/2+y,-z
1/2-x,1/2-y,-z
1/2+x,1/2-y,z
loop_
_atom_site_type_symbol
_atom_site_label
_atom_site_fract_x
_atom_site_fract_y
_atom_site_fract_z
Si Si1 0.472788 0.797744 0.732984
Si Si2 0.840165 0.212653 0.949382
Si Si3 0.556845 0.287954 0.100727
Si Si4 0.255437 0.292363 0.367752
Si Si5 0.711405 0.706434 0.788355
Si Si6 0.388457 0.294579 0.161287
Si Si7 0.153726 0.286881 0.419585
O O1 0.453080 0.785379 0.815120
O O2 0.539517 0.717313 0.771971
O O3 0.415497 0.723349 0.640332
O O4 0.479738 0.000000 0.714844
O O5 0.881647 0.269622 0.901389
O O6 0.771160 0.274142 0.888729
O O7 0.841006 0.000000 0.949199
O O8 0.870364 0.276138 0.057220
O O9 0.557097 0.500000 0.108086
O O10 0.500000 0.241609 0.000000
O O11 0.244551 0.500000 0.349875
O O12 0.271199 0.216861 0.289048
O O13 0.195776 0.222779 0.373000
O O14 0.311548 0.266796 0.471784
O O15 0.699308 0.500000 0.765149
O O16 0.653410 0.781279 0.795687
O O17 0.372632 0.500000 0.145373
O O18 0.153053 0.500000 0.416411
#
# Coordination Sequence:
#
# PCOD9184617 Si02
#       7
#     8   8   8   8   8   8   8
#     4  11  22  35  54  81 110 141 179 223 269 313
#     4  10  20  34  54  78 106 143 182 218 260 317
#     4  10  19  34  53  75 109 144 174 213 261 315
#     4   9  18  35  57  81 105 131 172 219 265 320
#     4  10  21  36  56  79 106 140 179 227 271 309
#     4  10  21  38  54  73 108 149 183 217 262 319
#     4   9  19  35  55  80 109 135 166 216 273 322
#
# _framework density 20.841252000000001
#
# number of rings (size 3 to 8) (size 9 to 14) (size 15 to 20)
#    0.000    2.143    1.429    1.714    0.000    4.857 
#    0.000    3.571    0.000    4.286    0.000    0.000 
#    0.000    0.000    0.000    0.000    0.000    0.000 
#
# Total GULP energy -156363.738943 kJ/mol
# GULP energy per Si atom -5584.419248 kJ/mol
# Density = 2.079382 g / cm^3
# Si number density = 20.841252 Si / 1000 Ang^3
#
#
#
# Elastic Constant Matrix: (Units=GPa)
#
#
# Indices 1 2 3 4 5 6 
#
# 1 131.8278 -6.4530 48.8436 0.0000 5.2492 0.0000
# 2 -6.4530 34.3218 -12.5422 0.0000 -12.1316 0.0000
# 3 48.8436 -12.5422 65.1153 0.0000 11.9613 0.0000
# 4 0.0000 0.0000 0.0000 12.3872 0.0000 11.4033
# 5 5.2492 -12.1316 11.9613 0.0000 21.2670 0.0000
# 6 0.0000 0.0000 0.0000 11.4033 0.0000 3.5669
#
#
#
# Elastic Compliance Matrix: (Units=1/GPa)
#
#
# Indices 1 2 3 4 5 6 
#
# 1 0.010591 -0.000409 -0.008364 0.000000 0.001857 0.000000
# 2 -0.000409 0.037272 0.003972 0.000000 0.019128 0.000000
# 3 -0.008364 0.003972 0.024090 0.000000 -0.009219 0.000000
# 4 0.000000 0.000000 0.000000 -0.041547 0.000000 0.132825
# 5 0.001857 0.019128 -0.009219 0.000000 0.062660 0.000000
# 6 0.000000 0.000000 0.000000 0.132825 0.000000 -0.144285
#
#
# Mechanical properties :
#
#
# Convention : Reuss Voigt Hill
#
# Bulk Modulus (GPa) = 16.03830 32.32907 24.18369
# Shear Modulus (GPa) = -239.98317 20.87197 -109.55560
#
# Velocity S-wave (km/s) = -10.74235 3.16804 -7.25816
# Velocity P-wave (km/s) = 12.08933 5.37845 7.65586
#
# Compressibility (1/GPa) = 0.06235075
#
# Stress axis : x y z
#
# Youngs Moduli (GPa) = 94.42296 26.82982 41.51134
#
# Poissons Ratio (x) = 0.01097 0.34720
# Poissons Ratio (y) = 0.03861 -0.16489
# Poissons Ratio (z) = 0.78975 -0.10657
#
# Static dielectric constant tensor:
#      x y z
#    x 1.748160 0.000000 -0.011840 
#    y 0.000000 1.777960 0.000000 
#    z -0.011840 0.000000 1.726100 
# 
# From -- ./inp_files/239006.got.cif
#   From: 2010.05.17/outbox.cif.g08.bks.cpg/sg12_120_cif.got.tgz:239006.got - 2010.06.03 13:09:07.
