data_PCOD9184978
_publ_section_title
;
Structure prediction by ZEFSAII (Michael W. Deem and Ramdas Pophale) SiO2 
 PCOD9184978
Probable space group: C 2/M
;
_chemical_formula_sum "Si O2"
_cell_formula_units_Z 56
_cell_length_a 8.072584
_cell_length_b 18.805454
_cell_length_c 24.586172
_cell_angle_alpha 90.000000
_cell_angle_beta 134.035380
_cell_angle_gamma 90.000000
_cell_volume 2683.256973
_symmetry_space_group_name_H-M "C 2/M"
_symmetry_group_IT_number 12
_symmetry_cell_setting 'monoclinic'
loop_
_space_group_symop_operation_xyz
x,y,z
-x,y,-z
-x,-y,-z
x,-y,z
1/2+x,1/2+y,z
1/2-x,1/2+y,-z
1/2-x,1/2-y,-z
1/2+x,1/2-y,z
loop_
_atom_site_type_symbol
_atom_site_label
_atom_site_fract_x
_atom_site_fract_y
_atom_site_fract_z
Si Si1 0.127847 0.685777 0.710283
Si Si2 0.451222 0.850583 0.882293
Si Si3 0.362993 0.577580 0.026411
Si Si4 0.308050 0.700600 0.871591
Si Si5 0.023429 0.916001 0.269610
Si Si6 0.367124 0.286740 0.387730
Si Si7 0.234789 0.643137 0.570447
O O1 0.195761 0.704081 0.786748
O O2 0.287413 0.623830 0.724124
O O3 0.159483 0.755040 0.679414
O O4 0.856841 0.668723 0.647483
O O5 0.391598 0.780047 0.902775
O O6 0.623510 0.825036 0.873659
O O7 0.223680 0.884166 0.803895
O O8 0.599589 0.904916 0.952159
O O9 0.388815 0.500000 0.058843
O O10 0.485172 0.643512 0.083627
O O11 0.500000 0.574331 0.000000
O O12 0.104528 0.897315 0.349581
O O13 0.022377 0.000000 0.261608
O O14 0.602198 0.330591 0.441434
O O15 0.356293 0.215041 0.420515
O O16 0.000000 0.604095 0.500000
#
# Coordination Sequence:
#
# PCOD9184978 Si02
#       7
#     8   8   8   8   8   8   8
#     4  10  19  34  55  80 112 140 179 229 274 329
#     4  11  21  37  59  82 111 145 188 235 278 329
#     4   9  20  36  53  78 113 150 187 228 275 328
#     4  11  20  34  60  87 109 142 185 233 283 326
#     4  11  24  39  55  77 110 151 188 229 281 332
#     4   9  18  34  57  87 113 141 178 226 282 328
#     4  10  19  34  59  87 115 143 179 227 277 334
#
# _framework density 20.870159999999998
#
# number of rings (size 3 to 8) (size 9 to 14) (size 15 to 20)
#    0.000    1.857    0.000    6.429    0.000    1.429 
#    0.000    4.286    0.000    5.143    0.000    0.000 
#    0.000    0.000    0.000    0.000    0.000    0.000 
#
# Total GULP energy -156449.600540 kJ/mol
# GULP energy per Si atom -5587.485734 kJ/mol
# Density = 2.082266 g / cm^3
# Si number density = 20.870160 Si / 1000 Ang^3
#
#
#
# Elastic Constant Matrix: (Units=GPa)
#
#
# Indices 1 2 3 4 5 6 
#
# 1 84.7442 26.2058 27.6687 -0.0001 31.0388 -0.0001
# 2 26.2058 106.3743 26.2431 -0.0001 33.5686 0.0000
# 3 27.6687 26.2431 93.6748 -0.0003 40.7284 -0.0002
# 4 -0.0001 -0.0001 -0.0003 12.1036 -0.0001 2.6118
# 5 31.0388 33.5686 40.7284 -0.0001 39.8998 -0.0001
# 6 -0.0001 0.0000 -0.0002 2.6118 -0.0001 8.3577
#
#
#
# Elastic Compliance Matrix: (Units=1/GPa)
#
#
# Indices 1 2 3 4 5 6 
#
# 1 0.016588 0.000113 0.001296 0.000000 -0.014322 0.000000
# 2 0.000113 0.013005 0.002011 0.000000 -0.013083 0.000000
# 3 0.001296 0.002011 0.019603 0.000000 -0.022710 0.000000
# 4 0.000000 0.000000 0.000000 0.088594 0.000000 -0.027686
# 5 -0.014322 -0.013083 -0.022710 0.000000 0.070393 0.000000
# 6 0.000000 0.000000 0.000000 -0.027686 0.000000 0.128302
#
#
# Mechanical properties :
#
#
# Convention : Reuss Voigt Hill
#
# Bulk Modulus (GPa) = 17.84530 49.44760 33.64645
# Shear Modulus (GPa) = 14.35446 25.71726 20.03586
#
# Velocity S-wave (km/s) = 2.62544 3.51415 3.10179
# Velocity P-wave (km/s) = 4.21423 6.34114 5.38376
#
# Compressibility (1/GPa) = 0.05603715
#
# Stress axis : x y z
#
# Youngs Moduli (GPa) = 60.28553 76.89236 51.01207
#
# Poissons Ratio (x) = -0.00873 -0.06610
# Poissons Ratio (y) = -0.00684 -0.10260
# Poissons Ratio (z) = -0.07811 -0.15466
#
# Static dielectric constant tensor:
#      x y z
#    x 1.787240 0.000000 -0.006510 
#    y 0.000000 1.722840 0.000000 
#    z -0.006510 0.000000 1.800400 
# 
# From -- ./inp_files/356754.got.cif
#   From: 2010.05.17/outbox.cif.g08.bks.cpg/sg12_179_cif.got.tgz:356754.got - 2010.06.03 13:09:07.
