data_PCOD9184303
_publ_section_title
;
Structure prediction by ZEFSAII (Michael W. Deem and Ramdas Pophale) SiO2 
 PCOD9184303
Probable space group: C 2/M
;
_chemical_formula_sum "Si O2"
_cell_formula_units_Z 56
_cell_length_a 20.829988
_cell_length_b 8.874458
_cell_length_c 30.653783
_cell_angle_alpha 90.000000
_cell_angle_beta 33.646446
_cell_angle_gamma 90.000000
_cell_volume 3139.618495
_symmetry_space_group_name_H-M "C 2/M"
_symmetry_group_IT_number 12
_symmetry_cell_setting 'monoclinic'
loop_
_space_group_symop_operation_xyz
x,y,z
-x,y,-z
-x,-y,-z
x,-y,z
1/2+x,1/2+y,z
1/2-x,1/2+y,-z
1/2-x,1/2-y,-z
1/2+x,1/2-y,z
loop_
_atom_site_type_symbol
_atom_site_label
_atom_site_fract_x
_atom_site_fract_y
_atom_site_fract_z
Si Si1 0.544337 0.319164 0.259677
Si Si2 0.575949 0.180780 0.499762
Si Si3 0.820469 0.680021 0.340331
Si Si4 0.714522 0.680297 0.086119
Si Si5 0.903865 0.319385 0.675813
Si Si6 0.571554 0.320583 0.079149
Si Si7 0.672452 0.819851 0.766698
O O1 0.539339 0.500000 0.265107
O O2 0.426566 0.257901 0.304977
O O3 0.649241 0.278718 0.167427
O O4 0.564412 0.249248 0.295567
O O5 0.500000 0.219537 0.500000
O O6 0.698247 0.263478 0.428081
O O7 0.501362 0.219055 0.584613
O O8 0.595000 0.000000 0.488230
O O9 0.830216 0.500000 0.338891
O O10 0.824549 0.719029 0.286551
O O11 0.733705 0.500000 0.074459
O O12 0.628945 0.716113 0.093926
O O13 0.834779 0.763427 0.008823
O O14 0.897304 0.500000 0.682180
O O15 0.782022 0.254828 0.727949
O O16 0.557392 0.500000 0.084616
O O17 0.448359 0.240225 0.145967
O O18 0.678942 0.000000 0.767119
#
# Coordination Sequence:
#
# PCOD9184303 Si02
#       7
#     8   8   8   8   8   8   8
#     4  11  23  41  62  86 122 161 196 238 295 355
#     4  10  21  39  62  87 117 154 196 244 298 350
#     4  11  23  37  61  91 119 153 199 247 289 345
#     4   9  19  35  56  85 119 155 192 237 293 348
#     4  11  24  41  62  87 119 156 197 244 296 354
#     4  10  19  33  58  89 118 151 195 244 290 342
#     4  11  22  37  59  89 121 155 196 243 293 348
#
# _framework density 17.836561
#
# number of rings (size 3 to 8) (size 9 to 14) (size 15 to 20)
#    0.000    1.571    2.857    2.143    0.000    4.857 
#    0.000    0.714    0.000    4.286    0.000    0.000 
#    0.000    0.000    0.000    0.000    0.000    0.000 
#
# Total GULP energy -156470.808706 kJ/mol
# GULP energy per Si atom -5588.243168 kJ/mol
# Density = 1.779596 g / cm^3
# Si number density = 17.836561 Si / 1000 Ang^3
#
#
#
# Elastic Constant Matrix: (Units=GPa)
#
#
# Indices 1 2 3 4 5 6 
#
# 1 132.8351 59.3039 87.4572 0.0000 4.8738 -0.0003
# 2 59.3039 55.6136 66.0952 -0.0001 -0.7387 -0.0008
# 3 87.4572 66.0952 166.7108 0.0000 -2.7848 0.0001
# 4 0.0000 -0.0001 0.0000 31.6793 0.0000 -2.1994
# 5 4.8738 -0.7387 -2.7848 0.0000 30.2375 0.0000
# 6 -0.0003 -0.0008 0.0001 -2.1994 0.0000 31.6786
#
#
#
# Elastic Compliance Matrix: (Units=1/GPa)
#
#
# Indices 1 2 3 4 5 6 
#
# 1 0.015356 -0.012822 -0.003023 0.000000 -0.003067 0.000000
# 2 -0.012822 0.044715 -0.010966 0.000000 0.002149 0.000001
# 3 -0.003023 -0.010966 0.011954 0.000000 0.001320 0.000000
# 4 0.000000 0.000000 0.000000 0.031719 0.000000 0.002202
# 5 -0.003067 0.002149 0.001320 0.000000 0.033740 0.000000
# 6 0.000000 0.000001 0.000000 0.002202 0.000000 0.031720
#
#
# Mechanical properties :
#
#
# Convention : Reuss Voigt Hill
#
# Bulk Modulus (GPa) = 54.34023 86.76356 70.55190
# Shear Modulus (GPa) = 21.83791 28.20596 25.02193
#
# Velocity S-wave (km/s) = 3.50284 3.98094 3.74952
# Velocity P-wave (km/s) = 6.84775 8.35941 7.64106
#
# Compressibility (1/GPa) = 0.01840257
#
# Stress axis : x y z
#
# Youngs Moduli (GPa) = 65.12300 22.36389 83.65442
#
# Poissons Ratio (x) = 0.28675 0.25291
# Poissons Ratio (y) = 0.83502 0.91731
# Poissons Ratio (z) = 0.19688 0.24523
#
# Static dielectric constant tensor:
#      x y z
#    x 1.577370 0.000000 0.012240 
#    y 0.000000 1.592630 0.000000 
#    z 0.012240 0.000000 1.591040 
# 
# From -- ./inp_files/275552.got.cif
#   From: 2010.05.17/outbox.cif.g08.bks.cpg/sg12_138_cif.got.tgz:275552.got - 2010.06.03 13:09:07.
