data_PCOD9184446
_publ_section_title
;
Structure prediction by ZEFSAII (Michael W. Deem and Ramdas Pophale) SiO2 
 PCOD9184446
Probable space group: C 2/M
;
_chemical_formula_sum "Si O2"
_cell_formula_units_Z 64
_cell_length_a 17.984369
_cell_length_b 25.268184
_cell_length_c 23.197178
_cell_angle_alpha 90.000000
_cell_angle_beta 22.893985
_cell_angle_gamma 90.000000
_cell_volume 4100.949328
_symmetry_space_group_name_H-M "C 2/M"
_symmetry_group_IT_number 12
_symmetry_cell_setting 'monoclinic'
loop_
_space_group_symop_operation_xyz
x,y,z
-x,y,-z
-x,-y,-z
x,-y,z
1/2+x,1/2+y,z
1/2-x,1/2+y,-z
1/2-x,1/2-y,-z
1/2+x,1/2-y,z
loop_
_atom_site_type_symbol
_atom_site_label
_atom_site_fract_x
_atom_site_fract_y
_atom_site_fract_z
Si Si1 0.198184 0.714779 0.139489
Si Si2 0.902467 0.241431 0.197487
Si Si3 0.396423 0.645105 0.433970
Si Si4 0.435177 0.752048 0.648152
Si Si5 0.989733 0.563929 0.907269
Si Si6 0.863499 0.203283 0.341239
Si Si7 0.294895 0.437238 0.788509
Si Si8 0.532945 0.149969 0.777858
O O1 0.160440 0.711835 0.234163
O O2 0.037692 0.758502 0.236070
O O3 0.142326 0.665141 0.139389
O O4 0.412473 0.733253 0.974307
O O5 0.700235 0.242152 0.309899
O O6 0.905663 0.195364 0.243852
O O7 0.931090 0.298415 0.207768
O O8 0.546948 0.690274 0.347282
O O9 0.348207 0.660050 0.402244
O O10 0.503291 0.590057 0.360077
O O11 0.214920 0.644944 0.605546
O O12 0.657061 0.768416 0.486986
O O13 0.984544 0.500000 0.900124
O O14 0.168404 0.575204 0.822327
O O15 0.001159 0.599797 0.842169
O O16 0.812176 0.579099 0.075832
O O17 0.306835 0.500000 0.782207
#
# Coordination Sequence:
#
# PCOD9184446 Si02
#       8
#     8   8   8   8   8   8   8   8
#     4  10  20  34  45  70 101 131 164 207 242 283
#     4  11  22  29  49  73  99 132 174 202 232 289
#     4  11  20  32  50  69  97 135 165 198 243 288
#     4  11  19  34  47  70 102 136 164 200 243 287
#     4   9  20  36  51  70  98 127 159 205 246 283
#     4  10  19  34  47  66 101 134 163 199 246 283
#     4   9  20  36  51  71  97 125 162 204 244 285
#     4  11  20  33  49  70  98 132 168 197 241 290
#
# _framework density 15.606142
#
# number of rings (size 3 to 8) (size 9 to 14) (size 15 to 20)
#    0.000    1.750    3.750    4.500    5.250    2.000 
#    0.000    1.250    0.000    0.000    0.000    0.000 
#    0.000    6.000    0.000    0.000    0.000    0.000 
#
# Total GULP energy -178176.653321 kJ/mol
# GULP energy per Si atom -5568.020416 kJ/mol
# Density = 1.557062 g / cm^3
# Si number density = 15.606142 Si / 1000 Ang^3
#
#
#
# Elastic Constant Matrix: (Units=GPa)
#
#
# Indices 1 2 3 4 5 6 
#
# 1 34.6369 5.4230 -7.9897 -0.0017 3.3533 0.0025
# 2 5.4230 33.7081 11.8687 -0.0190 13.1287 0.0146
# 3 -7.9897 11.8687 69.2343 -0.0059 6.4257 0.0050
# 4 -0.0017 -0.0190 -0.0059 21.5309 -0.0027 5.2402
# 5 3.3533 13.1287 6.4257 -0.0027 26.4290 -0.0002
# 6 0.0025 0.0146 0.0050 5.2402 -0.0002 27.0137
#
#
#
# Elastic Compliance Matrix: (Units=1/GPa)
#
#
# Indices 1 2 3 4 5 6 
#
# 1 0.031104 -0.005829 0.004794 -0.000002 -0.002217 0.000000
# 2 -0.005829 0.039445 -0.005816 0.000037 -0.017441 -0.000027
# 3 0.004794 -0.005816 0.016147 -0.000001 -0.001645 0.000000
# 4 -0.000002 0.000037 -0.000001 0.048746 -0.000013 -0.009456
# 5 -0.002217 -0.017441 -0.001645 -0.000013 0.047182 0.000013
# 6 0.000000 -0.000027 0.000000 -0.009456 0.000013 0.038853
#
#
# Mechanical properties :
#
#
# Convention : Reuss Voigt Hill
#
# Bulk Modulus (GPa) = 13.69958 17.35369 15.52663
# Shear Modulus (GPa) = 19.26713 23.54652 21.40682
#
# Velocity S-wave (km/s) = 3.51748 3.88854 3.70765
# Velocity P-wave (km/s) = 5.02934 5.59508 5.31974
#
# Compressibility (1/GPa) = 0.07299493
#
# Stress axis : x y z
#
# Youngs Moduli (GPa) = 32.15013 25.35179 61.93220
#
# Poissons Ratio (x) = 0.14777 -0.29693
# Poissons Ratio (y) = 0.18740 0.36020
# Poissons Ratio (z) = -0.15414 0.14745
#
# Static dielectric constant tensor:
#      x y z
#    x 1.552290 0.000000 0.024490 
#    y 0.000000 1.510120 0.000030 
#    z 0.024490 0.000030 1.541480 
# 
# From -- ./inp_files/78768.got.cif
#   From: 2010.05.17/outbox.cif.g08.bks.cpg/sg12_40_cif.got.tgz:78768.got - 2010.06.03 13:09:07.
