data_PCOD9184509
_publ_section_title
;
Structure prediction by ZEFSAII (Michael W. Deem and Ramdas Pophale) SiO2 
 PCOD9184509
Probable space group: C 2/M
;
_chemical_formula_sum "Si O2"
_cell_formula_units_Z 64
_cell_length_a 15.766524
_cell_length_b 28.064966
_cell_length_c 8.442006
_cell_angle_alpha 90.000000
_cell_angle_beta 68.624278
_cell_angle_gamma 90.000000
_cell_volume 3478.515346
_symmetry_space_group_name_H-M "C 2/M"
_symmetry_group_IT_number 12
_symmetry_cell_setting 'monoclinic'
loop_
_space_group_symop_operation_xyz
x,y,z
-x,y,-z
-x,-y,-z
x,-y,z
1/2+x,1/2+y,z
1/2-x,1/2+y,-z
1/2-x,1/2-y,-z
1/2+x,1/2-y,z
loop_
_atom_site_type_symbol
_atom_site_label
_atom_site_fract_x
_atom_site_fract_y
_atom_site_fract_z
Si Si1 0.407383 0.719433 0.618645
Si Si2 0.728377 0.199357 0.311900
Si Si3 0.133403 0.390017 0.247026
Si Si4 0.043416 0.416648 0.806534
Si Si5 0.341951 0.155392 0.092687
Si Si6 0.601186 0.735906 0.006141
Si Si7 0.690795 0.643125 0.449092
Si Si8 0.284001 0.054561 0.513119
O O1 0.500000 0.743849 0.500000
O O2 0.322438 0.751506 0.622084
O O3 0.402346 0.668683 0.533018
O O4 0.403457 0.718513 0.810367
O O5 0.650954 0.163002 0.301354
O O6 0.815223 0.208839 0.138558
O O7 0.766582 0.173359 0.438205
O O8 0.182851 0.424228 0.339536
O O9 0.031974 0.408076 0.277256
O O10 0.169446 0.381899 0.043474
O O11 0.081801 0.365785 0.840927
O O12 0.129603 0.441760 0.666429
O O13 0.000000 0.437971 0.000000
O O14 0.370461 0.208107 0.020105
O O15 0.250300 0.153589 0.253389
O O16 0.500000 0.730249 0.000000
O O17 0.706144 0.588944 0.493243
O O18 0.256427 0.000000 0.547818
#
# Coordination Sequence:
#
# PCOD9184509 Si02
#       8
#     8   8   8   8   8   8   8   8
#     4  12  24  35  55  86 116 156 197 239 278 334
#     4  11  22  36  55  81 118 159 195 230 277 332
#     4  10  19  34  51  78 111 147 184 230 279 331
#     4   9  19  33  51  79 111 149 186 232 286 338
#     4  10  19  35  53  75 115 158 192 230 273 331
#     4  12  23  36  55  81 118 162 207 231 269 329
#     4  10  22  39  57  78 117 147 189 239 291 333
#     4  10  22  38  59  78 103 145 191 242 296 353
#
# _framework density 18.398652999999999
#
# number of rings (size 3 to 8) (size 9 to 14) (size 15 to 20)
#    0.000    1.500    2.500    3.750    1.750    3.250 
#    0.000    5.000    0.000    0.375    0.000    0.000 
#    0.000   13.500    0.000    0.000    0.000    0.000 
#
# Total GULP energy -178303.576164 kJ/mol
# GULP energy per Si atom -5571.986755 kJ/mol
# Density = 1.835678 g / cm^3
# Si number density = 18.398653 Si / 1000 Ang^3
#
#
#
# Elastic Constant Matrix: (Units=GPa)
#
#
# Indices 1 2 3 4 5 6 
#
# 1 61.8843 35.2163 7.3178 0.0000 8.5192 0.0000
# 2 35.2163 111.5787 20.2927 0.0000 19.6948 0.0000
# 3 7.3178 20.2927 63.5694 0.0000 8.2584 0.0000
# 4 0.0000 0.0000 0.0000 6.3303 0.0000 -8.5129
# 5 8.5192 19.6948 8.2584 0.0000 28.9446 0.0000
# 6 0.0000 0.0000 0.0000 -8.5129 0.0000 -1.7479
#
#
#
# Elastic Compliance Matrix: (Units=1/GPa)
#
#
# Indices 1 2 3 4 5 6 
#
# 1 0.019780 -0.005903 -0.000164 0.000000 -0.001759 0.000000
# 2 -0.005903 0.012325 -0.002483 0.000000 -0.005941 0.000000
# 3 -0.000164 -0.002483 0.016945 0.000000 -0.003097 0.000000
# 4 0.000000 0.000000 0.000000 0.020925 0.000000 -0.101909
# 5 -0.001759 -0.005941 -0.003097 0.000000 0.039992 0.000000
# 6 0.000000 0.000000 0.000000 -0.101909 0.000000 -0.075781
#
#
# Mechanical properties :
#
#
# Convention : Reuss Voigt Hill
#
# Bulk Modulus (GPa) = 31.29923 40.29844 35.79884
# Shear Modulus (GPa) = 80.72912 18.31911 49.52411
#
# Velocity S-wave (km/s) = 6.63121 3.15886 5.19381
# Velocity P-wave (km/s) = 8.69938 5.93759 7.44763
#
# Compressibility (1/GPa) = 0.03194967
#
# Stress axis : x y z
#
# Youngs Moduli (GPa) = 50.55706 81.13267 59.01528
#
# Poissons Ratio (x) = 0.47889 0.00969
# Poissons Ratio (y) = 0.29842 0.14655
# Poissons Ratio (z) = 0.00830 0.20148
#
# Static dielectric constant tensor:
#      x y z
#    x 1.702060 0.000000 -0.004600 
#    y 0.000000 1.638080 0.000000 
#    z -0.004600 0.000000 1.674450 
# 
# From -- ./inp_files/66902.got.cif
#   From: 2010.05.17/outbox.cif.g08.bks.cpg/sg12_34_cif.got.tgz:66902.got - 2010.06.03 13:09:07.
