data_PCOD9184279
_publ_section_title
;
Structure prediction by ZEFSAII (Michael W. Deem and Ramdas Pophale) SiO2 
 PCOD9184279
Probable space group: C 2/M
;
_chemical_formula_sum "Si O2"
_cell_formula_units_Z 56
_cell_length_a 30.820207
_cell_length_b 8.318836
_cell_length_c 11.493121
_cell_angle_alpha 90.000000
_cell_angle_beta 112.055822
_cell_angle_gamma 90.000000
_cell_volume 2731.056976
_symmetry_space_group_name_H-M "C 2/M"
_symmetry_group_IT_number 12
_symmetry_cell_setting 'monoclinic'
loop_
_space_group_symop_operation_xyz
x,y,z
-x,y,-z
-x,-y,-z
x,-y,z
1/2+x,1/2+y,z
1/2-x,1/2+y,-z
1/2-x,1/2-y,-z
1/2+x,1/2-y,z
loop_
_atom_site_type_symbol
_atom_site_label
_atom_site_fract_x
_atom_site_fract_y
_atom_site_fract_z
Si Si1 0.944177 0.191606 0.824020
Si Si2 0.275222 0.306302 0.145346
Si Si3 0.948548 0.184110 0.484415
Si Si4 0.624447 0.185132 0.417222
Si Si5 0.774881 0.693587 0.404480
Si Si6 0.621095 0.684473 0.802810
Si Si7 0.545634 0.302840 0.898682
O O1 0.894970 0.238190 0.719528
O O2 0.992744 0.247960 0.811335
O O3 0.946798 0.000000 0.825737
O O4 0.947668 0.242304 0.960882
O O5 0.273556 0.500000 0.146711
O O6 0.258681 0.250490 0.258636
O O7 0.329139 0.246153 0.184682
O O8 0.250000 0.250000 0.000000
O O9 0.919878 0.291136 0.544064
O O10 0.914991 0.177148 0.339575
O O11 0.000000 0.238547 0.500000
O O12 0.953164 0.000000 0.535813
O O13 0.671252 0.252824 0.523044
O O14 0.633828 0.000000 0.404721
O O15 0.772810 0.500000 0.399681
O O16 0.750000 0.750000 0.500000
O O17 0.631873 0.500000 0.849670
O O18 0.589453 0.762125 0.870873
O O19 0.546548 0.500000 0.889492
#
# Coordination Sequence:
#
# PCOD9184279 Si02
#       7
#     8   8   8   8   8   8   8
#     4   9  17  31  55  82 114 155 199 242 289 350
#     4  11  23  41  65  92 125 165 212 267 324 386
#     4  10  19  33  58  88 116 151 196 239 283 347
#     4  11  23  37  55  83 121 154 190 242 306 370
#     4  11  25  45  67  91 122 163 211 269 331 394
#     4   9  17  31  54  84 115 147 191 244 296 350
#     4   8  15  30  52  82 114 149 197 248 289 339
#
# _framework density 20.504881999999998
#
# number of rings (size 3 to 8) (size 9 to 14) (size 15 to 20)
#    0.000    2.143    1.429    3.000    0.000    5.429 
#    0.000    2.857    0.000    2.571    0.000    0.000 
#    0.000    0.000    0.000    0.000    0.000    0.000 
#
# Total GULP energy -155940.764548 kJ/mol
# GULP energy per Si atom -5569.313020 kJ/mol
# Density = 2.045821 g / cm^3
# Si number density = 20.504882 Si / 1000 Ang^3
#
#
#
# Elastic Constant Matrix: (Units=GPa)
#
#
# Indices 1 2 3 4 5 6 
#
# 1 94.9405 14.0123 55.4207 0.0000 -3.4150 0.0000
# 2 14.0123 30.3217 24.6328 0.0000 -4.9407 0.0000
# 3 55.4207 24.6328 128.4071 0.0000 -1.4871 0.0000
# 4 0.0000 0.0000 0.0000 38.2202 0.0000 -2.6378
# 5 -3.4150 -4.9407 -1.4871 0.0000 32.2549 0.0000
# 6 0.0000 0.0000 0.0000 -2.6378 0.0000 17.7514
#
#
#
# Elastic Compliance Matrix: (Units=1/GPa)
#
#
# Indices 1 2 3 4 5 6 
#
# 1 0.014199 -0.001698 -0.005791 0.000000 0.000976 0.000000
# 2 -0.001698 0.040325 -0.006937 0.000000 0.005677 0.000000
# 3 -0.005791 -0.006937 0.011605 0.000000 -0.001141 0.000000
# 4 0.000000 0.000000 0.000000 0.026435 0.000000 0.003928
# 5 0.000976 0.005677 -0.001141 0.000000 0.031923 0.000000
# 6 0.000000 0.000000 0.000000 0.003928 0.000000 0.056917
#
#
# Mechanical properties :
#
#
# Convention : Reuss Voigt Hill
#
# Bulk Modulus (GPa) = 26.82666 49.08899 37.95783
# Shear Modulus (GPa) = 22.45338 28.28554 25.36946
#
# Velocity S-wave (km/s) = 3.31271 3.71813 3.52126
# Velocity P-wave (km/s) = 5.26721 6.51343 5.92319
#
# Compressibility (1/GPa) = 0.03727635
#
# Stress axis : x y z
#
# Youngs Moduli (GPa) = 70.42593 24.79850 86.17057
#
# Poissons Ratio (x) = 0.04210 0.49905
# Poissons Ratio (y) = 0.11957 0.59778
# Poissons Ratio (z) = 0.40787 0.17203
#
# Static dielectric constant tensor:
#      x y z
#    x 1.780680 0.000000 -0.008940 
#    y 0.000000 1.748660 0.000000 
#    z -0.008940 0.000000 1.789890 
# 
# From -- ./inp_files/186825.got.cif
#   From: 2010.05.17/outbox.cif.g08.bks.cpg/sg12_94_cif.got.tgz:186825.got - 2010.06.03 13:09:07.
