data_PCOD9184337
_publ_section_title
;
Structure prediction by ZEFSAII (Michael W. Deem and Ramdas Pophale) SiO2 
 PCOD9184337
Probable space group: C 2/M
;
_chemical_formula_sum "Si O2"
_cell_formula_units_Z 58
_cell_length_a 20.163471
_cell_length_b 21.832023
_cell_length_c 17.990574
_cell_angle_alpha 90.000000
_cell_angle_beta 158.595154
_cell_angle_gamma 90.000000
_cell_volume 2890.308795
_symmetry_space_group_name_H-M "C 2/M"
_symmetry_group_IT_number 12
_symmetry_cell_setting 'monoclinic'
loop_
_space_group_symop_operation_xyz
x,y,z
-x,y,-z
-x,-y,-z
x,-y,z
1/2+x,1/2+y,z
1/2-x,1/2+y,-z
1/2-x,1/2-y,-z
1/2+x,1/2-y,z
loop_
_atom_site_type_symbol
_atom_site_label
_atom_site_fract_x
_atom_site_fract_y
_atom_site_fract_z
Si Si1 0.049221 0.259987 0.374586
Si Si2 0.955257 0.800475 0.790695
Si Si3 0.944725 0.067289 0.138221
Si Si4 0.292708 0.393783 0.309058
Si Si5 0.000000 0.500000 0.000000
Si Si6 0.616990 0.876506 0.879214
Si Si7 0.750284 0.295349 0.848725
Si Si8 0.732324 0.068572 0.406729
O O1 0.939669 0.319531 0.231588
O O2 0.945062 0.232331 0.335449
O O3 0.040578 0.213987 0.294352
O O4 0.253636 0.280581 0.602855
O O5 0.002550 0.871616 0.852095
O O6 0.100202 0.756401 0.980601
O O7 0.094313 0.065498 0.359765
O O8 0.947925 0.000000 0.104887
O O9 0.750479 0.079677 0.973531
O O10 0.500000 0.407839 0.500000
O O11 0.239751 0.329337 0.218199
O O12 0.275365 0.391625 0.379912
O O13 0.151045 0.445788 0.136081
O O14 0.435472 0.907783 0.720519
O O15 0.715663 0.847628 0.053485
O O16 0.686094 0.000000 0.328514
#
# Coordination Sequence:
#
# PCOD9184337 Si02
#       8
#     8   8   8   8   2   8   8   8
#     4  10  19  33  59  79 110 147 201 265 311 359
#     4  10  19  36  57  84 109 146 207 258 318 371
#     4  11  21  35  58  87 121 158 200 255 315 373
#     4  12  27  43  59  81 124 169 222 258 291 348
#     4  12  26  48  60  82 116 184 220 256 284 348
#     4  11  19  36  57  83 111 152 205 256 302 364
#     4  11  22  36  59  81 109 159 212 260 306 350
#     4  11  24  39  54  82 122 168 209 242 289 355
#
# _framework density 20.067060000000001
#
# number of rings (size 3 to 8) (size 9 to 14) (size 15 to 20)
#    0.000    1.103    4.828    3.103    0.000    1.103 
#    3.724    0.000    0.000    0.000    0.000    0.000 
#    0.000    0.552    0.000   21.586    0.276    5.793 
#
# Total GULP energy -161972.396884 kJ/mol
# GULP energy per Si atom -5585.255065 kJ/mol
# Density = 2.002139 g / cm^3
# Si number density = 20.067060 Si / 1000 Ang^3
#
#
#
# Elastic Constant Matrix: (Units=GPa)
#
#
# Indices 1 2 3 4 5 6 
#
# 1 30.3497 21.4212 20.2091 0.0001 6.1970 0.0002
# 2 21.4212 124.6984 36.1156 0.0001 2.9362 0.0001
# 3 20.2091 36.1156 104.5116 0.0009 28.5892 0.0011
# 4 0.0001 0.0001 0.0009 9.9351 0.0005 -26.4804
# 5 6.1970 2.9362 28.5892 0.0005 20.0119 0.0008
# 6 0.0002 0.0001 0.0011 -26.4804 0.0008 -21.0589
#
#
#
# Elastic Compliance Matrix: (Units=1/GPa)
#
#
# Indices 1 2 3 4 5 6 
#
# 1 0.041022 -0.005615 -0.004502 0.000000 -0.005448 0.000000
# 2 -0.005615 0.010005 -0.004015 0.000000 0.006006 0.000000
# 3 -0.004502 -0.004015 0.018522 0.000000 -0.024478 0.000000
# 4 0.000000 0.000000 0.000000 0.023131 0.000001 -0.029085
# 5 -0.005448 0.006006 -0.024478 0.000001 0.085745 0.000001
# 6 0.000000 0.000000 0.000000 -0.029085 0.000001 -0.010913
#
#
# Mechanical properties :
#
#
# Convention : Reuss Voigt Hill
#
# Bulk Modulus (GPa) = 24.22067 46.11684 35.16875
# Shear Modulus (GPa) = 23.86199 13.89854 18.88027
#
# Velocity S-wave (km/s) = 3.45209 2.63459 3.07067
# Velocity P-wave (km/s) = 5.29012 5.68208 5.48960
#
# Compressibility (1/GPa) = 0.04128705
#
# Stress axis : x y z
#
# Youngs Moduli (GPa) = 24.37689 99.94763 53.98973
#
# Poissons Ratio (x) = 0.56120 0.24304
# Poissons Ratio (y) = 0.13687 0.21675
# Poissons Ratio (z) = 0.10974 0.40126
#
# Static dielectric constant tensor:
#      x y z
#    x 1.737040 0.000000 -0.051960 
#    y 0.000000 1.746920 0.000000 
#    z -0.051960 0.000000 1.774440 
# 
# From -- ./inp_files/322983.got.cif
#   From: 2010.05.17/outbox.cif.g08.bks.cpg/sg12_162_cif.got.tgz:322983.got - 2010.06.03 13:09:07.
