data_PCOD9184780
_publ_section_title
;
Structure prediction by ZEFSAII (Michael W. Deem and Ramdas Pophale) SiO2 
 PCOD9184780
Probable space group: C 2/M
;
_chemical_formula_sum "Si O2"
_cell_formula_units_Z 58
_cell_length_a 22.113900
_cell_length_b 21.916987
_cell_length_c 7.305030
_cell_angle_alpha 90.000000
_cell_angle_beta 60.049550
_cell_angle_gamma 90.000000
_cell_volume 3067.718131
_symmetry_space_group_name_H-M "C 2/M"
_symmetry_group_IT_number 12
_symmetry_cell_setting 'monoclinic'
loop_
_space_group_symop_operation_xyz
x,y,z
-x,y,-z
-x,-y,-z
x,-y,z
1/2+x,1/2+y,z
1/2-x,1/2+y,-z
1/2-x,1/2-y,-z
1/2+x,1/2-y,z
loop_
_atom_site_type_symbol
_atom_site_label
_atom_site_fract_x
_atom_site_fract_y
_atom_site_fract_z
Si Si1 0.500000 0.000000 0.500000
Si Si2 0.254863 0.430422 0.332883
Si Si3 0.919823 0.705304 0.161027
Si Si4 0.678422 0.693549 0.771195
Si Si5 0.711074 0.710475 0.287090
Si Si6 0.308342 0.892991 0.190627
Si Si7 0.875240 0.592913 0.735493
Si Si8 0.579836 0.773737 0.408130
O O1 0.439554 0.052934 0.572969
O O2 0.275945 0.500000 0.262085
O O3 0.312716 0.378184 0.207959
O O4 0.229219 0.425623 0.583575
O O5 0.187593 0.413018 0.312810
O O6 0.913497 0.711897 0.387285
O O7 0.106873 0.767933 0.895377
O O8 0.134344 0.653055 0.812127
O O9 0.000000 0.691321 0.000000
O O10 0.696325 0.700621 0.526770
O O11 0.737876 0.730952 0.791469
O O12 0.752521 0.650087 0.170382
O O13 0.640286 0.724102 0.286371
O O14 0.347844 0.929639 0.974162
O O15 0.900740 0.663020 0.720179
O O16 0.500000 0.755129 0.500000
#
# Coordination Sequence:
#
# PCOD9184780 Si02
#       8
#     2   8   8   8   8   8   8   8
#     4  12  28  40  46  72 120 158 172 228 248 292
#     4  11  21  37  57  76 104 141 185 224 260 305
#     4  10  19  34  54  80 112 138 173 219 282 330
#     4   8  15  32  54  75 104 137 173 225 270 313
#     4   8  15  32  54  76 107 136 172 223 279 313
#     4  10  22  37  58  81 103 142 185 227 264 322
#     4  12  23  38  52  74 109 146 190 218 258 306
#     4  11  19  32  52  78 115 143 170 221 270 327
#
# _framework density 18.906561
#
# number of rings (size 3 to 8) (size 9 to 14) (size 15 to 20)
#    0.000    1.931    4.138    2.483    0.966    0.552 
#    2.483    0.690    0.000    0.414    0.000    0.000 
#    0.000    6.621    0.000    0.000    0.000    0.000 
#
# Total GULP energy -161579.812493 kJ/mol
# GULP energy per Si atom -5571.717672 kJ/mol
# Density = 1.886353 g / cm^3
# Si number density = 18.906561 Si / 1000 Ang^3
#
#
#
# Elastic Constant Matrix: (Units=GPa)
#
#
# Indices 1 2 3 4 5 6 
#
# 1 82.7689 24.9785 10.7247 0.0000 -10.9724 0.0000
# 2 24.9785 83.3483 -8.4772 0.0000 -21.6478 0.0000
# 3 10.7247 -8.4772 22.1752 0.0000 0.1553 0.0000
# 4 0.0000 0.0000 0.0000 -13.0396 0.0000 9.7559
# 5 -10.9724 -21.6478 0.1553 0.0000 30.8503 0.0000
# 6 0.0000 0.0000 0.0000 9.7559 0.0000 -3.8051
#
#
#
# Elastic Compliance Matrix: (Units=1/GPa)
#
#
# Indices 1 2 3 4 5 6 
#
# 1 0.015012 -0.004930 -0.009158 0.000000 0.001926 0.000000
# 2 -0.004930 0.017004 0.008814 0.000000 0.010134 0.000000
# 3 -0.009158 0.008814 0.052875 0.000000 0.002661 0.000000
# 4 0.000000 0.000000 0.000000 0.083516 0.000000 0.214128
# 5 0.001926 0.010134 0.002661 0.000000 0.040197 0.000000
# 6 0.000000 0.000000 0.000000 0.214128 0.000000 0.286200
#
#
# Mechanical properties :
#
#
# Convention : Reuss Voigt Hill
#
# Bulk Modulus (GPa) = 13.45148 26.97160 20.21154
# Shear Modulus (GPa) = 9.43158 13.53889 11.48524
#
# Velocity S-wave (km/s) = 2.23592 2.67890 2.46737
# Velocity P-wave (km/s) = 3.71429 4.88522 4.33943
#
# Compressibility (1/GPa) = 0.07434127
#
# Stress axis : x y z
#
# Youngs Moduli (GPa) = 66.61499 58.81044 18.91238
#
# Poissons Ratio (x) = 0.28994 0.17321
# Poissons Ratio (y) = 0.32842 -0.16669
# Poissons Ratio (z) = 0.61008 -0.51834
#
# Static dielectric constant tensor:
#      x y z
#    x 1.666620 0.000000 0.024050 
#    y 0.000000 1.640870 0.000000 
#    z 0.024050 0.000000 1.751130 
# 
# From -- ./inp_files/99259.got.cif
#   From: 2010.05.17/outbox.cif.g08.bks.cpg/sg12_50_cif.got.tgz:99259.got - 2010.06.03 13:09:07.
