data_PCOD9184088
_publ_section_title
;
Structure prediction by ZEFSAII (Michael W. Deem and Ramdas Pophale) SiO2 
 PCOD9184088
Probable space group: C 2/M
;
_chemical_formula_sum "Si O2"
_cell_formula_units_Z 48
_cell_length_a 9.986350
_cell_length_b 15.400667
_cell_length_c 14.655193
_cell_angle_alpha 90.000000
_cell_angle_beta 116.901635
_cell_angle_gamma 90.000000
_cell_volume 2010.008218
_symmetry_space_group_name_H-M "C 2/M"
_symmetry_group_IT_number 12
_symmetry_cell_setting 'monoclinic'
loop_
_space_group_symop_operation_xyz
x,y,z
-x,y,-z
-x,-y,-z
x,-y,z
1/2+x,1/2+y,z
1/2-x,1/2+y,-z
1/2-x,1/2-y,-z
1/2+x,1/2-y,z
loop_
_atom_site_type_symbol
_atom_site_label
_atom_site_fract_x
_atom_site_fract_y
_atom_site_fract_z
Si Si1 0.230158 0.346924 0.922937
Si Si2 0.066189 0.245467 0.154342
Si Si3 0.772891 0.898535 0.458179
Si Si4 0.935218 0.409007 0.297242
Si Si5 0.329061 0.091560 0.908408
Si Si6 0.769420 0.717398 0.374480
O O1 0.367231 0.321100 0.899479
O O2 0.123724 0.403144 0.823583
O O3 0.108833 0.270052 0.910024
O O4 0.265219 0.394043 0.028362
O O5 0.166505 0.329888 0.159503
O O6 0.111331 0.222633 0.270887
O O7 0.611929 0.909591 0.360973
O O8 0.832314 0.812619 0.421584
O O9 0.747140 0.851586 0.548288
O O10 0.833021 0.000000 0.482528
O O11 0.877135 0.500000 0.320153
O O12 0.877503 0.327215 0.334887
O O13 0.290664 0.000000 0.853237
O O14 0.500000 0.089308 0.000000
#
# Coordination Sequence:
#
# PCOD9184088 Si02
#       6
#     8   8   8   8   8   8
#     4  10  19  34  55  85 112 146 185 232 282 341
#     4  10  20  34  54  81 111 147 183 230 283 339
#     4  10  20  35  56  80 109 147 194 239 286 341
#     4  10  19  33  57  84 111 146 194 241 281 333
#     4   9  18  32  54  82 111 140 184 238 279 327
#     4  10  20  33  52  82 111 144 186 243 290 332
#
# _framework density 23.880500999999999
#
# number of rings (size 3 to 8) (size 9 to 14) (size 15 to 20)
#    0.000    2.167    1.667    2.000    0.000    2.667 
#    0.000    0.000    0.000   16.000    0.000    0.000 
#    0.000    0.000    0.000    0.000    0.000    0.000 
#
# Total GULP energy -133801.610605 kJ/mol
# GULP energy per Si atom -5575.067109 kJ/mol
# Density = 2.382615 g / cm^3
# Si number density = 23.880501 Si / 1000 Ang^3
#
#
#
# Elastic Constant Matrix: (Units=GPa)
#
#
# Indices 1 2 3 4 5 6 
#
# 1 63.3015 15.6020 10.8956 0.0000 -3.5821 0.0000
# 2 15.6020 166.0566 27.3270 0.0000 -14.3157 0.0000
# 3 10.8956 27.3270 75.2936 0.0000 -4.5010 0.0000
# 4 0.0000 0.0000 0.0000 17.8017 0.0000 -3.4623
# 5 -3.5821 -14.3157 -4.5010 0.0000 31.6606 0.0000
# 6 0.0000 0.0000 0.0000 -3.4623 0.0000 14.5626
#
#
#
# Elastic Compliance Matrix: (Units=1/GPa)
#
#
# Indices 1 2 3 4 5 6 
#
# 1 0.016467 -0.001141 -0.001904 0.000000 0.001076 0.000000
# 2 -0.001141 0.006701 -0.002111 0.000000 0.002601 0.000000
# 3 -0.001904 -0.002111 0.014375 0.000000 0.000873 0.000000
# 4 0.000000 0.000000 0.000000 0.058898 0.000000 0.014003
# 5 0.001076 0.002601 0.000873 0.000000 0.033007 0.000000
# 6 0.000000 0.000000 0.000000 0.014003 0.000000 0.071998
#
#
# Mechanical properties :
#
#
# Convention : Reuss Voigt Hill
#
# Bulk Modulus (GPa) = 36.72436 45.81119 41.26778
# Shear Modulus (GPa) = 22.64109 29.52678 26.08393
#
# Velocity S-wave (km/s) = 3.08246 3.52012 3.30853
# Velocity P-wave (km/s) = 5.29911 5.97886 5.64922
#
# Compressibility (1/GPa) = 0.02722988
#
# Stress axis : x y z
#
# Youngs Moduli (GPa) = 60.72619 149.23331 69.56285
#
# Poissons Ratio (x) = 0.17027 0.13248
# Poissons Ratio (y) = 0.06929 0.14688
# Poissons Ratio (z) = 0.11565 0.31510
#
# Static dielectric constant tensor:
#      x y z
#    x 1.935780 0.000000 0.012760 
#    y 0.000000 2.050610 0.000000 
#    z 0.012760 0.000000 1.929110 
# 
# From -- ./inp_files/204562.got.cif
#   From: 2010.05.17/outbox.cif.g08.bks.cpg/sg12_103_cif.got.tgz:204562.got - 2010.06.03 13:09:07.
