data_PCOD9184866
_publ_section_title
;
Structure prediction by ZEFSAII (Michael W. Deem and Ramdas Pophale) SiO2 
 PCOD9184866
Probable space group: C 2/M
;
_chemical_formula_sum "Si O2"
_cell_formula_units_Z 52
_cell_length_a 5.083300
_cell_length_b 25.591385
_cell_length_c 23.053824
_cell_angle_alpha 90.000000
_cell_angle_beta 118.929300
_cell_angle_gamma 90.000000
_cell_volume 2624.813095
_symmetry_space_group_name_H-M "C 2/M"
_symmetry_group_IT_number 12
_symmetry_cell_setting 'monoclinic'
loop_
_space_group_symop_operation_xyz
x,y,z
-x,y,-z
-x,-y,-z
x,-y,z
1/2+x,1/2+y,z
1/2-x,1/2+y,-z
1/2-x,1/2-y,-z
1/2+x,1/2-y,z
loop_
_atom_site_type_symbol
_atom_site_label
_atom_site_fract_x
_atom_site_fract_y
_atom_site_fract_z
Si Si1 0.494549 0.163060 0.288736
Si Si2 0.235714 0.441979 0.789652
Si Si3 0.000000 0.377517 0.000000
Si Si4 0.687955 0.712693 0.574382
Si Si5 0.696703 0.718250 0.918915
Si Si6 0.071346 0.408977 0.131758
Si Si7 0.178686 0.804356 0.789057
O O1 0.455561 0.103863 0.261478
O O2 0.702736 0.171575 0.366372
O O3 0.635523 0.199676 0.252308
O O4 0.151744 0.178113 0.267665
O O5 0.171191 0.500000 0.760671
O O6 0.591339 0.430827 0.824904
O O7 0.145791 0.437486 0.847295
O O8 0.271081 0.338218 0.048434
O O9 0.954194 0.409498 0.053623
O O10 0.500000 0.690493 0.500000
O O11 0.474864 0.756093 0.580948
O O12 0.516528 0.757830 0.938790
O O13 0.562055 0.721157 0.839049
O O14 0.110233 0.348776 0.157080
#
# Coordination Sequence:
#
# PCOD9184866 Si02
#       7
#     8   8   4   8   8   8   8
#     4  10  19  34  55  77 103 138 171 209 255 297
#     4  10  20  37  57  79 102 127 167 217 266 308
#     4  10  22  38  51  66  98 136 170 208 261 316
#     4  10  21  35  52  78 112 146 176 204 238 290
#     4  11  22  33  48  70  96 129 172 217 261 306
#     4   9  20  35  53  72  98 130 162 207 259 313
#     4   9  19  32  48  72  99 129 168 211 255 299
#
# _framework density 19.810934
#
# number of rings (size 3 to 8) (size 9 to 14) (size 15 to 20)
#    0.000    2.154    0.000    2.769    0.000    9.231 
#    0.000    2.308    0.000    0.462    0.000    0.000 
#    0.000   11.077    0.000    0.000    0.000    1.846 
#
# Total GULP energy -144864.369051 kJ/mol
# GULP energy per Si atom -5571.706502 kJ/mol
# Density = 1.976584 g / cm^3
# Si number density = 19.810934 Si / 1000 Ang^3
#
#
#
# Elastic Constant Matrix: (Units=GPa)
#
#
# Indices 1 2 3 4 5 6 
#
# 1 17.3939 -45.9700 22.0447 0.0000 -34.4593 0.0000
# 2 -45.9700 25.1630 32.2731 0.0000 -19.4756 0.0000
# 3 22.0447 32.2731 127.8782 0.0000 4.8859 0.0000
# 4 0.0000 0.0000 0.0000 15.9082 0.0000 4.7922
# 5 -34.4593 -19.4756 4.8859 0.0000 10.8201 0.0000
# 6 0.0000 0.0000 0.0000 4.7922 0.0000 -11.1660
#
#
#
# Elastic Compliance Matrix: (Units=1/GPa)
#
#
# Indices 1 2 3 4 5 6 
#
# 1 0.001934 -0.009980 0.002682 0.000000 -0.013014 0.000000
# 2 -0.009980 0.008596 0.000177 0.000000 -0.016391 0.000000
# 3 0.002682 0.000177 0.007097 0.000000 0.005657 0.000000
# 4 0.000000 0.000000 0.000000 0.055664 0.000000 0.023890
# 5 -0.013014 -0.016391 0.005657 0.000000 0.018916 0.000000
# 6 0.000000 0.000000 0.000000 0.023890 0.000000 -0.079304
#
#
# Mechanical properties :
#
#
# Convention : Reuss Voigt Hill
#
# Bulk Modulus (GPa) = 295.27404 20.79229 158.03317
# Shear Modulus (GPa) = 176.85872 13.91825 95.38848
#
# Velocity S-wave (km/s) = 9.45870 2.65345 6.94651
# Velocity P-wave (km/s) = 16.39082 4.46160 12.01176
#
# Compressibility (1/GPa) = 0.00338668
#
# Stress axis : x y z
#
# Youngs Moduli (GPa) = 517.02020 116.33753 140.91211
#
# Poissons Ratio (x) = 1.16100 -0.37798
# Poissons Ratio (y) = 5.15966 -0.02498
# Poissons Ratio (z) = -1.38686 -0.02063
#
# Static dielectric constant tensor:
#      x y z
#    x 1.781830 0.000000 -0.040120 
#    y 0.000000 1.799560 0.000000 
#    z -0.040120 0.000000 1.761330 
# 
# From -- ./inp_files/298395.got.cif
#   From: 2010.05.17/outbox.cif.g08.bks.cpg/sg12_150_cif.got.tgz:298395.got - 2010.06.03 13:09:07.
