data_PCOD9184197
_publ_section_title
;
Structure prediction by ZEFSAII (Michael W. Deem and Ramdas Pophale) SiO2 
 PCOD9184197
Probable space group: C 2/M
;
_chemical_formula_sum "Si O2"
_cell_formula_units_Z 64
_cell_length_a 21.914728
_cell_length_b 9.089320
_cell_length_c 21.666100
_cell_angle_alpha 90.000000
_cell_angle_beta 52.751102
_cell_angle_gamma 90.000000
_cell_volume 3435.332147
_symmetry_space_group_name_H-M "C 2/M"
_symmetry_group_IT_number 12
_symmetry_cell_setting 'monoclinic'
loop_
_space_group_symop_operation_xyz
x,y,z
-x,y,-z
-x,-y,-z
x,-y,z
1/2+x,1/2+y,z
1/2-x,1/2+y,-z
1/2-x,1/2-y,-z
1/2+x,1/2-y,z
loop_
_atom_site_type_symbol
_atom_site_label
_atom_site_fract_x
_atom_site_fract_y
_atom_site_fract_z
Si Si1 0.409829 0.169785 0.621146
Si Si2 0.546453 0.328563 0.599271
Si Si3 0.632759 0.325040 0.082906
Si Si4 0.280497 0.825414 0.077761
Si Si5 0.678119 0.172474 0.455315
Si Si6 0.526492 0.673865 0.754283
Si Si7 0.316224 0.824737 0.308020
Si Si8 0.247675 0.825271 0.776107
O O1 0.480519 0.272469 0.593743
O O2 0.372353 0.188819 0.576732
O O3 0.339288 0.195026 0.711251
O O4 0.435637 0.000000 0.610343
O O5 0.562161 0.500000 0.579262
O O6 0.624383 0.238848 0.540781
O O7 0.516210 0.307989 0.687218
O O8 0.634123 0.500000 0.068372
O O9 0.699540 0.298143 0.092402
O O10 0.550689 0.287540 0.161921
O O11 0.655368 0.235294 0.008245
O O12 0.279685 0.740687 0.142735
O O13 0.288377 0.000000 0.082455
O O14 0.756491 0.258119 0.394291
O O15 0.693439 0.000000 0.454921
O O16 0.542784 0.500000 0.755189
O O17 0.598721 0.769426 0.730000
O O18 0.291018 0.757358 0.257606
O O19 0.310763 0.000000 0.310594
O O20 0.232883 0.000000 0.780593
#
# Coordination Sequence:
#
# PCOD9184197 Si02
#       8
#     8   8   8   8   8   8   8   8
#     4   9  19  34  53  79 111 145 179 219 269 325
#     4  11  22  34  54  83 111 142 181 227 275 323
#     4   9  19  36  57  82 115 152 182 216 269 326
#     4  10  19  33  57  89 119 144 178 224 268 317
#     4  10  21  38  57  78 109 147 183 222 272 328
#     4  10  22  40  57  76 108 147 185 223 270 327
#     4  11  23  39  59  81 105 138 184 234 277 317
#     4  10  20  36  58  82 111 148 184 219 269 330
#
# _framework density 18.629930000000002
#
# number of rings (size 3 to 8) (size 9 to 14) (size 15 to 20)
#    0.000    2.000    0.000    4.500    0.000    8.000 
#    0.000    0.625    0.000    3.750    0.000    0.000 
#    0.000    0.000    0.000    0.000    0.000    0.000 
#
# Total GULP energy -178796.865910 kJ/mol
# GULP energy per Si atom -5587.402060 kJ/mol
# Density = 1.858753 g / cm^3
# Si number density = 18.629930 Si / 1000 Ang^3
#
#
#
# Elastic Constant Matrix: (Units=GPa)
#
#
# Indices 1 2 3 4 5 6 
#
# 1 44.6415 41.9325 18.8023 0.0001 -21.9056 0.0000
# 2 41.9325 96.4539 57.3605 0.0001 -20.2825 -0.0002
# 3 18.8023 57.3605 102.4812 0.0000 -24.5741 0.0000
# 4 0.0001 0.0001 0.0000 32.7492 0.0000 -0.8097
# 5 -21.9056 -20.2825 -24.5741 0.0000 22.3364 0.0001
# 6 0.0000 -0.0002 0.0000 -0.8097 0.0001 24.1783
#
#
#
# Elastic Compliance Matrix: (Units=1/GPa)
#
#
# Indices 1 2 3 4 5 6 
#
# 1 0.076540 -0.030367 0.019481 0.000000 0.068921 0.000000
# 2 -0.030367 0.028241 -0.015251 0.000000 -0.020916 0.000000
# 3 0.019481 -0.015251 0.021707 0.000000 0.029138 0.000000
# 4 0.000000 0.000000 0.000000 0.030560 0.000000 0.001023
# 5 0.068921 -0.020916 0.029138 0.000000 0.125426 0.000000
# 6 0.000000 0.000000 0.000000 0.001023 0.000000 0.041394
#
#
# Mechanical properties :
#
#
# Convention : Reuss Voigt Hill
#
# Bulk Modulus (GPa) = 13.47475 53.30746 33.39110
# Shear Modulus (GPa) = 12.47258 24.21819 18.34538
#
# Velocity S-wave (km/s) = 2.59026 3.60941 3.14144
# Velocity P-wave (km/s) = 4.02424 6.78575 5.57857
#
# Compressibility (1/GPa) = 0.07421288
#
# Stress axis : x y z
#
# Youngs Moduli (GPa) = 13.06514 35.40969 46.06808
#
# Poissons Ratio (x) = 1.07530 -0.89745
# Poissons Ratio (y) = 0.39675 0.70258
# Poissons Ratio (z) = -0.25452 0.54003
#
# Static dielectric constant tensor:
#      x y z
#    x 1.624260 0.000000 0.004960 
#    y 0.000000 1.621130 0.000000 
#    z 0.004960 0.000000 1.637840 
# 
# From -- ./inp_files/324165.got.cif
#   From: 2010.05.17/outbox.cif.g08.bks.cpg/sg12_163_cif.got.tgz:324165.got - 2010.06.03 13:09:07.
