data_PCOD9184223
_publ_section_title
;
Structure prediction by ZEFSAII (Michael W. Deem and Ramdas Pophale) SiO2 
 PCOD9184223
Probable space group: C 2/M
;
_chemical_formula_sum "Si O2"
_cell_formula_units_Z 56
_cell_length_a 15.773263
_cell_length_b 22.907413
_cell_length_c 17.965739
_cell_angle_alpha 90.000000
_cell_angle_beta 150.793623
_cell_angle_gamma 90.000000
_cell_volume 3167.554252
_symmetry_space_group_name_H-M "C 2/M"
_symmetry_group_IT_number 12
_symmetry_cell_setting 'monoclinic'
loop_
_space_group_symop_operation_xyz
x,y,z
-x,y,-z
-x,-y,-z
x,-y,z
1/2+x,1/2+y,z
1/2-x,1/2+y,-z
1/2-x,1/2-y,-z
1/2+x,1/2-y,z
loop_
_atom_site_type_symbol
_atom_site_label
_atom_site_fract_x
_atom_site_fract_y
_atom_site_fract_z
Si Si1 0.550552 0.623079 0.118743
Si Si2 0.275719 0.295105 0.630520
Si Si3 0.858569 0.218460 0.176430
Si Si4 0.208869 0.344178 0.929658
Si Si5 0.563422 0.323040 0.469789
Si Si6 0.100320 0.500000 0.455895
Si Si7 0.238742 0.000000 0.255631
Si Si8 0.848362 0.619307 0.589365
O O1 0.678938 0.664893 0.263878
O O2 0.633114 0.559884 0.168071
O O3 0.500000 0.648597 0.000000
O O4 0.374004 0.618310 0.031139
O O5 0.458022 0.280980 0.728779
O O6 0.177304 0.235394 0.571924
O O7 0.164048 0.332256 0.485739
O O8 0.784119 0.283387 0.111662
O O9 0.907651 0.196643 0.295620
O O10 0.734779 0.175488 0.034777
O O11 0.026822 0.373065 0.770864
O O12 0.500000 0.346144 0.500000
O O13 0.686072 0.367090 0.518260
O O14 0.185520 0.500000 0.602674
O O15 0.155155 0.557192 0.453033
O O16 0.894535 0.500000 0.315404
#
# Coordination Sequence:
#
# PCOD9184223 Si02
#       8
#     8   8   8   8   8   4   4   8
#     4  11  23  34  53  84 128 158 189 240 290 340
#     4  10  19  36  57  81 119 155 194 238 288 359
#     4   9  18  35  53  82 116 156 190 226 294 355
#     4  10  19  33  58  79 116 160 188 227 288 362
#     4  11  22  35  60  88 117 150 198 253 291 347
#     4  11  24  38  69  80 114 159 207 245 289 348
#     4  11  23  42  54  92 119 155 202 249 282 355
#     4  11  20  41  59  85 110 160 201 240 292 355
#
# _framework density 17.679255999999999
#
# number of rings (size 3 to 8) (size 9 to 14) (size 15 to 20)
#    0.000    1.571    4.286    1.929    2.000    1.714 
#    0.000    1.071    0.000    0.000    0.000    1.000 
#    0.000    0.000    0.000    0.000    0.000    0.000 
#
# Total GULP energy -156357.838697 kJ/mol
# GULP energy per Si atom -5584.208525 kJ/mol
# Density = 1.763902 g / cm^3
# Si number density = 17.679256 Si / 1000 Ang^3
#
#
#
# Elastic Constant Matrix: (Units=GPa)
#
#
# Indices 1 2 3 4 5 6 
#
# 1 89.6056 39.7485 24.5653 -0.0004 -14.8050 -0.0006
# 2 39.7485 76.2958 15.5187 0.0013 8.1446 0.0004
# 3 24.5653 15.5187 88.0462 0.0033 -16.4307 -0.0011
# 4 -0.0004 0.0013 0.0033 23.7048 0.0017 1.5553
# 5 -14.8050 8.1446 -16.4307 0.0017 25.0493 -0.0004
# 6 -0.0006 0.0004 -0.0011 1.5553 -0.0004 17.8495
#
#
#
# Elastic Compliance Matrix: (Units=1/GPa)
#
#
# Indices 1 2 3 4 5 6 
#
# 1 0.018580 -0.011078 -0.000581 0.000000 0.014202 0.000001
# 2 -0.011078 0.021307 -0.003623 0.000000 -0.015851 -0.000001
# 3 -0.000581 -0.003623 0.014032 -0.000003 0.010038 0.000001
# 4 0.000000 0.000000 -0.000003 0.042428 -0.000005 -0.003697
# 5 0.014202 -0.015851 0.010038 -0.000005 0.060054 0.000003
# 6 0.000001 -0.000001 0.000001 -0.003697 0.000003 0.056346
#
#
# Mechanical properties :
#
#
# Convention : Reuss Voigt Hill
#
# Bulk Modulus (GPa) = 42.81661 45.95697 44.38679
# Shear Modulus (GPa) = 19.91282 24.92840 22.42061
#
# Velocity S-wave (km/s) = 3.35974 3.75912 3.56503
# Velocity P-wave (km/s) = 6.27069 6.70019 6.48900
#
# Compressibility (1/GPa) = 0.02335542
#
# Stress axis : x y z
#
# Youngs Moduli (GPa) = 53.82202 46.93263 71.26741
#
# Poissons Ratio (x) = 0.51990 0.04141
# Poissons Ratio (y) = 0.59622 0.25820
# Poissons Ratio (z) = 0.03127 0.17003
#
# Static dielectric constant tensor:
#      x y z
#    x 1.599840 0.000000 -0.004820 
#    y 0.000000 1.579960 0.000000 
#    z -0.004820 0.000000 1.637380 
# 
# From -- ./inp_files/272432.got.cif
#   From: 2010.05.17/outbox.cif.g08.bks.cpg/sg12_137_cif.got.tgz:272432.got - 2010.06.03 13:09:07.
