data_PCOD9184130
_publ_section_title
;
Structure prediction by ZEFSAII (Michael W. Deem and Ramdas Pophale) SiO2 
 PCOD9184130
Probable space group: C 2/M
;
_chemical_formula_sum "Si O2"
_cell_formula_units_Z 64
_cell_length_a 20.272180
_cell_length_b 9.150333
_cell_length_c 30.891027
_cell_angle_alpha 90.000000
_cell_angle_beta 35.237186
_cell_angle_gamma 90.000000
_cell_volume 3306.110116
_symmetry_space_group_name_H-M "C 2/M"
_symmetry_group_IT_number 12
_symmetry_cell_setting 'monoclinic'
loop_
_space_group_symop_operation_xyz
x,y,z
-x,y,-z
-x,-y,-z
x,-y,z
1/2+x,1/2+y,z
1/2-x,1/2+y,-z
1/2-x,1/2-y,-z
1/2+x,1/2-y,z
loop_
_atom_site_type_symbol
_atom_site_label
_atom_site_fract_x
_atom_site_fract_y
_atom_site_fract_z
Si Si1 0.574871 0.330763 0.557428
Si Si2 0.047473 0.675110 0.657188
Si Si3 0.578696 0.325783 0.915550
Si Si4 0.332834 0.669489 0.898866
Si Si5 0.762195 0.329979 0.380209
Si Si6 0.680651 0.326589 0.196025
Si Si7 0.574430 0.828771 0.072294
Si Si8 0.595242 0.832808 0.410428
O O1 0.560071 0.500000 0.577370
O O2 0.605856 0.236095 0.582564
O O3 0.671498 0.323366 0.468567
O O4 0.460251 0.265248 0.597196
O O5 0.043331 0.500000 0.658146
O O6 0.119358 0.717873 0.661421
O O7 0.923149 0.746486 0.724835
O O8 0.594600 0.500000 0.904215
O O9 0.698771 0.244801 0.856783
O O10 0.513525 0.264142 0.908674
O O11 0.500000 0.295448 0.000000
O O12 0.360702 0.500000 0.893243
O O13 0.340293 0.695385 0.844017
O O14 0.410463 0.771940 0.886982
O O15 0.200268 0.691152 0.983496
O O16 0.769800 0.500000 0.362772
O O17 0.709269 0.234265 0.370267
O O18 0.681679 0.500000 0.204078
O O19 0.545941 0.000000 0.086041
O O20 0.500000 0.832851 0.500000
O O21 0.610831 0.000000 0.387944
#
# Coordination Sequence:
#
# PCOD9184130 Si02
#       8
#     8   8   8   8   8   8   8   8
#     4  10  19  34  57  83 112 148 190 233 280 334
#     4  11  23  38  55  80 114 149 187 232 283 335
#     4  11  22  36  58  86 114 145 183 228 276 329
#     4   9  19  35  55  81 112 143 178 226 276 328
#     4   9  19  35  56  82 112 147 188 235 282 335
#     4  11  23  40  59  80 112 150 188 229 280 337
#     4  10  19  33  57  86 113 142 180 227 275 327
#     4   9  17  30  52  82 112 141 179 231 283 329
#
# _framework density 19.358097000000001
#
# number of rings (size 3 to 8) (size 9 to 14) (size 15 to 20)
#    0.000    2.000    1.250    2.625    0.000    5.000 
#    0.000    1.250    0.000    3.000    0.000    0.000 
#    0.000    0.000    0.000    0.000    0.000    0.000 
#
# Total GULP energy -178719.844734 kJ/mol
# GULP energy per Si atom -5584.995148 kJ/mol
# Density = 1.931404 g / cm^3
# Si number density = 19.358097 Si / 1000 Ang^3
#
#
#
# Elastic Constant Matrix: (Units=GPa)
#
#
# Indices 1 2 3 4 5 6 
#
# 1 95.6140 51.9820 12.1648 -0.0002 -23.7736 -0.0043
# 2 51.9820 83.2745 22.2715 0.0009 -15.4411 -0.0010
# 3 12.1648 22.2715 26.5591 0.0005 -13.4912 -0.0016
# 4 -0.0002 0.0009 0.0005 20.0822 0.0000 -1.3689
# 5 -23.7736 -15.4411 -13.4912 0.0000 21.1514 0.0003
# 6 -0.0043 -0.0010 -0.0016 -1.3689 0.0003 37.8037
#
#
#
# Elastic Compliance Matrix: (Units=1/GPa)
#
#
# Indices 1 2 3 4 5 6 
#
# 1 0.021210 -0.012277 0.012037 0.000001 0.022555 0.000002
# 2 -0.012277 0.022877 -0.017880 -0.000001 -0.008502 -0.000002
# 3 0.012037 -0.017880 0.070080 -0.000001 0.045177 0.000004
# 4 0.000001 -0.000001 -0.000001 0.049919 0.000000 0.001808
# 5 0.022555 -0.008502 0.045177 0.000000 0.095237 0.000004
# 6 0.000002 -0.000002 0.000004 0.001808 0.000004 0.026518
#
#
# Mechanical properties :
#
#
# Convention : Reuss Voigt Hill
#
# Bulk Modulus (GPa) = 12.83228 42.03157 27.43192
# Shear Modulus (GPa) = 14.36550 23.74274 19.05412
#
# Velocity S-wave (km/s) = 2.72709 3.50594 3.14075
# Velocity P-wave (km/s) = 4.06932 6.17646 5.23010
#
# Compressibility (1/GPa) = 0.07792850
#
# Stress axis : x y z
#
# Youngs Moduli (GPa) = 47.14828 43.71137 14.26937
#
# Poissons Ratio (x) = 0.53663 -0.17176
# Poissons Ratio (y) = 0.57883 0.25513
# Poissons Ratio (z) = -0.56753 0.78155
#
# Static dielectric constant tensor:
#      x y z
#    x 1.660800 0.000000 0.007930 
#    y 0.000000 1.640420 0.000000 
#    z 0.007930 0.000000 1.702530 
# 
# From -- ./inp_files/378034.got.cif
#   From: 2010.05.17/outbox.cif.g08.bks.cpg/sg12_190_cif.got.tgz:378034.got - 2010.06.03 13:09:07.
