data_PCOD9184198
_publ_section_title
;
Structure prediction by ZEFSAII (Michael W. Deem and Ramdas Pophale) SiO2 
 PCOD9184198
Probable space group: C 2/M
;
_chemical_formula_sum "Si O2"
_cell_formula_units_Z 50
_cell_length_a 15.971562
_cell_length_b 12.132164
_cell_length_c 21.263937
_cell_angle_alpha 90.000000
_cell_angle_beta 143.185751
_cell_angle_gamma 90.000000
_cell_volume 2468.980212
_symmetry_space_group_name_H-M "C 2/M"
_symmetry_group_IT_number 12
_symmetry_cell_setting 'monoclinic'
loop_
_space_group_symop_operation_xyz
x,y,z
-x,y,-z
-x,-y,-z
x,-y,z
1/2+x,1/2+y,z
1/2-x,1/2+y,-z
1/2-x,1/2-y,-z
1/2+x,1/2-y,z
loop_
_atom_site_type_symbol
_atom_site_label
_atom_site_fract_x
_atom_site_fract_y
_atom_site_fract_z
Si Si1 0.500000 0.500000 0.000000
Si Si2 0.151633 0.188607 0.011043
Si Si3 0.600710 0.625413 0.409289
Si Si4 0.178269 0.307884 0.359378
Si Si5 0.333192 0.121442 0.890612
Si Si6 0.837698 0.870434 0.335966
Si Si7 0.061536 0.621853 0.873383
O O1 0.565619 0.596829 0.994502
O O2 0.220881 0.277002 0.100928
O O3 0.277492 0.130791 0.050436
O O4 0.000000 0.375828 0.000000
O O5 0.566318 0.500000 0.372248
O O6 0.740206 0.630607 0.535603
O O7 0.625210 0.697369 0.361859
O O8 0.475845 0.665239 0.380710
O O9 0.288301 0.303069 0.367211
O O10 0.045683 0.367714 0.248728
O O11 0.283464 0.133383 0.789281
O O12 0.553321 0.233254 0.909452
O O13 0.282697 0.000000 0.880839
O O14 0.855583 0.000000 0.365806
O O15 0.038632 0.500000 0.888668
#
# Coordination Sequence:
#
# PCOD9184198 Si02
#       7
#     2   8   8   8   8   8   8
#     4  12  24  44  58  88 124 176 194 250 298 392
#     4  11  23  40  61  85 128 163 203 242 312 367
#     4  10  22  41  62  88 122 161 203 256 314 374
#     4  11  22  38  64  93 122 155 206 263 313 359
#     4  10  19  33  57  89 120 155 201 254 296 355
#     4  10  20  36  62  90 115 155 205 248 302 363
#     4  11  23  41  62  92 119 163 207 258 302 368
#
# _framework density 20.251277000000002
#
# number of rings (size 3 to 8) (size 9 to 14) (size 15 to 20)
#    0.000    1.440    1.600    4.320    0.000    2.560 
#    1.440    0.000    0.000    9.600    0.000    0.000 
#    0.000    0.000    0.000    0.000    0.000    0.000 
#
# Total GULP energy -139241.824718 kJ/mol
# GULP energy per Si atom -5569.672989 kJ/mol
# Density = 2.020518 g / cm^3
# Si number density = 20.251277 Si / 1000 Ang^3
#
#
#
# Elastic Constant Matrix: (Units=GPa)
#
#
# Indices 1 2 3 4 5 6 
#
# 1 104.0162 65.4007 27.3387 0.0000 -3.6695 0.0000
# 2 65.4007 130.4288 27.9274 0.0000 -3.7695 0.0000
# 3 27.3387 27.9274 94.1748 0.0000 -4.8456 0.0000
# 4 0.0000 0.0000 0.0000 14.7325 0.0000 -2.0656
# 5 -3.6695 -3.7695 -4.8456 0.0000 33.2722 0.0000
# 6 0.0000 0.0000 0.0000 -2.0656 0.0000 35.4757
#
#
#
# Elastic Compliance Matrix: (Units=1/GPa)
#
#
# Indices 1 2 3 4 5 6 
#
# 1 0.014458 -0.006772 -0.002163 0.000000 0.000512 0.000000
# 2 -0.006772 0.011370 -0.001388 0.000000 0.000339 0.000000
# 3 -0.002163 -0.001388 0.011726 0.000000 0.001312 0.000000
# 4 0.000000 0.000000 0.000000 0.068436 0.000000 0.003985
# 5 0.000512 0.000339 0.001312 0.000000 0.030341 0.000000
# 6 0.000000 0.000000 0.000000 0.003985 0.000000 0.028420
#
#
# Mechanical properties :
#
#
# Convention : Reuss Voigt Hill
#
# Bulk Modulus (GPa) = 59.14449 63.32817 61.23633
# Shear Modulus (GPa) = 26.17359 30.55962 28.36661
#
# Velocity S-wave (km/s) = 3.59895 3.88883 3.74670
# Velocity P-wave (km/s) = 6.82193 7.17656 7.00149
#
# Compressibility (1/GPa) = 0.01690775
#
# Stress axis : x y z
#
# Youngs Moduli (GPa) = 69.16477 87.95297 85.28365
#
# Poissons Ratio (x) = 0.59561 0.18444
# Poissons Ratio (y) = 0.46838 0.11840
# Poissons Ratio (z) = 0.14958 0.12211
#
# Static dielectric constant tensor:
#      x y z
#    x 1.786430 0.000000 0.005010 
#    y 0.000000 1.693140 0.000000 
#    z 0.005010 0.000000 1.743040 
# 
# From -- ./inp_files/339649.got.cif
#   From: 2010.05.17/outbox.cif.g08.bks.cpg/sg12_170_cif.got.tgz:339649.got - 2010.06.03 13:09:07.
