data_PCOD9184552
_publ_section_title
;
Structure prediction by ZEFSAII (Michael W. Deem and Ramdas Pophale) SiO2 
 PCOD9184552
Probable space group: C 2/M
;
_chemical_formula_sum "Si O2"
_cell_formula_units_Z 48
_cell_length_a 9.459604
_cell_length_b 26.193707
_cell_length_c 12.984333
_cell_angle_alpha 90.000000
_cell_angle_beta 110.481864
_cell_angle_gamma 90.000000
_cell_volume 3013.898101
_symmetry_space_group_name_H-M "C 2/M"
_symmetry_group_IT_number 12
_symmetry_cell_setting 'monoclinic'
loop_
_space_group_symop_operation_xyz
x,y,z
-x,y,-z
-x,-y,-z
x,-y,z
1/2+x,1/2+y,z
1/2-x,1/2+y,-z
1/2-x,1/2-y,-z
1/2+x,1/2-y,z
loop_
_atom_site_type_symbol
_atom_site_label
_atom_site_fract_x
_atom_site_fract_y
_atom_site_fract_z
Si Si1 0.391527 0.126722 0.066232
Si Si2 0.409145 0.790798 0.219439
Si Si3 0.147927 0.939532 0.109607
Si Si4 0.600800 0.278750 0.425534
Si Si5 0.639696 0.351574 0.261769
Si Si6 0.885882 0.801005 0.066829
O O1 0.479105 0.161921 0.172725
O O2 0.299826 0.079522 0.090824
O O3 0.500000 0.113771 0.000000
O O4 0.255819 0.164299 0.997078
O O5 0.517289 0.759266 0.322926
O O6 0.273167 0.817121 0.246535
O O7 0.347718 0.749799 0.120832
O O8 0.152869 0.908411 0.218914
O O9 0.144737 0.000000 0.123387
O O10 0.000000 0.925983 0.000000
O O11 0.500000 0.286568 0.500000
O O12 0.750000 0.250000 0.500000
O O13 0.634420 0.332631 0.377637
O O14 0.485276 0.333203 0.171603
O O15 0.000000 0.790630 0.000000
#
# Coordination Sequence:
#
# PCOD9184552 Si02
#       6
#     8   8   8   8   8   8
#     4  11  21  30  47  79 109 137 171 206 258 305
#     4  10  21  29  49  72 106 142 172 207 249 312
#     4  10  19  37  57  75 103 140 177 214 255 309
#     4  11  22  35  50  74 105 140 173 214 262 304
#     4  10  19  34  52  76 101 135 182 208 257 314
#     4  11  18  30  46  72 108 141 170 199 245 315
#
# _framework density 15.926219
#
# number of rings (size 3 to 8) (size 9 to 14) (size 15 to 20)
#    0.000    1.500    6.667    1.000    4.667    0.333 
#    0.000    0.000    0.000    0.500    0.000    9.333 
#    0.000    0.000    0.000    0.000    0.000    0.000 
#
# Total GULP energy -133647.194160 kJ/mol
# GULP energy per Si atom -5568.633090 kJ/mol
# Density = 1.588997 g / cm^3
# Si number density = 15.926219 Si / 1000 Ang^3
#
#
#
# Elastic Constant Matrix: (Units=GPa)
#
#
# Indices 1 2 3 4 5 6 
#
# 1 69.5291 35.1867 34.4938 0.0000 -18.0758 0.0000
# 2 35.1867 101.3010 40.7110 0.0000 -6.9662 0.0000
# 3 34.4938 40.7110 90.1113 0.0000 -12.0717 0.0000
# 4 0.0000 0.0000 0.0000 19.7694 0.0000 3.0029
# 5 -18.0758 -6.9662 -12.0717 0.0000 33.6633 0.0000
# 6 0.0000 0.0000 0.0000 3.0029 0.0000 10.0505
#
#
#
# Elastic Compliance Matrix: (Units=1/GPa)
#
#
# Indices 1 2 3 4 5 6 
#
# 1 0.021583 -0.004942 -0.004846 0.000000 0.008829 0.000000
# 2 -0.004942 0.013204 -0.004268 0.000000 -0.001452 0.000000
# 3 -0.004846 -0.004268 0.015141 0.000000 0.001944 0.000000
# 4 0.000000 0.000000 0.000000 0.052988 0.000000 -0.015832
# 5 0.008829 -0.001452 0.001944 0.000000 0.034843 0.000000
# 6 0.000000 0.000000 0.000000 -0.015832 0.000000 0.104227
#
#
# Mechanical properties :
#
#
# Convention : Reuss Voigt Hill
#
# Bulk Modulus (GPa) = 45.83966 53.52493 49.68230
# Shear Modulus (GPa) = 18.02643 22.73330 20.37986
#
# Velocity S-wave (km/s) = 3.36798 3.78221 3.58109
# Velocity P-wave (km/s) = 6.63094 7.26323 6.95428
#
# Compressibility (1/GPa) = 0.02181517
#
# Stress axis : x y z
#
# Youngs Moduli (GPa) = 46.33281 75.73731 66.04520
#
# Poissons Ratio (x) = 0.37430 0.32008
# Poissons Ratio (y) = 0.22898 0.28187
# Poissons Ratio (z) = 0.22454 0.32324
#
# Static dielectric constant tensor:
#      x y z
#    x 1.569240 0.000000 -0.027650 
#    y 0.000000 1.544470 0.000000 
#    z -0.027650 0.000000 1.622410 
# 
# From -- ./inp_files/122063.got.cif
#   From: 2010.05.17/outbox.cif.g08.bks.cpg/sg12_62_cif.got.tgz:122063.got - 2010.06.03 13:09:07.
