data_PCOD9184164
_publ_section_title
;
Structure prediction by ZEFSAII (Michael W. Deem and Ramdas Pophale) SiO2 
 PCOD9184164
Probable space group: C 2/M
;
_chemical_formula_sum "Si O2"
_cell_formula_units_Z 48
_cell_length_a 20.803003
_cell_length_b 8.745992
_cell_length_c 25.238914
_cell_angle_alpha 90.000000
_cell_angle_beta 34.737641
_cell_angle_gamma 90.000000
_cell_volume 2616.634665
_symmetry_space_group_name_H-M "C 2/M"
_symmetry_group_IT_number 12
_symmetry_cell_setting 'monoclinic'
loop_
_space_group_symop_operation_xyz
x,y,z
-x,y,-z
-x,-y,-z
x,-y,z
1/2+x,1/2+y,z
1/2-x,1/2+y,-z
1/2-x,1/2-y,-z
1/2+x,1/2-y,z
loop_
_atom_site_type_symbol
_atom_site_label
_atom_site_fract_x
_atom_site_fract_y
_atom_site_fract_z
Si Si1 0.568828 0.681819 0.606770
Si Si2 0.384601 0.315636 0.107307
Si Si3 0.863677 0.182231 0.898345
Si Si4 0.409619 0.817022 0.206022
Si Si5 0.652138 0.182377 0.207523
Si Si6 0.714270 0.183451 0.603876
O O1 0.550484 0.500000 0.620089
O O2 0.450171 0.767594 0.685263
O O3 0.632486 0.732884 0.617599
O O4 0.657854 0.719054 0.499942
O O5 0.387774 0.500000 0.109398
O O6 0.378219 0.246407 0.170030
O O7 0.273826 0.274987 0.148609
O O8 0.500000 0.266471 0.000000
O O9 0.868584 0.235157 0.834199
O O10 0.971128 0.247863 0.856528
O O11 0.863121 0.000000 0.902454
O O12 0.750000 0.250000 0.000000
O O13 0.320907 0.777395 0.312702
O O14 0.418732 0.000000 0.197747
O O15 0.649288 0.000000 0.201188
O O16 0.698542 0.000000 0.607463
#
# Coordination Sequence:
#
# PCOD9184164 Si02
#       6
#     8   8   8   8   8   8
#     4  10  19  33  57  87 117 155 195 238 293 354
#     4  10  23  42  61  81 113 158 201 243 296 355
#     4  12  24  38  59  87 117 150 193 244 295 350
#     4  11  22  38  61  88 118 152 193 244 296 349
#     4  11  22  38  59  86 119 154 195 247 299 348
#     4   9  19  35  56  85 120 153 192 240 294 349
#
# _framework density 18.344173000000001
#
# number of rings (size 3 to 8) (size 9 to 14) (size 15 to 20)
#    0.000    1.500    1.667    4.000    0.000    4.333 
#    0.000    0.833    0.000    5.000    0.000    0.000 
#    0.000    0.000    0.000    0.000    0.000    0.000 
#
# Total GULP energy -134116.837919 kJ/mol
# GULP energy per Si atom -5588.201580 kJ/mol
# Density = 1.830242 g / cm^3
# Si number density = 18.344173 Si / 1000 Ang^3
#
#
#
# Elastic Constant Matrix: (Units=GPa)
#
#
# Indices 1 2 3 4 5 6 
#
# 1 29.2868 4.8299 -9.6718 0.0001 -3.7422 -0.0001
# 2 4.8299 25.5664 8.8944 0.0001 -3.1331 -0.0002
# 3 -9.6718 8.8944 88.7074 0.0001 -4.3509 -0.0002
# 4 0.0001 0.0001 0.0001 31.5679 0.0000 0.4873
# 5 -3.7422 -3.1331 -4.3509 0.0000 32.8779 -0.0001
# 6 -0.0001 -0.0002 -0.0002 0.4873 -0.0001 29.8608
#
#
#
# Elastic Compliance Matrix: (Units=1/GPa)
#
#
# Indices 1 2 3 4 5 6 
#
# 1 0.037775 -0.008422 0.005168 0.000000 0.004181 0.000000
# 2 -0.008422 0.042774 -0.005087 0.000000 0.002444 0.000000
# 3 0.005168 -0.005087 0.012432 0.000000 0.001749 0.000000
# 4 0.000000 0.000000 0.000000 0.031686 0.000000 -0.000517
# 5 0.004181 0.002444 0.001749 0.000000 0.031356 0.000000
# 6 0.000000 0.000000 0.000000 -0.000517 0.000000 0.033497
#
#
# Mechanical properties :
#
#
# Convention : Reuss Voigt Hill
#
# Bulk Modulus (GPa) = 13.10623 16.85175 14.97899
# Shear Modulus (GPa) = 21.58567 28.16187 24.87377
#
# Velocity S-wave (km/s) = 3.43403 3.92241 3.68632
# Velocity P-wave (km/s) = 4.78368 5.45161 5.12853
#
# Compressibility (1/GPa) = 0.07629957
#
# Stress axis : x y z
#
# Youngs Moduli (GPa) = 26.47258 23.37861 80.43536
#
# Poissons Ratio (x) = 0.19689 -0.41570
# Poissons Ratio (y) = 0.22295 0.40919
# Poissons Ratio (z) = -0.13681 0.11893
#
# Static dielectric constant tensor:
#      x y z
#    x 1.590600 0.000000 0.012120 
#    y 0.000000 1.615370 0.000000 
#    z 0.012120 0.000000 1.659510 
# 
# From -- ./inp_files/365369.got.cif
#   From: 2010.05.17/outbox.cif.g08.bks.cpg/sg12_183_cif.got.tgz:365369.got - 2010.06.03 13:09:07.
