data_PCOD9184833
_publ_section_title
;
Structure prediction by ZEFSAII (Michael W. Deem and Ramdas Pophale) SiO2 
 PCOD9184833
Probable space group: C 2/M
;
_chemical_formula_sum "Si O2"
_cell_formula_units_Z 56
_cell_length_a 20.334333
_cell_length_b 7.704360
_cell_length_c 23.861603
_cell_angle_alpha 90.000000
_cell_angle_beta 44.979747
_cell_angle_gamma 90.000000
_cell_volume 2642.393837
_symmetry_space_group_name_H-M "C 2/M"
_symmetry_group_IT_number 12
_symmetry_cell_setting 'monoclinic'
loop_
_space_group_symop_operation_xyz
x,y,z
-x,y,-z
-x,-y,-z
x,-y,z
1/2+x,1/2+y,z
1/2-x,1/2+y,-z
1/2-x,1/2-y,-z
1/2+x,1/2-y,z
loop_
_atom_site_type_symbol
_atom_site_label
_atom_site_fract_x
_atom_site_fract_y
_atom_site_fract_z
Si Si1 0.264705 0.212790 0.853987
Si Si2 0.193866 0.203073 0.415767
Si Si3 0.448917 0.795107 0.809545
Si Si4 0.684168 0.210399 0.298690
Si Si5 0.124354 0.286879 0.635662
Si Si6 0.843931 0.205987 0.977873
Si Si7 0.026561 0.297803 0.582289
O O1 0.361305 0.271860 0.825516
O O2 0.265776 0.266132 0.788750
O O3 0.179814 0.269957 0.945222
O O4 0.265308 0.000000 0.854603
O O5 0.224290 0.228694 0.333442
O O6 0.273732 0.275313 0.408388
O O7 0.093551 0.284596 0.488593
O O8 0.182471 0.000000 0.433206
O O9 0.547007 0.730160 0.727631
O O10 0.449487 0.000000 0.798462
O O11 0.426435 0.770614 0.888521
O O12 0.576805 0.274937 0.361028
O O13 0.684573 0.000000 0.299592
O O14 0.129376 0.500000 0.632729
O O15 0.085461 0.227088 0.599264
O O16 0.853549 0.000000 0.974721
O O17 0.750000 0.250000 0.000000
O O18 0.011753 0.500000 0.604221
#
# Coordination Sequence:
#
# PCOD9184833 Si02
#       7
#     8   8   8   8   8   8   8
#     4   8  14  27  49  72  94 123 162 203 238 279
#     4  11  23  35  48  73 107 134 158 202 263 307
#     4   9  15  29  51  73  96 125 164 206 246 287
#     4  10  19  34  55  74  94 129 175 209 236 288
#     4   9  18  34  55  74  97 133 171 204 245 301
#     4   9  16  26  44  73 104 129 157 199 249 293
#     4  10  19  35  58  75  90 126 179 215 239 288
#
# _framework density 21.192903999999999
#
# number of rings (size 3 to 8) (size 9 to 14) (size 15 to 20)
#    0.000    2.571    1.429    2.571    0.000    2.286 
#    0.000    6.429    0.000    0.857    0.000    6.000 
#    0.000    0.000    0.000    0.000    0.000    0.000 
#
# Total GULP energy -156153.571133 kJ/mol
# GULP energy per Si atom -5576.913255 kJ/mol
# Density = 2.114467 g / cm^3
# Si number density = 21.192904 Si / 1000 Ang^3
#
#
#
# Elastic Constant Matrix: (Units=GPa)
#
#
# Indices 1 2 3 4 5 6 
#
# 1 42.9927 -0.0304 -5.7312 0.0001 13.1642 -0.0001
# 2 -0.0304 31.0828 -10.9413 0.0003 -4.6629 0.0003
# 3 -5.7312 -10.9413 94.0357 -0.0001 14.7016 -0.0002
# 4 0.0001 0.0003 -0.0001 20.4390 -0.0001 5.2160
# 5 13.1642 -4.6629 14.7016 -0.0001 22.7465 0.0001
# 6 -0.0001 0.0003 -0.0002 5.2160 0.0001 10.3420
#
#
#
# Elastic Compliance Matrix: (Units=1/GPa)
#
#
# Indices 1 2 3 4 5 6 
#
# 1 0.030381 -0.001378 0.004988 0.000000 -0.021089 0.000001
# 2 -0.001378 0.034095 0.002965 0.000000 0.005870 -0.000001
# 3 0.004988 0.002965 0.012948 0.000000 -0.010648 0.000000
# 4 0.000000 0.000000 0.000000 0.056154 0.000001 -0.028321
# 5 -0.021089 0.005870 -0.010648 0.000001 0.064253 -0.000001
# 6 0.000001 -0.000001 0.000000 -0.028321 -0.000001 0.110977
#
#
# Mechanical properties :
#
#
# Convention : Reuss Voigt Hill
#
# Bulk Modulus (GPa) = 11.04050 14.96729 13.00390
# Shear Modulus (GPa) = 15.34450 23.02643 19.18547
#
# Velocity S-wave (km/s) = 2.69372 3.29981 3.01205
# Velocity P-wave (km/s) = 3.85949 4.64716 4.27152
#
# Compressibility (1/GPa) = 0.09057559
#
# Stress axis : x y z
#
# Youngs Moduli (GPa) = 32.91498 29.32966 77.23215
#
# Poissons Ratio (x) = 0.04042 -0.38527
# Poissons Ratio (y) = 0.04536 -0.22901
# Poissons Ratio (z) = -0.16419 -0.08697
#
# Static dielectric constant tensor:
#      x y z
#    x 1.745560 0.000000 0.020290 
#    y 0.000000 1.815580 0.000000 
#    z 0.020290 0.000000 1.793920 
# 
# From -- ./inp_files/348477.got.cif
#   From: 2010.05.17/outbox.cif.g08.bks.cpg/sg12_175_cif.got.tgz:348477.got - 2010.06.03 13:09:07.
