data_PCOD9184824
_publ_section_title
;
Structure prediction by ZEFSAII (Michael W. Deem and Ramdas Pophale) SiO2 
 PCOD9184824
Probable space group: C 2/M
;
_chemical_formula_sum "Si O2"
_cell_formula_units_Z 58
_cell_length_a 21.619564
_cell_length_b 13.163825
_cell_length_c 8.943746
_cell_angle_alpha 90.000000
_cell_angle_beta 109.118606
_cell_angle_gamma 90.000000
_cell_volume 2404.960544
_symmetry_space_group_name_H-M "C 2/M"
_symmetry_group_IT_number 12
_symmetry_cell_setting 'monoclinic'
loop_
_space_group_symop_operation_xyz
x,y,z
-x,y,-z
-x,-y,-z
x,-y,z
1/2+x,1/2+y,z
1/2-x,1/2+y,-z
1/2-x,1/2-y,-z
1/2+x,1/2-y,z
loop_
_atom_site_type_symbol
_atom_site_label
_atom_site_fract_x
_atom_site_fract_y
_atom_site_fract_z
Si Si1 0.883396 0.227785 0.390141
Si Si2 0.919999 0.614741 0.995785
Si Si3 0.193742 0.615110 0.874659
Si Si4 0.720017 0.620752 0.484697
Si Si5 0.043067 0.184980 0.842852
Si Si6 0.330263 0.380285 0.881417
Si Si7 0.000000 0.000000 0.000000
Si Si8 0.623977 0.118934 0.377457
O O1 0.841099 0.307363 0.261131
O O2 0.830475 0.155319 0.427625
O O3 0.934568 0.179676 0.313024
O O4 0.911615 0.299551 0.543714
O O5 0.943712 0.500000 0.047386
O O6 0.904902 0.627173 0.810253
O O7 0.847105 0.618636 0.008171
O O8 0.965504 0.697039 0.115802
O O9 0.190031 0.500000 0.808927
O O10 0.269995 0.636507 0.945361
O O11 0.719025 0.500000 0.482988
O O12 0.692647 0.653287 0.300000
O O13 0.797501 0.645862 0.559560
O O14 0.107296 0.167035 0.996035
O O15 0.997963 0.092740 0.866926
O O16 0.346362 0.500000 0.884725
O O17 0.617970 0.000000 0.419413
#
# Coordination Sequence:
#
# PCOD9184824 Si02
#       8
#     8   8   8   8   8   8   2   8
#     4  11  21  32  55  86 120 165 206 249 300 374
#     4   9  20  36  60  95 128 164 197 243 317 386
#     4   9  18  31  50  83 129 162 209 239 287 378
#     4  10  21  31  48  80 133 171 207 236 285 370
#     4  11  25  41  68  83 114 160 217 283 323 363
#     4  10  19  35  54  81 115 174 208 244 306 364
#     4  12  28  56  66  90 112 156 232 296 340 338
#     4  10  19  34  54  88 137 177 185 230 294 380
#
# _framework density 24.116820000000001
#
# number of rings (size 3 to 8) (size 9 to 14) (size 15 to 20)
#    0.000    1.931    2.069    1.655    4.828    1.655 
#    0.000    0.345    0.000    6.621    0.000    1.931 
#    0.000    0.000    0.000    0.000    0.000    0.000 
#
# Total GULP energy -161832.864654 kJ/mol
# GULP energy per Si atom -5580.443609 kJ/mol
# Density = 2.406193 g / cm^3
# Si number density = 24.116820 Si / 1000 Ang^3
#
#
#
# Elastic Constant Matrix: (Units=GPa)
#
#
# Indices 1 2 3 4 5 6 
#
# 1 77.3840 14.3815 54.8998 0.0000 -25.0869 0.0000
# 2 14.3815 120.4164 57.3974 0.0000 -15.7968 0.0000
# 3 54.8998 57.3974 94.3629 0.0000 -33.0082 0.0000
# 4 0.0000 0.0000 0.0000 34.2696 0.0000 -15.6738
# 5 -25.0869 -15.7968 -33.0082 0.0000 43.3754 0.0000
# 6 0.0000 0.0000 0.0000 -15.6738 0.0000 7.0083
#
#
#
# Elastic Compliance Matrix: (Units=1/GPa)
#
#
# Indices 1 2 3 4 5 6 
#
# 1 0.024724 0.005304 -0.016262 0.000000 0.003856 0.000000
# 2 0.005304 0.012913 -0.011205 0.000000 -0.000756 0.000000
# 3 -0.016262 -0.011205 0.030194 0.000000 0.009491 0.000000
# 4 0.000000 0.000000 0.000000 -1.274877 0.000000 -2.851221
# 5 0.003856 -0.000756 0.009491 0.000000 0.032232 0.000000
# 6 0.000000 0.000000 0.000000 -2.851221 0.000000 -6.233978
#
#
# Mechanical properties :
#
#
# Convention : Reuss Voigt Hill
#
# Bulk Modulus (GPa) = 42.54248 60.61343 51.57796
# Shear Modulus (GPa) = -0.67966 27.96294 13.64164
#
# Velocity S-wave (km/s) = -0.53144 3.40881 2.38092
# Velocity P-wave (km/s) = 4.15955 6.37817 5.38438
#
# Compressibility (1/GPa) = 0.02350592
#
# Stress axis : x y z
#
# Youngs Moduli (GPa) = 40.44703 77.44312 33.11928
#
# Poissons Ratio (x) = -0.41078 0.53857
# Poissons Ratio (y) = -0.21454 0.37110
# Poissons Ratio (z) = 0.65773 0.86774
#
# Static dielectric constant tensor:
#      x y z
#    x 2.157000 0.000000 -0.017180 
#    y 0.000000 7.590260 0.000000 
#    z -0.017180 0.000000 1.916180 
# 
# From -- ./inp_files/96373.got.cif
#   From: 2010.05.17/outbox.cif.g08.bks.cpg/sg12_49_cif.got.tgz:96373.got - 2010.06.03 13:09:07.
