data_PCOD9184844
_publ_section_title
;
Structure prediction by ZEFSAII (Michael W. Deem and Ramdas Pophale) SiO2 
 PCOD9184844
Probable space group: C 2/M
;
_chemical_formula_sum "Si O2"
_cell_formula_units_Z 64
_cell_length_a 14.803942
_cell_length_b 7.582038
_cell_length_c 26.924880
_cell_angle_alpha 90.000000
_cell_angle_beta 108.986022
_cell_angle_gamma 90.000000
_cell_volume 2857.746101
_symmetry_space_group_name_H-M "C 2/M"
_symmetry_group_IT_number 12
_symmetry_cell_setting 'monoclinic'
loop_
_space_group_symop_operation_xyz
x,y,z
-x,y,-z
-x,-y,-z
x,-y,z
1/2+x,1/2+y,z
1/2-x,1/2+y,-z
1/2-x,1/2-y,-z
1/2+x,1/2-y,z
loop_
_atom_site_type_symbol
_atom_site_label
_atom_site_fract_x
_atom_site_fract_y
_atom_site_fract_z
Si Si1 0.558911 0.798923 0.965516
Si Si2 0.550114 0.288323 0.583125
Si Si3 0.356743 0.712003 0.768407
Si Si4 0.356399 0.288661 0.501390
Si Si5 0.424590 0.206128 0.207295
Si Si6 0.343064 0.788467 0.296583
Si Si7 0.692539 0.216171 0.909359
Si Si8 0.874332 0.211954 0.883622
O O1 0.649520 0.718268 0.953779
O O2 0.476433 0.800096 0.908816
O O3 0.581376 0.000000 0.984342
O O4 0.500000 0.711431 0.000000
O O5 0.547763 0.500000 0.579670
O O6 0.442039 0.225084 0.552792
O O7 0.616159 0.224488 0.549084
O O8 0.593943 0.246669 0.644073
O O9 0.363719 0.500000 0.765839
O O10 0.461387 0.781036 0.774923
O O11 0.266812 0.774636 0.720148
O O12 0.334404 0.753934 0.822090
O O13 0.363321 0.500000 0.501295
O O14 0.250000 0.250000 0.500000
O O15 0.388485 0.280491 0.253335
O O16 0.373717 0.278052 0.148608
O O17 0.397374 0.000000 0.202088
O O18 0.338010 0.000000 0.291293
O O19 0.799787 0.264634 0.913094
O O20 0.688875 0.000000 0.911072
O O21 0.886164 0.000000 0.887874
#
# Coordination Sequence:
#
# PCOD9184844 Si02
#       8
#     8   8   8   8   8   8   8   8
#     4  10  21  36  54  78 106 135 172 220 269 317
#     4   9  20  38  56  79 113 147 178 221 273 316
#     4  10  20  34  52  77 105 135 175 220 262 309
#     4   9  19  37  60  82 108 145 186 224 267 319
#     4  10  19  34  55  76 101 141 182 211 256 321
#     4  10  21  36  54  79 111 143 180 220 262 319
#     4   9  17  33  55  74 100 138 171 207 262 318
#     4  10  19  34  56  76  99 136 176 213 260 317
#
# _framework density 22.395273
#
# number of rings (size 3 to 8) (size 9 to 14) (size 15 to 20)
#    0.000    2.375    2.500    0.750    0.000    3.750 
#    0.000    7.500    0.000    0.000    0.000    0.000 
#    0.000    0.000    0.000    0.000    0.000    0.000 
#
# Total GULP energy -178652.112639 kJ/mol
# GULP energy per Si atom -5582.878520 kJ/mol
# Density = 2.234430 g / cm^3
# Si number density = 22.395273 Si / 1000 Ang^3
#
#
#
# Elastic Constant Matrix: (Units=GPa)
#
#
# Indices 1 2 3 4 5 6 
#
# 1 133.1482 1.1482 26.5587 0.0000 2.3420 0.0000
# 2 1.1482 50.9957 6.4878 0.0000 0.1647 0.0000
# 3 26.5587 6.4878 84.5264 0.0000 6.7919 0.0000
# 4 0.0000 0.0000 0.0000 17.2490 0.0000 6.6414
# 5 2.3420 0.1647 6.7919 0.0000 23.3521 0.0000
# 6 0.0000 0.0000 0.0000 6.6414 0.0000 17.5568
#
#
#
# Elastic Compliance Matrix: (Units=1/GPa)
#
#
# Indices 1 2 3 4 5 6 
#
# 1 0.008014 0.000141 -0.002523 0.000000 -0.000071 0.000000
# 2 0.000141 0.019808 -0.001589 0.000000 0.000308 0.000000
# 3 -0.002523 -0.001589 0.013029 0.000000 -0.003525 0.000000
# 4 0.000000 0.000000 0.000000 0.067858 0.000000 -0.025669
# 5 -0.000071 0.000308 -0.003525 0.000000 0.043853 0.000000
# 6 0.000000 0.000000 0.000000 -0.025669 0.000000 0.066668
#
#
# Mechanical properties :
#
#
# Convention : Reuss Voigt Hill
#
# Bulk Modulus (GPa) = 30.38900 37.45107 33.92003
# Shear Modulus (GPa) = 20.99593 27.26327 24.12960
#
# Velocity S-wave (km/s) = 3.06521 3.49286 3.28600
# Velocity P-wave (km/s) = 5.11138 5.74681 5.43838
#
# Compressibility (1/GPa) = 0.03290664
#
# Stress axis : x y z
#
# Youngs Moduli (GPa) = 124.78581 50.48580 76.75412
#
# Poissons Ratio (x) = -0.00711 0.19366
# Poissons Ratio (y) = -0.01757 0.12199
# Poissons Ratio (z) = 0.31484 0.08024
#
# Static dielectric constant tensor:
#      x y z
#    x 1.822200 0.000000 -0.006930 
#    y 0.000000 1.845980 0.000000 
#    z -0.006930 0.000000 1.840810 
# 
# From -- ./inp_files/338793.got.cif
#   From: 2010.05.17/outbox.cif.g08.bks.cpg/sg12_170_cif.got.tgz:338793.got - 2010.06.03 13:09:07.
