data_PCOD9184376
_publ_section_title
;
Structure prediction by ZEFSAII (Michael W. Deem and Ramdas Pophale) SiO2 
 PCOD9184376
Probable space group: C 2/M
;
_chemical_formula_sum "Si O2"
_cell_formula_units_Z 44
_cell_length_a 12.991086
_cell_length_b 19.430660
_cell_length_c 22.561782
_cell_angle_alpha 90.000000
_cell_angle_beta 159.210644
_cell_angle_gamma 90.000000
_cell_volume 2021.404112
_symmetry_space_group_name_H-M "C 2/M"
_symmetry_group_IT_number 12
_symmetry_cell_setting 'monoclinic'
loop_
_space_group_symop_operation_xyz
x,y,z
-x,y,-z
-x,-y,-z
x,-y,z
1/2+x,1/2+y,z
1/2-x,1/2+y,-z
1/2-x,1/2-y,-z
1/2+x,1/2-y,z
loop_
_atom_site_type_symbol
_atom_site_label
_atom_site_fract_x
_atom_site_fract_y
_atom_site_fract_z
Si Si1 0.783526 0.500000 0.804763
Si Si2 0.000000 0.621349 0.000000
Si Si3 0.380319 0.500000 0.056759
Si Si4 0.849990 0.352940 0.196972
Si Si5 0.411348 0.000000 0.218546
Si Si6 0.682108 0.878053 0.684054
Si Si7 0.149699 0.500000 0.473517
Si Si8 0.597153 0.724095 0.856654
O O1 0.811795 0.431654 0.859840
O O2 0.456440 0.500000 0.606622
O O3 0.053128 0.500000 0.905657
O O4 0.189436 0.670238 0.060381
O O5 0.347402 0.500000 0.968524
O O6 0.543294 0.431168 0.165816
O O7 0.016719 0.421701 0.264965
O O8 0.886630 0.348571 0.287387
O O9 0.940144 0.287979 0.207410
O O10 0.500000 0.361086 0.000000
O O11 0.421287 0.000000 0.295856
O O12 0.796239 0.814929 0.707478
O O13 0.419553 0.930473 0.527693
O O14 0.750000 0.750000 0.000000
#
# Coordination Sequence:
#
# PCOD9184376 Si02
#       8
#     4   4   4   8   4   8   4   8
#     4  11  24  42  61  90 122 172 195 265 308 359
#     4  11  24  40  62  91 126 152 218 257 298 358
#     4  11  17  32  65  87 121 156 211 249 302 347
#     4  11  18  30  55  94 125 146 197 255 304 341
#     4  10  19  33  59  92 122 156 201 256 293 371
#     4  10  20  35  59  95 118 160 202 259 294 370
#     4   9  23  39  63  86 129 159 207 253 323 351
#     4  12  20  34  60  94 122 159 205 253 303 360
#
# _framework density 21.767047999999999
#
# number of rings (size 3 to 8) (size 9 to 14) (size 15 to 20)
#    0.000    1.273    6.364    0.818    0.000    0.364 
#    0.000    1.818    0.000   14.182    0.000    0.000 
#    0.000    0.000    0.000    0.000    0.000    0.000 
#
# Total GULP energy -122621.537775 kJ/mol
# GULP energy per Si atom -5573.706263 kJ/mol
# Density = 2.171750 g / cm^3
# Si number density = 21.767048 Si / 1000 Ang^3
#
#
#
# Elastic Constant Matrix: (Units=GPa)
#
#
# Indices 1 2 3 4 5 6 
#
# 1 99.4912 77.7721 27.1814 0.0115 14.8770 0.0103
# 2 77.7721 199.2303 13.3344 0.0162 12.3174 0.0062
# 3 27.1814 13.3344 54.0707 0.0466 20.8300 -0.0328
# 4 0.0115 0.0162 0.0466 -19.7679 -0.0167 8.7303
# 5 14.8770 12.3174 20.8300 -0.0167 21.3892 -0.0117
# 6 0.0103 0.0062 -0.0328 8.7303 -0.0117 47.0510
#
#
#
# Elastic Compliance Matrix: (Units=1/GPa)
#
#
# Indices 1 2 3 4 5 6 
#
# 1 0.016722 -0.005981 -0.006045 -0.000010 -0.002299 -0.000006
# 2 -0.005981 0.007345 0.001956 0.000009 -0.001975 0.000000
# 3 -0.006045 0.001956 0.031792 0.000096 -0.027882 -0.000002
# 4 -0.000010 0.000009 0.000096 -0.046755 -0.000123 0.008675
# 5 -0.002299 -0.001975 -0.027882 -0.000123 0.076642 0.000023
# 6 -0.000006 0.000000 -0.000002 0.008675 0.000023 0.019644
#
#
# Mechanical properties :
#
#
# Convention : Reuss Voigt Hill
#
# Bulk Modulus (GPa) = 27.99670 65.48533 46.74101
# Shear Modulus (GPa) = 36.38045 25.36808 30.87426
#
# Velocity S-wave (km/s) = 4.09266 3.41755 3.77024
# Velocity P-wave (km/s) = 5.93490 6.76186 6.36183
#
# Compressibility (1/GPa) = 0.03571850
#
# Stress axis : x y z
#
# Youngs Moduli (GPa) = 59.80236 136.14383 31.45428
#
# Poissons Ratio (x) = 0.81425 0.19015
# Poissons Ratio (y) = 0.35767 -0.06152
# Poissons Ratio (z) = 0.36153 -0.26628
#
# Static dielectric constant tensor:
#      x y z
#    x 1.817820 0.000000 0.009690 
#    y 0.000000 1.816110 0.000000 
#    z 0.009690 0.000000 1.872120 
# 
# From -- ./inp_files/361850.got.cif
#   From: 2010.05.17/outbox.cif.g08.bks.cpg/sg12_181_cif.got.tgz:361850.got - 2010.06.03 13:09:07.
