data_PCOD9184756
_publ_section_title
;
Structure prediction by ZEFSAII (Michael W. Deem and Ramdas Pophale) SiO2 
 PCOD9184756
Probable space group: C 2/M
;
_chemical_formula_sum "Si O2"
_cell_formula_units_Z 64
_cell_length_a 20.770789
_cell_length_b 8.708855
_cell_length_c 24.121070
_cell_angle_alpha 90.000000
_cell_angle_beta 122.925818
_cell_angle_gamma 90.000000
_cell_volume 3662.407486
_symmetry_space_group_name_H-M "C 2/M"
_symmetry_group_IT_number 12
_symmetry_cell_setting 'monoclinic'
loop_
_space_group_symop_operation_xyz
x,y,z
-x,y,-z
-x,-y,-z
x,-y,z
1/2+x,1/2+y,z
1/2-x,1/2+y,-z
1/2-x,1/2-y,-z
1/2+x,1/2-y,z
loop_
_atom_site_type_symbol
_atom_site_label
_atom_site_fract_x
_atom_site_fract_y
_atom_site_fract_z
Si Si1 0.187580 0.184896 0.680927
Si Si2 0.086996 0.812657 0.036260
Si Si3 0.722417 0.685621 0.572093
Si Si4 0.128420 0.316190 0.426193
Si Si5 0.037734 0.184260 0.679121
Si Si6 0.624742 0.816858 0.822638
Si Si7 0.777086 0.184027 0.823564
Si Si8 0.335568 0.684215 0.042936
O O1 0.204013 0.236358 0.625979
O O2 0.104839 0.233633 0.667200
O O3 0.251491 0.242613 0.753905
O O4 0.188285 0.000000 0.681346
O O5 0.143717 0.761987 0.111970
O O6 0.086984 0.000000 0.038104
O O7 0.121718 0.768800 0.993288
O O8 0.000000 0.759312 0.000000
O O9 0.716086 0.500000 0.566781
O O10 0.807921 0.726183 0.590690
O O11 0.663582 0.756157 0.500362
O O12 0.122762 0.500000 0.424806
O O13 0.045440 0.246016 0.375857
O O14 0.064180 0.247202 0.751230
O O15 0.036746 0.000000 0.679770
O O16 0.708536 0.783441 0.835156
O O17 0.623361 0.745861 0.882853
O O18 0.616031 0.000000 0.821262
O O19 0.780043 0.000000 0.818042
O O20 0.332130 0.500000 0.043185
O O21 0.250000 0.750000 0.000000
#
# Coordination Sequence:
#
# PCOD9184756 Si02
#       8
#     8   8   8   8   8   8   8   8
#     4   9  19  35  55  78 103 136 175 217 262 308
#     4   9  18  34  53  74 105 138 173 217 265 312
#     4   9  19  37  57  76 105 143 179 213 257 311
#     4  10  20  35  56  80 108 141 174 215 260 305
#     4  10  20  35  55  80 108 139 174 215 264 313
#     4  10  19  34  54  79 107 136 175 220 265 310
#     4   9  17  32  53  76 102 137 173 212 262 312
#     4  11  20  33  55  80 104 137 179 219 262 313
#
# _framework density 17.474843
#
# number of rings (size 3 to 8) (size 9 to 14) (size 15 to 20)
#    0.000    2.375    1.250    1.500    0.000    2.500 
#    2.250    2.500    0.000    2.625    0.000    0.000 
#    0.000    0.000    0.000    0.000    0.000    0.000 
#
# Total GULP energy -178522.080685 kJ/mol
# GULP energy per Si atom -5578.815021 kJ/mol
# Density = 1.743507 g / cm^3
# Si number density = 17.474843 Si / 1000 Ang^3
#
#
#
# Elastic Constant Matrix: (Units=GPa)
#
#
# Indices 1 2 3 4 5 6 
#
# 1 125.7575 34.7673 114.1891 0.0000 2.5736 0.0000
# 2 34.7673 26.9195 41.1988 0.0000 0.5001 0.0000
# 3 114.1891 41.1988 175.9664 0.0000 3.7445 0.0000
# 4 0.0000 0.0000 0.0000 34.8885 0.0000 0.6266
# 5 2.5736 0.5001 3.7445 0.0000 33.0240 0.0000
# 6 0.0000 0.0000 0.0000 0.6266 0.0000 19.2943
#
#
#
# Elastic Compliance Matrix: (Units=1/GPa)
#
#
# Indices 1 2 3 4 5 6 
#
# 1 0.020869 -0.009708 -0.011265 0.000000 -0.000202 0.000000
# 2 -0.009708 0.062423 -0.008331 0.000000 0.000756 0.000000
# 3 -0.011265 -0.008331 0.014958 0.000000 -0.000692 0.000000
# 4 0.000000 0.000000 0.000000 0.028679 0.000000 -0.000931
# 5 -0.000202 0.000756 -0.000692 0.000000 0.030364 0.000000
# 6 0.000000 0.000000 0.000000 -0.000931 0.000000 0.051859
#
#
# Mechanical properties :
#
#
# Convention : Reuss Voigt Hill
#
# Bulk Modulus (GPa) = 25.22649 78.77265 51.99957
# Shear Modulus (GPa) = 17.79528 26.67392 22.23460
#
# Velocity S-wave (km/s) = 3.19460 3.91118 3.57091
# Velocity P-wave (km/s) = 5.29854 8.09766 6.84275
#
# Compressibility (1/GPa) = 0.03964087
#
# Stress axis : x y z
#
# Youngs Moduli (GPa) = 47.91909 16.01986 66.85315
#
# Poissons Ratio (x) = 0.15553 0.75309
# Poissons Ratio (y) = 0.46522 0.55695
# Poissons Ratio (z) = 0.53980 0.13346
#
# Static dielectric constant tensor:
#      x y z
#    x 1.590390 0.000000 -0.003040 
#    y 0.000000 1.589870 0.000000 
#    z -0.003040 0.000000 1.569690 
# 
# From -- ./inp_files/346199.got.cif
#   From: 2010.05.17/outbox.cif.g08.bks.cpg/sg12_174_cif.got.tgz:346199.got - 2010.06.03 13:09:07.
