data_PCOD9184983
_publ_section_title
;
Structure prediction by ZEFSAII (Michael W. Deem and Ramdas Pophale) SiO2 
 PCOD9184983
Probable space group: C 2/M
;
_chemical_formula_sum "Si O2"
_cell_formula_units_Z 64
_cell_length_a 19.990031
_cell_length_b 14.451473
_cell_length_c 11.801142
_cell_angle_alpha 90.000000
_cell_angle_beta 68.560264
_cell_angle_gamma 90.000000
_cell_volume 3173.271125
_symmetry_space_group_name_H-M "C 2/M"
_symmetry_group_IT_number 12
_symmetry_cell_setting 'monoclinic'
loop_
_space_group_symop_operation_xyz
x,y,z
-x,y,-z
-x,-y,-z
x,-y,z
1/2+x,1/2+y,z
1/2-x,1/2+y,-z
1/2-x,1/2-y,-z
1/2+x,1/2-y,z
loop_
_atom_site_type_symbol
_atom_site_label
_atom_site_fract_x
_atom_site_fract_y
_atom_site_fract_z
Si Si1 0.272647 0.389432 0.743857
Si Si2 0.937445 0.097543 0.210895
Si Si3 0.594629 0.399627 0.037181
Si Si4 0.066425 0.256101 0.618546
Si Si5 0.401808 0.748067 0.664329
Si Si6 0.720007 0.889944 0.286345
Si Si7 0.197791 0.246374 0.927147
Si Si8 0.196495 0.609574 0.559004
O O1 0.279054 0.500000 0.752716
O O2 0.345890 0.334532 0.731511
O O3 0.208229 0.343839 0.858040
O O4 0.249714 0.365670 0.628828
O O5 0.922757 0.099086 0.086347
O O6 0.911252 0.180050 0.303405
O O7 0.908831 0.000000 0.273981
O O8 0.023909 0.097407 0.157257
O O9 0.633231 0.500000 0.035344
O O10 0.627523 0.297653 0.025822
O O11 0.082976 0.229630 0.478398
O O12 0.118518 0.342173 0.612632
O O13 0.979326 0.263026 0.674390
O O14 0.355959 0.842967 0.699576
O O15 0.776491 0.832607 0.177318
O O16 0.729029 0.871061 0.414657
O O17 0.723071 0.000000 0.265004
O O18 0.250000 0.250000 0.000000
O O19 0.185440 0.500000 0.573047
#
# Coordination Sequence:
#
# PCOD9184983 Si02
#       8
#     8   8   8   8   8   8   8   8
#     4  10  22  39  57  82 117 150 183 227 281 339
#     4   9  19  33  54  78 103 140 180 222 271 315
#     4   9  19  36  54  77 103 134 183 232 268 310
#     4  10  19  34  55  80 114 145 180 223 270 333
#     4   9  21  34  51  84 114 146 178 216 279 337
#     4   9  19  36  56  81 108 139 185 234 275 324
#     4  11  23  35  54  80 109 149 186 220 275 328
#     4   9  19  37  62  86 109 144 186 232 283 329
#
# _framework density 20.168461000000001
#
# number of rings (size 3 to 8) (size 9 to 14) (size 15 to 20)
#    0.000    2.500    0.000    1.875    3.500    8.000 
#    0.000    6.250    0.000    0.000    0.000    3.500 
#    0.000    0.000    0.000    0.000    0.000    0.000 
#
# Total GULP energy -178259.714247 kJ/mol
# GULP energy per Si atom -5570.616070 kJ/mol
# Density = 2.012256 g / cm^3
# Si number density = 20.168461 Si / 1000 Ang^3
#
#
#
# Elastic Constant Matrix: (Units=GPa)
#
#
# Indices 1 2 3 4 5 6 
#
# 1 80.5786 26.4613 9.2699 0.0000 -4.0805 0.0000
# 2 26.4613 96.3545 26.1523 0.0000 -4.1948 0.0000
# 3 9.2699 26.1523 47.7919 0.0000 5.0978 0.0000
# 4 0.0000 0.0000 0.0000 17.6838 0.0000 -8.7224
# 5 -4.0805 -4.1948 5.0978 0.0000 27.9421 0.0000
# 6 0.0000 0.0000 0.0000 -8.7224 0.0000 18.8253
#
#
#
# Elastic Compliance Matrix: (Units=1/GPa)
#
#
# Indices 1 2 3 4 5 6 
#
# 1 0.013734 -0.003439 -0.000960 0.000000 0.001665 0.000000
# 2 -0.003439 0.013320 -0.006916 0.000000 0.002759 0.000000
# 3 -0.000960 -0.006916 0.025517 0.000000 -0.005834 0.000000
# 4 0.000000 0.000000 0.000000 0.073300 0.000000 0.033962
# 5 0.001665 0.002759 -0.005834 0.000000 0.037510 0.000000
# 6 0.000000 0.000000 0.000000 0.033962 0.000000 0.068856
#
#
# Mechanical properties :
#
#
# Convention : Reuss Voigt Hill
#
# Bulk Modulus (GPa) = 33.39805 38.72135 36.05970
# Shear Modulus (GPa) = 18.87877 23.74634 21.31256
#
# Velocity S-wave (km/s) = 3.06282 3.43505 3.25426
# Velocity P-wave (km/s) = 5.39475 5.91383 5.66024
#
# Compressibility (1/GPa) = 0.02994187
#
# Stress axis : x y z
#
# Youngs Moduli (GPa) = 72.81086 75.07491 39.18938
#
# Poissons Ratio (x) = 0.25817 0.03761
# Poissons Ratio (y) = 0.25038 0.27104
# Poissons Ratio (z) = 0.06988 0.51923
#
# Static dielectric constant tensor:
#      x y z
#    x 1.809450 0.000000 -0.014560 
#    y 0.000000 1.756140 0.000000 
#    z -0.014560 0.000000 1.746360 
# 
# From -- ./inp_files/167220.got.cif
#   From: 2010.05.17/outbox.cif.g08.bks.cpg/sg12_84_cif.got.tgz:167220.got - 2010.06.03 13:09:07.
