data_PCOD9184401
_publ_section_title
;
Structure prediction by ZEFSAII (Michael W. Deem and Ramdas Pophale) SiO2 
 PCOD9184401
Probable space group: C 2/M
;
_chemical_formula_sum "Si O2"
_cell_formula_units_Z 64
_cell_length_a 15.731616
_cell_length_b 16.778187
_cell_length_c 11.789553
_cell_angle_alpha 90.000000
_cell_angle_beta 87.380603
_cell_angle_gamma 90.000000
_cell_volume 3108.577499
_symmetry_space_group_name_H-M "C 2/M"
_symmetry_group_IT_number 12
_symmetry_cell_setting 'monoclinic'
loop_
_space_group_symop_operation_xyz
x,y,z
-x,y,-z
-x,-y,-z
x,-y,z
1/2+x,1/2+y,z
1/2-x,1/2+y,-z
1/2-x,1/2-y,-z
1/2+x,1/2-y,z
loop_
_atom_site_type_symbol
_atom_site_label
_atom_site_fract_x
_atom_site_fract_y
_atom_site_fract_z
Si Si1 0.759180 0.586339 0.333573
Si Si2 0.583879 0.631601 0.233964
Si Si3 0.246112 0.335678 0.433452
Si Si4 0.840280 0.143699 0.005036
Si Si5 0.898010 0.142864 0.246827
Si Si6 0.083934 0.330220 0.780803
Si Si7 0.404036 0.823044 0.735205
Si Si8 0.350895 0.162427 0.992118
O O1 0.793434 0.500000 0.300824
O O2 0.663860 0.594738 0.293268
O O3 0.757427 0.600207 0.467196
O O4 0.825219 0.648737 0.277356
O O5 0.597828 0.616665 0.099055
O O6 0.489023 0.605839 0.273910
O O7 0.594225 0.726567 0.255697
O O8 0.250000 0.250000 0.500000
O O9 0.327497 0.352499 0.348699
O O10 0.163388 0.340563 0.358428
O O11 0.844658 0.240827 0.003424
O O12 0.862386 0.112145 0.128568
O O13 0.742367 0.126182 0.980585
O O14 0.920263 0.234806 0.217501
O O15 0.000468 0.354627 0.715766
O O16 0.086087 0.361049 0.910128
O O17 0.375250 0.853332 0.861063
#
# Coordination Sequence:
#
# PCOD9184401 Si02
#       8
#     8   8   8   8   8   8   8   8
#     4  12  26  43  59  81 123 171 204 243 301 370
#     4  10  19  35  58  92 119 154 195 245 308 361
#     4  12  22  39  59  84 119 159 209 255 292 344
#     4   9  15  27  55  89 126 149 177 241 317 363
#     4  10  19  33  60  93 122 145 196 262 304 342
#     4  10  19  35  58  92 119 154 195 245 308 361
#     4  10  19  33  60  93 122 145 196 262 304 342
#     4   9  15  27  55  89 126 149 177 241 317 363
#
# _framework density 20.588194999999999
#
# number of rings (size 3 to 8) (size 9 to 14) (size 15 to 20)
#    0.000    1.750    5.000    0.750    0.000    4.000 
#    0.000    2.500    0.000    6.000    0.000    0.000 
#    0.000    0.000    0.000    0.000    0.000    0.000 
#
# Total GULP energy -178447.695731 kJ/mol
# GULP energy per Si atom -5576.490492 kJ/mol
# Density = 2.054134 g / cm^3
# Si number density = 20.588195 Si / 1000 Ang^3
#
#
#
# Elastic Constant Matrix: (Units=GPa)
#
#
# Indices 1 2 3 4 5 6 
#
# 1 142.5926 2.9672 58.9102 0.0000 21.6856 0.0000
# 2 2.9672 15.9391 -4.5354 0.0000 5.2621 0.0000
# 3 58.9102 -4.5354 123.1789 0.0000 17.4699 0.0000
# 4 0.0000 0.0000 0.0000 -7.6630 0.0000 1.5753
# 5 21.6856 5.2621 17.4699 0.0000 21.4929 0.0000
# 6 0.0000 0.0000 0.0000 1.5753 0.0000 -3.7022
#
#
#
# Elastic Compliance Matrix: (Units=1/GPa)
#
#
# Indices 1 2 3 4 5 6 
#
# 1 0.009524 -0.000681 -0.003663 0.000000 -0.006465 0.000000
# 2 -0.000681 0.071794 0.006064 0.000000 -0.021819 0.000000
# 3 -0.003663 0.006064 0.011054 0.000000 -0.006774 0.000000
# 4 0.000000 0.000000 0.000000 -0.143007 0.000000 -0.060852
# 5 -0.006465 -0.021819 -0.006774 0.000000 0.063898 0.000000
# 6 0.000000 0.000000 0.000000 -0.060852 0.000000 -0.296005
#
#
# Mechanical properties :
#
#
# Convention : Reuss Voigt Hill
#
# Bulk Modulus (GPa) = 10.43710 44.04384 27.24047
# Shear Modulus (GPa) = -19.66614 16.98345 -1.34135
#
# Velocity S-wave (km/s) = -3.09401 2.87524 -0.80804
# Velocity P-wave (km/s) = 2.77189 5.69754 3.51984
#
# Compressibility (1/GPa) = 0.09581208
#
# Stress axis : x y z
#
# Youngs Moduli (GPa) = 105.00222 13.92864 90.46533
#
# Poissons Ratio (x) = 0.00948 0.33136
# Poissons Ratio (y) = 0.07148 -0.54854
# Poissons Ratio (z) = 0.38460 -0.08446
#
# Static dielectric constant tensor:
#      x y z
#    x 1.774170 0.000000 -0.001870 
#    y 0.000000 1.728790 0.000000 
#    z -0.001870 0.000000 1.730970 
# 
# From -- ./inp_files/146131.got.cif
#   From: 2010.05.17/outbox.cif.g08.bks.cpg/sg12_74_cif.got.tgz:146131.got - 2010.06.03 13:09:07.
