data_PCOD9184547
_publ_section_title
;
Structure prediction by ZEFSAII (Michael W. Deem and Ramdas Pophale) SiO2 
 PCOD9184547
Probable space group: C 2/M
;
_chemical_formula_sum "Si O2"
_cell_formula_units_Z 56
_cell_length_a 24.519930
_cell_length_b 30.699095
_cell_length_c 12.750285
_cell_angle_alpha 90.000000
_cell_angle_beta 18.429021
_cell_angle_gamma 90.000000
_cell_volume 3034.099868
_symmetry_space_group_name_H-M "C 2/M"
_symmetry_group_IT_number 12
_symmetry_cell_setting 'monoclinic'
loop_
_space_group_symop_operation_xyz
x,y,z
-x,y,-z
-x,-y,-z
x,-y,z
1/2+x,1/2+y,z
1/2-x,1/2+y,-z
1/2-x,1/2-y,-z
1/2+x,1/2-y,z
loop_
_atom_site_type_symbol
_atom_site_label
_atom_site_fract_x
_atom_site_fract_y
_atom_site_fract_z
Si Si1 0.437553 0.357635 0.403736
Si Si2 0.305452 0.104512 0.750809
Si Si3 0.680947 0.423905 0.203534
Si Si4 0.575433 0.134667 0.975863
Si Si5 0.489854 0.951421 0.778177
Si Si6 0.871845 0.773003 0.635506
Si Si7 0.502501 0.812855 0.675501
O O1 0.372502 0.381909 0.629119
O O2 0.283846 0.364277 0.601781
O O3 0.449279 0.307216 0.411356
O O4 0.621987 0.377961 0.042840
O O5 0.371140 0.064668 0.560780
O O6 0.439722 0.144158 0.492278
O O7 0.275643 0.089999 0.924320
O O8 0.500000 0.445272 0.500000
O O9 0.808998 0.449986 0.044513
O O10 0.500000 0.143559 0.000000
O O11 0.519271 0.086779 0.119118
O O12 0.511278 0.169692 0.179923
O O13 0.522570 0.000000 0.757616
O O14 0.866115 0.725675 0.592808
O O15 0.000000 0.771470 0.500000
O O16 0.685312 0.792364 0.007409
#
# Coordination Sequence:
#
# PCOD9184547 Si02
#       7
#     8   8   8   8   8   8   8
#     4   9  19  35  54  79 105 139 181 212 249 304
#     4  10  19  34  52  74 112 145 168 207 256 311
#     4   9  18  32  51  75 108 148 177 203 250 308
#     4   9  20  41  61  74  96 132 175 224 271 307
#     4  10  21  34  52  80 105 132 174 216 259 316
#     4  11  20  31  50  79 112 140 173 211 249 301
#     4  10  22  34  51  80 107 140 180 213 253 305
#
# _framework density 18.456873999999999
#
# number of rings (size 3 to 8) (size 9 to 14) (size 15 to 20)
#    0.000    2.286    0.000    3.857    0.000    7.429 
#    0.000   11.429    0.000    0.857    0.000    0.000 
#    0.000    0.000    0.000    0.000    0.000    0.000 
#
# Total GULP energy -156243.301658 kJ/mol
# GULP energy per Si atom -5580.117916 kJ/mol
# Density = 1.841487 g / cm^3
# Si number density = 18.456874 Si / 1000 Ang^3
#
#
#
# Elastic Constant Matrix: (Units=GPa)
#
#
# Indices 1 2 3 4 5 6 
#
# 1 107.9173 20.4104 30.5865 0.0101 -2.7137 -0.0006
# 2 20.4104 97.2573 20.4345 0.0009 3.2658 -0.0157
# 3 30.5865 20.4345 86.3144 0.0175 -2.2932 0.0112
# 4 0.0101 0.0009 0.0175 10.6392 -0.0004 -4.2256
# 5 -2.7137 3.2658 -2.2932 -0.0004 12.9289 -0.0092
# 6 -0.0006 -0.0157 0.0112 -4.2256 -0.0092 4.3351
#
#
#
# Elastic Compliance Matrix: (Units=1/GPa)
#
#
# Indices 1 2 3 4 5 6 
#
# 1 0.010556 -0.001588 -0.003311 -0.000002 0.002029 0.000007
# 2 -0.001588 0.011193 -0.002181 0.000032 -0.003547 0.000069
# 3 -0.003311 -0.002181 0.013334 -0.000055 0.002221 -0.000092
# 4 -0.000002 0.000032 -0.000055 0.153365 0.000093 0.149489
# 5 0.002029 -0.003547 0.002221 0.000093 0.079063 0.000239
# 6 0.000007 0.000069 -0.000092 0.149489 0.000239 0.376385
#
#
# Mechanical properties :
#
#
# Convention : Reuss Voigt Hill
#
# Bulk Modulus (GPa) = 47.79456 48.26132 48.02794
# Shear Modulus (GPa) = 7.51846 20.25115 13.88480
#
# Velocity S-wave (km/s) = 2.02049 3.31602 2.74575
# Velocity P-wave (km/s) = 5.60309 6.39267 6.01086
#
# Compressibility (1/GPa) = 0.02092288
#
# Stress axis : x y z
#
# Youngs Moduli (GPa) = 94.73231 89.34411 74.99486
#
# Poissons Ratio (x) = 0.14186 0.24830
# Poissons Ratio (y) = 0.15042 0.16359
# Poissons Ratio (z) = 0.31364 0.19490
#
# Static dielectric constant tensor:
#      x y z
#    x 1.611480 0.000000 -0.022370 
#    y 0.000000 1.652970 0.000040 
#    z -0.022370 0.000040 1.693230 
# 
# From -- ./inp_files/178688.got.cif
#   From: 2010.05.17/outbox.cif.g08.bks.cpg/sg12_90_cif.got.tgz:178688.got - 2010.06.03 13:09:07.
