data_PCOD9184368
_publ_section_title
;
Structure prediction by ZEFSAII (Michael W. Deem and Ramdas Pophale) SiO2 
 PCOD9184368
Probable space group: C 2/M
;
_chemical_formula_sum "Si O2"
_cell_formula_units_Z 56
_cell_length_a 11.632097
_cell_length_b 13.788925
_cell_length_c 18.932610
_cell_angle_alpha 90.000000
_cell_angle_beta 56.747357
_cell_angle_gamma 90.000000
_cell_volume 2539.455959
_symmetry_space_group_name_H-M "C 2/M"
_symmetry_group_IT_number 12
_symmetry_cell_setting 'monoclinic'
loop_
_space_group_symop_operation_xyz
x,y,z
-x,y,-z
-x,-y,-z
x,-y,z
1/2+x,1/2+y,z
1/2-x,1/2+y,-z
1/2-x,1/2-y,-z
1/2+x,1/2-y,z
loop_
_atom_site_type_symbol
_atom_site_label
_atom_site_fract_x
_atom_site_fract_y
_atom_site_fract_z
Si Si1 0.365080 0.607493 0.718775
Si Si2 0.245189 0.684456 0.277214
Si Si3 0.098272 0.391380 0.196650
Si Si4 0.397017 0.388954 0.474712
Si Si5 0.635874 0.387084 0.993682
Si Si6 0.545140 0.316151 0.163847
Si Si7 0.162514 0.616002 0.455711
O O1 0.305784 0.500000 0.726406
O O2 0.278975 0.701083 0.725152
O O3 0.507018 0.611678 0.626941
O O4 0.396131 0.624328 0.790379
O O5 0.133856 0.628719 0.266601
O O6 0.391837 0.648848 0.199211
O O7 0.232829 0.661436 0.363374
O O8 0.040615 0.500000 0.207567
O O9 0.236579 0.385537 0.102314
O O10 0.023076 0.295031 0.195421
O O11 0.500000 0.345511 0.500000
O O12 0.373017 0.500000 0.507046
O O13 0.246754 0.354086 0.498382
O O14 0.613277 0.500000 0.020866
O O15 0.500000 0.350543 0.000000
O O16 0.643484 0.328785 0.063990
O O17 0.179716 0.500000 0.446529
O O18 0.000000 0.634768 0.500000
#
# Coordination Sequence:
#
# PCOD9184368 Si02
#       7
#     8   8   8   8   8   8   8
#     4  10  22  39  59  85 119 159 202 249 304 370
#     4  11  22  38  61  90 118 157 204 252 304 364
#     4  10  22  38  58  88 123 156 194 246 305 361
#     4   9  18  37  62  87 117 159 205 252 311 372
#     4  10  19  33  59  90 116 152 200 248 299 358
#     4  11  21  37  62  87 118 157 203 249 301 364
#     4  10  21  39  64  94 126 162 209 263 316 371
#
# _framework density 22.051966
#
# number of rings (size 3 to 8) (size 9 to 14) (size 15 to 20)
#    0.000    1.857    2.857    1.286    0.000    2.286 
#    5.143    1.429    0.000    0.429    0.000    0.000 
#    0.000    0.571    0.000    0.000    0.000    0.000 
#
# Total GULP energy -156189.234811 kJ/mol
# GULP energy per Si atom -5578.186958 kJ/mol
# Density = 2.200178 g / cm^3
# Si number density = 22.051966 Si / 1000 Ang^3
#
#
#
# Elastic Constant Matrix: (Units=GPa)
#
#
# Indices 1 2 3 4 5 6 
#
# 1 119.4159 17.0740 29.5037 0.0000 16.0308 0.0000
# 2 17.0740 106.6276 8.0330 0.0000 16.2425 0.0000
# 3 29.5037 8.0330 48.2017 0.0000 17.7477 0.0000
# 4 0.0000 0.0000 0.0000 19.2801 0.0000 -7.7510
# 5 16.0308 16.2425 17.7477 0.0000 33.6921 0.0000
# 6 0.0000 0.0000 0.0000 -7.7510 0.0000 -7.6479
#
#
#
# Elastic Compliance Matrix: (Units=1/GPa)
#
#
# Indices 1 2 3 4 5 6 
#
# 1 0.010057 -0.000980 -0.005464 0.000000 -0.001434 0.000000
# 2 -0.000980 0.010218 0.000669 0.000000 -0.004812 0.000000
# 3 -0.005464 0.000669 0.028709 0.000000 -0.012845 0.000000
# 4 0.000000 0.000000 0.000000 0.036852 0.000000 -0.037349
# 5 -0.001434 -0.004812 -0.012845 0.000000 0.039449 0.000000
# 6 0.000000 0.000000 0.000000 -0.037349 0.000000 -0.092903
#
#
# Mechanical properties :
#
#
# Convention : Reuss Voigt Hill
#
# Bulk Modulus (GPa) = 26.71487 42.60740 34.66114
# Shear Modulus (GPa) = 88.63550 23.70715 56.17133
#
# Velocity S-wave (km/s) = 6.34675 3.28237 5.05248
# Velocity P-wave (km/s) = 8.11474 5.80763 7.05612
#
# Compressibility (1/GPa) = 0.03743234
#
# Stress axis : x y z
#
# Youngs Moduli (GPa) = 99.43518 97.86653 34.83245
#
# Poissons Ratio (x) = 0.09593 0.19033
# Poissons Ratio (y) = 0.09747 -0.02330
# Poissons Ratio (z) = 0.54334 -0.06546
#
# Static dielectric constant tensor:
#      x y z
#    x 1.832950 0.000000 -0.001080 
#    y 0.000000 1.820830 0.000000 
#    z -0.001080 0.000000 1.777050 
# 
# From -- ./inp_files/263218.got.cif
#   From: 2010.05.17/outbox.cif.g08.bks.cpg/sg12_132_cif.got.tgz:263218.got - 2010.06.03 13:09:07.
