data_PCOD9184510
_publ_section_title
;
Structure prediction by ZEFSAII (Michael W. Deem and Ramdas Pophale) SiO2 
 PCOD9184510
Probable space group: C 2/M
;
_chemical_formula_sum "Si O2"
_cell_formula_units_Z 56
_cell_length_a 12.319497
_cell_length_b 16.015941
_cell_length_c 20.497128
_cell_angle_alpha 90.000000
_cell_angle_beta 43.084854
_cell_angle_gamma 90.000000
_cell_volume 2762.552152
_symmetry_space_group_name_H-M "C 2/M"
_symmetry_group_IT_number 12
_symmetry_cell_setting 'monoclinic'
loop_
_space_group_symop_operation_xyz
x,y,z
-x,y,-z
-x,-y,-z
x,-y,z
1/2+x,1/2+y,z
1/2-x,1/2+y,-z
1/2-x,1/2-y,-z
1/2+x,1/2-y,z
loop_
_atom_site_type_symbol
_atom_site_label
_atom_site_fract_x
_atom_site_fract_y
_atom_site_fract_z
Si Si1 0.035702 0.599129 0.756044
Si Si2 0.664124 0.601315 0.462125
Si Si3 0.081289 0.840006 0.776583
Si Si4 0.789739 0.308933 0.212480
Si Si5 0.586720 0.590151 0.031584
Si Si6 0.221083 0.723220 0.117815
Si Si7 0.452489 0.599034 0.349405
O O1 0.018829 0.500000 0.760505
O O2 0.181052 0.627555 0.645832
O O3 0.086394 0.628876 0.806777
O O4 0.877265 0.647470 0.805263
O O5 0.500000 0.629123 0.500000
O O6 0.664611 0.500000 0.458255
O O7 0.656522 0.624317 0.541498
O O8 0.917660 0.787073 0.840170
O O9 0.114694 0.880908 0.692454
O O10 0.210825 0.772989 0.741917
O O11 0.037592 0.900600 0.855127
O O12 0.828013 0.272220 0.123713
O O13 0.620912 0.354335 0.283008
O O14 0.671600 0.500000 0.002374
O O15 0.692559 0.673458 0.977821
O O16 0.500000 0.588239 0.000000
O O17 0.481986 0.500000 0.341674
#
# Coordination Sequence:
#
# PCOD9184510 Si02
#       7
#     8   8   8   8   8   8   8
#     4  10  19  34  57  82 109 144 186 224 263 321
#     4   9  16  30  55  84 110 142 183 223 265 318
#     4  10  21  36  55  80 113 141 177 228 282 323
#     4  10  19  34  51  78 112 142 172 222 278 320
#     4  11  21  36  58  79 102 144 192 222 262 332
#     4  10  21  36  55  80 113 141 177 228 282 323
#     4  10  19  34  57  82 109 144 186 224 263 321
#
# _framework density 20.27111
#
# number of rings (size 3 to 8) (size 9 to 14) (size 15 to 20)
#    0.000    2.000    2.857    1.714    0.000    0.000 
#    0.000    7.857    0.000    0.000    0.000   15.000 
#    0.000    0.000    0.000    0.000    0.000    0.000 
#
# Total GULP energy -156063.842308 kJ/mol
# GULP energy per Si atom -5573.708654 kJ/mol
# Density = 2.022497 g / cm^3
# Si number density = 20.271110 Si / 1000 Ang^3
#
#
#
# Elastic Constant Matrix: (Units=GPa)
#
#
# Indices 1 2 3 4 5 6 
#
# 1 41.3581 15.2234 16.5994 0.0002 16.0678 -0.0003
# 2 15.2234 79.9190 32.8946 0.0001 11.5357 -0.0001
# 3 16.5994 32.8946 101.4047 0.0003 21.4193 -0.0004
# 4 0.0002 0.0001 0.0003 98.9603 -0.0001 -85.4755
# 5 16.0678 11.5357 21.4193 -0.0001 26.9922 0.0001
# 6 -0.0003 -0.0001 -0.0004 -85.4755 0.0001 126.4775
#
#
#
# Elastic Compliance Matrix: (Units=1/GPa)
#
#
# Indices 1 2 3 4 5 6 
#
# 1 0.032422 -0.003452 -0.000507 0.000000 -0.017422 0.000000
# 2 -0.003452 0.015006 -0.004063 0.000000 -0.001134 0.000000
# 3 -0.000507 -0.004063 0.013013 0.000000 -0.008288 0.000000
# 4 0.000000 0.000000 0.000000 0.024275 0.000000 0.016405
# 5 -0.017422 -0.001134 -0.008288 0.000000 0.054480 0.000000
# 6 0.000000 0.000000 0.000000 0.016405 0.000000 0.018994
#
#
# Mechanical properties :
#
#
# Convention : Reuss Voigt Hill
#
# Bulk Modulus (GPa) = 22.52479 39.12406 30.82443
# Shear Modulus (GPa) = 26.45016 61.01697 43.73357
#
# Velocity S-wave (km/s) = 3.61615 5.49234 4.64986
# Velocity P-wave (km/s) = 5.34521 7.71773 6.63832
#
# Compressibility (1/GPa) = 0.04439552
#
# Stress axis : x y z
#
# Youngs Moduli (GPa) = 30.84328 66.63822 76.84484
#
# Poissons Ratio (x) = 0.23006 0.03900
# Poissons Ratio (y) = 0.10648 0.31224
# Poissons Ratio (z) = 0.01565 0.27077
#
# Static dielectric constant tensor:
#      x y z
#    x 1.741820 0.000000 0.021270 
#    y 0.000000 1.755970 0.000000 
#    z 0.021270 0.000000 1.739750 
# 
# From -- ./inp_files/263258.got.cif
#   From: 2010.05.17/outbox.cif.g08.bks.cpg/sg12_132_cif.got.tgz:263258.got - 2010.06.03 13:09:07.
