data_PCOD9184035
_publ_section_title
;
Structure prediction by ZEFSAII (Michael W. Deem and Ramdas Pophale) SiO2 
 PCOD9184035
Probable space group: C 2/M
;
_chemical_formula_sum "Si O2"
_cell_formula_units_Z 40
_cell_length_a 24.349089
_cell_length_b 9.880758
_cell_length_c 24.498152
_cell_angle_alpha 90.000000
_cell_angle_beta 155.841871
_cell_angle_gamma 90.000000
_cell_volume 2412.135726
_symmetry_space_group_name_H-M "C 2/M"
_symmetry_group_IT_number 12
_symmetry_cell_setting 'monoclinic'
loop_
_space_group_symop_operation_xyz
x,y,z
-x,y,-z
-x,-y,-z
x,-y,z
1/2+x,1/2+y,z
1/2-x,1/2+y,-z
1/2-x,1/2-y,-z
1/2+x,1/2-y,z
loop_
_atom_site_type_symbol
_atom_site_label
_atom_site_fract_x
_atom_site_fract_y
_atom_site_fract_z
Si Si1 0.610801 0.500000 0.866406
Si Si2 0.436130 0.500000 0.882279
Si Si3 0.871644 0.500000 0.421461
Si Si4 0.133763 0.500000 0.400519
Si Si5 0.582776 0.000000 0.892002
Si Si6 0.016275 0.216528 0.167768
Si Si7 0.911483 0.000000 0.586258
Si Si8 0.667348 0.219054 0.522759
O O1 0.562737 0.628430 0.858689
O O2 0.533393 0.500000 0.738839
O O3 0.767541 0.500000 0.995727
O O4 0.274063 0.500000 0.739299
O O5 0.478108 0.629203 0.882885
O O6 0.500000 0.500000 0.000000
O O7 0.873661 0.630154 0.462680
O O8 0.000000 0.500000 0.500000
O O9 0.276993 0.500000 0.501035
O O10 0.129130 0.631630 0.434876
O O11 0.018332 0.500000 0.251153
O O12 0.550132 0.863644 0.895799
O O13 0.170760 0.231600 0.327772
O O14 0.901882 0.136127 0.542705
#
# Coordination Sequence:
#
# PCOD9184035 Si02
#       8
#     4   4   4   4   4   8   4   8
#     4  11  22  33  47  78 120 146 162 209 256 299
#     4   9  20  40  61  74  94 138 177 215 263 315
#     4   9  20  40  57  78 104 122 171 232 268 299
#     4  11  18  31  55  76 108 142 180 197 241 319
#     4  12  22  32  49  82 114 142 167 211 258 300
#     4  10  19  36  55  75 107 140 180 209 251 312
#     4  12  18  32  55  78 110 136 179 206 246 316
#     4  10  19  33  57  81  98 142 180 211 249 307
#
# _framework density 16.582815
#
# number of rings (size 3 to 8) (size 9 to 14) (size 15 to 20)
#    0.000    1.600    4.000    3.600    0.000    0.000 
#   10.800    1.000    0.000    0.000    0.000    0.000 
#    0.000    0.000    0.000    0.000    0.000    0.000 
#
# Total GULP energy -111647.788369 kJ/mol
# GULP energy per Si atom -5582.389418 kJ/mol
# Density = 1.654507 g / cm^3
# Si number density = 16.582815 Si / 1000 Ang^3
#
#
#
# Elastic Constant Matrix: (Units=GPa)
#
#
# Indices 1 2 3 4 5 6 
#
# 1 80.8323 43.1899 49.1710 0.0000 6.8840 0.0000
# 2 43.1899 146.7330 28.1572 0.0000 -1.9091 0.0000
# 3 49.1710 28.1572 84.6663 0.0000 -3.1045 0.0001
# 4 0.0000 0.0000 0.0000 6.1312 0.0000 -2.5177
# 5 6.8840 -1.9091 -3.1045 0.0000 37.0851 0.0000
# 6 0.0000 0.0000 0.0001 -2.5177 0.0000 -5.3488
#
#
#
# Elastic Compliance Matrix: (Units=1/GPa)
#
#
# Indices 1 2 3 4 5 6 
#
# 1 0.022267 -0.004384 -0.011669 0.000000 -0.005336 0.000000
# 2 -0.004384 0.008144 -0.000117 0.000000 0.001223 0.000000
# 3 -0.011669 -0.000117 0.018764 0.000000 0.003731 0.000000
# 4 0.000000 0.000000 0.000000 0.136681 0.000000 -0.064337
# 5 -0.005336 0.001223 0.003731 0.000000 0.028331 0.000000
# 6 0.000000 0.000000 0.000000 -0.064337 0.000000 -0.156673
#
#
# Mechanical properties :
#
#
# Convention : Reuss Voigt Hill
#
# Bulk Modulus (GPa) = 59.40724 61.47420 60.44072
# Shear Modulus (GPa) = 52.37444 20.35438 36.36441
#
# Velocity S-wave (km/s) = 5.62602 3.50728 4.68792
# Velocity P-wave (km/s) = 8.83771 7.31798 8.11351
#
# Compressibility (1/GPa) = 0.01683297
#
# Stress axis : x y z
#
# Youngs Moduli (GPa) = 44.90979 122.78958 53.29350
#
# Poissons Ratio (x) = 0.53834 0.62190
# Poissons Ratio (y) = 0.19690 0.00625
# Poissons Ratio (z) = 0.52407 0.01441
#
# Static dielectric constant tensor:
#      x y z
#    x 1.524330 0.000000 -0.004440 
#    y 0.000000 1.592020 0.000000 
#    z -0.004440 0.000000 1.541460 
# 
# From -- ./inp_files/101182.got.cif
#   From: 2010.05.17/outbox.cif.g08.bks.cpg/sg12_51_cif.got.tgz:101182.got - 2010.06.03 13:09:07.
