data_PCOD9184977
_publ_section_title
;
Structure prediction by ZEFSAII (Michael W. Deem and Ramdas Pophale) SiO2 
 PCOD9184977
Probable space group: C 2/M
;
_chemical_formula_sum "Si O2"
_cell_formula_units_Z 48
_cell_length_a 30.595599
_cell_length_b 7.786888
_cell_length_c 19.324651
_cell_angle_alpha 90.000000
_cell_angle_beta 30.247939
_cell_angle_gamma 90.000000
_cell_volume 2319.228231
_symmetry_space_group_name_H-M "C 2/M"
_symmetry_group_IT_number 12
_symmetry_cell_setting 'monoclinic'
loop_
_space_group_symop_operation_xyz
x,y,z
-x,y,-z
-x,-y,-z
x,-y,z
1/2+x,1/2+y,z
1/2-x,1/2+y,-z
1/2-x,1/2-y,-z
1/2+x,1/2-y,z
loop_
_atom_site_type_symbol
_atom_site_label
_atom_site_fract_x
_atom_site_fract_y
_atom_site_fract_z
Si Si1 0.037344 0.707974 0.875702
Si Si2 0.551536 0.294291 0.148560
Si Si3 0.268552 0.205858 0.396367
Si Si4 0.904578 0.793496 0.609190
Si Si5 0.257918 0.704247 0.070317
Si Si6 0.102479 0.789212 0.539287
O O1 0.038215 0.500000 0.872872
O O2 0.135369 0.773807 0.745237
O O3 0.986387 0.760121 0.876064
O O4 0.000000 0.763364 0.000000
O O5 0.555169 0.500000 0.151606
O O6 0.482167 0.232128 0.301327
O O7 0.649457 0.227156 0.027155
O O8 0.250000 0.250000 0.500000
O O9 0.189596 0.270384 0.458233
O O10 0.270940 0.000000 0.383271
O O11 0.825944 0.755181 0.769361
O O12 0.891752 0.733581 0.547989
O O13 0.000000 0.729107 0.500000
O O14 0.909415 0.000000 0.600374
O O15 0.261859 0.500000 0.069134
O O16 0.250000 0.750000 0.000000
O O17 0.100718 0.000000 0.542666
#
# Coordination Sequence:
#
# PCOD9184977 Si02
#       6
#     8   8   8   8   8   8
#     4  10  22  36  54  83 117 151 193 240 286 341
#     4  10  21  39  60  83 113 152 195 236 287 346
#     4  10  19  34  55  80 110 151 195 234 281 338
#     4  10  21  39  64  90 116 152 193 235 292 357
#     4  11  24  41  62  89 119 153 194 241 293 352
#     4   9  18  34  58  82 110 149 191 235 282 340
#
# _framework density 20.696541
#
# number of rings (size 3 to 8) (size 9 to 14) (size 15 to 20)
#    0.000    2.000    1.667    1.500    2.333    4.667 
#    0.000    1.667    0.000    0.000    0.000    0.000 
#    0.000    0.000    0.000    0.000    0.000    0.000 
#
# Total GULP energy -133920.827731 kJ/mol
# GULP energy per Si atom -5580.034489 kJ/mol
# Density = 2.064944 g / cm^3
# Si number density = 20.696541 Si / 1000 Ang^3
#
#
#
# Elastic Constant Matrix: (Units=GPa)
#
#
# Indices 1 2 3 4 5 6 
#
# 1 216.4052 7.2144 144.1344 0.0052 -7.4293 -0.0013
# 2 7.2144 25.9301 5.1226 -0.0037 -4.8309 -0.0062
# 3 144.1344 5.1226 248.1418 0.0033 -4.1750 -0.0021
# 4 0.0052 -0.0037 0.0033 21.0794 -0.0001 6.1314
# 5 -7.4293 -4.8309 -4.1750 -0.0001 43.2359 0.0002
# 6 -0.0013 -0.0062 -0.0021 6.1314 0.0002 22.8792
#
#
#
# Elastic Compliance Matrix: (Units=1/GPa)
#
#
# Indices 1 2 3 4 5 6 
#
# 1 0.007601 -0.001108 -0.004379 -0.000001 0.000759 0.000000
# 2 -0.001108 0.039683 -0.000104 0.000005 0.004233 0.000009
# 3 -0.004379 -0.000104 0.006574 0.000000 -0.000129 0.000000
# 4 -0.000001 0.000005 0.000000 0.051450 0.000000 -0.013788
# 5 0.000759 0.004233 -0.000129 0.000000 0.023720 0.000001
# 6 0.000000 0.000009 0.000000 -0.013788 0.000001 0.047403
#
#
# Mechanical properties :
#
#
# Convention : Reuss Voigt Hill
#
# Bulk Modulus (GPa) = 23.43357 89.26886 56.35121
# Shear Modulus (GPa) = 24.77231 39.70597 32.23914
#
# Velocity S-wave (km/s) = 3.46342 4.38480 3.95106
# Velocity P-wave (km/s) = 5.22884 8.29827 6.93549
#
# Compressibility (1/GPa) = 0.04267383
#
# Stress axis : x y z
#
# Youngs Moduli (GPa) = 131.56612 25.19981 152.12242
#
# Poissons Ratio (x) = 0.02792 0.66619
# Poissons Ratio (y) = 0.14579 0.01587
# Poissons Ratio (z) = 0.57616 0.00263
#
# Static dielectric constant tensor:
#      x y z
#    x 1.744780 0.000000 0.013320 
#    y 0.000000 1.781080 0.000000 
#    z 0.013320 0.000000 1.746440 
# 
# From -- ./inp_files/295355.got.cif
#   From: 2010.05.17/outbox.cif.g08.bks.cpg/sg12_148_cif.got.tgz:295355.got - 2010.06.03 13:09:07.
