data_PCOD9184779
_publ_section_title
;
Structure prediction by ZEFSAII (Michael W. Deem and Ramdas Pophale) SiO2 
 PCOD9184779
Probable space group: C 2/M
;
_chemical_formula_sum "Si O2"
_cell_formula_units_Z 48
_cell_length_a 12.866728
_cell_length_b 20.932362
_cell_length_c 15.914446
_cell_angle_alpha 90.000000
_cell_angle_beta 137.388753
_cell_angle_gamma 90.000000
_cell_volume 2901.881469
_symmetry_space_group_name_H-M "C 2/M"
_symmetry_group_IT_number 12
_symmetry_cell_setting 'monoclinic'
loop_
_space_group_symop_operation_xyz
x,y,z
-x,y,-z
-x,-y,-z
x,-y,z
1/2+x,1/2+y,z
1/2-x,1/2+y,-z
1/2-x,1/2-y,-z
1/2+x,1/2-y,z
loop_
_atom_site_type_symbol
_atom_site_label
_atom_site_fract_x
_atom_site_fract_y
_atom_site_fract_z
Si Si1 0.681671 0.500000 0.105763
Si Si2 0.099898 0.323117 0.976192
Si Si3 0.485441 0.828200 0.352018
Si Si4 0.316025 0.000000 0.374782
Si Si5 0.441742 0.282234 0.192671
Si Si6 0.068845 0.572407 0.822110
Si Si7 0.254888 0.857154 0.364503
O O1 0.763383 0.500000 0.245620
O O2 0.752830 0.560331 0.098261
O O3 0.500000 0.500000 0.000000
O O4 0.065892 0.264582 0.892555
O O5 0.060671 0.387472 0.901871
O O6 0.280921 0.319102 0.102959
O O7 0.000000 0.317537 0.000000
O O8 0.460497 0.764063 0.284265
O O9 0.500864 0.885756 0.294323
O O10 0.342083 0.842742 0.328342
O O11 0.635450 0.826969 0.499275
O O12 0.500000 0.000000 0.500000
O O13 0.255023 0.933649 0.375369
O O14 0.587169 0.327805 0.269135
O O15 0.006344 0.500000 0.789822
#
# Coordination Sequence:
#
# PCOD9184779 Si02
#       7
#     4   8   8   4   8   8   8
#     4  10  20  32  51  84 119 139 182 233 291 332
#     4  10  21  38  55  74 108 147 187 231 281 332
#     4  10  19  34  54  80 111 146 179 223 278 336
#     4  12  20  36  56  86 118 152 176 230 292 340
#     4  10  22  36  53  80 109 144 186 229 278 329
#     4   9  19  33  53  76 105 143 185 219 280 340
#     4  11  20  32  59  83 114 142 185 225 279 343
#
# _framework density 16.540993
#
# number of rings (size 3 to 8) (size 9 to 14) (size 15 to 20)
#    0.500    1.333    3.333    1.500    3.500    0.333 
#    0.000    0.000    0.000    0.000    0.000    1.167 
#    0.000    0.000    0.000    0.000    0.000    0.000 
#
# Total GULP energy -133784.070811 kJ/mol
# GULP energy per Si atom -5574.336284 kJ/mol
# Density = 1.650334 g / cm^3
# Si number density = 16.540993 Si / 1000 Ang^3
#
#
#
# Elastic Constant Matrix: (Units=GPa)
#
#
# Indices 1 2 3 4 5 6 
#
# 1 84.5447 26.8761 60.2211 0.0000 -1.2834 0.0000
# 2 26.8761 81.3709 47.4570 0.0000 3.3362 0.0000
# 3 60.2211 47.4570 95.4486 0.0000 5.1442 0.0000
# 4 0.0000 0.0000 0.0000 15.1480 0.0000 6.3233
# 5 -1.2834 3.3362 5.1442 0.0000 32.1599 0.0000
# 6 0.0000 0.0000 0.0000 6.3233 0.0000 18.9248
#
#
#
# Elastic Compliance Matrix: (Units=1/GPa)
#
#
# Indices 1 2 3 4 5 6 
#
# 1 0.021856 0.001118 -0.014511 0.000000 0.003077 0.000000
# 2 0.001118 0.017371 -0.009328 0.000000 -0.000265 0.000000
# 3 -0.014511 -0.009328 0.024460 0.000000 -0.003524 0.000000
# 4 0.000000 0.000000 0.000000 0.076716 0.000000 -0.025633
# 5 0.003077 -0.000265 -0.003524 0.000000 0.031809 0.000000
# 6 0.000000 0.000000 0.000000 -0.025633 0.000000 0.061406
#
#
# Mechanical properties :
#
#
# Convention : Reuss Voigt Hill
#
# Bulk Modulus (GPa) = 54.80984 58.94141 56.87563
# Shear Modulus (GPa) = 17.53520 21.70053 19.61787
#
# Velocity S-wave (km/s) = 3.25946 3.62598 3.44759
# Velocity P-wave (km/s) = 6.88281 7.29666 7.09275
#
# Compressibility (1/GPa) = 0.01824490
#
# Stress axis : x y z
#
# Youngs Moduli (GPa) = 45.75495 57.56607 40.88266
#
# Poissons Ratio (x) = -0.06438 0.59325
# Poissons Ratio (y) = -0.05117 0.38136
# Poissons Ratio (z) = 0.66396 0.53699
#
# Static dielectric constant tensor:
#      x y z
#    x 1.530620 0.000000 -0.013440 
#    y 0.000000 1.566170 0.000000 
#    z -0.013440 0.000000 1.554360 
# 
# From -- ./inp_files/208038.got.cif
#   From: 2010.05.17/outbox.cif.g08.bks.cpg/sg12_105_cif.got.tgz:208038.got - 2010.06.03 13:09:07.
