data_PCOD9184186
_publ_section_title
;
Structure prediction by ZEFSAII (Michael W. Deem and Ramdas Pophale) SiO2 
 PCOD9184186
Probable space group: C 2/M
;
_chemical_formula_sum "Si O2"
_cell_formula_units_Z 40
_cell_length_a 14.553061
_cell_length_b 26.294839
_cell_length_c 11.856141
_cell_angle_alpha 90.000000
_cell_angle_beta 29.464542
_cell_angle_gamma 90.000000
_cell_volume 2231.678645
_symmetry_space_group_name_H-M "C 2/M"
_symmetry_group_IT_number 12
_symmetry_cell_setting 'monoclinic'
loop_
_space_group_symop_operation_xyz
x,y,z
-x,y,-z
-x,-y,-z
x,-y,z
1/2+x,1/2+y,z
1/2-x,1/2+y,-z
1/2-x,1/2-y,-z
1/2+x,1/2-y,z
loop_
_atom_site_type_symbol
_atom_site_label
_atom_site_fract_x
_atom_site_fract_y
_atom_site_fract_z
Si Si1 0.207388 0.583069 0.289776
Si Si2 0.029145 0.157017 0.290459
Si Si3 0.542901 0.557458 0.766929
Si Si4 0.675450 0.307532 0.896263
Si Si5 0.778102 0.305607 0.217090
O O1 0.293303 0.573817 0.321496
O O2 0.204816 0.642998 0.261705
O O3 0.000000 0.562392 0.500000
O O4 0.355236 0.559720 0.043861
O O5 0.191109 0.159517 0.211549
O O6 0.980693 0.100085 0.302745
O O7 0.845069 0.182443 0.541167
O O8 0.101685 0.186457 0.102316
O O9 0.572810 0.500000 0.695296
O O10 0.758889 0.252321 0.783609
O O11 0.500000 0.311954 0.000000
O O12 0.000000 0.311658 0.000000
#
# Coordination Sequence:
#
# PCOD9184186 Si02
#       5
#     8   8   8   8   8
#     4  10  19  33  57  88 119 143 183 232 291 356
#     4  10  21  40  56  83 117 149 200 233 279 340
#     4  10  21  39  57  80 115 150 191 242 286 333
#     4  10  19  37  56  87 120 155 180 225 293 347
#     4  10  23  37  57  82 117 157 196 230 275 333
#
# _framework density 17.923728000000001
#
# number of rings (size 3 to 8) (size 9 to 14) (size 15 to 20)
#    0.000    2.000    4.000    1.800    2.800    8.000 
#    0.000    2.000    0.000    1.200    0.000    0.000 
#    0.000    0.000    0.000    0.000    0.000    0.000 
#
# Total GULP energy -111556.105756 kJ/mol
# GULP energy per Si atom -5577.805288 kJ/mol
# Density = 1.788293 g / cm^3
# Si number density = 17.923728 Si / 1000 Ang^3
#
#
#
# Elastic Constant Matrix: (Units=GPa)
#
#
# Indices 1 2 3 4 5 6 
#
# 1 75.5149 48.7921 50.9618 0.0013 -8.3475 -0.0041
# 2 48.7921 146.4066 56.5769 0.0636 17.0400 -0.1619
# 3 50.9618 56.5769 84.9889 0.3227 -18.3343 -0.8238
# 4 0.0013 0.0636 0.3227 -84.8099 -0.0302 207.0357
# 5 -8.3475 17.0400 -18.3343 -0.0302 31.7827 0.0772
# 6 -0.0041 -0.1619 -0.8238 207.0357 0.0772 -516.6102
#
#
#
# Elastic Compliance Matrix: (Units=1/GPa)
#
#
# Indices 1 2 3 4 5 6 
#
# 1 0.023346 -0.003617 -0.011250 0.000044 0.001581 0.000037
# 2 -0.003617 0.013379 -0.009697 0.000026 -0.013717 0.000020
# 3 -0.011250 -0.009697 0.029068 -0.000102 0.019013 -0.000081
# 4 0.000044 0.000026 -0.000102 -0.543863 -0.000048 -0.217957
# 5 0.001581 -0.013717 0.019013 -0.000048 0.050201 -0.000038
# 6 0.000037 0.000020 -0.000081 -0.217957 -0.000038 -0.089284
#
#
# Mechanical properties :
#
#
# Convention : Reuss Voigt Hill
#
# Bulk Modulus (GPa) = 60.00076 68.84134 64.42105
# Shear Modulus (GPa) = -10.81154 -103.88883 -57.35018
#
# Velocity S-wave (km/s) = -2.45867 -7.62151 -5.66271
# Velocity P-wave (km/s) = 5.04858 6.24168 2.59523
#
# Compressibility (1/GPa) = 0.01666646
#
# Stress axis : x y z
#
# Youngs Moduli (GPa) = 42.83299 74.74143 34.40186
#
# Poissons Ratio (x) = 0.27035 0.38702
# Poissons Ratio (y) = 0.15494 0.33359
# Poissons Ratio (z) = 0.48187 0.72475
#
# Static dielectric constant tensor:
#      x y z
#    x 1.600930 0.000000 -0.005340 
#    y 0.000000 1.662180 0.000000 
#    z -0.005340 0.000000 1.608340 
# 
# From -- ./inp_files/135611.got.cif
#   From: 2010.05.17/outbox.cif.g08.bks.cpg/sg12_68_cif.got.tgz:135611.got - 2010.06.03 13:09:07.
