data_PCOD9184111
_publ_section_title
;
Structure prediction by ZEFSAII (Michael W. Deem and Ramdas Pophale) SiO2 
 PCOD9184111
Probable space group: C 2/M
;
_chemical_formula_sum "Si O2"
_cell_formula_units_Z 64
_cell_length_a 29.667240
_cell_length_b 8.463427
_cell_length_c 12.806631
_cell_angle_alpha 90.000000
_cell_angle_beta 90.177399
_cell_angle_gamma 90.000000
_cell_volume 3215.556998
_symmetry_space_group_name_H-M "C 2/M"
_symmetry_group_IT_number 12
_symmetry_cell_setting 'monoclinic'
loop_
_space_group_symop_operation_xyz
x,y,z
-x,y,-z
-x,-y,-z
x,-y,z
1/2+x,1/2+y,z
1/2-x,1/2+y,-z
1/2-x,1/2-y,-z
1/2+x,1/2-y,z
loop_
_atom_site_type_symbol
_atom_site_label
_atom_site_fract_x
_atom_site_fract_y
_atom_site_fract_z
Si Si1 0.387756 0.815544 0.533522
Si Si2 0.485358 0.184845 0.614394
Si Si3 0.007300 0.814131 0.166207
Si Si4 0.589828 0.307127 0.888074
Si Si5 0.822328 0.689547 0.709890
Si Si6 0.637185 0.312577 0.676312
Si Si7 0.391535 0.691279 0.882656
Si Si8 0.264474 0.187389 0.385440
O O1 0.431388 0.807316 0.606739
O O2 0.347081 0.753604 0.603668
O O3 0.393155 0.727596 0.424657
O O4 0.380059 0.000000 0.508441
O O5 0.500000 0.238305 0.500000
O O6 0.501834 0.285305 0.711426
O O7 0.498951 0.000000 0.626749
O O8 0.057532 0.750917 0.144671
O O9 0.962459 0.751844 0.109088
O O10 0.009819 0.000000 0.142039
O O11 0.587925 0.500000 0.883421
O O12 0.614988 0.252199 0.783532
O O13 0.614558 0.266445 0.995766
O O14 0.821814 0.500000 0.707399
O O15 0.853083 0.743264 0.806602
O O16 0.771973 0.753367 0.699562
O O17 0.641842 0.500000 0.685623
O O18 0.685925 0.242683 0.648126
O O19 0.391139 0.500000 0.872380
O O20 0.250000 0.250000 0.500000
O O21 0.263824 0.000000 0.391048
#
# Coordination Sequence:
#
# PCOD9184111 Si02
#       8
#     8   8   8   8   8   8   8   8
#     4  10  20  34  53  78 115 154 187 233 289 344
#     4  10  20  33  49  74 113 156 191 230 286 344
#     4  10  19  33  57  85 113 151 199 244 283 332
#     4   9  20  38  58  85 119 156 197 244 290 337
#     4  11  22  38  60  87 118 149 189 239 290 341
#     4  11  22  37  60  87 118 153 193 239 291 348
#     4  10  20  37  61  86 117 157 201 243 287 336
#     4  12  24  40  63  90 118 149 189 234 290 353
#
# _framework density 19.903238999999999
#
# number of rings (size 3 to 8) (size 9 to 14) (size 15 to 20)
#    0.000    1.625    2.500    3.000    0.000    2.750 
#    0.000    3.125    0.000    1.500    0.000    0.000 
#    0.000    0.000    0.000    0.000    0.000    0.000 
#
# Total GULP energy -178658.282071 kJ/mol
# GULP energy per Si atom -5583.071315 kJ/mol
# Density = 1.985794 g / cm^3
# Si number density = 19.903239 Si / 1000 Ang^3
#
#
#
# Elastic Constant Matrix: (Units=GPa)
#
#
# Indices 1 2 3 4 5 6 
#
# 1 78.1661 16.1158 42.2940 0.0000 17.0942 0.0000
# 2 16.1158 38.5381 21.8282 0.0000 5.6536 0.0000
# 3 42.2940 21.8282 112.2777 0.0000 15.8290 0.0000
# 4 0.0000 0.0000 0.0000 12.4721 0.0000 3.7553
# 5 17.0942 5.6536 15.8290 0.0000 28.1842 0.0000
# 6 0.0000 0.0000 0.0000 3.7553 0.0000 21.1607
#
#
#
# Elastic Compliance Matrix: (Units=1/GPa)
#
#
# Indices 1 2 3 4 5 6 
#
# 1 0.017823 -0.003555 -0.004995 0.000000 -0.007292 0.000000
# 2 -0.003555 0.030087 -0.004304 0.000000 -0.001462 0.000000
# 3 -0.004995 -0.004304 0.012028 0.000000 -0.002863 0.000000
# 4 0.000000 0.000000 0.000000 0.084705 0.000000 -0.015032
# 5 -0.007292 -0.001462 -0.002863 0.000000 0.041805 0.000000
# 6 0.000000 0.000000 0.000000 -0.015032 0.000000 0.049925
#
#
# Mechanical properties :
#
#
# Convention : Reuss Voigt Hill
#
# Bulk Modulus (GPa) = 29.21263 43.27308 36.24285
# Shear Modulus (GPa) = 18.28210 22.27967 20.28088
#
# Velocity S-wave (km/s) = 3.03404 3.34937 3.19560
# Velocity P-wave (km/s) = 5.19453 6.06190 5.64490
#
# Compressibility (1/GPa) = 0.03423177
#
# Stress axis : x y z
#
# Youngs Moduli (GPa) = 56.10605 33.23670 83.13674
#
# Poissons Ratio (x) = 0.11814 0.41525
# Poissons Ratio (y) = 0.19943 0.35784
# Poissons Ratio (z) = 0.28024 0.14306
#
# Static dielectric constant tensor:
#      x y z
#    x 1.731880 0.000000 -0.011900 
#    y 0.000000 1.694740 0.000000 
#    z -0.011900 0.000000 1.709350 
# 
# From -- ./inp_files/187576.got.cif
#   From: 2010.05.17/outbox.cif.g08.bks.cpg/sg12_94_cif.got.tgz:187576.got - 2010.06.03 13:09:07.
