data_PCOD9184680
_publ_section_title
;
Structure prediction by ZEFSAII (Michael W. Deem and Ramdas Pophale) SiO2 
 PCOD9184680
Probable space group: C 2/M
;
_chemical_formula_sum "Si O2"
_cell_formula_units_Z 56
_cell_length_a 19.149542
_cell_length_b 9.455698
_cell_length_c 21.211592
_cell_angle_alpha 90.000000
_cell_angle_beta 123.453023
_cell_angle_gamma 90.000000
_cell_volume 3204.551927
_symmetry_space_group_name_H-M "C 2/M"
_symmetry_group_IT_number 12
_symmetry_cell_setting 'monoclinic'
loop_
_space_group_symop_operation_xyz
x,y,z
-x,y,-z
-x,-y,-z
x,-y,z
1/2+x,1/2+y,z
1/2-x,1/2+y,-z
1/2-x,1/2-y,-z
1/2+x,1/2-y,z
loop_
_atom_site_type_symbol
_atom_site_label
_atom_site_fract_x
_atom_site_fract_y
_atom_site_fract_z
Si Si1 0.036171 0.840481 0.332410
Si Si2 0.021747 0.668484 0.581482
Si Si3 0.345593 0.658125 0.192711
Si Si4 0.290603 0.834947 0.276756
Si Si5 0.893046 0.168327 0.766960
Si Si6 0.830200 0.335341 0.061948
Si Si7 0.001993 0.333273 0.073993
O O1 0.078266 0.784783 0.288792
O O2 0.035016 0.744836 0.394087
O O3 0.937909 0.852225 0.267476
O O4 0.068432 0.000000 0.360560
O O5 0.007997 0.500000 0.579067
O O6 0.120828 0.692298 0.644543
O O7 0.000000 0.715354 0.500000
O O8 0.317194 0.500000 0.160683
O O9 0.287278 0.730939 0.215528
O O10 0.354969 0.762139 0.139208
O O11 0.206739 0.815593 0.275215
O O12 0.292670 0.000000 0.257173
O O13 0.939891 0.248287 0.847580
O O14 0.913512 0.000000 0.781420
O O15 0.811060 0.500000 0.060987
O O16 0.907567 0.322496 0.052923
O O17 0.750000 0.250000 0.000000
O O18 0.026296 0.500000 0.086807
O O19 0.000000 0.284877 0.000000
#
# Coordination Sequence:
#
# PCOD9184680 Si02
#       7
#     8   8   8   8   8   8   8
#     4   9  18  33  54  78 104 137 175 216 265 318
#     4   9  18  34  56  81 110 143 179 218 261 315
#     4  10  19  34  54  75 102 136 178 223 265 315
#     4   9  19  34  54  80 108 140 180 219 265 318
#     4  10  20  36  56  79 107 141 180 224 270 322
#     4  11  23  37  54  76 105 138 177 223 271 320
#     4  10  23  40  55  76 107 143 180 224 276 320
#
# _framework density 17.475142999999999
#
# number of rings (size 3 to 8) (size 9 to 14) (size 15 to 20)
#    0.000    2.286    1.429    0.857    2.000    2.857 
#    0.000    0.714    0.000    0.000    0.000    0.000 
#    0.000    0.000    0.000    0.000    0.000    0.000 
#
# Total GULP energy -156025.545258 kJ/mol
# GULP energy per Si atom -5572.340902 kJ/mol
# Density = 1.743537 g / cm^3
# Si number density = 17.475143 Si / 1000 Ang^3
#
#
#
# Elastic Constant Matrix: (Units=GPa)
#
#
# Indices 1 2 3 4 5 6 
#
# 1 100.6256 51.7252 43.5113 0.0000 -28.3196 0.0000
# 2 51.7252 84.6225 52.9899 0.0000 -17.0971 0.0000
# 3 43.5113 52.9899 82.1807 0.0000 -33.9933 0.0000
# 4 0.0000 0.0000 0.0000 24.0676 0.0000 -9.7671
# 5 -28.3196 -17.0971 -33.9933 0.0000 31.6950 0.0000
# 6 0.0000 0.0000 0.0000 -9.7671 0.0000 18.8126
#
#
#
# Elastic Compliance Matrix: (Units=1/GPa)
#
#
# Indices 1 2 3 4 5 6 
#
# 1 0.017463 -0.009415 0.002118 0.000000 0.012796 0.000000
# 2 -0.009415 0.025428 -0.016566 0.000000 -0.012464 0.000000
# 3 0.002118 -0.016566 0.033818 0.000000 0.029226 0.000000
# 4 0.000000 0.000000 0.000000 0.052641 0.000000 0.027330
# 5 0.012796 -0.012464 0.029226 0.000000 0.067606 0.000000
# 6 0.000000 0.000000 0.000000 0.027330 0.000000 0.067345
#
#
# Mechanical properties :
#
#
# Convention : Reuss Voigt Hill
#
# Bulk Modulus (GPa) = 34.50461 62.65351 48.57906
# Shear Modulus (GPa) = 15.54300 22.86187 19.20243
#
# Velocity S-wave (km/s) = 2.98557 3.62090 3.31848
# Velocity P-wave (km/s) = 5.62785 7.30835 6.52245
#
# Compressibility (1/GPa) = 0.02898164
#
# Stress axis : x y z
#
# Youngs Moduli (GPa) = 57.26406 39.32740 29.57003
#
# Poissons Ratio (x) = 0.37027 -0.06262
# Poissons Ratio (y) = 0.53914 0.48986
# Poissons Ratio (z) = -0.12127 0.65150
#
# Static dielectric constant tensor:
#      x y z
#    x 1.570170 0.000000 -0.039790 
#    y 0.000000 1.596690 0.000000 
#    z -0.039790 0.000000 1.551030 
# 
# From -- ./inp_files/313783.got.cif
#   From: 2010.05.17/outbox.cif.g08.bks.cpg/sg12_157_cif.got.tgz:313783.got - 2010.06.03 13:09:07.
