data_PCOD9184810
_publ_section_title
;
Structure prediction by ZEFSAII (Michael W. Deem and Ramdas Pophale) SiO2 
 PCOD9184810
Probable space group: C 2/M
;
_chemical_formula_sum "Si O2"
_cell_formula_units_Z 36
_cell_length_a 9.472069
_cell_length_b 14.795385
_cell_length_c 9.914197
_cell_angle_alpha 90.000000
_cell_angle_beta 95.714545
_cell_angle_gamma 90.000000
_cell_volume 1382.499506
_symmetry_space_group_name_H-M "C 2/M"
_symmetry_group_IT_number 12
_symmetry_cell_setting 'monoclinic'
loop_
_space_group_symop_operation_xyz
x,y,z
-x,y,-z
-x,-y,-z
x,-y,z
1/2+x,1/2+y,z
1/2-x,1/2+y,-z
1/2-x,1/2-y,-z
1/2+x,1/2-y,z
loop_
_atom_site_type_symbol
_atom_site_label
_atom_site_fract_x
_atom_site_fract_y
_atom_site_fract_z
Si Si1 0.100038 0.641954 0.389687
Si Si2 0.143814 0.867212 0.931263
Si Si3 0.077197 0.000000 0.700027
Si Si4 0.130800 0.340128 0.832002
Si Si5 0.159907 0.145680 0.404232
O O1 0.109035 0.750912 0.409145
O O2 0.254835 0.611301 0.455197
O O3 0.000000 0.605944 0.500000
O O4 0.021451 0.627301 0.239740
O O5 0.122602 0.763228 0.882774
O O6 0.158131 0.923277 0.799267
O O7 0.279142 0.883859 0.039577
O O8 0.000000 0.892317 0.000000
O O9 0.964256 0.921735 0.638367
O O10 0.231426 0.349766 0.710861
#
# Coordination Sequence:
#
# PCOD9184810 Si02
#       5
#     8   8   4   8   8
#     4   9  18  36  57  80 108 151 189 223 269 345
#     4  11  21  33  56  83 118 144 188 229 277 324
#     4  12  21  36  54  90 113 144 176 254 272 323
#     4  10  19  34  54  84 108 155 184 221 269 347
#     4  10  20  34  59  80 119 140 187 233 280 325
#
# _framework density 26.03979
#
# number of rings (size 3 to 8) (size 9 to 14) (size 15 to 20)
#    0.000    1.778    4.444    0.333    0.000    0.000 
#    0.000    6.667    0.000    0.000    0.000   45.889 
#    0.000    0.000    0.000    0.000    0.000    0.000 
#
# Total GULP energy -100223.635456 kJ/mol
# GULP energy per Si atom -5567.979748 kJ/mol
# Density = 2.598052 g / cm^3
# Si number density = 26.039790 Si / 1000 Ang^3
#
#
#
# Elastic Constant Matrix: (Units=GPa)
#
#
# Indices 1 2 3 4 5 6 
#
# 1 123.7911 2.6277 86.3239 0.0000 37.9115 0.0000
# 2 2.6277 51.5907 15.4676 0.0000 21.4038 0.0000
# 3 86.3239 15.4676 237.0103 0.0000 67.2818 0.0000
# 4 0.0000 0.0000 0.0000 16.1034 0.0000 64.0032
# 5 37.9115 21.4038 67.2818 0.0000 91.4227 0.0000
# 6 0.0000 0.0000 0.0000 64.0032 0.0000 -36.9021
#
#
#
# Elastic Compliance Matrix: (Units=1/GPa)
#
#
# Indices 1 2 3 4 5 6 
#
# 1 0.011230 0.001485 -0.003497 0.000000 -0.002431 0.000000
# 2 0.001485 0.021665 -0.000430 0.000000 -0.005372 0.000000
# 3 -0.003497 -0.000430 0.006422 0.000000 -0.003176 0.000000
# 4 0.000000 0.000000 0.000000 0.007867 0.000000 0.013645
# 5 -0.002431 -0.005372 -0.003176 0.000000 0.015541 0.000000
# 6 0.000000 0.000000 0.000000 0.013645 0.000000 -0.003433
#
#
# Mechanical properties :
#
#
# Convention : Reuss Voigt Hill
#
# Bulk Modulus (GPa) = 29.04138 69.02562 49.03350
# Shear Modulus (GPa) = 66.09063 34.65634 50.37348
#
# Velocity S-wave (km/s) = 5.04338 3.65211 4.40305
# Velocity P-wave (km/s) = 6.71500 6.65952 6.68731
#
# Compressibility (1/GPa) = 0.03443363
#
# Stress axis : x y z
#
# Youngs Moduli (GPa) = 89.05066 46.15710 155.70382
#
# Poissons Ratio (x) = -0.06854 0.54448
# Poissons Ratio (y) = -0.13224 0.06693
# Poissons Ratio (z) = 0.31140 0.01984
#
# Static dielectric constant tensor:
#      x y z
#    x 2.105610 0.000000 -0.044630 
#    y 0.000000 2.004370 0.000000 
#    z -0.044630 0.000000 2.069330 
# 
# From -- ./inp_files/129366.got.cif
#   From: 2010.05.17/outbox.cif.g08.bks.cpg/sg12_65_cif.got.tgz:129366.got - 2010.06.03 13:09:07.
