data_PCOD9184375
_publ_section_title
;
Structure prediction by ZEFSAII (Michael W. Deem and Ramdas Pophale) SiO2 
 PCOD9184375
Probable space group: C 2/M
;
_chemical_formula_sum "Si O2"
_cell_formula_units_Z 64
_cell_length_a 15.079545
_cell_length_b 14.663718
_cell_length_c 18.195932
_cell_angle_alpha 90.000000
_cell_angle_beta 128.750126
_cell_angle_gamma 90.000000
_cell_volume 3137.878734
_symmetry_space_group_name_H-M "C 2/M"
_symmetry_group_IT_number 12
_symmetry_cell_setting 'monoclinic'
loop_
_space_group_symop_operation_xyz
x,y,z
-x,y,-z
-x,-y,-z
x,-y,z
1/2+x,1/2+y,z
1/2-x,1/2+y,-z
1/2-x,1/2-y,-z
1/2+x,1/2-y,z
loop_
_atom_site_type_symbol
_atom_site_label
_atom_site_fract_x
_atom_site_fract_y
_atom_site_fract_z
Si Si1 0.894634 0.103322 0.901409
Si Si2 0.508311 0.104497 0.592895
Si Si3 0.651894 0.275270 0.721328
Si Si4 0.963017 0.109103 0.560026
Si Si5 0.749300 0.109808 0.540496
Si Si6 0.842926 0.217410 0.729788
Si Si7 0.258545 0.397075 0.976867
Si Si8 0.105416 0.761014 0.859937
O O1 0.859170 0.152244 0.809073
O O2 0.796636 0.098671 0.911561
O O3 0.929688 0.000000 0.900222
O O4 0.000000 0.147865 0.000000
O O5 0.500000 0.107545 0.500000
O O6 0.594369 0.179579 0.666886
O O7 0.379759 0.126552 0.550872
O O8 0.538420 0.000000 0.629058
O O9 0.556770 0.352431 0.663208
O O10 0.756451 0.291202 0.719883
O O11 0.674078 0.270007 0.819179
O O12 0.838591 0.135372 0.523448
O O13 0.000000 0.146436 0.500000
O O14 0.966378 0.000000 0.559572
O O15 0.784970 0.164590 0.631944
O O16 0.757872 0.000000 0.559515
O O17 0.970872 0.246990 0.775892
O O18 0.236806 0.500000 0.990699
O O19 0.152975 0.327958 0.926200
O O20 0.360447 0.349368 0.074901
#
# Coordination Sequence:
#
# PCOD9184375 Si02
#       8
#     8   8   8   8   8   8   8   8
#     4  10  19  33  59  92 120 149 190 250 317 365
#     4  10  21  37  58  91 129 160 195 250 322 382
#     4  12  24  38  60  91 125 166 200 255 306 359
#     4  10  23  42  61  82 115 164 217 254 286 345
#     4  10  21  38  62  91 122 160 207 257 308 360
#     4  12  22  36  59  94 126 157 197 258 305 364
#     4  10  22  42  65  89 125 162 196 248 311 372
#     4  11  24  40  60  95 126 158 203 246 307 373
#
# _framework density 20.395944
#
# number of rings (size 3 to 8) (size 9 to 14) (size 15 to 20)
#    0.000    1.375    5.000    0.750    0.000    3.500 
#    0.000    0.625    0.000    0.750    0.000    0.000 
#    0.000    0.000    0.000    0.000    0.000    0.000 
#
# Total GULP energy -178700.170128 kJ/mol
# GULP energy per Si atom -5584.380316 kJ/mol
# Density = 2.034952 g / cm^3
# Si number density = 20.395944 Si / 1000 Ang^3
#
#
#
# Elastic Constant Matrix: (Units=GPa)
#
#
# Indices 1 2 3 4 5 6 
#
# 1 97.1020 6.5042 5.1886 0.0000 0.5713 0.0000
# 2 6.5042 42.0446 4.9892 0.0000 -6.2613 0.0000
# 3 5.1886 4.9892 43.1808 0.0000 -6.4615 0.0000
# 4 0.0000 0.0000 0.0000 10.9213 0.0000 8.2079
# 5 0.5713 -6.2613 -6.4615 0.0000 33.6760 0.0000
# 6 0.0000 0.0000 0.0000 8.2079 0.0000 15.3764
#
#
#
# Elastic Compliance Matrix: (Units=1/GPa)
#
#
# Indices 1 2 3 4 5 6 
#
# 1 0.010472 -0.001584 -0.001180 0.000000 -0.000699 0.000000
# 2 -0.001584 0.024908 -0.002049 0.000000 0.004265 0.000000
# 3 -0.001180 -0.002049 0.024177 0.000000 0.004278 0.000000
# 4 0.000000 0.000000 0.000000 0.152906 0.000000 -0.081621
# 5 -0.000699 0.004265 0.004278 0.000000 0.031320 0.000000
# 6 0.000000 0.000000 0.000000 -0.081621 0.000000 0.108604
#
#
# Mechanical properties :
#
#
# Convention : Reuss Voigt Hill
#
# Bulk Modulus (GPa) = 20.02799 23.96572 21.99686
# Shear Modulus (GPa) = 13.20459 23.03777 18.12118
#
# Velocity S-wave (km/s) = 2.54719 3.36449 2.98395
# Velocity P-wave (km/s) = 4.30021 5.18351 4.76238
#
# Compressibility (1/GPa) = 0.04993011
#
# Stress axis : x y z
#
# Youngs Moduli (GPa) = 95.49543 40.14844 41.36135
#
# Poissons Ratio (x) = 0.06359 0.04880
# Poissons Ratio (y) = 0.15126 0.08477
# Poissons Ratio (z) = 0.11267 0.08228
#
# Static dielectric constant tensor:
#      x y z
#    x 1.790700 0.000000 0.020620 
#    y 0.000000 1.722210 0.000000 
#    z 0.020620 0.000000 1.743950 
# 
# From -- ./inp_files/270702.got.cif
#   From: 2010.05.17/outbox.cif.g08.bks.cpg/sg12_136_cif.got.tgz:270702.got - 2010.06.03 13:09:07.
