data_PCOD9184264
_publ_section_title
;
Structure prediction by ZEFSAII (Michael W. Deem and Ramdas Pophale) SiO2 
 PCOD9184264
Probable space group: C 2/M
;
_chemical_formula_sum "Si O2"
_cell_formula_units_Z 48
_cell_length_a 20.521934
_cell_length_b 18.384822
_cell_length_c 11.510613
_cell_angle_alpha 90.000000
_cell_angle_beta 37.797083
_cell_angle_gamma 90.000000
_cell_volume 2661.596900
_symmetry_space_group_name_H-M "C 2/M"
_symmetry_group_IT_number 12
_symmetry_cell_setting 'monoclinic'
loop_
_space_group_symop_operation_xyz
x,y,z
-x,y,-z
-x,-y,-z
x,-y,z
1/2+x,1/2+y,z
1/2-x,1/2+y,-z
1/2-x,1/2-y,-z
1/2+x,1/2-y,z
loop_
_atom_site_type_symbol
_atom_site_label
_atom_site_fract_x
_atom_site_fract_y
_atom_site_fract_z
Si Si1 0.690335 0.181451 0.262298
Si Si2 0.114697 0.580014 0.779466
Si Si3 0.784547 0.413841 0.983736
Si Si4 0.465070 0.083728 0.369042
Si Si5 0.883418 0.832412 0.632136
Si Si6 0.246146 0.218700 0.376216
O O1 0.744065 0.130135 0.092640
O O2 0.597293 0.135879 0.456019
O O3 0.638725 0.253454 0.277648
O O4 0.765970 0.216603 0.255074
O O5 0.164467 0.500000 0.732950
O O6 0.094486 0.587030 0.670391
O O7 0.176476 0.650075 0.736231
O O8 0.000000 0.579058 0.000000
O O9 0.773181 0.500000 0.986016
O O10 0.910518 0.398535 0.824954
O O11 0.708434 0.385100 0.192280
O O12 0.459953 0.000000 0.418152
O O13 0.864176 0.812942 0.523110
O O14 0.000000 0.858267 0.500000
O O15 0.250000 0.250000 0.500000
#
# Coordination Sequence:
#
# PCOD9184264 Si02
#       6
#     8   8   8   8   8   8
#     4  10  21  35  58  81 121 147 194 233 291 343
#     4  10  19  34  56  85 116 150 189 237 291 346
#     4  11  22  37  59  88 117 152 196 242 296 348
#     4  10  19  33  58  87 116 146 186 242 298 347
#     4  10  22  38  59  82 115 153 196 238 283 344
#     4  10  21  38  56  86 119 153 192 232 291 352
#
# _framework density 18.034286999999999
#
# number of rings (size 3 to 8) (size 9 to 14) (size 15 to 20)
#    1.000    0.833    1.667    3.500    0.000    3.667 
#    3.000    0.000    0.000    0.000    0.000    1.167 
#    0.000    0.000    0.000    0.000    0.000    0.000 
#
# Total GULP energy -133644.420268 kJ/mol
# GULP energy per Si atom -5568.517511 kJ/mol
# Density = 1.799324 g / cm^3
# Si number density = 18.034287 Si / 1000 Ang^3
#
#
#
# Elastic Constant Matrix: (Units=GPa)
#
#
# Indices 1 2 3 4 5 6 
#
# 1 99.5094 40.4751 28.1639 0.0000 1.5433 0.0000
# 2 40.4751 111.1877 39.7353 0.0000 -5.4308 0.0000
# 3 28.1639 39.7353 50.8909 0.0000 1.7517 0.0000
# 4 0.0000 0.0000 0.0000 -5.8258 0.0000 -22.1823
# 5 1.5433 -5.4308 1.7517 0.0000 18.9021 0.0000
# 6 0.0000 0.0000 0.0000 -22.1823 0.0000 -10.8260
#
#
#
# Elastic Compliance Matrix: (Units=1/GPa)
#
#
# Indices 1 2 3 4 5 6 
#
# 1 0.012593 -0.003029 -0.004553 0.000000 -0.001477 0.000000
# 2 -0.003029 0.013597 -0.009112 0.000000 0.004998 0.000000
# 3 -0.004553 -0.009112 0.029456 0.000000 -0.004976 0.000000
# 4 0.000000 0.000000 0.000000 0.025236 0.000000 -0.051709
# 5 -0.001477 0.004998 -0.004976 0.000000 0.054922 0.000000
# 6 0.000000 0.000000 0.000000 -0.051709 0.000000 0.013581
#
#
# Mechanical properties :
#
#
# Convention : Reuss Voigt Hill
#
# Bulk Modulus (GPa) = 44.93026 53.14851 49.03938
# Shear Modulus (GPa) = 26.28917 10.66431 18.47674
#
# Velocity S-wave (km/s) = 3.82217 2.43438 3.20431
# Velocity P-wave (km/s) = 6.66682 6.11853 6.39855
#
# Compressibility (1/GPa) = 0.02225672
#
# Stress axis : x y z
#
# Youngs Moduli (GPa) = 79.40950 73.54549 33.94921
#
# Poissons Ratio (x) = 0.22277 0.15458
# Poissons Ratio (y) = 0.24054 0.30935
# Poissons Ratio (z) = 0.36157 0.67016
#
# Static dielectric constant tensor:
#      x y z
#    x 1.658690 0.000000 -0.009520 
#    y 0.000000 1.642140 0.000000 
#    z -0.009520 0.000000 1.545930 
# 
# From -- ./inp_files/169582.got.cif
#   From: 2010.05.17/outbox.cif.g08.bks.cpg/sg12_85_cif.got.tgz:169582.got - 2010.06.03 13:09:07.
