data_PCOD9184528
_publ_section_title
;
Structure prediction by ZEFSAII (Michael W. Deem and Ramdas Pophale) SiO2 
 PCOD9184528
Probable space group: C 2/M
;
_chemical_formula_sum "Si O2"
_cell_formula_units_Z 56
_cell_length_a 24.829753
_cell_length_b 7.505624
_cell_length_c 15.052035
_cell_angle_alpha 90.000000
_cell_angle_beta 71.313455
_cell_angle_gamma 90.000000
_cell_volume 2657.267845
_symmetry_space_group_name_H-M "C 2/M"
_symmetry_group_IT_number 12
_symmetry_cell_setting 'monoclinic'
loop_
_space_group_symop_operation_xyz
x,y,z
-x,y,-z
-x,-y,-z
x,-y,z
1/2+x,1/2+y,z
1/2-x,1/2+y,-z
1/2-x,1/2-y,-z
1/2+x,1/2-y,z
loop_
_atom_site_type_symbol
_atom_site_label
_atom_site_fract_x
_atom_site_fract_y
_atom_site_fract_z
Si Si1 0.927764 0.217359 0.626639
Si Si2 0.892720 0.796035 0.265688
Si Si3 0.554637 0.282351 0.585890
Si Si4 0.994148 0.715422 0.899168
Si Si5 0.633242 0.215734 0.051907
Si Si6 0.682617 0.290809 0.212807
Si Si7 0.307590 0.207549 0.158313
O O1 0.927051 0.267811 0.523120
O O2 0.872784 0.284087 0.708060
O O3 0.988917 0.274559 0.632998
O O4 0.928417 0.000000 0.629395
O O5 0.905182 0.717675 0.356248
O O6 0.846208 0.714657 0.225103
O O7 0.953380 0.789159 0.183731
O O8 0.875121 0.000000 0.286491
O O9 0.554804 0.500000 0.589176
O O10 0.997550 0.500000 0.891385
O O11 0.931916 0.775302 0.900664
O O12 0.000000 0.761551 0.000000
O O13 0.671662 0.272778 0.113738
O O14 0.631277 0.000000 0.051036
O O15 0.658058 0.280950 0.944724
O O16 0.683266 0.500000 0.236301
O O17 0.744572 0.214595 0.202689
O O18 0.298737 0.000000 0.140859
#
# Coordination Sequence:
#
# PCOD9184528 Si02
#       7
#     8   8   8   8   8   8   8
#     4   8  14  29  51  75 101 128 159 203 258 309
#     4  11  21  32  51  79 104 130 170 218 251 285
#     4   8  15  28  49  76 105 129 154 201 265 310
#     4  10  19  34  52  70 101 140 166 193 247 314
#     4  10  20  34  52  71  99 138 169 200 255 312
#     4  10  20  33  54  77  97 128 177 222 246 287
#     4  10  21  37  50  67 102 144 174 201 251 313
#
# _framework density 21.074279000000001
#
# number of rings (size 3 to 8) (size 9 to 14) (size 15 to 20)
#    0.000    2.429    1.429    2.571    0.000    3.143 
#    0.000    0.714    0.000    1.714    0.000    7.000 
#    0.000    0.000    0.000    0.000    0.000    0.000 
#
# Total GULP energy -156343.839957 kJ/mol
# GULP energy per Si atom -5583.708570 kJ/mol
# Density = 2.102631 g / cm^3
# Si number density = 21.074279 Si / 1000 Ang^3
#
#
#
# Elastic Constant Matrix: (Units=GPa)
#
#
# Indices 1 2 3 4 5 6 
#
# 1 156.0123 -4.7332 60.3611 0.0000 5.9981 0.0000
# 2 -4.7332 50.1325 -6.6667 0.0000 -8.9091 0.0000
# 3 60.3611 -6.6667 75.8015 0.0000 14.5556 0.0000
# 4 0.0000 0.0000 0.0000 36.0189 0.0000 34.5481
# 5 5.9981 -8.9091 14.5556 0.0000 24.4889 0.0000
# 6 0.0000 0.0000 0.0000 34.5481 0.0000 29.6392
#
#
#
# Elastic Compliance Matrix: (Units=1/GPa)
#
#
# Indices 1 2 3 4 5 6 
#
# 1 0.009393 0.000279 -0.007939 0.000000 0.002520 0.000000
# 2 0.000279 0.021347 0.000200 0.000000 0.007579 0.000000
# 3 -0.007939 0.000200 0.021611 0.000000 -0.010828 0.000000
# 4 0.000000 0.000000 0.000000 -0.235235 0.000000 0.274195
# 5 0.002520 0.007579 -0.010828 0.000000 0.049411 0.000000
# 6 0.000000 0.000000 0.000000 0.274195 0.000000 -0.285869
#
#
# Mechanical properties :
#
#
# Convention : Reuss Voigt Hill
#
# Bulk Modulus (GPa) = 26.71594 42.20761 34.46178
# Shear Modulus (GPa) = -12.75688 33.56174 10.40243
#
# Velocity S-wave (km/s) = -2.46301 3.99500 2.22414
# Velocity P-wave (km/s) = 2.14848 6.43052 4.79414
#
# Compressibility (1/GPa) = 0.03743083
#
# Stress axis : x y z
#
# Youngs Moduli (GPa) = 106.46345 46.84522 46.27292
#
# Poissons Ratio (x) = -0.01306 0.36736
# Poissons Ratio (y) = -0.02969 -0.00926
# Poissons Ratio (z) = 0.84520 -0.00937
#
# Static dielectric constant tensor:
#      x y z
#    x 1.745160 0.000000 -0.007470 
#    y 0.000000 1.801830 0.000000 
#    z -0.007470 0.000000 1.739250 
# 
# From -- ./inp_files/237405.got.cif
#   From: 2010.05.17/outbox.cif.g08.bks.cpg/sg12_119_cif.got.tgz:237405.got - 2010.06.03 13:09:07.
