data_PCOD9184202
_publ_section_title
;
Structure prediction by ZEFSAII (Michael W. Deem and Ramdas Pophale) SiO2 
 PCOD9184202
Probable space group: C 2/M
;
_chemical_formula_sum "Si O2"
_cell_formula_units_Z 48
_cell_length_a 19.263356
_cell_length_b 14.488376
_cell_length_c 12.505056
_cell_angle_alpha 90.000000
_cell_angle_beta 132.418245
_cell_angle_gamma 90.000000
_cell_volume 2576.530067
_symmetry_space_group_name_H-M "C 2/M"
_symmetry_group_IT_number 12
_symmetry_cell_setting 'monoclinic'
loop_
_space_group_symop_operation_xyz
x,y,z
-x,y,-z
-x,-y,-z
x,-y,z
1/2+x,1/2+y,z
1/2-x,1/2+y,-z
1/2-x,1/2-y,-z
1/2+x,1/2-y,z
loop_
_atom_site_type_symbol
_atom_site_label
_atom_site_fract_x
_atom_site_fract_y
_atom_site_fract_z
Si Si1 0.727408 0.243542 0.806132
Si Si2 0.305474 0.730342 0.667057
Si Si3 0.449288 0.106075 0.832377
Si Si4 0.550903 0.393568 0.294148
Si Si5 0.594794 0.228673 0.857768
Si Si6 0.896872 0.105357 0.413287
O O1 0.743596 0.202044 0.705191
O O2 0.651205 0.201397 0.808876
O O3 0.683972 0.342841 0.732165
O O4 0.825411 0.252979 0.970076
O O5 0.250000 0.750000 0.500000
O O6 0.360855 0.825462 0.748680
O O7 0.382983 0.651603 0.726326
O O8 0.521271 0.152376 0.822612
O O9 0.425340 0.000000 0.780806
O O10 0.500000 0.106548 0.000000
O O11 0.524283 0.500000 0.246854
O O12 0.463300 0.324069 0.216552
O O13 0.610531 0.392049 0.466533
O O14 0.000000 0.147829 0.500000
O O15 0.900414 0.000000 0.379988
#
# Coordination Sequence:
#
# PCOD9184202 Si02
#       6
#     8   8   8   8   8   8
#     4  11  21  36  56  87 119 152 188 235 293 339
#     4  11  22  37  59  89 120 151 191 239 289 346
#     4  10  21  40  63  85 113 151 199 246 287 334
#     4  10  21  38  60  86 116 154 193 237 287 340
#     4  10  22  38  58  86 121 152 190 236 291 353
#     4  10  19  33  57  90 116 143 194 247 292 330
#
# _framework density 18.629707
#
# number of rings (size 3 to 8) (size 9 to 14) (size 15 to 20)
#    0.000    1.667    5.000    0.000    0.000    2.000 
#    0.000    5.000    0.000    1.000    0.000    0.000 
#    0.000    0.000    0.000    0.000    0.000    0.000 
#
# Total GULP energy -133807.119123 kJ/mol
# GULP energy per Si atom -5575.296630 kJ/mol
# Density = 1.858731 g / cm^3
# Si number density = 18.629707 Si / 1000 Ang^3
#
#
#
# Elastic Constant Matrix: (Units=GPa)
#
#
# Indices 1 2 3 4 5 6 
#
# 1 118.8459 20.8695 13.9430 0.0000 -26.2835 0.0000
# 2 20.8695 90.4371 21.2739 0.0000 -0.4621 0.0000
# 3 13.9430 21.2739 81.3749 0.0000 -2.9920 0.0000
# 4 0.0000 0.0000 0.0000 25.8944 0.0000 -0.2859
# 5 -26.2835 -0.4621 -2.9920 0.0000 30.0397 0.0000
# 6 0.0000 0.0000 0.0000 -0.2859 0.0000 10.6581
#
#
#
# Elastic Compliance Matrix: (Units=1/GPa)
#
#
# Indices 1 2 3 4 5 6 
#
# 1 0.011030 -0.002274 -0.000945 0.000000 0.009522 0.000000
# 2 -0.002274 0.012251 -0.002890 0.000000 -0.002089 0.000000
# 3 -0.000945 -0.002890 0.013223 0.000000 0.000445 0.000000
# 4 0.000000 0.000000 0.000000 0.038630 0.000000 0.001036
# 5 0.009522 -0.002089 0.000445 0.000000 0.041633 0.000000
# 6 0.000000 0.000000 0.000000 0.001036 0.000000 0.093853
#
#
# Mechanical properties :
#
#
# Convention : Reuss Voigt Hill
#
# Bulk Modulus (GPa) = 41.17746 44.75895 42.96820
# Shear Modulus (GPa) = 21.65112 28.95654 25.30383
#
# Velocity S-wave (km/s) = 3.41278 3.94676 3.68944
# Velocity P-wave (km/s) = 6.13844 6.69679 6.42369
#
# Compressibility (1/GPa) = 0.02428513
#
# Stress axis : x y z
#
# Youngs Moduli (GPa) = 90.65857 81.62332 75.62758
#
# Poissons Ratio (x) = 0.18564 0.07149
# Poissons Ratio (y) = 0.20619 0.21856
# Poissons Ratio (z) = 0.08570 0.23589
#
# Static dielectric constant tensor:
#      x y z
#    x 1.717160 0.000000 -0.012570 
#    y 0.000000 1.623870 0.000000 
#    z -0.012570 0.000000 1.650300 
# 
# From -- ./inp_files/166861.got.cif
#   From: 2010.05.17/outbox.cif.g08.bks.cpg/sg12_84_cif.got.tgz:166861.got - 2010.06.03 13:09:07.
