data_PCOD9184623
_publ_section_title
;
Structure prediction by ZEFSAII (Michael W. Deem and Ramdas Pophale) SiO2 
 PCOD9184623
Probable space group: C 2/M
;
_chemical_formula_sum "Si O2"
_cell_formula_units_Z 48
_cell_length_a 14.352254
_cell_length_b 13.465398
_cell_length_c 22.709899
_cell_angle_alpha 90.000000
_cell_angle_beta 31.026256
_cell_angle_gamma 90.000000
_cell_volume 2262.168200
_symmetry_space_group_name_H-M "C 2/M"
_symmetry_group_IT_number 12
_symmetry_cell_setting 'monoclinic'
loop_
_space_group_symop_operation_xyz
x,y,z
-x,y,-z
-x,-y,-z
x,-y,z
1/2+x,1/2+y,z
1/2-x,1/2+y,-z
1/2-x,1/2-y,-z
1/2+x,1/2-y,z
loop_
_atom_site_type_symbol
_atom_site_label
_atom_site_fract_x
_atom_site_fract_y
_atom_site_fract_z
Si Si1 0.584154 0.679038 0.529026
Si Si2 0.702814 0.112325 0.231572
Si Si3 0.064122 0.116789 0.106010
Si Si4 0.156833 0.285905 0.135491
Si Si5 0.321996 0.111506 0.505588
Si Si6 0.778485 0.389076 0.312936
O O1 0.646975 0.788926 0.473889
O O2 0.660046 0.644234 0.550406
O O3 0.369198 0.669989 0.644937
O O4 0.680689 0.608938 0.429511
O O5 0.700802 0.189870 0.179240
O O6 0.505144 0.110513 0.367599
O O7 0.856855 0.129254 0.196979
O O8 0.736030 0.000000 0.189077
O O9 0.116308 0.173351 0.137775
O O10 0.101637 0.000000 0.089048
O O11 0.183672 0.168878 0.990657
O O12 0.972984 0.342246 0.216752
O O13 0.297911 0.000000 0.543602
O O14 0.796043 0.500000 0.279966
#
# Coordination Sequence:
#
# PCOD9184623 Si02
#       6
#     8   8   8   8   8   8
#     4  10  20  32  52  78 107 137 176 221 269 316
#     4  10  19  35  60  84 107 141 186 229 269 320
#     4  10  22  38  57  84 114 142 178 230 282 325
#     4  11  21  35  60  84 108 143 187 225 270 329
#     4  10  19  34  53  76 107 141 177 221 267 319
#     4  11  20  34  54  78 104 137 180 224 267 316
#
# _framework density 21.218582000000001
#
# number of rings (size 3 to 8) (size 9 to 14) (size 15 to 20)
#    0.000    1.667    1.667    5.000    0.000    1.333 
#    0.000    2.500    0.000   10.000    0.000    0.000 
#    0.000    0.000    0.000    0.000    0.000    0.000 
#
# Total GULP energy -133969.711024 kJ/mol
# GULP energy per Si atom -5582.071293 kJ/mol
# Density = 2.117029 g / cm^3
# Si number density = 21.218582 Si / 1000 Ang^3
#
#
#
# Elastic Constant Matrix: (Units=GPa)
#
#
# Indices 1 2 3 4 5 6 
#
# 1 53.8485 32.1401 -7.7203 -0.0001 -8.4830 0.0001
# 2 32.1401 142.0791 -1.8944 -0.0013 -12.9120 -0.0001
# 3 -7.7203 -1.8944 22.2275 -0.0088 -7.8361 0.0016
# 4 -0.0001 -0.0013 -0.0088 31.3514 0.0009 -7.0570
# 5 -8.4830 -12.9120 -7.8361 0.0009 18.6312 -0.0005
# 6 0.0001 -0.0001 0.0016 -7.0570 -0.0005 35.2136
#
#
#
# Elastic Compliance Matrix: (Units=1/GPa)
#
#
# Indices 1 2 3 4 5 6 
#
# 1 0.025267 -0.004246 0.013423 0.000003 0.014208 0.000000
# 2 -0.004246 0.008388 0.000714 0.000000 0.004180 0.000000
# 3 0.013423 0.000714 0.061101 0.000017 0.032305 0.000001
# 4 0.000003 0.000000 0.000017 0.033403 0.000007 0.006694
# 5 0.014208 0.004180 0.032305 0.000007 0.076627 0.000001
# 6 0.000000 0.000000 0.000001 0.006694 0.000001 0.029740
#
#
# Mechanical properties :
#
#
# Convention : Reuss Voigt Hill
#
# Bulk Modulus (GPa) = 8.73057 29.24511 18.98784
# Shear Modulus (GPa) = 19.76882 30.08122 24.92502
#
# Velocity S-wave (km/s) = 3.05565 3.76930 3.43108
# Velocity P-wave (km/s) = 4.07097 5.72330 4.96634
#
# Compressibility (1/GPa) = 0.11454009
#
# Stress axis : x y z
#
# Youngs Moduli (GPa) = 39.57661 119.21522 16.36626
#
# Poissons Ratio (x) = 0.50615 -0.21969
# Poissons Ratio (y) = 0.16803 -0.01169
# Poissons Ratio (z) = -0.53125 -0.08512
#
# Static dielectric constant tensor:
#      x y z
#    x 1.777560 0.000000 -0.000790 
#    y 0.000000 1.829200 0.000000 
#    z -0.000790 0.000000 1.747180 
# 
# From -- ./inp_files/143159.got.cif
#   From: 2010.05.17/outbox.cif.g08.bks.cpg/sg12_72_cif.got.tgz:143159.got - 2010.06.03 13:09:07.
