data_PCOD9184700
_publ_section_title
;
Structure prediction by ZEFSAII (Michael W. Deem and Ramdas Pophale) SiO2 
 PCOD9184700
Probable space group: C 2/M
;
_chemical_formula_sum "Si O2"
_cell_formula_units_Z 56
_cell_length_a 31.184042
_cell_length_b 7.731215
_cell_length_c 12.352892
_cell_angle_alpha 90.000000
_cell_angle_beta 116.828273
_cell_angle_gamma 90.000000
_cell_volume 2657.605198
_symmetry_space_group_name_H-M "C 2/M"
_symmetry_group_IT_number 12
_symmetry_cell_setting 'monoclinic'
loop_
_space_group_symop_operation_xyz
x,y,z
-x,y,-z
-x,-y,-z
x,-y,z
1/2+x,1/2+y,z
1/2-x,1/2+y,-z
1/2-x,1/2-y,-z
1/2+x,1/2-y,z
loop_
_atom_site_type_symbol
_atom_site_label
_atom_site_fract_x
_atom_site_fract_y
_atom_site_fract_z
Si Si1 0.916121 0.794857 0.716538
Si Si2 0.974918 0.702048 0.183021
Si Si3 0.550159 0.211227 0.611913
Si Si4 0.900254 0.799228 0.936589
Si Si5 0.181803 0.210463 0.996361
Si Si6 0.862992 0.709493 0.442770
Si Si7 0.215096 0.704235 0.803288
O O1 0.901563 0.723539 0.817813
O O2 0.877070 0.762227 0.579398
O O3 0.967883 0.720352 0.742020
O O4 0.923453 0.000000 0.734859
O O5 0.963727 0.500000 0.160796
O O6 0.950497 0.771632 0.264873
O O7 0.952231 0.788370 0.051870
O O8 0.500000 0.262935 0.500000
O O9 0.594224 0.268572 0.588427
O O10 0.550762 0.000000 0.615194
O O11 0.886688 0.000000 0.908453
O O12 0.862015 0.727206 0.979355
O O13 0.182399 0.272039 0.873120
O O14 0.181738 0.000000 0.991978
O O15 0.232244 0.272685 0.106423
O O16 0.862708 0.500000 0.439903
O O17 0.813373 0.772977 0.333080
O O18 0.221634 0.500000 0.793653
#
# Coordination Sequence:
#
# PCOD9184700 Si02
#       7
#     8   8   8   8   8   8   8
#     4  11  23  37  51  71 105 145 180 214 257 310
#     4  11  21  35  57  80 102 134 177 221 263 309
#     4   9  16  29  49  73 102 130 157 201 259 307
#     4  10  22  38  53  72 105 144 177 214 260 310
#     4   9  18  35  57  80 107 138 173 212 260 318
#     4  10  19  34  54  76 105 138 173 213 261 312
#     4   9  18  33  57  85 108 133 168 217 270 312
#
# _framework density 21.071604000000001
#
# number of rings (size 3 to 8) (size 9 to 14) (size 15 to 20)
#    0.000    2.143    1.429    2.143    0.000    5.143 
#    0.000    2.857    0.000    0.000    0.000    0.000 
#    0.000    0.000    0.000    0.000    0.000    0.000 
#
# Total GULP energy -156359.983218 kJ/mol
# GULP energy per Si atom -5584.285115 kJ/mol
# Density = 2.102364 g / cm^3
# Si number density = 21.071604 Si / 1000 Ang^3
#
#
#
# Elastic Constant Matrix: (Units=GPa)
#
#
# Indices 1 2 3 4 5 6 
#
# 1 28.2844 -2.3462 24.2624 0.0000 -4.0242 0.0000
# 2 -2.3462 30.1940 -10.2107 0.0000 -0.1008 0.0000
# 3 24.2624 -10.2107 158.9633 0.0000 -5.7327 0.0000
# 4 0.0000 0.0000 0.0000 28.5430 0.0000 9.8067
# 5 -4.0242 -0.1008 -5.7327 0.0000 26.8086 0.0000
# 6 0.0000 0.0000 0.0000 9.8067 0.0000 25.7673
#
#
#
# Elastic Compliance Matrix: (Units=1/GPa)
#
#
# Indices 1 2 3 4 5 6 
#
# 1 0.041349 0.001181 -0.006058 0.000000 0.004916 0.000000
# 2 0.001181 0.033898 0.002024 0.000000 0.000737 0.000000
# 3 -0.006058 0.002024 0.007370 0.000000 0.000674 0.000000
# 4 0.000000 0.000000 0.000000 0.040305 0.000000 -0.015340
# 5 0.004916 0.000737 0.000674 0.000000 0.038186 0.000000
# 6 0.000000 0.000000 0.000000 -0.015340 0.000000 0.044647
#
#
# Mechanical properties :
#
#
# Convention : Reuss Voigt Hill
#
# Bulk Modulus (GPa) = 13.00229 26.76141 19.88185
# Shear Modulus (GPa) = 21.08831 29.93952 25.51392
#
# Velocity S-wave (km/s) = 3.16696 3.77350 3.48346
# Velocity P-wave (km/s) = 4.42231 5.63148 5.06312
#
# Compressibility (1/GPa) = 0.07690955
#
# Stress axis : x y z
#
# Youngs Moduli (GPa) = 24.18437 29.50050 135.69113
#
# Poissons Ratio (x) = -0.03483 0.82201
# Poissons Ratio (y) = -0.02856 -0.27460
# Poissons Ratio (z) = 0.14651 -0.05970
#
# Static dielectric constant tensor:
#      x y z
#    x 1.753870 0.000000 0.000330 
#    y 0.000000 1.774460 0.000000 
#    z 0.000330 0.000000 1.763390 
# 
# From -- ./inp_files/186455.got.cif
#   From: 2010.05.17/outbox.cif.g08.bks.cpg/sg12_94_cif.got.tgz:186455.got - 2010.06.03 13:09:07.
