data_PCOD9184120
_publ_section_title
;
Structure prediction by ZEFSAII (Michael W. Deem and Ramdas Pophale) SiO2 
 PCOD9184120
Probable space group: C 2/M
;
_chemical_formula_sum "Si O2"
_cell_formula_units_Z 64
_cell_length_a 30.764785
_cell_length_b 8.414605
_cell_length_c 17.934315
_cell_angle_alpha 90.000000
_cell_angle_beta 139.861193
_cell_angle_gamma 90.000000
_cell_volume 2992.889759
_symmetry_space_group_name_H-M "C 2/M"
_symmetry_group_IT_number 12
_symmetry_cell_setting 'monoclinic'
loop_
_space_group_symop_operation_xyz
x,y,z
-x,y,-z
-x,-y,-z
x,-y,z
1/2+x,1/2+y,z
1/2-x,1/2+y,-z
1/2-x,1/2-y,-z
1/2+x,1/2-y,z
loop_
_atom_site_type_symbol
_atom_site_label
_atom_site_fract_x
_atom_site_fract_y
_atom_site_fract_z
Si Si1 0.171366 0.308421 0.715100
Si Si2 0.212240 0.307803 0.524467
Si Si3 0.291589 0.308618 0.776359
Si Si4 0.825167 0.309906 0.112951
Si Si5 0.038245 0.191549 0.474859
Si Si6 0.457809 0.310390 0.222623
Si Si7 0.423985 0.808730 0.885644
Si Si8 0.925551 0.691428 0.719247
O O1 0.170122 0.500000 0.713359
O O2 0.245523 0.257032 0.785304
O O3 0.155841 0.252460 0.778407
O O4 0.114383 0.250771 0.583563
O O5 0.212369 0.500000 0.525429
O O6 0.250000 0.250000 0.500000
O O7 0.251147 0.253587 0.649211
O O8 0.134465 0.254939 0.414358
O O9 0.292933 0.500000 0.777955
O O10 0.367582 0.250084 0.868561
O O11 0.825257 0.500000 0.112696
O O12 0.881707 0.249914 0.130167
O O13 0.750000 0.250000 0.000000
O O14 0.000000 0.244655 0.500000
O O15 0.998780 0.248249 0.349922
O O16 0.038290 0.000000 0.473678
O O17 0.456586 0.500000 0.221982
O O18 0.502120 0.253422 0.211393
O O19 0.406806 0.758114 0.778527
O O20 0.423765 0.000000 0.887690
O O21 0.500000 0.753712 0.000000
O O22 0.927941 0.500000 0.721492
#
# Coordination Sequence:
#
# PCOD9184120 Si02
#       8
#     8   8   8   8   8   8   8   8
#     4  10  22  39  61  89 119 153 194 238 289 350
#     4  10  19  33  57  85 116 150 186 230 283 344
#     4  10  21  37  58  86 117 148 187 236 288 343
#     4  11  24  42  63  86 116 156 200 246 293 344
#     4  10  20  36  59  88 122 154 189 236 291 348
#     4  11  23  39  61  89 120 154 195 242 291 350
#     4  10  22  40  60  83 112 150 197 241 286 343
#     4  10  21  38  59  85 118 152 190 240 291 346
#
# _framework density 21.384015999999999
#
# number of rings (size 3 to 8) (size 9 to 14) (size 15 to 20)
#    0.000    1.750    2.500    1.500    0.000    5.500 
#    0.000    2.500    0.000    0.000    0.000    0.000 
#    0.000    0.000    0.000    0.000    0.000    0.000 
#
# Total GULP energy -178829.848600 kJ/mol
# GULP energy per Si atom -5588.432769 kJ/mol
# Density = 2.133534 g / cm^3
# Si number density = 21.384016 Si / 1000 Ang^3
#
#
#
# Elastic Constant Matrix: (Units=GPa)
#
#
# Indices 1 2 3 4 5 6 
#
# 1 109.1186 7.4079 0.6085 0.0000 40.4620 0.0000
# 2 7.4079 5.4054 3.0701 0.0000 4.3548 0.0000
# 3 0.6085 3.0701 55.0436 0.0000 33.4386 0.0000
# 4 0.0000 0.0000 0.0000 23.1319 0.0000 10.4147
# 5 40.4620 4.3548 33.4386 0.0000 40.3764 0.0000
# 6 0.0000 0.0000 0.0000 10.4147 0.0000 25.5286
#
#
#
# Elastic Compliance Matrix: (Units=1/GPa)
#
#
# Indices 1 2 3 4 5 6 
#
# 1 0.035938 -0.017502 0.042887 0.000000 -0.069645 0.000000
# 2 -0.017502 0.211563 -0.016903 0.000000 0.008719 0.000000
# 3 0.042887 -0.016903 0.087821 0.000000 -0.113886 0.000000
# 4 0.000000 0.000000 0.000000 0.052957 0.000000 -0.021605
# 5 -0.069645 0.008719 -0.113886 0.000000 0.187936 0.000000
# 6 0.000000 0.000000 0.000000 -0.021605 0.000000 0.047986
#
#
# Mechanical properties :
#
#
# Convention : Reuss Voigt Hill
#
# Bulk Modulus (GPa) = 2.83860 21.30452 12.07156
# Shear Modulus (GPa) = 6.89974 28.37279 17.63627
#
# Velocity S-wave (km/s) = 1.79822 3.64651 2.87495
# Velocity P-wave (km/s) = 2.37524 5.26439 4.08385
#
# Compressibility (1/GPa) = 0.35228629
#
# Stress axis : x y z
#
# Youngs Moduli (GPa) = 27.82560 4.72673 11.38683
#
# Poissons Ratio (x) = 0.08273 -0.48835
# Poissons Ratio (y) = 0.48700 0.19248
# Poissons Ratio (z) = -1.19337 0.07990
#
# Static dielectric constant tensor:
#      x y z
#    x 1.770000 0.000000 -0.007830 
#    y 0.000000 1.724560 0.000000 
#    z -0.007830 0.000000 1.793620 
# 
# From -- ./inp_files/295781.got.cif
#   From: 2010.05.17/outbox.cif.g08.bks.cpg/sg12_148_cif.got.tgz:295781.got - 2010.06.03 13:09:07.
