data_PCOD9184592
_publ_section_title
;
Structure prediction by ZEFSAII (Michael W. Deem and Ramdas Pophale) SiO2 
 PCOD9184592
Probable space group: C 2/M
;
_chemical_formula_sum "Si O2"
_cell_formula_units_Z 44
_cell_length_a 25.028905
_cell_length_b 17.640004
_cell_length_c 6.366638
_cell_angle_alpha 90.000000
_cell_angle_beta 62.087291
_cell_angle_gamma 90.000000
_cell_volume 2483.915256
_symmetry_space_group_name_H-M "C 2/M"
_symmetry_group_IT_number 12
_symmetry_cell_setting 'monoclinic'
loop_
_space_group_symop_operation_xyz
x,y,z
-x,y,-z
-x,-y,-z
x,-y,z
1/2+x,1/2+y,z
1/2-x,1/2+y,-z
1/2-x,1/2-y,-z
1/2+x,1/2-y,z
loop_
_atom_site_type_symbol
_atom_site_label
_atom_site_fract_x
_atom_site_fract_y
_atom_site_fract_z
Si Si1 0.901950 0.587726 0.859632
Si Si2 0.177533 0.800002 0.204347
Si Si3 0.500000 0.146741 0.000000
Si Si4 0.267422 0.911708 0.284724
Si Si5 0.560307 0.224651 0.510773
Si Si6 0.753267 0.187969 0.309231
O O1 0.902272 0.500000 0.786431
O O2 0.915968 0.649140 0.654294
O O3 0.955204 0.599158 0.933250
O O4 0.835995 0.604022 0.081887
O O5 0.217856 0.863549 0.245831
O O6 0.109419 0.790790 0.403984
O O7 0.205904 0.719178 0.226274
O O8 0.185797 0.810968 0.939607
O O9 0.457811 0.198826 0.224090
O O10 0.261449 0.888188 0.540624
O O11 0.256179 0.000000 0.276000
O O12 0.500000 0.247925 0.500000
O O13 0.750000 0.250000 0.500000
#
# Coordination Sequence:
#
# PCOD9184592 Si02
#       6
#     8   8   4   8   8   8
#     4  10  20  33  48  72 106 138 169 203 242 295
#     4  10  19  34  53  73 102 133 165 212 260 297
#     4  10  21  34  50  70  99 138 174 206 247 292
#     4  10  21  34  52  79 106 134 169 206 251 306
#     4  10  21  34  50  74  99 132 176 212 246 295
#     4   9  17  30  52  75  98 130 165 204 253 302
#
# _framework density 17.713968999999999
#
# number of rings (size 3 to 8) (size 9 to 14) (size 15 to 20)
#    0.000    2.182    0.000    4.636    0.000    9.091 
#    0.000    4.545    0.000    0.545    0.000    1.909 
#    0.000    0.000    0.000    0.000    0.000    0.000 
#
# Total GULP energy -122608.219372 kJ/mol
# GULP energy per Si atom -5573.100881 kJ/mol
# Density = 1.767365 g / cm^3
# Si number density = 17.713969 Si / 1000 Ang^3
#
#
#
# Elastic Constant Matrix: (Units=GPa)
#
#
# Indices 1 2 3 4 5 6 
#
# 1 65.9899 45.0342 38.6015 0.0000 -20.7599 0.0000
# 2 45.0342 72.4422 45.6018 0.0000 -11.5931 0.0000
# 3 38.6015 45.6018 132.5132 0.0000 -7.6467 0.0000
# 4 0.0000 0.0000 0.0000 27.2175 0.0000 -5.8078
# 5 -20.7599 -11.5931 -7.6467 0.0000 29.8491 0.0000
# 6 0.0000 0.0000 0.0000 -5.8078 0.0000 21.1045
#
#
#
# Elastic Compliance Matrix: (Units=1/GPa)
#
#
# Indices 1 2 3 4 5 6 
#
# 1 0.032838 -0.015868 -0.003190 0.000000 0.015858 0.000000
# 2 -0.015868 0.026180 -0.004504 0.000000 -0.002022 0.000000
# 3 -0.003190 -0.004504 0.009944 0.000000 -0.001420 0.000000
# 4 0.000000 0.000000 0.000000 0.039033 0.000000 0.010742
# 5 0.015858 -0.002022 -0.001420 0.000000 0.043382 0.000000
# 6 0.000000 0.000000 0.000000 0.010742 0.000000 0.050339
#
#
# Mechanical properties :
#
#
# Convention : Reuss Voigt Hill
#
# Bulk Modulus (GPa) = 45.79131 58.82449 52.30790
# Shear Modulus (GPa) = 19.52226 25.08140 22.30183
#
# Velocity S-wave (km/s) = 3.32337 3.76694 3.55208
# Velocity P-wave (km/s) = 6.37439 7.22495 6.81295
#
# Compressibility (1/GPa) = 0.02183820
#
# Stress axis : x y z
#
# Youngs Moduli (GPa) = 30.45288 38.19728 100.56782
#
# Poissons Ratio (x) = 0.60611 0.32081
# Poissons Ratio (y) = 0.48322 0.45292
# Poissons Ratio (z) = 0.09714 0.17203
#
# Static dielectric constant tensor:
#      x y z
#    x 1.638600 0.000000 -0.012110 
#    y 0.000000 1.605040 0.000000 
#    z -0.012110 0.000000 1.677650 
# 
# From -- ./inp_files/28679.got.cif
#   From: 2010.05.17/outbox.cif.g08.bks.cpg/sg12_15_cif.got.tgz:28679.got - 2010.06.03 13:09:07.
