data_PCOD9184055
_publ_section_title
;
Structure prediction by ZEFSAII (Michael W. Deem and Ramdas Pophale) SiO2 
 PCOD9184055
Probable space group: C 2/M
;
_chemical_formula_sum "Si O2"
_cell_formula_units_Z 48
_cell_length_a 30.673632
_cell_length_b 8.665615
_cell_length_c 19.922247
_cell_angle_alpha 90.000000
_cell_angle_beta 148.869438
_cell_angle_gamma 90.000000
_cell_volume 2737.694929
_symmetry_space_group_name_H-M "C 2/M"
_symmetry_group_IT_number 12
_symmetry_cell_setting 'monoclinic'
loop_
_space_group_symop_operation_xyz
x,y,z
-x,y,-z
-x,-y,-z
x,-y,z
1/2+x,1/2+y,z
1/2-x,1/2+y,-z
1/2-x,1/2-y,-z
1/2+x,1/2-y,z
loop_
_atom_site_type_symbol
_atom_site_label
_atom_site_fract_x
_atom_site_fract_y
_atom_site_fract_z
Si Si1 0.283413 0.316161 0.613365
Si Si2 0.596008 0.187668 0.621586
Si Si3 0.725167 0.813222 0.679672
Si Si4 0.862371 0.684977 0.961739
Si Si5 0.756132 0.685104 0.082752
Si Si6 0.967523 0.685659 0.882691
O O1 0.279097 0.500000 0.604903
O O2 0.250000 0.250000 0.500000
O O3 0.230134 0.265438 0.608825
O O4 0.379231 0.264093 0.751356
O O5 0.500000 0.243558 0.500000
O O6 0.642715 0.231686 0.613806
O O7 0.658857 0.234894 0.764888
O O8 0.593533 0.000000 0.619882
O O9 0.804338 0.742929 0.823815
O O10 0.731785 0.000000 0.691710
O O11 0.857256 0.500000 0.958730
O O12 0.821720 0.757289 0.974501
O O13 0.958479 0.727803 0.071835
O O14 0.755985 0.500000 0.080793
O O15 0.750000 0.750000 0.000000
O O16 0.956549 0.500000 0.866323
O O17 0.000000 0.725962 0.000000
#
# Coordination Sequence:
#
# PCOD9184055 Si02
#       6
#     8   8   8   8   8   8
#     4  11  23  37  54  78 113 149 183 226 279 331
#     4   8  15  31  55  78  99 130 176 220 258 311
#     4   9  18  33  54  79 105 139 180 224 270 324
#     4  10  19  33  57  83 107 140 181 225 275 327
#     4  10  20  35  55  80 112 142 178 223 273 327
#     4  10  20  36  58  83 108 139 185 232 273 331
#
# _framework density 17.532997000000002
#
# number of rings (size 3 to 8) (size 9 to 14) (size 15 to 20)
#    0.000    2.333    1.667    2.500    0.000    2.333 
#    3.000    0.000    0.000   12.500    0.000    0.000 
#    0.000    0.000    0.000    0.000    0.000    0.000 
#
# Total GULP energy -133863.234422 kJ/mol
# GULP energy per Si atom -5577.634768 kJ/mol
# Density = 1.749309 g / cm^3
# Si number density = 17.532997 Si / 1000 Ang^3
#
#
#
# Elastic Constant Matrix: (Units=GPa)
#
#
# Indices 1 2 3 4 5 6 
#
# 1 185.4770 43.1736 99.7416 0.0000 -8.2995 0.0000
# 2 43.1736 27.8886 28.4313 0.0000 -1.7261 0.0000
# 3 99.7416 28.4313 108.8755 0.0000 3.9804 0.0000
# 4 0.0000 0.0000 0.0000 26.8549 0.0000 -3.1249
# 5 -8.2995 -1.7261 3.9804 0.0000 32.8671 0.0000
# 6 0.0000 0.0000 0.0000 -3.1249 0.0000 27.3548
#
#
#
# Elastic Compliance Matrix: (Units=1/GPa)
#
#
# Indices 1 2 3 4 5 6 
#
# 1 0.013004 -0.010360 -0.009349 0.000000 0.003872 0.000000
# 2 -0.010360 0.057685 -0.005612 0.000000 0.001093 0.000000
# 3 -0.009349 -0.005612 0.019398 0.000000 -0.005005 0.000000
# 4 0.000000 0.000000 0.000000 0.037739 0.000000 0.004311
# 5 0.003872 0.001093 -0.005005 0.000000 0.032067 0.000000
# 6 0.000000 0.000000 0.000000 0.004311 0.000000 0.037049
#
#
# Mechanical properties :
#
#
# Convention : Reuss Voigt Hill
#
# Bulk Modulus (GPa) = 25.35287 73.88157 49.61722
# Shear Modulus (GPa) = 19.17676 27.47500 23.32588
#
# Velocity S-wave (km/s) = 3.31078 3.96289 3.65142
# Velocity P-wave (km/s) = 5.39504 7.94792 6.79249
#
# Compressibility (1/GPa) = 0.03944327
#
# Stress axis : x y z
#
# Youngs Moduli (GPa) = 76.90041 17.33562 51.55169
#
# Poissons Ratio (x) = 0.17960 0.48196
# Poissons Ratio (y) = 0.79672 0.28932
# Poissons Ratio (z) = 0.71894 0.09729
#
# Static dielectric constant tensor:
#      x y z
#    x 1.611120 0.000000 0.010170 
#    y 0.000000 1.592920 0.000000 
#    z 0.010170 0.000000 1.569510 
# 
# From -- ./inp_files/280782.got.cif
#   From: 2010.05.17/outbox.cif.g08.bks.cpg/sg12_141_cif.got.tgz:280782.got - 2010.06.03 13:09:07.
