data_PCOD9184890
_publ_section_title
;
Structure prediction by ZEFSAII (Michael W. Deem and Ramdas Pophale) SiO2 
 PCOD9184890
Probable space group: C 2/M
;
_chemical_formula_sum "Si O2"
_cell_formula_units_Z 56
_cell_length_a 19.161669
_cell_length_b 9.431531
_cell_length_c 24.329517
_cell_angle_alpha 90.000000
_cell_angle_beta 134.337120
_cell_angle_gamma 90.000000
_cell_volume 3144.856803
_symmetry_space_group_name_H-M "C 2/M"
_symmetry_group_IT_number 12
_symmetry_cell_setting 'monoclinic'
loop_
_space_group_symop_operation_xyz
x,y,z
-x,y,-z
-x,-y,-z
x,-y,z
1/2+x,1/2+y,z
1/2-x,1/2+y,-z
1/2-x,1/2-y,-z
1/2+x,1/2-y,z
loop_
_atom_site_type_symbol
_atom_site_label
_atom_site_fract_x
_atom_site_fract_y
_atom_site_fract_z
Si Si1 0.532112 0.160502 0.161806
Si Si2 0.236942 0.164819 0.437211
Si Si3 0.390230 0.832801 0.424974
Si Si4 0.843300 0.167403 0.073891
Si Si5 0.054888 0.342154 0.304682
Si Si6 0.754241 0.168464 0.262909
Si Si7 0.874605 0.836198 0.221659
O O1 0.441159 0.263911 0.101540
O O2 0.532601 0.147311 0.228026
O O3 0.640744 0.212633 0.205903
O O4 0.517736 0.000000 0.131248
O O5 0.250000 0.250000 0.500000
O O6 0.327996 0.178350 0.446594
O O7 0.144556 0.236693 0.358194
O O8 0.219672 0.000000 0.438517
O O9 0.500000 0.783420 0.500000
O O10 0.328974 0.749014 0.344755
O O11 0.395541 0.000000 0.412391
O O12 0.845686 0.182925 0.141902
O O13 0.838394 0.000000 0.059333
O O14 0.750000 0.250000 0.000000
O O15 0.076951 0.500000 0.338236
O O16 0.962028 0.271686 0.282259
O O17 0.790733 0.185258 0.220440
O O18 0.756557 0.000000 0.278086
O O19 0.908501 0.000000 0.245703
#
# Coordination Sequence:
#
# PCOD9184890 Si02
#       7
#     8   8   8   8   8   8   8
#     4   9  18  34  57  82 108 141 181 221 269 328
#     4  11  23  37  54  76 107 142 184 233 280 332
#     4  10  23  40  55  77 111 149 187 232 286 334
#     4  10  20  36  59  85 115 147 183 224 271 325
#     4  10  19  34  55  78 105 140 183 229 274 325
#     4  10  20  37  59  83 111 145 186 231 277 333
#     4   9  20  36  56  84 113 144 183 226 274 327
#
# _framework density 17.806851999999999
#
# number of rings (size 3 to 8) (size 9 to 14) (size 15 to 20)
#    0.000    2.143    1.429    1.286    2.000    3.143 
#    0.000    0.714    0.000    4.286    0.000    0.000 
#    0.000    0.000    0.000    0.000    0.000    0.000 
#
# Total GULP energy -156084.795248 kJ/mol
# GULP energy per Si atom -5574.456973 kJ/mol
# Density = 1.776632 g / cm^3
# Si number density = 17.806852 Si / 1000 Ang^3
#
#
#
# Elastic Constant Matrix: (Units=GPa)
#
#
# Indices 1 2 3 4 5 6 
#
# 1 88.0797 53.6039 37.4109 0.0000 29.0695 0.0000
# 2 53.6039 116.3907 67.5269 0.0000 21.9029 0.0000
# 3 37.4109 67.5269 85.6210 0.0000 36.7258 0.0000
# 4 0.0000 0.0000 0.0000 26.1785 0.0000 9.7513
# 5 29.0695 21.9029 36.7258 0.0000 30.9512 0.0000
# 6 0.0000 0.0000 0.0000 9.7513 0.0000 18.7723
#
#
#
# Elastic Compliance Matrix: (Units=1/GPa)
#
#
# Indices 1 2 3 4 5 6 
#
# 1 0.022032 -0.011098 0.009436 0.000000 -0.024035 0.000000
# 2 -0.011098 0.022298 -0.021260 0.000000 0.019870 0.000000
# 3 0.009436 -0.021260 0.044134 0.000000 -0.046186 0.000000
# 4 0.000000 0.000000 0.000000 0.047364 0.000000 -0.024603
# 5 -0.024035 0.019870 -0.046186 0.000000 0.095624 0.000000
# 6 0.000000 0.000000 0.000000 -0.024603 0.000000 0.066050
#
#
# Mechanical properties :
#
#
# Convention : Reuss Voigt Hill
#
# Bulk Modulus (GPa) = 23.46308 67.46383 45.46345
# Shear Modulus (GPa) = 13.98389 23.95039 18.96714
#
# Velocity S-wave (km/s) = 2.80538 3.67142 3.26722
# Velocity P-wave (km/s) = 4.86812 7.47938 6.31030
#
# Compressibility (1/GPa) = 0.04262016
#
# Stress axis : x y z
#
# Youngs Moduli (GPa) = 45.38762 44.84664 22.65820
#
# Poissons Ratio (x) = 0.49773 -0.21380
# Poissons Ratio (y) = 0.50373 0.48171
# Poissons Ratio (z) = -0.42827 0.95343
#
# Static dielectric constant tensor:
#      x y z
#    x 1.583910 0.000000 0.030260 
#    y 0.000000 1.613050 0.000000 
#    z 0.030260 0.000000 1.587490 
# 
# From -- ./inp_files/342328.got.cif
#   From: 2010.05.17/outbox.cif.g08.bks.cpg/sg12_172_cif.got.tgz:342328.got - 2010.06.03 13:09:07.
