data_PCOD9184409
_publ_section_title
;
Structure prediction by ZEFSAII (Michael W. Deem and Ramdas Pophale) SiO2 
 PCOD9184409
Probable space group: C 2/M
;
_chemical_formula_sum "Si O2"
_cell_formula_units_Z 48
_cell_length_a 18.627002
_cell_length_b 18.948326
_cell_length_c 8.755587
_cell_angle_alpha 90.000000
_cell_angle_beta 53.025244
_cell_angle_gamma 90.000000
_cell_volume 2468.833587
_symmetry_space_group_name_H-M "C 2/M"
_symmetry_group_IT_number 12
_symmetry_cell_setting 'monoclinic'
loop_
_space_group_symop_operation_xyz
x,y,z
-x,y,-z
-x,-y,-z
x,-y,z
1/2+x,1/2+y,z
1/2-x,1/2+y,-z
1/2-x,1/2-y,-z
1/2+x,1/2-y,z
loop_
_atom_site_type_symbol
_atom_site_label
_atom_site_fract_x
_atom_site_fract_y
_atom_site_fract_z
Si Si1 0.873881 0.164186 0.450825
Si Si2 0.465545 0.415413 0.872944
Si Si3 0.243080 0.083825 0.898021
Si Si4 0.793481 0.584731 0.492642
Si Si5 0.598686 0.797871 0.803068
Si Si6 0.257220 0.807818 0.120715
O O1 0.798688 0.115164 0.463407
O O2 0.886091 0.235711 0.338602
O O3 0.833880 0.180965 0.667446
O O4 0.967482 0.123094 0.327296
O O5 0.472442 0.500000 0.848255
O O6 0.500000 0.397366 0.000000
O O7 0.361915 0.395326 0.985210
O O8 0.290162 0.101544 0.677470
O O9 0.246143 0.000000 0.911321
O O10 0.281414 0.121430 0.997702
O O11 0.797392 0.500000 0.468721
O O12 0.873068 0.628113 0.310983
O O13 0.668884 0.786875 0.850324
O O14 0.500000 0.797142 0.000000
O O15 0.250000 0.750000 0.000000
#
# Coordination Sequence:
#
# PCOD9184409 Si02
#       6
#     8   8   8   8   8   8
#     4  11  21  37  63  88 120 160 204 244 297 363
#     4  10  19  33  60  95 126 156 194 239 298 370
#     4  10  21  38  61  91 125 158 191 244 310 366
#     4  10  20  39  65  89 117 159 207 247 297 359
#     4  11  25  42  63  88 117 162 210 256 291 354
#     4  11  24  40  58  85 123 158 200 248 303 353
#
# _framework density 19.44238
#
# number of rings (size 3 to 8) (size 9 to 14) (size 15 to 20)
#    0.000    1.500    1.667    5.000    2.333    4.333 
#    0.000    4.167    0.000    2.000    0.000    0.000 
#    0.000    0.000    0.000    0.000    0.000    0.000 
#
# Total GULP energy -134159.723205 kJ/mol
# GULP energy per Si atom -5589.988467 kJ/mol
# Density = 1.939813 g / cm^3
# Si number density = 19.442380 Si / 1000 Ang^3
#
#
#
# Elastic Constant Matrix: (Units=GPa)
#
#
# Indices 1 2 3 4 5 6 
#
# 1 9.4866 11.1224 19.8272 0.0000 4.2540 0.0000
# 2 11.1224 85.2839 62.8912 0.0000 4.0064 0.0000
# 3 19.8272 62.8912 148.7055 0.0000 11.0056 0.0000
# 4 0.0000 0.0000 0.0000 36.2991 0.0000 2.9192
# 5 4.2540 4.0064 11.0056 0.0000 24.2603 0.0000
# 6 0.0000 0.0000 0.0000 2.9192 0.0000 15.0282
#
#
#
# Elastic Compliance Matrix: (Units=1/GPa)
#
#
# Indices 1 2 3 4 5 6 
#
# 1 0.156817 -0.007522 -0.016333 0.000000 -0.018846 0.000000
# 2 -0.007522 0.017406 -0.006460 0.000000 0.001375 0.000000
# 3 -0.016333 -0.006460 0.011738 0.000000 -0.001394 0.000000
# 4 0.000000 0.000000 0.000000 0.027986 0.000000 -0.005436
# 5 -0.018846 0.001375 -0.001394 0.000000 0.044929 0.000000
# 6 0.000000 0.000000 0.000000 -0.005436 0.000000 0.067597
#
#
# Mechanical properties :
#
#
# Convention : Reuss Voigt Hill
#
# Bulk Modulus (GPa) = 7.97887 47.90640 27.94263
# Shear Modulus (GPa) = 11.65826 25.09323 18.37574
#
# Velocity S-wave (km/s) = 2.45139 3.59645 3.07765
# Velocity P-wave (km/s) = 3.48213 6.47608 5.19927
#
# Compressibility (1/GPa) = 0.12533109
#
# Stress axis : x y z
#
# Youngs Moduli (GPa) = 6.37685 57.45176 85.19509
#
# Poissons Ratio (x) = 0.43214 1.39148
# Poissons Ratio (y) = 0.04797 0.55038
# Poissons Ratio (z) = 0.10415 0.37115
#
# Static dielectric constant tensor:
#      x y z
#    x 1.667550 0.000000 0.005020 
#    y 0.000000 1.715900 0.000000 
#    z 0.005020 0.000000 1.679950 
# 
# From -- ./inp_files/75121.got.cif
#   From: 2010.05.17/outbox.cif.g08.bks.cpg/sg12_38_cif.got.tgz:75121.got - 2010.06.03 13:09:07.
