data_PCOD9184295
_publ_section_title
;
Structure prediction by ZEFSAII (Michael W. Deem and Ramdas Pophale) SiO2 
 PCOD9184295
Probable space group: C 2/M
;
_chemical_formula_sum "Si O2"
_cell_formula_units_Z 64
_cell_length_a 15.053069
_cell_length_b 9.110892
_cell_length_c 29.428086
_cell_angle_alpha 90.000000
_cell_angle_beta 130.702902
_cell_angle_gamma 90.000000
_cell_volume 3059.674399
_symmetry_space_group_name_H-M "C 2/M"
_symmetry_group_IT_number 12
_symmetry_cell_setting 'monoclinic'
loop_
_space_group_symop_operation_xyz
x,y,z
-x,y,-z
-x,-y,-z
x,-y,z
1/2+x,1/2+y,z
1/2-x,1/2+y,-z
1/2-x,1/2-y,-z
1/2+x,1/2-y,z
loop_
_atom_site_type_symbol
_atom_site_label
_atom_site_fract_x
_atom_site_fract_y
_atom_site_fract_z
Si Si1 0.747560 0.174444 0.197860
Si Si2 0.383281 0.178801 0.487762
Si Si3 0.117381 0.824979 0.011358
Si Si4 0.651909 0.824411 0.852499
Si Si5 0.519052 0.175500 0.894019
Si Si6 0.976531 0.328989 0.612511
Si Si7 0.253665 0.828446 0.296408
Si Si8 0.348708 0.676832 0.644807
O O1 0.836218 0.245380 0.191553
O O2 0.614401 0.211354 0.138032
O O3 0.753015 0.237387 0.250240
O O4 0.761505 0.000000 0.202892
O O5 0.500000 0.225261 0.500000
O O6 0.397402 0.228430 0.544556
O O7 0.266808 0.223182 0.422379
O O8 0.383999 0.000000 0.489037
O O9 0.105720 0.747120 0.959089
O O10 0.117526 0.000000 0.004307
O O11 0.231435 0.789453 0.079002
O O12 0.000000 0.785521 0.000000
O O13 0.547592 0.779942 0.851715
O O14 0.648002 0.000000 0.843843
O O15 0.533826 0.000000 0.900805
O O16 0.949159 0.500000 0.611738
O O17 0.955164 0.241954 0.651705
O O18 0.111397 0.322875 0.641649
O O19 0.170568 0.776024 0.309587
O O20 0.227686 0.000000 0.277953
O O21 0.354078 0.500000 0.646823
#
# Coordination Sequence:
#
# PCOD9184295 Si02
#       8
#     8   8   8   8   8   8   8   8
#     4  11  24  40  58  82 110 144 189 239 282 321
#     4   9  15  30  57  84 112 147 186 223 267 335
#     4  10  19  33  58  89 117 147 183 224 272 328
#     4  10  21  39  60  84 116 151 185 223 274 337
#     4  10  22  38  58  84 114 148 184 226 279 333
#     4  10  20  35  58  85 112 146 185 226 277 334
#     4  10  22  40  59  78 106 150 193 227 274 335
#     4  10  20  35  58  86 114 146 185 229 277 331
#
# _framework density 20.917259000000001
#
# number of rings (size 3 to 8) (size 9 to 14) (size 15 to 20)
#    0.000    2.000    2.500    1.125    0.000    3.750 
#    0.000    3.750    0.000    0.750    0.000    0.000 
#    0.000    0.000    0.000    0.000    0.000    0.000 
#
# Total GULP energy -178731.389851 kJ/mol
# GULP energy per Si atom -5585.355933 kJ/mol
# Density = 2.086965 g / cm^3
# Si number density = 20.917259 Si / 1000 Ang^3
#
#
#
# Elastic Constant Matrix: (Units=GPa)
#
#
# Indices 1 2 3 4 5 6 
#
# 1 111.5838 22.0489 6.9498 0.0000 -36.4148 0.0000
# 2 22.0489 5.5313 17.9363 0.0000 -13.3092 0.0000
# 3 6.9498 17.9363 55.9982 0.0000 -31.0687 0.0000
# 4 0.0000 0.0000 0.0000 23.4420 0.0000 -7.9095
# 5 -36.4148 -13.3092 -31.0687 0.0000 39.4791 0.0000
# 6 0.0000 0.0000 0.0000 -7.9095 0.0000 26.3388
#
#
#
# Elastic Compliance Matrix: (Units=1/GPa)
#
#
# Indices 1 2 3 4 5 6 
#
# 1 0.002692 0.055692 -0.011321 0.000000 0.012349 0.000000
# 2 0.055692 -0.235582 0.094044 0.000000 0.045960 0.000000
# 3 -0.011321 0.094044 0.001663 0.000000 0.022571 0.000000
# 4 0.000000 0.000000 0.000000 0.047468 0.000000 0.014255
# 5 0.012349 0.045960 0.022571 0.000000 0.069977 0.000000
# 6 0.000000 0.000000 0.000000 0.014255 0.000000 0.042247
#
#
# Mechanical properties :
#
#
# Convention : Reuss Voigt Hill
#
# Bulk Modulus (GPa) = 21.92729 29.66480 25.79605
# Shear Modulus (GPa) = -15.00762 26.26387 5.62813
#
# Velocity S-wave (km/s) = -2.68148 3.54730 1.64210
# Velocity P-wave (km/s) = 0.95839 5.56692 3.99431
#
# Compressibility (1/GPa) = 0.04560526
#
# Stress axis : x y z
#
# Youngs Moduli (GPa) = 371.42834 -4.24481 601.38806
#
# Poissons Ratio (x) = 0.23640 6.80823
# Poissons Ratio (y) = -20.68570 -56.55722
# Poissons Ratio (z) = 4.20489 0.39920
#
# Static dielectric constant tensor:
#      x y z
#    x 1.764400 0.000000 0.015980 
#    y 0.000000 1.691950 0.000000 
#    z 0.015980 0.000000 1.771480 
# 
# From -- ./inp_files/375597.got.cif
#   From: 2010.05.17/outbox.cif.g08.bks.cpg/sg12_188_cif.got.tgz:375597.got - 2010.06.03 13:09:07.
