data_PCOD9184861
_publ_section_title
;
Structure prediction by ZEFSAII (Michael W. Deem and Ramdas Pophale) SiO2 
 PCOD9184861
Probable space group: C 2/M
;
_chemical_formula_sum "Si O2"
_cell_formula_units_Z 56
_cell_length_a 14.727735
_cell_length_b 8.474539
_cell_length_c 25.730850
_cell_angle_alpha 90.000000
_cell_angle_beta 108.372713
_cell_angle_gamma 90.000000
_cell_volume 3047.785464
_symmetry_space_group_name_H-M "C 2/M"
_symmetry_group_IT_number 12
_symmetry_cell_setting 'monoclinic'
loop_
_space_group_symop_operation_xyz
x,y,z
-x,y,-z
-x,-y,-z
x,-y,z
1/2+x,1/2+y,z
1/2-x,1/2+y,-z
1/2-x,1/2-y,-z
1/2+x,1/2-y,z
loop_
_atom_site_type_symbol
_atom_site_label
_atom_site_fract_x
_atom_site_fract_y
_atom_site_fract_z
Si Si1 0.697827 0.311819 0.068458
Si Si2 0.820917 0.808152 0.352692
Si Si3 0.027795 0.810522 0.350665
Si Si4 0.395028 0.190653 0.049227
Si Si5 0.718220 0.189248 0.438401
Si Si6 0.413167 0.809845 0.858581
Si Si7 0.623271 0.191147 0.265019
O O1 0.695766 0.500000 0.070390
O O2 0.801443 0.262081 0.065448
O O3 0.672659 0.242682 0.119737
O O4 0.621649 0.253987 0.011686
O O5 0.791401 0.759595 0.405741
O O6 0.731321 0.760881 0.300368
O O7 0.924065 0.753452 0.351559
O O8 0.823441 0.000000 0.352758
O O9 0.113761 0.749773 0.402591
O O10 0.053452 0.753517 0.297299
O O11 0.028280 0.000000 0.351629
O O12 0.489960 0.245791 0.095581
O O13 0.397401 0.000000 0.046547
O O14 0.750000 0.250000 0.500000
O O15 0.716300 0.000000 0.438209
O O16 0.403018 0.754973 0.797550
O O17 0.415916 0.000000 0.857937
O O18 0.619930 0.000000 0.265834
#
# Coordination Sequence:
#
# PCOD9184861 Si02
#       7
#     8   8   8   8   8   8   8
#     4  10  20  33  50  73 100 128 164 210 255 302
#     4   8  17  34  54  73 101 138 169 201 250 302
#     4  10  19  34  55  77 101 135 173 208 249 295
#     4   9  19  35  51  70  99 133 165 202 255 312
#     4  10  20  36  55  79 110 140 171 209 249 295
#     4  10  20  34  53  73  98 133 168 203 252 309
#     4   9  19  36  53  73 101 134 170 208 251 301
#
# _framework density 18.373996999999999
#
# number of rings (size 3 to 8) (size 9 to 14) (size 15 to 20)
#    0.000    2.571    0.000    2.571    0.000    5.143 
#    0.000   10.000    0.000    0.000    0.000    0.000 
#    0.000    0.000    0.000    0.000    0.000    0.000 
#
# Total GULP energy -156216.405580 kJ/mol
# GULP energy per Si atom -5579.157342 kJ/mol
# Density = 1.833218 g / cm^3
# Si number density = 18.373997 Si / 1000 Ang^3
#
#
#
# Elastic Constant Matrix: (Units=GPa)
#
#
# Indices 1 2 3 4 5 6 
#
# 1 135.2904 17.7065 63.4525 0.0000 -13.2024 0.0000
# 2 17.7065 17.9616 21.1356 0.0000 -1.5816 0.0000
# 3 63.4525 21.1356 135.1055 0.0000 -18.5039 0.0000
# 4 0.0000 0.0000 0.0000 28.1030 0.0000 -5.9686
# 5 -13.2024 -1.5816 -18.5039 0.0000 11.9088 0.0000
# 6 0.0000 0.0000 0.0000 -5.9686 0.0000 24.0211
#
#
#
# Elastic Compliance Matrix: (Units=1/GPa)
#
#
# Indices 1 2 3 4 5 6 
#
# 1 0.010160 -0.005906 -0.003065 0.000000 0.005717 0.000000
# 2 -0.005906 0.072535 -0.010354 0.000000 -0.013003 0.000000
# 3 -0.003065 -0.010354 0.012458 0.000000 0.014585 0.000000
# 4 0.000000 0.000000 0.000000 0.037566 0.000000 0.009334
# 5 0.005717 -0.013003 0.014585 0.000000 0.111245 0.000000
# 6 0.000000 0.000000 0.000000 0.009334 0.000000 0.043949
#
#
# Mechanical properties :
#
#
# Convention : Reuss Voigt Hill
#
# Bulk Modulus (GPa) = 17.69796 54.77187 36.23492
# Shear Modulus (GPa) = 14.47606 25.21077 19.84341
#
# Velocity S-wave (km/s) = 2.80992 3.70819 3.28986
# Velocity P-wave (km/s) = 4.49227 6.94323 5.84760
#
# Compressibility (1/GPa) = 0.05650368
#
# Stress axis : x y z
#
# Youngs Moduli (GPa) = 98.42814 13.78637 80.26778
#
# Poissons Ratio (x) = 0.08142 0.24599
# Poissons Ratio (y) = 0.58130 0.83113
# Poissons Ratio (z) = 0.30164 0.14275
#
# Static dielectric constant tensor:
#      x y z
#    x 1.636550 0.000000 0.000930 
#    y 0.000000 1.631600 0.000000 
#    z 0.000930 0.000000 1.611140 
# 
# From -- ./inp_files/338160.got.cif
#   From: 2010.05.17/outbox.cif.g08.bks.cpg/sg12_170_cif.got.tgz:338160.got - 2010.06.03 13:09:07.
