data_PCOD9184038
_publ_section_title
;
Structure prediction by ZEFSAII (Michael W. Deem and Ramdas Pophale) SiO2 
 PCOD9184038
Probable space group: C 2/M
;
_chemical_formula_sum "Si O2"
_cell_formula_units_Z 64
_cell_length_a 20.506677
_cell_length_b 7.643004
_cell_length_c 26.832308
_cell_angle_alpha 90.000000
_cell_angle_beta 49.620815
_cell_angle_gamma 90.000000
_cell_volume 3203.637660
_symmetry_space_group_name_H-M "C 2/M"
_symmetry_group_IT_number 12
_symmetry_cell_setting 'monoclinic'
loop_
_space_group_symop_operation_xyz
x,y,z
-x,y,-z
-x,-y,-z
x,-y,z
1/2+x,1/2+y,z
1/2-x,1/2+y,-z
1/2-x,1/2-y,-z
1/2+x,1/2-y,z
loop_
_atom_site_type_symbol
_atom_site_label
_atom_site_fract_x
_atom_site_fract_y
_atom_site_fract_z
Si Si1 0.118218 0.788141 0.584909
Si Si2 0.701095 0.708073 0.973773
Si Si3 0.293558 0.715243 0.669002
Si Si4 0.075765 0.789005 0.309739
Si Si5 0.491873 0.205054 0.948163
Si Si6 0.854755 0.699737 0.189440
Si Si7 0.284971 0.291971 0.561171
Si Si8 0.773459 0.707094 0.833126
O O1 0.187233 0.737450 0.592507
O O2 0.156158 0.723498 0.513135
O O3 0.021732 0.726142 0.641604
O O4 0.116859 0.000000 0.583994
O O5 0.692206 0.500000 0.974444
O O6 0.752801 0.767777 0.899075
O O7 0.750000 0.750000 0.000000
O O8 0.605750 0.783329 0.019936
O O9 0.292419 0.500000 0.670161
O O10 0.369506 0.769096 0.668904
O O11 0.203545 0.776507 0.737658
O O12 0.303092 0.775245 0.607576
O O13 0.131110 0.737453 0.234168
O O14 0.073910 0.000000 0.312243
O O15 0.558236 0.281667 0.875048
O O16 0.516448 0.000000 0.940279
O O17 0.500000 0.281221 0.000000
O O18 0.873859 0.500000 0.195333
O O19 0.790421 0.701075 0.174028
O O20 0.299596 0.500000 0.555884
O O21 0.755771 0.500000 0.838673
#
# Coordination Sequence:
#
# PCOD9184038 Si02
#       8
#     8   8   8   8   8   8   8   8
#     4   9  18  32  50  73 100 133 170 205 247 302
#     4  11  24  39  55  76 106 139 175 219 263 309
#     4   8  15  29  50  75  99 128 166 207 248 287
#     4   9  18  33  53  74  99 131 169 209 251 305
#     4  10  19  33  57  82 104 137 175 211 256 310
#     4   9  17  32  54  78 104 135 170 208 253 309
#     4   9  17  31  51  73 101 134 166 205 251 297
#     4  10  20  34  53  77 103 133 170 214 258 303
#
# _framework density 19.977291999999998
#
# number of rings (size 3 to 8) (size 9 to 14) (size 15 to 20)
#    0.000    2.625    1.250    1.500    0.000    3.250 
#    2.250    5.000    0.000    0.000    0.000    7.000 
#    0.000    0.000    0.000    0.000    0.000    0.000 
#
# Total GULP energy -178464.621515 kJ/mol
# GULP energy per Si atom -5577.019422 kJ/mol
# Density = 1.993182 g / cm^3
# Si number density = 19.977292 Si / 1000 Ang^3
#
#
#
# Elastic Constant Matrix: (Units=GPa)
#
#
# Indices 1 2 3 4 5 6 
#
# 1 57.0592 -15.5451 40.8959 0.0000 -15.6191 0.0009
# 2 -15.5451 40.5222 -7.7846 -0.0022 -0.1519 -0.0046
# 3 40.8959 -7.7846 97.0196 0.0005 -19.8722 0.0005
# 4 0.0000 -0.0022 0.0005 11.4862 0.0001 -1.2146
# 5 -15.6191 -0.1519 -19.8722 0.0001 36.9613 -0.0001
# 6 0.0009 -0.0046 0.0005 -1.2146 -0.0001 14.7312
#
#
#
# Elastic Compliance Matrix: (Units=1/GPa)
#
#
# Indices 1 2 3 4 5 6 
#
# 1 0.029234 0.009289 -0.010158 0.000002 0.006931 0.000002
# 2 0.009289 0.028074 -0.000939 0.000006 0.003536 0.000009
# 3 -0.010158 -0.000939 0.015321 -0.000001 0.003941 0.000000
# 4 0.000002 0.000006 -0.000001 0.087827 0.000000 0.007241
# 5 0.006931 0.003536 0.003941 0.000000 0.032117 0.000001
# 6 0.000002 0.000009 0.000000 0.007241 0.000001 0.068480
#
#
# Mechanical properties :
#
#
# Convention : Reuss Voigt Hill
#
# Bulk Modulus (GPa) = 14.48971 25.52594 20.00782
# Shear Modulus (GPa) = 17.38088 24.43808 20.90948
#
# Velocity S-wave (km/s) = 2.95283 3.50136 3.23873
# Velocity P-wave (km/s) = 4.34677 5.39919 4.90131
#
# Compressibility (1/GPa) = 0.06901451
#
# Stress axis : x y z
#
# Youngs Moduli (GPa) = 34.20680 35.61975 65.27064
#
# Poissons Ratio (x) = -0.33088 0.66301
# Poissons Ratio (y) = -0.31776 0.06127
# Poissons Ratio (z) = 0.34747 0.03344
#
# Static dielectric constant tensor:
#      x y z
#    x 1.610780 0.000000 0.003600 
#    y 0.000000 1.761620 0.000000 
#    z 0.003600 0.000000 1.738080 
# 
# From -- ./inp_files/365177.got.cif
#   From: 2010.05.17/outbox.cif.g08.bks.cpg/sg12_183_cif.got.tgz:365177.got - 2010.06.03 13:09:07.
