data_PCOD9184011
_publ_section_title
;
Structure prediction by ZEFSAII (Michael W. Deem and Ramdas Pophale) SiO2 
 PCOD9184011
Probable space group: C 2/M
;
_chemical_formula_sum "Si O2"
_cell_formula_units_Z 56
_cell_length_a 19.571703
_cell_length_b 21.935615
_cell_length_c 15.448758
_cell_angle_alpha 90.000000
_cell_angle_beta 159.197777
_cell_angle_gamma 90.000000
_cell_volume 2355.458976
_symmetry_space_group_name_H-M "C 2/M"
_symmetry_group_IT_number 12
_symmetry_cell_setting 'monoclinic'
loop_
_space_group_symop_operation_xyz
x,y,z
-x,y,-z
-x,-y,-z
x,-y,z
1/2+x,1/2+y,z
1/2-x,1/2+y,-z
1/2-x,1/2-y,-z
1/2+x,1/2-y,z
loop_
_atom_site_type_symbol
_atom_site_label
_atom_site_fract_x
_atom_site_fract_y
_atom_site_fract_z
Si Si1 0.708396 0.840806 0.712292
Si Si2 0.795888 0.703182 0.805579
Si Si3 0.504274 0.640983 0.786475
Si Si4 0.715669 0.931456 0.215067
Si Si5 0.761290 0.434954 0.965825
Si Si6 0.339120 0.109811 0.519363
Si Si7 0.932562 0.729048 0.160280
O O1 0.500000 0.858853 0.500000
O O2 0.756812 0.882429 0.687511
O O3 0.696611 0.768646 0.673227
O O4 0.858493 0.850481 0.967247
O O5 0.848181 0.705829 0.969127
O O6 0.704258 0.637477 0.670044
O O7 0.000000 0.706833 0.000000
O O8 0.320176 0.601581 0.595510
O O9 0.439490 0.710101 0.692616
O O10 0.631434 0.614395 0.860070
O O11 0.794236 0.000000 0.331737
O O12 0.500000 0.930522 0.000000
O O13 0.721814 0.930490 0.117796
O O14 0.673990 0.500000 0.885110
O O15 0.978832 0.433395 0.258761
O O16 0.444706 0.174557 0.657478
O O17 0.750000 0.750000 0.000000
#
# Coordination Sequence:
#
# PCOD9184011 Si02
#       7
#     8   8   8   8   8   8   8
#     4  11  21  38  60  89 128 167 202 257 323 382
#     4  10  19  33  56  89 123 154 206 251 306 379
#     4  11  23  39  61  92 130 164 212 261 318 380
#     4   9  18  36  64  88 120 167 209 256 310 368
#     4  11  23  42  66  92 125 170 218 262 312 373
#     4  12  22  39  64  94 128 168 209 264 318 376
#     4  11  19  37  61  91 126 164 206 258 318 376
#
# _framework density 23.774560000000001
#
# number of rings (size 3 to 8) (size 9 to 14) (size 15 to 20)
#    0.000    1.286    4.286    3.429    0.000    0.571 
#    0.000    1.429    0.000    2.143    0.000    0.000 
#    0.000    0.000    0.000    0.000    0.000    0.000 
#
# Total GULP energy -156453.023218 kJ/mol
# GULP energy per Si atom -5587.607972 kJ/mol
# Density = 2.372045 g / cm^3
# Si number density = 23.774560 Si / 1000 Ang^3
#
#
#
# Elastic Constant Matrix: (Units=GPa)
#
#
# Indices 1 2 3 4 5 6 
#
# 1 116.3495 22.1072 43.4032 0.0000 30.4649 0.0000
# 2 22.1072 99.6421 30.2341 0.0000 11.6220 0.0000
# 3 43.4032 30.2341 66.3645 0.0001 8.6249 0.0001
# 4 0.0000 0.0000 0.0001 4.0282 0.0000 -3.1110
# 5 30.4649 11.6220 8.6249 0.0000 34.7303 0.0000
# 6 0.0000 0.0000 0.0001 -3.1110 0.0000 8.9809
#
#
#
# Elastic Compliance Matrix: (Units=1/GPa)
#
#
# Indices 1 2 3 4 5 6 
#
# 1 0.014390 0.000573 -0.008274 0.000000 -0.010759 0.000000
# 2 0.000573 0.011912 -0.005392 0.000000 -0.003150 0.000000
# 3 -0.008274 -0.005392 0.022484 -0.000001 0.003478 0.000000
# 4 0.000000 0.000000 -0.000001 0.338926 0.000000 0.117405
# 5 -0.010759 -0.003150 0.003478 0.000000 0.038422 0.000000
# 6 0.000000 0.000000 0.000000 0.117405 0.000000 0.152017
#
#
# Mechanical properties :
#
#
# Convention : Reuss Voigt Hill
#
# Bulk Modulus (GPa) = 44.24842 52.64944 48.44893
# Shear Modulus (GPa) = 8.17168 21.98865 15.08017
#
# Velocity S-wave (km/s) = 1.85597 3.04449 2.52126
# Velocity P-wave (km/s) = 4.82130 5.87809 5.37572
#
# Compressibility (1/GPa) = 0.02259968
#
# Stress axis : x y z
#
# Youngs Moduli (GPa) = 69.49467 83.94644 44.47629
#
# Poissons Ratio (x) = -0.04809 0.36798
# Poissons Ratio (y) = -0.03981 0.23983
# Poissons Ratio (z) = 0.57497 0.45266
#
# Static dielectric constant tensor:
#      x y z
#    x 1.896390 0.000000 -0.026010 
#    y 0.000000 1.961750 0.000000 
#    z -0.026010 0.000000 1.891480 
# 
# From -- ./inp_files/286346.got.cif
#   From: 2010.05.17/outbox.cif.g08.bks.cpg/sg12_144_cif.got.tgz:286346.got - 2010.06.03 13:09:07.
