data_PCOD9184058
_publ_section_title
;
Structure prediction by ZEFSAII (Michael W. Deem and Ramdas Pophale) SiO2 
 PCOD9184058
Probable space group: C 2/M
;
_chemical_formula_sum "Si O2"
_cell_formula_units_Z 48
_cell_length_a 21.008562
_cell_length_b 7.649374
_cell_length_c 15.278264
_cell_angle_alpha 90.000000
_cell_angle_beta 107.843822
_cell_angle_gamma 90.000000
_cell_volume 2337.143710
_symmetry_space_group_name_H-M "C 2/M"
_symmetry_group_IT_number 12
_symmetry_cell_setting 'monoclinic'
loop_
_space_group_symop_operation_xyz
x,y,z
-x,y,-z
-x,-y,-z
x,-y,z
1/2+x,1/2+y,z
1/2-x,1/2+y,-z
1/2-x,1/2-y,-z
1/2+x,1/2-y,z
loop_
_atom_site_type_symbol
_atom_site_label
_atom_site_fract_x
_atom_site_fract_y
_atom_site_fract_z
Si Si1 0.207641 0.289593 0.568915
Si Si2 0.188013 0.789661 0.035969
Si Si3 0.562225 0.205460 0.262791
Si Si4 0.701801 0.703592 0.237368
Si Si5 0.059073 0.285980 0.461055
Si Si6 0.040139 0.788505 0.929856
O O1 0.205071 0.500000 0.574835
O O2 0.250000 0.250000 0.500000
O O3 0.246697 0.219792 0.670307
O O4 0.131868 0.227754 0.524960
O O5 0.199961 0.719884 0.139212
O O6 0.181748 0.000000 0.039728
O O7 0.250000 0.750000 0.000000
O O8 0.116599 0.726939 0.969128
O O9 0.627633 0.289175 0.246755
O O10 0.550389 0.269556 0.356522
O O11 0.499391 0.230878 0.172807
O O12 0.577375 0.000000 0.274895
O O13 0.720291 0.500000 0.235042
O O14 0.058458 0.500000 0.461375
O O15 0.000000 0.227707 0.500000
O O16 0.039476 0.000000 0.929441
O O17 0.000000 0.731597 0.000000
#
# Coordination Sequence:
#
# PCOD9184058 Si02
#       6
#     8   8   8   8   8   8
#     4  10  19  33  57  83 108 144 185 227 272 328
#     4  10  22  39  58  83 114 149 184 229 280 329
#     4  11  21  33  57  88 112 141 188 241 275 316
#     4  10  20  36  58  81 110 152 189 221 278 345
#     4   9  19  35  53  80 116 147 178 225 282 328
#     4  10  20  38  60  80 111 152 188 223 276 341
#
# _framework density 20.537890000000001
#
# number of rings (size 3 to 8) (size 9 to 14) (size 15 to 20)
#    0.000    2.000    3.333    0.500    0.000    3.000 
#    0.000    3.333    0.000    4.500    0.000    0.000 
#    0.000    0.000    0.000    0.000    0.000    0.000 
#
# Total GULP energy -134055.807205 kJ/mol
# GULP energy per Si atom -5585.658634 kJ/mol
# Density = 2.049114 g / cm^3
# Si number density = 20.537890 Si / 1000 Ang^3
#
#
#
# Elastic Constant Matrix: (Units=GPa)
#
#
# Indices 1 2 3 4 5 6 
#
# 1 180.3353 -8.9207 111.2273 0.0000 4.6465 0.0000
# 2 -8.9207 37.9681 -2.4753 0.0000 1.6615 0.0000
# 3 111.2273 -2.4753 215.5109 0.0000 12.5912 0.0000
# 4 0.0000 0.0000 0.0000 4.8911 0.0000 -10.7491
# 5 4.6465 1.6615 12.5912 0.0000 40.0648 0.0000
# 6 0.0000 0.0000 0.0000 -10.7491 0.0000 13.9074
#
#
#
# Elastic Compliance Matrix: (Units=1/GPa)
#
#
# Indices 1 2 3 4 5 6 
#
# 1 0.008242 0.001645 -0.004253 0.000000 0.000313 0.000000
# 2 0.001645 0.026744 -0.000475 0.000000 -0.001151 0.000000
# 3 -0.004253 -0.000475 0.006927 0.000000 -0.001664 0.000000
# 4 0.000000 0.000000 0.000000 -0.292660 0.000000 -0.226198
# 5 0.000313 -0.001151 -0.001664 0.000000 0.025494 0.000000
# 6 0.000000 0.000000 0.000000 -0.226198 0.000000 -0.102925
#
#
# Mechanical properties :
#
#
# Convention : Reuss Voigt Hill
#
# Bulk Modulus (GPa) = 27.97374 70.38634 49.18004
# Shear Modulus (GPa) = -16.12397 34.03818 8.95711
#
# Velocity S-wave (km/s) = -2.80497 4.07546 2.09063
# Velocity P-wave (km/s) = 1.77753 7.51609 5.46128
#
# Compressibility (1/GPa) = 0.03574781
#
# Stress axis : x y z
#
# Youngs Moduli (GPa) = 121.33361 37.39169 144.36439
#
# Poissons Ratio (x) = -0.06153 0.61398
# Poissons Ratio (y) = -0.19965 0.06855
# Poissons Ratio (z) = 0.51603 0.01776
#
# Static dielectric constant tensor:
#      x y z
#    x 1.683990 0.000000 0.016150 
#    y 0.000000 1.790700 0.000000 
#    z 0.016150 0.000000 1.728350 
# 
# From -- ./inp_files/229822.got.cif
#   From: 2010.05.17/outbox.cif.g08.bks.cpg/sg12_115_cif.got.tgz:229822.got - 2010.06.03 13:09:07.
