data_PCOD9184957
_publ_section_title
;
Structure prediction by ZEFSAII (Michael W. Deem and Ramdas Pophale) SiO2 
 PCOD9184957
Probable space group: C 2/M
;
_chemical_formula_sum "Si O2"
_cell_formula_units_Z 48
_cell_length_a 24.362938
_cell_length_b 8.518324
_cell_length_c 21.403273
_cell_angle_alpha 90.000000
_cell_angle_beta 141.341459
_cell_angle_gamma 90.000000
_cell_volume 2774.725730
_symmetry_space_group_name_H-M "C 2/M"
_symmetry_group_IT_number 12
_symmetry_cell_setting 'monoclinic'
loop_
_space_group_symop_operation_xyz
x,y,z
-x,y,-z
-x,-y,-z
x,-y,z
1/2+x,1/2+y,z
1/2-x,1/2+y,-z
1/2-x,1/2-y,-z
1/2+x,1/2-y,z
loop_
_atom_site_type_symbol
_atom_site_label
_atom_site_fract_x
_atom_site_fract_y
_atom_site_fract_z
Si Si1 0.545595 0.811774 0.356399
Si Si2 0.274211 0.811628 0.428280
Si Si3 0.947596 0.187079 0.390624
Si Si4 0.073614 0.311748 0.115544
Si Si5 0.924139 0.811518 0.744716
Si Si6 0.268739 0.813422 0.277502
O O1 0.643677 0.748872 0.460353
O O2 0.486367 0.761308 0.362132
O O3 0.521824 0.746239 0.267086
O O4 0.547498 0.000000 0.355223
O O5 0.176551 0.751148 0.354475
O O6 0.291146 0.783414 0.370260
O O7 0.271661 0.000000 0.435106
O O8 0.845438 0.231200 0.307103
O O9 0.000000 0.242213 0.500000
O O10 0.958158 0.000000 0.396608
O O11 0.078407 0.500000 0.122166
O O12 0.050431 0.249410 0.164183
O O13 0.169420 0.246819 0.181415
O O14 0.000000 0.265062 0.000000
O O15 0.923251 0.000000 0.745738
O O16 0.271093 0.000000 0.269158
#
# Coordination Sequence:
#
# PCOD9184957 Si02
#       6
#     8   8   8   8   8   8
#     4  11  20  32  50  73 107 149 185 219 263 313
#     4   8  16  29  47  72 103 140 176 215 258 308
#     4  11  22  34  50  76 110 150 189 223 260 311
#     4  10  21  38  60  84 108 136 174 223 276 326
#     4  10  20  34  51  77 108 139 179 222 270 322
#     4  10  19  34  55  80 108 141 183 225 267 315
#
# _framework density 17.299007
#
# number of rings (size 3 to 8) (size 9 to 14) (size 15 to 20)
#    0.000    2.000    1.667    4.000    0.000    2.000 
#    0.000    1.667    0.000    1.000    0.000    0.000 
#    0.000    0.000    0.000    0.000    0.000    0.000 
#
# Total GULP energy -133877.381557 kJ/mol
# GULP energy per Si atom -5578.224232 kJ/mol
# Density = 1.725963 g / cm^3
# Si number density = 17.299007 Si / 1000 Ang^3
#
#
#
# Elastic Constant Matrix: (Units=GPa)
#
#
# Indices 1 2 3 4 5 6 
#
# 1 105.2187 26.4017 51.9358 0.0000 -23.4066 0.0000
# 2 26.4017 42.4789 27.6454 0.0000 -11.0427 0.0000
# 3 51.9358 27.6454 100.1067 0.0000 -9.9676 0.0000
# 4 0.0000 0.0000 0.0000 20.6272 0.0000 -0.9038
# 5 -23.4066 -11.0427 -9.9676 0.0000 10.3764 0.0000
# 6 0.0000 0.0000 0.0000 -0.9038 0.0000 29.1565
#
#
#
# Elastic Compliance Matrix: (Units=1/GPa)
#
#
# Indices 1 2 3 4 5 6 
#
# 1 0.023673 0.003484 -0.008357 0.000000 0.049081 0.000000
# 2 0.003484 0.036849 -0.008068 0.000000 0.039324 0.000000
# 3 -0.008357 -0.008068 0.015283 0.000000 -0.012757 0.000000
# 4 0.000000 0.000000 0.000000 0.048546 0.000000 0.001505
# 5 0.049081 0.039324 -0.012757 0.000000 0.236681 0.000000
# 6 0.000000 0.000000 0.000000 0.001505 0.000000 0.034344
#
#
# Mechanical properties :
#
#
# Convention : Reuss Voigt Hill
#
# Bulk Modulus (GPa) = 20.03090 51.08557 35.55824
# Shear Modulus (GPa) = 11.41817 21.48680 16.45248
#
# Velocity S-wave (km/s) = 2.57193 3.52814 3.08728
# Velocity P-wave (km/s) = 4.51930 6.79648 5.77132
#
# Compressibility (1/GPa) = 0.04992288
#
# Stress axis : x y z
#
# Youngs Moduli (GPa) = 42.24216 27.13771 65.43250
#
# Poissons Ratio (x) = -0.09455 0.54682
# Poissons Ratio (y) = -0.14718 0.52793
# Poissons Ratio (z) = 0.35302 0.21896
#
# Static dielectric constant tensor:
#      x y z
#    x 1.599170 0.000000 -0.000680 
#    y 0.000000 1.579840 0.000000 
#    z -0.000680 0.000000 1.582040 
# 
# From -- ./inp_files/287131.got.cif
#   From: 2010.05.17/outbox.cif.g08.bks.cpg/sg12_144_cif.got.tgz:287131.got - 2010.06.03 13:09:07.
