data_PCOD9184678
_publ_section_title
;
Structure prediction by ZEFSAII (Michael W. Deem and Ramdas Pophale) SiO2 
 PCOD9184678
Probable space group: C 2/M
;
_chemical_formula_sum "Si O2"
_cell_formula_units_Z 56
_cell_length_a 28.525216
_cell_length_b 13.237339
_cell_length_c 9.580034
_cell_angle_alpha 90.000000
_cell_angle_beta 122.406318
_cell_angle_gamma 90.000000
_cell_volume 3054.059130
_symmetry_space_group_name_H-M "C 2/M"
_symmetry_group_IT_number 12
_symmetry_cell_setting 'monoclinic'
loop_
_space_group_symop_operation_xyz
x,y,z
-x,y,-z
-x,-y,-z
x,-y,z
1/2+x,1/2+y,z
1/2-x,1/2+y,-z
1/2-x,1/2-y,-z
1/2+x,1/2-y,z
loop_
_atom_site_type_symbol
_atom_site_label
_atom_site_fract_x
_atom_site_fract_y
_atom_site_fract_z
Si Si1 0.552323 0.292820 0.671099
Si Si2 0.483182 0.234747 0.817904
Si Si3 0.672949 0.614781 0.846054
Si Si4 0.880923 0.118305 0.685195
Si Si5 0.086281 0.617990 0.518125
Si Si6 0.204277 0.884922 0.218022
Si Si7 0.306895 0.244331 0.367095
O O1 0.500000 0.335990 0.500000
O O2 0.533167 0.272348 0.798409
O O3 0.607296 0.359335 0.744389
O O4 0.565936 0.187042 0.614574
O O5 0.439577 0.326511 0.765649
O O6 0.450952 0.151054 0.674258
O O7 0.500000 0.201814 0.000000
O O8 0.681309 0.500000 0.810129
O O9 0.701490 0.695201 0.790171
O O10 0.695095 0.622496 0.038318
O O11 0.853461 0.130010 0.793557
O O12 0.838163 0.175844 0.515535
O O13 0.885192 0.000000 0.658709
O O14 0.082280 0.500000 0.539304
O O15 0.149030 0.654238 0.588150
O O16 0.250567 0.803881 0.333115
O O17 0.222481 0.000000 0.280537
#
# Coordination Sequence:
#
# PCOD9184678 Si02
#       7
#     8   8   8   8   8   8   8
#     4   9  19  33  51  74 100 134 167 200 246 296
#     4  10  20  33  51  76 103 131 165 206 249 290
#     4  10  20  33  51  77 104 129 164 206 248 297
#     4  10  21  35  52  75 102 134 169 201 242 299
#     4   9  19  35  53  73  98 130 169 207 245 297
#     4  10  20  34  53  75 100 133 166 201 251 299
#     4  10  19  34  54  75 100 129 166 209 248 289
#
# _framework density 18.336252000000002
#
# number of rings (size 3 to 8) (size 9 to 14) (size 15 to 20)
#    0.000    2.286    0.000    3.429    0.000    4.000 
#    0.000    0.000    0.000    1.714    0.000    0.000 
#    0.000    0.000    0.000    0.000    0.000    0.000 
#
# Total GULP energy -156225.408936 kJ/mol
# GULP energy per Si atom -5579.478891 kJ/mol
# Density = 1.829452 g / cm^3
# Si number density = 18.336252 Si / 1000 Ang^3
#
#
#
# Elastic Constant Matrix: (Units=GPa)
#
#
# Indices 1 2 3 4 5 6 
#
# 1 63.5217 31.5583 9.6326 0.0000 -6.4047 0.0000
# 2 31.5583 87.1816 26.4646 0.0000 7.8295 0.0000
# 3 9.6326 26.4646 59.4236 0.0000 -16.2831 0.0000
# 4 0.0000 0.0000 0.0000 12.1234 0.0000 -4.2691
# 5 -6.4047 7.8295 -16.2831 0.0000 29.2447 0.0000
# 6 0.0000 0.0000 0.0000 -4.2691 0.0000 16.6783
#
#
#
# Elastic Compliance Matrix: (Units=1/GPa)
#
#
# Indices 1 2 3 4 5 6 
#
# 1 0.020750 -0.009263 0.003170 0.000000 0.008789 0.000000
# 2 -0.009263 0.019237 -0.010659 0.000000 -0.013113 0.000000
# 3 0.003170 -0.010659 0.026001 0.000000 0.018025 0.000000
# 4 0.000000 0.000000 0.000000 0.090656 0.000000 0.023205
# 5 0.008789 -0.013113 0.018025 0.000000 0.049666 0.000000
# 6 0.000000 0.000000 0.000000 0.023205 0.000000 0.065898
#
#
# Mechanical properties :
#
#
# Convention : Reuss Voigt Hill
#
# Bulk Modulus (GPa) = 30.78456 38.38200 34.58328
# Shear Modulus (GPa) = 15.79587 21.10737 18.45162
#
# Velocity S-wave (km/s) = 2.93824 3.39651 3.17565
# Velocity P-wave (km/s) = 5.32319 6.02988 5.68752
#
# Compressibility (1/GPa) = 0.03248382
#
# Stress axis : x y z
#
# Youngs Moduli (GPa) = 48.19275 51.98428 38.46071
#
# Poissons Ratio (x) = 0.48152 -0.12192
# Poissons Ratio (y) = 0.44640 0.40995
# Poissons Ratio (z) = -0.15277 0.55410
#
# Static dielectric constant tensor:
#      x y z
#    x 1.630550 0.000000 -0.009190 
#    y 0.000000 1.598940 0.000000 
#    z -0.009190 0.000000 1.642940 
# 
# From -- ./inp_files/110553.got.cif
#   From: 2010.05.17/outbox.cif.g08.bks.cpg/sg12_56_cif.got.tgz:110553.got - 2010.06.03 13:09:07.
