data_PCOD9184179
_publ_section_title
;
Structure prediction by ZEFSAII (Michael W. Deem and Ramdas Pophale) SiO2 
 PCOD9184179
Probable space group: C 2/M
;
_chemical_formula_sum "Si O2"
_cell_formula_units_Z 40
_cell_length_a 27.943877
_cell_length_b 10.991784
_cell_length_c 7.431015
_cell_angle_alpha 90.000000
_cell_angle_beta 123.316780
_cell_angle_gamma 90.000000
_cell_volume 1907.328953
_symmetry_space_group_name_H-M "C 2/M"
_symmetry_group_IT_number 12
_symmetry_cell_setting 'monoclinic'
loop_
_space_group_symop_operation_xyz
x,y,z
-x,y,-z
-x,-y,-z
x,-y,z
1/2+x,1/2+y,z
1/2-x,1/2+y,-z
1/2-x,1/2-y,-z
1/2+x,1/2-y,z
loop_
_atom_site_type_symbol
_atom_site_label
_atom_site_fract_x
_atom_site_fract_y
_atom_site_fract_z
Si Si1 0.040729 0.858864 0.323578
Si Si2 0.862534 0.143741 0.194471
Si Si3 0.282422 0.359489 0.333671
Si Si4 0.674085 0.867171 0.339482
Si Si5 0.577536 0.731248 0.024467
O O1 0.086938 0.816287 0.564422
O O2 0.068467 0.851179 0.182478
O O3 0.024330 0.000000 0.325751
O O4 0.984133 0.776088 0.197582
O O5 0.802909 0.167313 0.173072
O O6 0.867937 0.000000 0.194903
O O7 0.876093 0.187969 0.024363
O O8 0.303459 0.500000 0.416170
O O9 0.309108 0.250368 0.507349
O O10 0.216094 0.362516 0.252724
O O11 0.607075 0.853737 0.155360
O O12 0.685247 0.000000 0.448147
#
# Coordination Sequence:
#
# PCOD9184179 Si02
#       5
#     8   8   8   8   8
#     4  10  20  34  53  86 119 146 188 239 280 331
#     4  10  19  33  57  88 117 143 185 241 287 329
#     4   9  19  37  61  86 113 147 191 239 284 333
#     4  10  21  38  58  83 117 153 190 233 283 341
#     4  11  20  32  55  80 116 151 184 224 287 337
#
# _framework density 20.971737999999998
#
# number of rings (size 3 to 8) (size 9 to 14) (size 15 to 20)
#    0.000    2.000    2.000    3.000    0.000    4.000 
#    0.000    3.000    0.000    1.200    0.000    0.000 
#    0.000    0.000    0.000    0.000    0.000    0.000 
#
# Total GULP energy -111357.077476 kJ/mol
# GULP energy per Si atom -5567.853874 kJ/mol
# Density = 2.092401 g / cm^3
# Si number density = 20.971738 Si / 1000 Ang^3
#
#
#
# Elastic Constant Matrix: (Units=GPa)
#
#
# Indices 1 2 3 4 5 6 
#
# 1 98.1724 55.0367 22.2541 0.0000 -19.4740 0.0000
# 2 55.0367 89.8839 24.3353 0.0000 12.9432 0.0000
# 3 22.2541 24.3353 29.9484 0.0000 0.6838 0.0000
# 4 0.0000 0.0000 0.0000 20.3274 0.0000 7.1925
# 5 -19.4740 12.9432 0.6838 0.0000 45.3437 0.0000
# 6 0.0000 0.0000 0.0000 7.1925 0.0000 23.1258
#
#
#
# Elastic Compliance Matrix: (Units=1/GPa)
#
#
# Indices 1 2 3 4 5 6 
#
# 1 0.021803 -0.013859 -0.005245 0.000000 0.013399 0.000000
# 2 -0.013859 0.023797 -0.008750 0.000000 -0.012613 0.000000
# 3 -0.005245 -0.008750 0.044408 0.000000 -0.000425 0.000000
# 4 0.000000 0.000000 0.000000 0.055278 0.000000 -0.017192
# 5 0.013399 -0.012613 -0.000425 0.000000 0.031415 0.000000
# 6 0.000000 0.000000 0.000000 -0.017192 0.000000 0.048589
#
#
# Mechanical properties :
#
#
# Convention : Reuss Voigt Hill
#
# Bulk Modulus (GPa) = 29.15599 46.80632 37.98116
# Shear Modulus (GPa) = 17.09791 25.51795 21.30793
#
# Velocity S-wave (km/s) = 2.85841 3.49202 3.19098
# Velocity P-wave (km/s) = 4.98264 6.21499 5.63262
#
# Compressibility (1/GPa) = 0.03429827
#
# Stress axis : x y z
#
# Youngs Moduli (GPa) = 45.86549 42.02206 22.51823
#
# Poissons Ratio (x) = 0.58240 0.11812
# Poissons Ratio (y) = 0.63567 0.19704
# Poissons Ratio (z) = 0.24058 0.36770
#
# Static dielectric constant tensor:
#      x y z
#    x 1.796760 0.000000 0.013450 
#    y 0.000000 1.742600 0.000000 
#    z 0.013450 0.000000 1.832570 
# 
# From -- ./inp_files/108353.got.cif
#   From: 2010.05.17/outbox.cif.g08.bks.cpg/sg12_55_cif.got.tgz:108353.got - 2010.06.03 13:09:07.
