data_PCOD9184688
_publ_section_title
;
Structure prediction by ZEFSAII (Michael W. Deem and Ramdas Pophale) SiO2 
 PCOD9184688
Probable space group: C 2/M
;
_chemical_formula_sum "Si O2"
_cell_formula_units_Z 60
_cell_length_a 14.431327
_cell_length_b 14.051064
_cell_length_c 16.753751
_cell_angle_alpha 90.000000
_cell_angle_beta 103.261813
_cell_angle_gamma 90.000000
_cell_volume 3306.652294
_symmetry_space_group_name_H-M "C 2/M"
_symmetry_group_IT_number 12
_symmetry_cell_setting 'monoclinic'
loop_
_space_group_symop_operation_xyz
x,y,z
-x,y,-z
-x,-y,-z
x,-y,z
1/2+x,1/2+y,z
1/2-x,1/2+y,-z
1/2-x,1/2-y,-z
1/2+x,1/2-y,z
loop_
_atom_site_type_symbol
_atom_site_label
_atom_site_fract_x
_atom_site_fract_y
_atom_site_fract_z
Si Si1 0.500983 0.615134 0.707900
Si Si2 0.481555 0.677925 0.883134
Si Si3 0.206775 0.391669 0.082582
Si Si4 0.779231 0.615325 0.569892
Si Si5 0.274591 0.385477 0.264761
Si Si6 0.650046 0.606940 0.015402
Si Si7 0.407009 0.285365 0.538283
Si Si8 0.500000 0.156643 0.000000
O O1 0.488489 0.500000 0.705916
O O2 0.475482 0.658373 0.789270
O O3 0.612972 0.635450 0.714420
O O4 0.440815 0.665107 0.626863
O O5 0.559772 0.607364 0.937224
O O6 0.517970 0.778344 0.924859
O O7 0.384492 0.662380 0.913451
O O8 0.244338 0.500000 0.095034
O O9 0.228057 0.348679 0.173569
O O10 0.265362 0.350904 0.020205
O O11 0.096635 0.395069 0.039835
O O12 0.791321 0.500000 0.564282
O O13 0.774774 0.644007 0.662749
O O14 0.676621 0.648490 0.515201
O O15 0.859414 0.681602 0.544621
O O16 0.265850 0.500000 0.263751
O O17 0.672843 0.500000 0.045374
O O18 0.500000 0.279972 0.500000
#
# Coordination Sequence:
#
# PCOD9184688 Si02
#       8
#     8   8   8   8   8   8   8   4
#     4  11  20  35  59  87 116 146 190 251 303 346
#     4  10  20  31  48  77 110 141 176 229 291 347
#     4  10  19  34  54  75 104 148 196 242 286 336
#     4  10  22  41  61  89 128 164 194 238 300 364
#     4   9  18  33  58  83 107 146 194 244 295 343
#     4   9  16  30  51  71  98 137 181 223 276 336
#     4  11  23  38  64  96 121 153 201 249 298 356
#     4  10  23  34  47  74 108 150 196 240 282 340
#
# _framework density 18.145239
#
# number of rings (size 3 to 8) (size 9 to 14) (size 15 to 20)
#    0.000    2.133    2.667    2.200    1.867    2.933 
#    0.000    0.000    0.000    0.000    0.000    0.000 
#    0.000    0.000    0.000    0.000    0.000    0.000 
#
# Total GULP energy -167109.047358 kJ/mol
# GULP energy per Si atom -5570.301579 kJ/mol
# Density = 1.810394 g / cm^3
# Si number density = 18.145239 Si / 1000 Ang^3
#
#
#
# Elastic Constant Matrix: (Units=GPa)
#
#
# Indices 1 2 3 4 5 6 
#
# 1 92.0962 25.4300 54.5565 0.0000 -3.6195 0.0000
# 2 25.4300 84.1671 39.4569 0.0000 -2.9098 0.0000
# 3 54.5565 39.4569 93.1089 0.0000 -11.0573 0.0000
# 4 0.0000 0.0000 0.0000 21.7491 0.0000 5.7385
# 5 -3.6195 -2.9098 -11.0573 0.0000 28.6318 0.0000
# 6 0.0000 0.0000 0.0000 5.7385 0.0000 14.0857
#
#
#
# Elastic Compliance Matrix: (Units=1/GPa)
#
#
# Indices 1 2 3 4 5 6 
#
# 1 0.016733 -0.000528 -0.009785 0.000000 -0.001717 0.000000
# 2 -0.000528 0.014869 -0.006100 0.000000 -0.000911 0.000000
# 3 -0.009785 -0.006100 0.019743 0.000000 0.005768 0.000000
# 4 0.000000 0.000000 0.000000 0.051517 0.000000 -0.020988
# 5 -0.001717 -0.000911 0.005768 0.000000 0.036844 0.000000
# 6 0.000000 0.000000 0.000000 -0.020988 0.000000 0.079544
#
#
# Mechanical properties :
#
#
# Convention : Reuss Voigt Hill
#
# Bulk Modulus (GPa) = 53.99600 56.47321 55.23460
# Shear Modulus (GPa) = 19.36126 22.88856 21.12491
#
# Velocity S-wave (km/s) = 3.27006 3.55548 3.41576
# Velocity P-wave (km/s) = 6.63928 6.93150 6.78696
#
# Compressibility (1/GPa) = 0.01851989
#
# Stress axis : x y z
#
# Youngs Moduli (GPa) = 59.76286 67.25546 50.65032
#
# Poissons Ratio (x) = 0.03551 0.49559
# Poissons Ratio (y) = 0.03156 0.30896
# Poissons Ratio (z) = 0.58476 0.41024
#
# Static dielectric constant tensor:
#      x y z
#    x 1.639670 0.000000 -0.016550 
#    y 0.000000 1.658930 0.000000 
#    z -0.016550 0.000000 1.628020 
# 
# From -- ./inp_files/269928.got.cif
#   From: 2010.05.17/outbox.cif.g08.bks.cpg/sg12_135_cif.got.tgz:269928.got - 2010.06.03 13:09:07.
