data_PCOD9184006
_publ_section_title
;
Structure prediction by ZEFSAII (Michael W. Deem and Ramdas Pophale) SiO2 
 PCOD9184006
Probable space group: C 2/M
;
_chemical_formula_sum "Si O2"
_cell_formula_units_Z 40
_cell_length_a 10.873263
_cell_length_b 26.270551
_cell_length_c 14.539915
_cell_angle_alpha 90.000000
_cell_angle_beta 28.344002
_cell_angle_gamma 90.000000
_cell_volume 1971.827678
_symmetry_space_group_name_H-M "C 2/M"
_symmetry_group_IT_number 12
_symmetry_cell_setting 'monoclinic'
loop_
_space_group_symop_operation_xyz
x,y,z
-x,y,-z
-x,-y,-z
x,-y,z
1/2+x,1/2+y,z
1/2-x,1/2+y,-z
1/2-x,1/2-y,-z
1/2+x,1/2-y,z
loop_
_atom_site_type_symbol
_atom_site_label
_atom_site_fract_x
_atom_site_fract_y
_atom_site_fract_z
Si Si1 0.241925 0.839116 0.063953
Si Si2 0.698441 0.310614 0.784585
Si Si3 0.242412 0.443712 0.047321
Si Si4 0.846916 0.422127 0.691143
Si Si5 0.794425 0.197288 0.708163
O O1 0.307568 0.896057 0.986180
O O2 0.496570 0.806464 0.871143
O O3 0.198451 0.832928 0.200979
O O4 0.986345 0.818966 0.181527
O O5 0.870726 0.360844 0.679609
O O6 0.844151 0.257262 0.691333
O O7 0.500000 0.311225 0.000000
O O8 0.198552 0.500000 0.037294
O O9 0.096766 0.440079 0.242041
O O10 0.547807 0.436833 0.869836
O O11 0.000000 0.439989 0.500000
O O12 0.000000 0.177568 0.500000
#
# Coordination Sequence:
#
# PCOD9184006 Si02
#       5
#     8   8   8   8   8
#     4  10  22  40  58  80 117 150 190 240 275 339
#     4  11  19  37  60  87 121 150 180 224 285 347
#     4  10  21  37  57  81 112 151 190 237 289 331
#     4  10  19  33  56  89 121 146 179 227 286 352
#     4  11  24  38  58  84 114 156 194 231 277 329
#
# _framework density 20.285748999999999
#
# number of rings (size 3 to 8) (size 9 to 14) (size 15 to 20)
#    0.000    1.600    6.000    2.400    0.000    5.600 
#    0.000    2.000    0.000    1.200    0.000    0.000 
#    0.000    0.000    0.000    0.000    0.000    0.000 
#
# Total GULP energy -111612.017325 kJ/mol
# GULP energy per Si atom -5580.600866 kJ/mol
# Density = 2.023958 g / cm^3
# Si number density = 20.285749 Si / 1000 Ang^3
#
#
#
# Elastic Constant Matrix: (Units=GPa)
#
#
# Indices 1 2 3 4 5 6 
#
# 1 47.8657 28.4502 16.5732 -0.0001 15.7571 0.0000
# 2 28.4502 138.3521 13.0336 -0.0001 26.4498 0.0000
# 3 16.5732 13.0336 126.7881 -0.0002 41.9709 0.0004
# 4 -0.0001 -0.0001 -0.0002 -17.1531 0.0006 9.0697
# 5 15.7571 26.4498 41.9709 0.0006 24.5331 -0.0004
# 6 0.0000 0.0000 0.0004 9.0697 -0.0004 -0.8483
#
#
#
# Elastic Compliance Matrix: (Units=1/GPa)
#
#
# Indices 1 2 3 4 5 6 
#
# 1 0.028196 -0.001667 0.004348 -0.000001 -0.023751 0.000000
# 2 -0.001667 0.011092 0.006184 -0.000001 -0.021468 -0.000001
# 3 0.004348 0.006184 0.022631 -0.000003 -0.048178 -0.000003
# 4 -0.000001 -0.000001 -0.000003 0.012528 0.000010 0.133952
# 5 -0.023751 -0.021468 -0.048178 0.000010 0.161584 0.000006
# 6 0.000000 -0.000001 -0.000003 0.133952 0.000006 0.253337
#
#
# Mechanical properties :
#
#
# Convention : Reuss Voigt Hill
#
# Bulk Modulus (GPa) = 12.55483 47.67998 30.11741
# Shear Modulus (GPa) = 10.03636 18.30293 14.16964
#
# Velocity S-wave (km/s) = 2.22671 3.00702 2.64579
# Velocity P-wave (km/s) = 3.57958 5.96753 4.92061
#
# Compressibility (1/GPa) = 0.07965061
#
# Stress axis : x y z
#
# Youngs Moduli (GPa) = 35.46614 90.15169 44.18622
#
# Poissons Ratio (x) = 0.15029 -0.19213
# Poissons Ratio (y) = 0.05912 -0.27326
# Poissons Ratio (z) = -0.15421 -0.55753
#
# Static dielectric constant tensor:
#      x y z
#    x 1.725080 0.000000 0.006320 
#    y 0.000000 1.753640 0.000000 
#    z 0.006320 0.000000 1.746170 
# 
# From -- ./inp_files/208902.got.cif
#   From: 2010.05.17/outbox.cif.g08.bks.cpg/sg12_105_cif.got.tgz:208902.got - 2010.06.03 13:09:07.
