data_PCOD9184695
_publ_section_title
;
Structure prediction by ZEFSAII (Michael W. Deem and Ramdas Pophale) SiO2 
 PCOD9184695
Probable space group: C 2/M
;
_chemical_formula_sum "Si O2"
_cell_formula_units_Z 56
_cell_length_a 14.729581
_cell_length_b 7.647117
_cell_length_c 33.321186
_cell_angle_alpha 90.000000
_cell_angle_beta 132.446284
_cell_angle_gamma 90.000000
_cell_volume 2769.569104
_symmetry_space_group_name_H-M "C 2/M"
_symmetry_group_IT_number 12
_symmetry_cell_setting 'monoclinic'
loop_
_space_group_symop_operation_xyz
x,y,z
-x,y,-z
-x,-y,-z
x,-y,z
1/2+x,1/2+y,z
1/2-x,1/2+y,-z
1/2-x,1/2-y,-z
1/2+x,1/2-y,z
loop_
_atom_site_type_symbol
_atom_site_label
_atom_site_fract_x
_atom_site_fract_y
_atom_site_fract_z
Si Si1 0.376720 0.796301 0.846867
Si Si2 0.317260 0.285435 0.145543
Si Si3 0.271613 0.213921 0.357339
Si Si4 0.905403 0.795295 0.764436
Si Si5 0.546793 0.796751 0.449832
Si Si6 0.656270 0.708065 0.936694
Si Si7 0.226495 0.212048 0.432447
O O1 0.284129 0.724818 0.852887
O O2 0.366746 0.717968 0.799375
O O3 0.518901 0.779290 0.902413
O O4 0.348040 0.000000 0.833504
O O5 0.315441 0.500000 0.145230
O O6 0.455501 0.224933 0.197543
O O7 0.296766 0.231305 0.093151
O O8 0.193855 0.278534 0.296218
O O9 0.411945 0.278782 0.402539
O O10 0.208771 0.257864 0.380952
O O11 0.277548 0.000000 0.356486
O O12 0.916206 0.000000 0.757951
O O13 0.639864 0.725838 0.511444
O O14 0.624328 0.783668 0.431980
O O15 0.527999 0.000000 0.455065
O O16 0.642509 0.500000 0.930131
O O17 0.750000 0.750000 0.000000
O O18 0.224562 0.000000 0.435395
#
# Coordination Sequence:
#
# PCOD9184695 Si02
#       7
#     8   8   8   8   8   8   8
#     4  10  19  34  54  75  99 132 168 202 242 287
#     4   8  17  33  52  70  96 133 165 194 238 291
#     4   9  17  30  50  70  92 127 166 200 242 299
#     4   9  18  34  51  70  96 128 166 206 246 291
#     4   9  17  30  47  69  96 124 158 203 250 293
#     4  10  20  36  55  79 108 136 166 202 240 283
#     4   9  17  30  48  69  93 125 163 199 241 301
#
# _framework density 20.219752
#
# number of rings (size 3 to 8) (size 9 to 14) (size 15 to 20)
#    0.000    2.857    0.000    2.143    0.000    3.429 
#    0.000   13.571    0.000    3.429    0.000    0.000 
#    0.000    0.000    0.000    0.000    0.000    0.000 
#
# Total GULP energy -156154.896999 kJ/mol
# GULP energy per Si atom -5576.960607 kJ/mol
# Density = 2.017373 g / cm^3
# Si number density = 20.219752 Si / 1000 Ang^3
#
#
#
# Elastic Constant Matrix: (Units=GPa)
#
#
# Indices 1 2 3 4 5 6 
#
# 1 126.4891 -7.5551 65.5614 0.0000 -10.9799 0.0000
# 2 -7.5551 33.2205 -4.0671 0.0000 1.7737 0.0000
# 3 65.5614 -4.0671 141.6554 0.0000 -10.7356 0.0000
# 4 0.0000 0.0000 0.0000 11.7244 0.0000 -4.4221
# 5 -10.9799 1.7737 -10.7356 0.0000 10.1618 0.0000
# 6 0.0000 0.0000 0.0000 -4.4221 0.0000 18.8099
#
#
#
# Elastic Compliance Matrix: (Units=1/GPa)
#
#
# Indices 1 2 3 4 5 6 
#
# 1 0.010917 0.001571 -0.004494 0.000000 0.006774 0.000000
# 2 0.001571 0.030645 -0.000135 0.000000 -0.003794 0.000000
# 3 -0.004494 -0.000135 0.009533 0.000000 0.005238 0.000000
# 4 0.000000 0.000000 0.000000 0.093591 0.000000 0.022002
# 5 0.006774 -0.003794 0.005238 0.000000 0.111924 0.000000
# 6 0.000000 0.000000 0.000000 0.022002 0.000000 0.058336
#
#
# Mechanical properties :
#
#
# Convention : Reuss Voigt Hill
#
# Bulk Modulus (GPa) = 22.23270 45.47150 33.85210
# Shear Modulus (GPa) = 14.87855 24.63426 19.75640
#
# Velocity S-wave (km/s) = 2.71558 3.49424 3.12923
# Velocity P-wave (km/s) = 4.56639 6.23034 5.46210
#
# Compressibility (1/GPa) = 0.04497879
#
# Stress axis : x y z
#
# Youngs Moduli (GPa) = 91.59967 32.63154 104.90383
#
# Poissons Ratio (x) = -0.05126 0.47146
# Poissons Ratio (y) = -0.14390 0.01413
# Poissons Ratio (z) = 0.41167 0.00440
#
# Static dielectric constant tensor:
#      x y z
#    x 1.702420 0.000000 0.001990 
#    y 0.000000 1.783790 0.000000 
#    z 0.001990 0.000000 1.387610 
# 
# From -- ./inp_files/338159.got.cif
#   From: 2010.05.17/outbox.cif.g08.bks.cpg/sg12_170_cif.got.tgz:338159.got - 2010.06.03 13:09:07.
