data_PCOD9184042
_publ_section_title
;
Structure prediction by ZEFSAII (Michael W. Deem and Ramdas Pophale) SiO2 
 PCOD9184042
Probable space group: C 2/M
;
_chemical_formula_sum "Si O2"
_cell_formula_units_Z 56
_cell_length_a 19.737951
_cell_length_b 8.325492
_cell_length_c 25.369483
_cell_angle_alpha 90.000000
_cell_angle_beta 45.299954
_cell_angle_gamma 90.000000
_cell_volume 2963.263993
_symmetry_space_group_name_H-M "C 2/M"
_symmetry_group_IT_number 12
_symmetry_cell_setting 'monoclinic'
loop_
_space_group_symop_operation_xyz
x,y,z
-x,y,-z
-x,-y,-z
x,-y,z
1/2+x,1/2+y,z
1/2-x,1/2+y,-z
1/2-x,1/2-y,-z
1/2+x,1/2-y,z
loop_
_atom_site_type_symbol
_atom_site_label
_atom_site_fract_x
_atom_site_fract_y
_atom_site_fract_z
Si Si1 0.302792 0.817992 0.209336
Si Si2 0.386822 0.194144 0.715184
Si Si3 0.300055 0.684092 0.323606
Si Si4 0.405997 0.196360 0.582448
Si Si5 0.141139 0.693425 0.065397
Si Si6 0.509481 0.317332 0.932537
Si Si7 0.008709 0.307272 0.237246
O O1 0.218534 0.763216 0.217268
O O2 0.302235 0.699019 0.259140
O O3 0.405565 0.801117 0.128396
O O4 0.286446 0.000000 0.236637
O O5 0.410589 0.244316 0.641820
O O6 0.455178 0.248147 0.725033
O O7 0.384015 0.000000 0.717153
O O8 0.302281 0.500000 0.339827
O O9 0.192725 0.750744 0.391701
O O10 0.398160 0.763166 0.288774
O O11 0.500000 0.247748 0.500000
O O12 0.402911 0.000000 0.583788
O O13 0.139529 0.500000 0.066126
O O14 0.083708 0.761884 0.047127
O O15 0.080242 0.747488 0.150902
O O16 0.250000 0.750000 0.000000
O O17 0.533359 0.500000 0.902860
O O18 0.500000 0.317039 0.000000
O O19 0.014134 0.500000 0.233645
#
# Coordination Sequence:
#
# PCOD9184042 Si02
#       7
#     8   8   8   8   8   8   8
#     4  11  21  35  55  80 108 139 181 231 276 324
#     4   9  19  35  56  81 110 146 186 223 272 330
#     4  10  19  33  57  82 107 145 186 223 271 329
#     4   8  15  31  56  84 111 143 185 228 268 321
#     4  11  24  40  57  80 111 148 189 233 284 331
#     4  11  24  40  58  79 107 142 184 231 279 333
#     4  10  21  37  56  79 111 148 185 230 278 328
#
# _framework density 18.89808
#
# number of rings (size 3 to 8) (size 9 to 14) (size 15 to 20)
#    0.000    2.000    1.429    3.429    2.000    2.286 
#    0.000    0.714    0.000   10.714    0.000    0.000 
#    0.000    0.000    0.000    0.000    0.000    0.000 
#
# Total GULP energy -156046.986919 kJ/mol
# GULP energy per Si atom -5573.106676 kJ/mol
# Density = 1.885507 g / cm^3
# Si number density = 18.898080 Si / 1000 Ang^3
#
#
#
# Elastic Constant Matrix: (Units=GPa)
#
#
# Indices 1 2 3 4 5 6 
#
# 1 165.8668 16.0457 71.5597 0.0000 -28.3719 0.0002
# 2 16.0457 29.0115 13.3573 0.0001 0.7782 -0.0004
# 3 71.5597 13.3573 111.4533 0.0000 -30.0018 0.0001
# 4 0.0000 0.0001 0.0000 12.9117 0.0000 -8.0402
# 5 -28.3719 0.7782 -30.0018 0.0000 26.9353 0.0000
# 6 0.0002 -0.0004 0.0001 -8.0402 0.0000 10.3603
#
#
#
# Elastic Compliance Matrix: (Units=1/GPa)
#
#
# Indices 1 2 3 4 5 6 
#
# 1 0.008925 -0.003240 -0.003980 0.000000 0.005062 -0.000001
# 2 -0.003240 0.039060 -0.005461 0.000001 -0.010624 0.000003
# 3 -0.003980 -0.005461 0.015848 0.000000 0.013618 0.000000
# 4 0.000000 0.000001 0.000000 0.149879 0.000000 0.116315
# 5 0.005062 -0.010624 0.013618 0.000000 0.057933 -0.000001
# 6 -0.000001 0.000003 0.000000 0.116315 -0.000001 0.186790
#
#
# Mechanical properties :
#
#
# Convention : Reuss Voigt Hill
#
# Bulk Modulus (GPa) = 25.99247 56.47300 41.23273
# Shear Modulus (GPa) = 10.06805 23.73269 16.90037
#
# Velocity S-wave (km/s) = 2.31065 3.54761 2.99371
# Velocity P-wave (km/s) = 4.57195 6.83582 5.81512
#
# Compressibility (1/GPa) = 0.03847269
#
# Stress axis : x y z
#
# Youngs Moduli (GPa) = 112.04325 25.60149 63.10069
#
# Poissons Ratio (x) = 0.08295 0.25111
# Poissons Ratio (y) = 0.36301 0.34458
# Poissons Ratio (z) = 0.44588 0.13980
#
# Static dielectric constant tensor:
#      x y z
#    x 1.549050 0.000000 -0.044430 
#    y 0.000000 1.658970 0.000000 
#    z -0.044430 0.000000 1.672870 
# 
# From -- ./inp_files/342255.got.cif
#   From: 2010.05.17/outbox.cif.g08.bks.cpg/sg12_172_cif.got.tgz:342255.got - 2010.06.03 13:09:07.
