data_PCOD9184894
_publ_section_title
;
Structure prediction by ZEFSAII (Michael W. Deem and Ramdas Pophale) SiO2 
 PCOD9184894
Probable space group: C 2/M
;
_chemical_formula_sum "Si O2"
_cell_formula_units_Z 48
_cell_length_a 11.251949
_cell_length_b 12.135206
_cell_length_c 16.926939
_cell_angle_alpha 90.000000
_cell_angle_beta 111.026579
_cell_angle_gamma 90.000000
_cell_volume 2157.385155
_symmetry_space_group_name_H-M "C 2/M"
_symmetry_group_IT_number 12
_symmetry_cell_setting 'monoclinic'
loop_
_space_group_symop_operation_xyz
x,y,z
-x,y,-z
-x,-y,-z
x,-y,z
1/2+x,1/2+y,z
1/2-x,1/2+y,-z
1/2-x,1/2-y,-z
1/2+x,1/2-y,z
loop_
_atom_site_type_symbol
_atom_site_label
_atom_site_fract_x
_atom_site_fract_y
_atom_site_fract_z
Si Si1 0.703842 0.876491 0.010415
Si Si2 0.981482 0.624202 0.282427
Si Si3 0.315533 0.376977 0.797011
Si Si4 0.330095 0.701024 0.626993
Si Si5 0.650901 0.619322 0.539568
Si Si6 0.430825 0.839477 0.868911
O O1 0.680030 0.878685 0.099207
O O2 0.760754 0.000000 0.003242
O O3 0.750000 0.750000 0.000000
O O4 0.564390 0.875150 0.937237
O O5 0.981944 0.500000 0.316354
O O6 0.834273 0.650949 0.227239
O O7 0.047907 0.717758 0.350634
O O8 0.062770 0.624756 0.220544
O O9 0.335649 0.500000 0.829847
O O10 0.340136 0.367946 0.708899
O O11 0.409000 0.291711 0.860731
O O12 0.308577 0.634149 0.542016
O O13 0.211986 0.784459 0.604584
O O14 0.500000 0.624029 0.500000
O O15 0.691876 0.500000 0.579629
#
# Coordination Sequence:
#
# PCOD9184894 Si02
#       6
#     8   8   8   8   8   8
#     4  11  23  40  62  88 118 153 193 236 283 334
#     4  10  19  34  55  78 106 141 183 229 281 342
#     4  10  21  36  56  83 113 145 184 236 289 336
#     4  10  20  34  53  78 107 142 183 230 283 336
#     4  10  20  34  52  75 106 144 185 228 276 335
#     4  10  21  37  58  82 112 150 188 228 281 344
#
# _framework density 22.249158000000001
#
# number of rings (size 3 to 8) (size 9 to 14) (size 15 to 20)
#    0.000    1.833    0.000    5.000    0.000    2.667 
#    0.000    1.667    0.000   21.000    0.000    0.000 
#    0.000    0.000    0.000    0.000    0.000    0.000 
#
# Total GULP energy -133818.380874 kJ/mol
# GULP energy per Si atom -5575.765870 kJ/mol
# Density = 2.219852 g / cm^3
# Si number density = 22.249158 Si / 1000 Ang^3
#
#
#
# Elastic Constant Matrix: (Units=GPa)
#
#
# Indices 1 2 3 4 5 6 
#
# 1 46.7637 30.2936 -9.8664 0.0000 -2.4906 0.0000
# 2 30.2936 149.7565 5.5654 0.0000 11.7159 0.0000
# 3 -9.8664 5.5654 36.1256 0.0000 -9.0619 0.0000
# 4 0.0000 0.0000 0.0000 -32.3644 0.0000 -26.9354
# 5 -2.4906 11.7159 -9.0619 0.0000 28.2873 0.0000
# 6 0.0000 0.0000 0.0000 -26.9354 0.0000 -12.8632
#
#
#
# Elastic Compliance Matrix: (Units=1/GPa)
#
#
# Indices 1 2 3 4 5 6 
#
# 1 0.028698 -0.006921 0.011153 0.000000 0.008966 0.000000
# 2 -0.006921 0.008697 -0.004661 0.000000 -0.005705 0.000000
# 3 0.011153 -0.004661 0.034988 0.000000 0.014121 0.000000
# 4 0.000000 0.000000 0.000000 0.041601 0.000000 -0.087112
# 5 0.008966 -0.005705 0.014121 0.000000 0.043027 0.000000
# 6 0.000000 0.000000 0.000000 -0.087112 0.000000 0.104670
#
#
# Mechanical properties :
#
#
# Convention : Reuss Voigt Hill
#
# Bulk Modulus (GPa) = 13.98109 31.62568 22.80339
# Shear Modulus (GPa) = 17.45922 10.38881 13.92402
#
# Velocity S-wave (km/s) = 2.80431 2.16320 2.50436
# Velocity P-wave (km/s) = 4.09672 4.52597 4.31668
#
# Compressibility (1/GPa) = 0.07152518
#
# Stress axis : x y z
#
# Youngs Moduli (GPa) = 34.84506 114.98075 28.58153
#
# Poissons Ratio (x) = 0.79581 -0.31878
# Poissons Ratio (y) = 0.24117 0.13322
# Poissons Ratio (z) = -0.38864 0.53594
#
# Static dielectric constant tensor:
#      x y z
#    x 1.841300 0.000000 -0.031430 
#    y 0.000000 1.863580 0.000000 
#    z -0.031430 0.000000 1.805700 
# 
# From -- ./inp_files/261654.got.cif
#   From: 2010.05.17/outbox.cif.g08.bks.cpg/sg12_131_cif.got.tgz:261654.got - 2010.06.03 13:09:07.
