data_PCOD9184815
_publ_section_title
;
Structure prediction by ZEFSAII (Michael W. Deem and Ramdas Pophale) SiO2 
 PCOD9184815
Probable space group: C 2/M
;
_chemical_formula_sum "Si O2"
_cell_formula_units_Z 64
_cell_length_a 18.860764
_cell_length_b 18.696230
_cell_length_c 9.552002
_cell_angle_alpha 90.000000
_cell_angle_beta 86.764405
_cell_angle_gamma 90.000000
_cell_volume 3362.907046
_symmetry_space_group_name_H-M "C 2/M"
_symmetry_group_IT_number 12
_symmetry_cell_setting 'monoclinic'
loop_
_space_group_symop_operation_xyz
x,y,z
-x,y,-z
-x,-y,-z
x,-y,z
1/2+x,1/2+y,z
1/2-x,1/2+y,-z
1/2-x,1/2-y,-z
1/2+x,1/2-y,z
loop_
_atom_site_type_symbol
_atom_site_label
_atom_site_fract_x
_atom_site_fract_y
_atom_site_fract_z
Si Si1 0.151569 0.209985 0.648203
Si Si2 0.846449 0.617385 0.358207
Si Si3 0.190668 0.649052 0.338801
Si Si4 0.308804 0.916724 0.959387
Si Si5 0.293335 0.580316 0.791764
Si Si6 0.392327 0.297029 0.660282
Si Si7 0.942151 0.375659 0.108961
Si Si8 0.024507 0.789065 0.844889
O O1 0.160222 0.296080 0.659603
O O2 0.229470 0.175377 0.633107
O O3 0.110508 0.195481 0.507360
O O4 0.101564 0.185923 0.781806
O O5 0.844023 0.608959 0.524873
O O6 0.777343 0.582986 0.296327
O O7 0.914823 0.593148 0.260316
O O8 0.194783 0.601059 0.201740
O O9 0.144392 0.719782 0.310446
O O10 0.326454 0.000000 0.981459
O O11 0.235797 0.903032 0.049746
O O12 0.370384 0.871010 0.025864
O O13 0.323046 0.500000 0.784389
O O14 0.344782 0.640703 0.731069
O O15 0.467150 0.301824 0.729854
O O16 0.970632 0.296970 0.140603
O O17 0.000000 0.411381 0.000000
O O18 0.000000 0.816874 0.000000
#
# Coordination Sequence:
#
# PCOD9184815 Si02
#       8
#     8   8   8   8   8   8   8   8
#     4  10  19  34  54  85 117 145 177 240 294 328
#     4   9  17  34  54  81 111 141 185 228 281 335
#     4  11  19  33  59  85 115 143 187 238 291 328
#     4  10  23  37  54  82 118 151 186 235 283 331
#     4  10  20  36  55  79 110 150 188 230 281 332
#     4  11  20  36  57  84 115 146 187 239 285 335
#     4   9  18  36  54  79 112 149 187 221 278 339
#     4  10  21  33  53  85 114 146 188 227 284 336
#
# _framework density 19.031154000000001
#
# number of rings (size 3 to 8) (size 9 to 14) (size 15 to 20)
#    0.000    2.000    2.500    2.625    1.750    1.250 
#    0.000    1.875    0.000    3.375    0.000    0.000 
#    0.000    0.000    0.000    0.000    0.000    0.000 
#
# Total GULP energy -178434.104807 kJ/mol
# GULP energy per Si atom -5576.065775 kJ/mol
# Density = 1.898784 g / cm^3
# Si number density = 19.031154 Si / 1000 Ang^3
#
#
#
# Elastic Constant Matrix: (Units=GPa)
#
#
# Indices 1 2 3 4 5 6 
#
# 1 56.8519 11.5234 23.5121 0.0000 -13.8127 0.0000
# 2 11.5234 27.8341 25.3008 0.0000 -12.9267 0.0000
# 3 23.5121 25.3008 128.3720 0.0000 -23.1560 0.0000
# 4 0.0000 0.0000 0.0000 12.6748 0.0000 -1.4677
# 5 -13.8127 -12.9267 -23.1560 0.0000 33.4199 0.0000
# 6 0.0000 0.0000 0.0000 -1.4677 0.0000 -4.4257
#
#
#
# Elastic Compliance Matrix: (Units=1/GPa)
#
#
# Indices 1 2 3 4 5 6 
#
# 1 0.020589 -0.004179 -0.001947 0.000000 0.005544 0.000000
# 2 -0.004179 0.049734 -0.006718 0.000000 0.012855 0.000000
# 3 -0.001947 -0.006718 0.010122 0.000000 0.003610 0.000000
# 4 0.000000 0.000000 0.000000 0.075979 0.000000 -0.025197
# 5 0.005544 0.012855 0.003610 0.000000 0.039687 0.000000
# 6 0.000000 0.000000 0.000000 -0.025197 0.000000 -0.217595
#
#
# Mechanical properties :
#
#
# Convention : Reuss Voigt Hill
#
# Bulk Modulus (GPa) = 18.26288 37.08119 27.67204
# Shear Modulus (GPa) = 222.65918 18.51523 120.58720
#
# Velocity S-wave (km/s) = 10.82826 3.12250 7.96873
# Velocity P-wave (km/s) = 12.88224 5.70323 9.96190
#
# Compressibility (1/GPa) = 0.05475586
#
# Stress axis : x y z
#
# Youngs Moduli (GPa) = 48.56984 20.10707 98.79787
#
# Poissons Ratio (x) = 0.08403 0.19239
# Poissons Ratio (y) = 0.20298 0.66370
# Poissons Ratio (z) = 0.09458 0.13507
#
# Static dielectric constant tensor:
#      x y z
#    x 1.675540 0.000000 -0.035740 
#    y 0.000000 1.633460 0.000000 
#    z -0.035740 0.000000 1.699060 
# 
# From -- ./inp_files/77543.got.cif
#   From: 2010.05.17/outbox.cif.g08.bks.cpg/sg12_39_cif.got.tgz:77543.got - 2010.06.03 13:09:07.
