data_PCOD9184185
_publ_section_title
;
Structure prediction by ZEFSAII (Michael W. Deem and Ramdas Pophale) SiO2 
 PCOD9184185
Probable space group: C 2/M
;
_chemical_formula_sum "Si O2"
_cell_formula_units_Z 64
_cell_length_a 20.926349
_cell_length_b 8.799565
_cell_length_c 34.700138
_cell_angle_alpha 90.000000
_cell_angle_beta 33.072885
_cell_angle_gamma 90.000000
_cell_volume 3486.937499
_symmetry_space_group_name_H-M "C 2/M"
_symmetry_group_IT_number 12
_symmetry_cell_setting 'monoclinic'
loop_
_space_group_symop_operation_xyz
x,y,z
-x,y,-z
-x,-y,-z
x,-y,z
1/2+x,1/2+y,z
1/2-x,1/2+y,-z
1/2-x,1/2-y,-z
1/2+x,1/2-y,z
loop_
_atom_site_type_symbol
_atom_site_label
_atom_site_fract_x
_atom_site_fract_y
_atom_site_fract_z
Si Si1 0.380301 0.681593 0.037293
Si Si2 0.433779 0.181442 0.282420
Si Si3 0.093721 0.682662 0.793112
Si Si4 0.691262 0.818717 0.269380
Si Si5 0.219991 0.180383 0.577332
Si Si6 0.632157 0.182449 0.041462
Si Si7 0.425912 0.181691 0.418966
Si Si8 0.174048 0.818561 0.193245
O O1 0.140776 0.500000 0.035392
O O2 0.272089 0.752308 0.115194
O O3 0.500000 0.712236 0.000000
O O4 0.386302 0.751645 0.991782
O O5 0.422048 0.224028 0.243616
O O6 0.321842 0.233466 0.363608
O O7 0.547545 0.259458 0.243473
O O8 0.448113 0.000000 0.277984
O O9 0.107824 0.500000 0.788048
O O10 0.205549 0.760203 0.755745
O O11 0.977896 0.722732 0.875878
O O12 0.562947 0.784031 0.351638
O O13 0.698215 0.741457 0.224033
O O14 0.699844 0.000000 0.260021
O O15 0.348889 0.217038 0.495629
O O16 0.132250 0.230429 0.587340
O O17 0.211487 0.000000 0.587634
O O18 0.823343 0.000000 0.808582
O O19 0.750000 0.250000 0.000000
O O20 0.412813 0.000000 0.418317
O O21 0.364814 0.500000 0.042389
#
# Coordination Sequence:
#
# PCOD9184185 Si02
#       8
#     8   8   8   8   8   8   8   8
#     4  11  24  41  61  87 119 154 193 241 297 355
#     4  11  22  39  60  86 120 157 197 245 297 346
#     4  10  24  42  60  84 119 158 196 242 295 353
#     4  11  22  38  61  88 120 158 196 241 297 354
#     4  10  19  33  57  88 118 153 198 245 294 347
#     4  11  23  41  64  88 116 155 201 248 298 355
#     4   9  19  35  56  85 120 156 194 241 296 350
#     4  12  24  38  61  90 118 151 195 245 294 351
#
# _framework density 18.354215
#
# number of rings (size 3 to 8) (size 9 to 14) (size 15 to 20)
#    0.000    1.375    1.250    4.500    0.000    7.000 
#    0.000    0.625    0.000    3.750    0.000    0.000 
#    0.000    0.000    0.000    0.000    0.000    0.000 
#
# Total GULP energy -178908.310065 kJ/mol
# GULP energy per Si atom -5590.884690 kJ/mol
# Density = 1.831244 g / cm^3
# Si number density = 18.354215 Si / 1000 Ang^3
#
#
#
# Elastic Constant Matrix: (Units=GPa)
#
#
# Indices 1 2 3 4 5 6 
#
# 1 97.0039 45.9155 51.2295 0.0039 8.9722 0.0123
# 2 45.9155 60.1341 52.4173 0.0028 2.8908 0.0049
# 3 51.2295 52.4173 143.7628 0.0001 11.2736 -0.0002
# 4 0.0039 0.0028 0.0001 33.0479 -0.0004 0.7412
# 5 8.9722 2.8908 11.2736 -0.0004 23.7639 0.0003
# 6 0.0123 0.0049 -0.0002 0.7412 0.0003 33.0082
#
#
#
# Elastic Compliance Matrix: (Units=1/GPa)
#
#
# Indices 1 2 3 4 5 6 
#
# 1 0.016889 -0.011340 -0.001549 -0.000001 -0.004262 -0.000005
# 2 -0.011340 0.032030 -0.007964 -0.000001 0.004163 -0.000001
# 3 -0.001549 -0.007964 0.010688 0.000001 -0.003516 0.000002
# 4 -0.000001 -0.000001 0.000001 0.030274 0.000001 -0.000680
# 5 -0.004262 0.004163 -0.003516 0.000001 0.044851 0.000000
# 6 -0.000005 -0.000001 0.000002 -0.000680 0.000000 0.030311
#
#
# Mechanical properties :
#
#
# Convention : Reuss Voigt Hill
#
# Bulk Modulus (GPa) = 55.86706 66.66949 61.26827
# Shear Modulus (GPa) = 23.50540 28.05323 25.77931
#
# Velocity S-wave (km/s) = 3.58250 3.91376 3.75179
# Velocity P-wave (km/s) = 6.90049 7.53830 7.22644
#
# Compressibility (1/GPa) = 0.01789964
#
# Stress axis : x y z
#
# Youngs Moduli (GPa) = 59.20982 31.22055 93.56722
#
# Poissons Ratio (x) = 0.35405 0.14497
# Poissons Ratio (y) = 0.67145 0.74516
# Poissons Ratio (z) = 0.09174 0.24864
#
# Static dielectric constant tensor:
#      x y z
#    x 1.587330 0.000000 -0.000020 
#    y 0.000000 1.615660 0.000000 
#    z -0.000020 0.000000 1.630070 
# 
# From -- ./inp_files/378126.got.cif
#   From: 2010.05.17/outbox.cif.g08.bks.cpg/sg12_190_cif.got.tgz:378126.got - 2010.06.03 13:09:07.
