data_PCOD9184387
_publ_section_title
;
Structure prediction by ZEFSAII (Michael W. Deem and Ramdas Pophale) SiO2 
 PCOD9184387
Probable space group: C 2/M
;
_chemical_formula_sum "Si O2"
_cell_formula_units_Z 56
_cell_length_a 20.547748
_cell_length_b 8.678860
_cell_length_c 19.161465
_cell_angle_alpha 90.000000
_cell_angle_beta 120.156162
_cell_angle_gamma 90.000000
_cell_volume 2954.613652
_symmetry_space_group_name_H-M "C 2/M"
_symmetry_group_IT_number 12
_symmetry_cell_setting 'monoclinic'
loop_
_space_group_symop_operation_xyz
x,y,z
-x,y,-z
-x,-y,-z
x,-y,z
1/2+x,1/2+y,z
1/2-x,1/2+y,-z
1/2-x,1/2-y,-z
1/2+x,1/2-y,z
loop_
_atom_site_type_symbol
_atom_site_label
_atom_site_fract_x
_atom_site_fract_y
_atom_site_fract_z
Si Si1 0.518227 0.187707 0.302937
Si Si2 0.346938 0.183234 0.224697
Si Si3 0.206735 0.683160 0.646733
Si Si4 0.221937 0.317952 0.057643
Si Si5 0.629722 0.815534 0.240128
Si Si6 0.066555 0.688198 0.482979
Si Si7 0.084574 0.815416 0.065040
O O1 0.431006 0.233090 0.249729
O O2 0.570201 0.237147 0.266835
O O3 0.549608 0.238494 0.395121
O O4 0.518710 0.000000 0.304206
O O5 0.333836 0.202667 0.300167
O O6 0.283679 0.273606 0.148844
O O7 0.338759 0.000000 0.205287
O O8 0.220026 0.500000 0.645040
O O9 0.286515 0.766557 0.692372
O O10 0.147470 0.736611 0.556454
O O11 0.214114 0.500000 0.048034
O O12 0.143427 0.246249 0.040172
O O13 0.250000 0.250000 0.000000
O O14 0.609375 0.745581 0.154121
O O15 0.626158 0.000000 0.232881
O O16 0.066272 0.500000 0.483512
O O17 0.000000 0.736183 0.500000
O O18 0.087806 0.000000 0.067897
O O19 0.000000 0.766834 0.000000
#
# Coordination Sequence:
#
# PCOD9184387 Si02
#       7
#     8   8   8   8   8   8   8
#     4   9  19  34  55  87 121 156 203 251 295 351
#     4  10  19  36  61  88 118 157 203 252 296 347
#     4  10  19  33  60  87 114 155 202 248 297 353
#     4  12  26  43  65  94 125 159 199 245 299 360
#     4  11  23  38  57  85 123 162 197 242 301 365
#     4   9  15  29  55  87 116 149 200 254 298 345
#     4  11  25  45  66  89 120 157 200 252 305 361
#
# _framework density 18.953409000000001
#
# number of rings (size 3 to 8) (size 9 to 14) (size 15 to 20)
#    0.000    1.714    2.857    2.143    2.000    1.714 
#    0.000    0.714    0.000    2.143    0.000    0.000 
#    0.000    0.000    0.000    0.000    0.000    0.000 
#
# Total GULP energy -156437.289933 kJ/mol
# GULP energy per Si atom -5587.046069 kJ/mol
# Density = 1.891027 g / cm^3
# Si number density = 18.953409 Si / 1000 Ang^3
#
#
#
# Elastic Constant Matrix: (Units=GPa)
#
#
# Indices 1 2 3 4 5 6 
#
# 1 171.9735 39.5688 55.9760 0.0000 10.5035 0.0000
# 2 39.5688 37.0529 26.0964 0.0000 3.8680 0.0000
# 3 55.9760 26.0964 81.7986 0.0000 14.0415 0.0000
# 4 0.0000 0.0000 0.0000 0.9521 0.0000 -11.2380
# 5 10.5035 3.8680 14.0415 0.0000 38.1685 0.0000
# 6 0.0000 0.0000 0.0000 -11.2380 0.0000 12.2542
#
#
#
# Elastic Compliance Matrix: (Units=1/GPa)
#
#
# Indices 1 2 3 4 5 6 
#
# 1 0.008532 -0.006455 -0.003724 0.000000 -0.000324 0.000000
# 2 -0.006455 0.039706 -0.008395 0.000000 0.000841 0.000000
# 3 -0.003724 -0.008395 0.018284 0.000000 -0.004851 0.000000
# 4 0.000000 0.000000 0.000000 -0.106906 0.000000 -0.098041
# 5 -0.000324 0.000841 -0.004851 0.000000 0.027988 0.000000
# 6 0.000000 0.000000 0.000000 -0.098041 0.000000 -0.008306
#
#
# Mechanical properties :
#
#
# Convention : Reuss Voigt Hill
#
# Bulk Modulus (GPa) = 34.04151 59.34529 46.69340
# Shear Modulus (GPa) = 190.58028 21.55387 106.06708
#
# Velocity S-wave (km/s) = 10.03844 3.37590 7.48889
# Velocity P-wave (km/s) = 12.34342 6.82457 9.97333
#
# Compressibility (1/GPa) = 0.02937590
#
# Stress axis : x y z
#
# Youngs Moduli (GPa) = 117.20890 25.18501 54.69221
#
# Poissons Ratio (x) = 0.16256 0.20365
# Poissons Ratio (y) = 0.75656 0.45913
# Poissons Ratio (z) = 0.43643 0.21142
#
# Static dielectric constant tensor:
#      x y z
#    x 1.644910 0.000000 0.000810 
#    y 0.000000 1.638260 0.000000 
#    z 0.000810 0.000000 1.646860 
# 
# From -- ./inp_files/281763.got.cif
#   From: 2010.05.17/outbox.cif.g08.bks.cpg/sg12_141_cif.got.tgz:281763.got - 2010.06.03 13:09:07.
