data_PCOD9184417
_publ_section_title
;
Structure prediction by ZEFSAII (Michael W. Deem and Ramdas Pophale) SiO2 
 PCOD9184417
Probable space group: C 2/M
;
_chemical_formula_sum "Si O2"
_cell_formula_units_Z 58
_cell_length_a 19.214372
_cell_length_b 7.831068
_cell_length_c 22.721185
_cell_angle_alpha 90.000000
_cell_angle_beta 123.348039
_cell_angle_gamma 90.000000
_cell_volume 2855.912863
_symmetry_space_group_name_H-M "C 2/M"
_symmetry_group_IT_number 12
_symmetry_cell_setting 'monoclinic'
loop_
_space_group_symop_operation_xyz
x,y,z
-x,y,-z
-x,-y,-z
x,-y,z
1/2+x,1/2+y,z
1/2-x,1/2+y,-z
1/2-x,1/2-y,-z
1/2+x,1/2-y,z
loop_
_atom_site_type_symbol
_atom_site_label
_atom_site_fract_x
_atom_site_fract_y
_atom_site_fract_z
Si Si1 0.354290 0.304202 0.193433
Si Si2 0.690902 0.702410 0.702279
Si Si3 0.027459 0.700795 0.324045
Si Si4 0.367610 0.297098 0.733396
Si Si5 0.500000 0.000000 0.000000
Si Si6 0.657589 0.808529 0.941472
Si Si7 0.485565 0.199162 0.429062
Si Si8 0.518379 0.696601 0.100405
O O1 0.330257 0.500000 0.168710
O O2 0.304537 0.239649 0.227378
O O3 0.449982 0.297519 0.258607
O O4 0.346625 0.198230 0.130896
O O5 0.674209 0.500000 0.696861
O O6 0.776703 0.737015 0.710042
O O7 0.611312 0.785665 0.634040
O O8 0.004691 0.500000 0.316304
O O9 0.035118 0.765496 0.394676
O O10 0.103361 0.720531 0.314996
O O11 0.367167 0.500000 0.726656
O O12 0.432672 0.258562 0.816382
O O13 0.465814 0.845832 0.939256
O O14 0.580649 0.701842 0.931138
O O15 0.643813 0.000000 0.958165
O O16 0.750000 0.750000 0.000000
O O17 0.500000 0.278319 0.500000
O O18 0.509258 0.000000 0.444813
O O19 0.540786 0.500000 0.093929
#
# Coordination Sequence:
#
# PCOD9184417 Si02
#       8
#     8   8   8   8   2   8   8   8
#     4  10  20  37  58  85 117 151 200 254 309 368
#     4  10  22  37  60  91 123 158 202 256 305 364
#     4  10  19  33  61  90 116 158 203 246 299 364
#     4  11  23  39  62  88 124 160 207 260 310 366
#     4  12  26  44  68  90 128 172 214 258 336 398
#     4  12  24  40  62  88 119 159 205 263 322 379
#     4   9  19  38  62  91 128 164 200 246 304 367
#     4  11  25  45  65  91 124 167 215 267 322 388
#
# _framework density 20.308743
#
# number of rings (size 3 to 8) (size 9 to 14) (size 15 to 20)
#    0.000    1.517    2.069    3.103    1.931    3.586 
#    2.483    2.069    0.000    0.000    0.000    0.000 
#    0.000    0.000    0.000    0.000    0.000    0.000 
#
# Total GULP energy -161647.674432 kJ/mol
# GULP energy per Si atom -5574.057739 kJ/mol
# Density = 2.026252 g / cm^3
# Si number density = 20.308743 Si / 1000 Ang^3
#
#
#
# Elastic Constant Matrix: (Units=GPa)
#
#
# Indices 1 2 3 4 5 6 
#
# 1 81.5090 -1.3639 -1.6369 0.0000 -11.0924 0.0000
# 2 -1.3639 76.5771 19.4455 0.0000 -12.6768 0.0000
# 3 -1.6369 19.4455 56.5608 0.0000 -24.0192 0.0000
# 4 0.0000 0.0000 0.0000 16.7220 0.0000 2.5996
# 5 -11.0924 -12.6768 -24.0192 0.0000 24.8122 0.0000
# 6 0.0000 0.0000 0.0000 2.5996 0.0000 14.8015
#
#
#
# Elastic Compliance Matrix: (Units=1/GPa)
#
#
# Indices 1 2 3 4 5 6 
#
# 1 0.013952 0.000889 0.004992 0.000000 0.011524 0.000000
# 2 0.000889 0.014643 -0.002824 0.000000 0.005145 0.000000
# 3 0.004992 -0.002824 0.032484 0.000000 0.032235 0.000000
# 4 0.000000 0.000000 0.000000 0.061480 0.000000 -0.010798
# 5 0.011524 0.005145 0.032235 0.000000 0.079288 0.000000
# 6 0.000000 0.000000 0.000000 -0.010798 0.000000 0.069457
#
#
# Mechanical properties :
#
#
# Convention : Reuss Voigt Hill
#
# Bulk Modulus (GPa) = 14.88245 27.50404 21.19324
# Shear Modulus (GPa) = 17.38592 24.48062 20.93327
#
# Velocity S-wave (km/s) = 2.92906 3.47569 3.21402
# Velocity P-wave (km/s) = 4.33396 5.44789 4.92254
#
# Compressibility (1/GPa) = 0.06719325
#
# Stress axis : x y z
#
# Youngs Moduli (GPa) = 71.67470 68.29052 30.78402
#
# Poissons Ratio (x) = -0.06068 -0.15367
# Poissons Ratio (y) = -0.06368 0.08692
# Poissons Ratio (z) = -0.35780 0.19283
#
# Static dielectric constant tensor:
#      x y z
#    x 1.758770 0.000000 -0.048280 
#    y 0.000000 1.749530 0.000000 
#    z -0.048280 0.000000 1.719000 
# 
# From -- ./inp_files/314789.got.cif
#   From: 2010.05.17/outbox.cif.g08.bks.cpg/sg12_158_cif.got.tgz:314789.got - 2010.06.03 13:09:07.
