data_PCOD9184461
_publ_section_title
;
Structure prediction by ZEFSAII (Michael W. Deem and Ramdas Pophale) SiO2 
 PCOD9184461
Probable space group: C 2/M
;
_chemical_formula_sum "Si O2"
_cell_formula_units_Z 50
_cell_length_a 15.734459
_cell_length_b 13.014685
_cell_length_c 15.184926
_cell_angle_alpha 90.000000
_cell_angle_beta 132.436332
_cell_angle_gamma 90.000000
_cell_volume 2294.936981
_symmetry_space_group_name_H-M "C 2/M"
_symmetry_group_IT_number 12
_symmetry_cell_setting 'monoclinic'
loop_
_space_group_symop_operation_xyz
x,y,z
-x,y,-z
-x,-y,-z
x,-y,z
1/2+x,1/2+y,z
1/2-x,1/2+y,-z
1/2-x,1/2-y,-z
1/2+x,1/2-y,z
loop_
_atom_site_type_symbol
_atom_site_label
_atom_site_fract_x
_atom_site_fract_y
_atom_site_fract_z
Si Si1 0.883833 0.379638 0.960453
Si Si2 0.000000 0.500000 0.500000
Si Si3 0.864249 0.381868 0.139731
Si Si4 0.196078 0.883568 0.370243
Si Si5 0.798690 0.112663 0.325236
Si Si6 0.336137 0.173880 0.308347
Si Si7 0.873460 0.663545 0.636062
O O1 0.912161 0.500000 0.000546
O O2 0.787194 0.381554 0.818410
O O3 0.847497 0.337643 0.030161
O O4 0.000000 0.332896 0.000000
O O5 0.070424 0.588858 0.604370
O O6 0.824065 0.500000 0.114462
O O7 0.811815 0.326342 0.187709
O O8 0.002254 0.377435 0.252596
O O9 0.225178 0.856906 0.289666
O O10 0.125595 0.788335 0.361263
O O11 0.319733 0.876552 0.507224
O O12 0.152568 0.000000 0.349740
O O13 0.874537 0.213470 0.366765
O O14 0.718977 0.127545 0.355528
O O15 0.853063 0.000000 0.365760
#
# Coordination Sequence:
#
# PCOD9184461 Si02
#       7
#     8   2   8   8   8   8   8
#     4   9  17  31  55  83 109 139 183 229 275 324
#     4  12  20  40  54  84 108 144 192 220 264 334
#     4  11  19  32  54  82 107 140 185 236 275 316
#     4  10  19  34  49  76 109 143 181 227 270 332
#     4  10  20  38  55  82 115 146 181 228 281 330
#     4  11  23  34  56  82 113 147 180 230 276 324
#     4  10  20  30  54  79 103 144 185 226 277 317
#
# _framework density 21.787089999999999
#
# number of rings (size 3 to 8) (size 9 to 14) (size 15 to 20)
#    0.000    1.760    3.200    2.400    0.000    0.640 
#    0.000    1.200    0.000    0.000    2.080    2.800 
#    0.000    0.000    0.000    0.000    0.000    0.000 
#
# Total GULP energy -139325.238409 kJ/mol
# GULP energy per Si atom -5573.009536 kJ/mol
# Density = 2.173750 g / cm^3
# Si number density = 21.787090 Si / 1000 Ang^3
#
#
#
# Elastic Constant Matrix: (Units=GPa)
#
#
# Indices 1 2 3 4 5 6 
#
# 1 42.7276 18.0561 29.4995 0.0000 -31.9609 0.0000
# 2 18.0561 179.4096 5.9990 0.0000 -5.8766 0.0000
# 3 29.4995 5.9990 80.6781 0.0000 -29.5150 0.0000
# 4 0.0000 0.0000 0.0000 49.1117 0.0000 -2.8845
# 5 -31.9609 -5.8766 -29.5150 0.0000 40.2180 0.0000
# 6 0.0000 0.0000 0.0000 -2.8845 0.0000 5.8128
#
#
#
# Elastic Compliance Matrix: (Units=1/GPa)
#
#
# Indices 1 2 3 4 5 6 
#
# 1 0.063567 -0.004705 -0.006376 0.000000 0.045150 0.000000
# 2 -0.004705 0.005950 0.000312 0.000000 -0.002641 0.000000
# 3 -0.006376 0.000312 0.017588 0.000000 0.007886 0.000000
# 4 0.000000 0.000000 0.000000 0.020973 0.000000 0.010408
# 5 0.045150 -0.002641 0.007886 0.000000 0.066146 0.000000
# 6 0.000000 0.000000 0.000000 0.010408 0.000000 0.177197
#
#
# Mechanical properties :
#
#
# Convention : Reuss Voigt Hill
#
# Bulk Modulus (GPa) = 15.25153 45.54715 30.39934
# Shear Modulus (GPa) = 12.66412 35.64589 24.15500
#
# Velocity S-wave (km/s) = 2.41356 4.04926 3.33330
# Velocity P-wave (km/s) = 3.84480 6.54316 5.36635
#
# Compressibility (1/GPa) = 0.06556721
#
# Stress axis : x y z
#
# Youngs Moduli (GPa) = 15.73144 168.05414 56.85668
#
# Poissons Ratio (x) = 0.79076 0.36250
# Poissons Ratio (y) = 0.07402 -0.01773
# Poissons Ratio (z) = 0.10030 -0.05241
#
# Static dielectric constant tensor:
#      x y z
#    x 1.836260 0.000000 -0.055870 
#    y 0.000000 1.826920 0.000000 
#    z -0.055870 0.000000 1.778250 
# 
# From -- ./inp_files/223045.got.cif
#   From: 2010.05.17/outbox.cif.g08.bks.cpg/sg12_112_cif.got.tgz:223045.got - 2010.06.03 13:09:07.
