data_PCOD9184792
_publ_section_title
;
Structure prediction by ZEFSAII (Michael W. Deem and Ramdas Pophale) SiO2 
 PCOD9184792
Probable space group: C 2/M
;
_chemical_formula_sum "Si O2"
_cell_formula_units_Z 64
_cell_length_a 29.635912
_cell_length_b 7.592391
_cell_length_c 14.711487
_cell_angle_alpha 90.000000
_cell_angle_beta 120.432372
_cell_angle_gamma 90.000000
_cell_volume 2854.140623
_symmetry_space_group_name_H-M "C 2/M"
_symmetry_group_IT_number 12
_symmetry_cell_setting 'monoclinic'
loop_
_space_group_symop_operation_xyz
x,y,z
-x,y,-z
-x,-y,-z
x,-y,z
1/2+x,1/2+y,z
1/2-x,1/2+y,-z
1/2-x,1/2-y,-z
1/2+x,1/2-y,z
loop_
_atom_site_type_symbol
_atom_site_label
_atom_site_fract_x
_atom_site_fract_y
_atom_site_fract_z
Si Si1 0.789270 0.694229 0.961725
Si Si2 0.975562 0.711378 0.244399
Si Si3 0.836920 0.209066 0.351681
Si Si4 0.952600 0.715204 0.016931
Si Si5 0.244842 0.288821 0.388808
Si Si6 0.363462 0.291161 0.183621
Si Si7 0.338419 0.216746 0.834406
Si Si8 0.455708 0.213067 0.527182
O O1 0.771860 0.500000 0.919197
O O2 0.843707 0.698126 0.072333
O O3 0.750000 0.750000 0.000000
O O4 0.800944 0.782683 0.878199
O O5 0.979139 0.500000 0.241576
O O6 0.924830 0.756940 0.252683
O O7 0.025329 0.772042 0.353284
O O8 0.964811 0.778199 0.131804
O O9 0.793701 0.278740 0.377788
O O10 0.834934 0.276146 0.245443
O O11 0.896566 0.233953 0.445043
O O12 0.828448 0.000000 0.335436
O O13 0.951016 0.500000 0.018239
O O14 0.897084 0.773671 0.918452
O O15 0.000000 0.766181 0.000000
O O16 0.245602 0.500000 0.381465
O O17 0.250000 0.250000 0.500000
O O18 0.190133 0.229694 0.287374
O O19 0.354470 0.500000 0.163643
O O20 0.339809 0.000000 0.838166
O O21 0.500000 0.273294 0.500000
O O22 0.456605 0.000000 0.525670
#
# Coordination Sequence:
#
# PCOD9184792 Si02
#       8
#     8   8   8   8   8   8   8   8
#     4  11  21  35  56  84 116 151 188 232 286 340
#     4  10  19  34  54  81 114 147 186 236 287 334
#     4  10  22  38  56  80 115 156 197 238 284 350
#     4   9  17  31  55  85 111 142 186 230 278 338
#     4  10  22  41  61  82 110 148 195 241 284 334
#     4  11  21  34  55  83 114 151 190 231 282 344
#     4   9  18  35  59  82 111 149 187 230 279 337
#     4  10  20  33  54  84 116 148 189 242 291 340
#
# _framework density 22.423563999999999
#
# number of rings (size 3 to 8) (size 9 to 14) (size 15 to 20)
#    0.000    2.000    2.500    1.500    0.000    4.750 
#    0.000    5.000    0.000    0.375    0.000    0.000 
#    0.000    0.000    0.000    0.000    0.000    0.000 
#
# Total GULP energy -178648.526735 kJ/mol
# GULP energy per Si atom -5582.766460 kJ/mol
# Density = 2.237253 g / cm^3
# Si number density = 22.423564 Si / 1000 Ang^3
#
#
#
# Elastic Constant Matrix: (Units=GPa)
#
#
# Indices 1 2 3 4 5 6 
#
# 1 109.6209 -3.0301 69.7029 0.0000 -11.8510 0.0000
# 2 -3.0301 39.8131 8.9191 0.0000 -1.2745 0.0000
# 3 69.7029 8.9191 189.3339 0.0000 -7.6487 0.0000
# 4 0.0000 0.0000 0.0000 13.1447 0.0000 1.0804
# 5 -11.8510 -1.2745 -7.6487 0.0000 36.1219 0.0000
# 6 0.0000 0.0000 0.0000 1.0804 0.0000 16.7350
#
#
#
# Elastic Compliance Matrix: (Units=1/GPa)
#
#
# Indices 1 2 3 4 5 6 
#
# 1 0.012408 0.002063 -0.004537 0.000000 0.003183 0.000000
# 2 0.002063 0.025743 -0.001924 0.000000 0.001177 0.000000
# 3 -0.004537 -0.001924 0.007040 0.000000 -0.000066 0.000000
# 4 0.000000 0.000000 0.000000 0.076482 0.000000 -0.004937
# 5 0.003183 0.001177 -0.000066 0.000000 0.028756 0.000000
# 6 0.000000 0.000000 0.000000 -0.004937 0.000000 0.060074
#
#
# Mechanical properties :
#
#
# Convention : Reuss Voigt Hill
#
# Bulk Modulus (GPa) = 27.47701 54.43909 40.95805
# Shear Modulus (GPa) = 21.60468 30.74539 26.17504
#
# Velocity S-wave (km/s) = 3.10737 3.70688 3.42028
# Velocity P-wave (km/s) = 5.01543 6.53082 5.82263
#
# Compressibility (1/GPa) = 0.03639406
#
# Stress axis : x y z
#
# Youngs Moduli (GPa) = 80.59256 38.84532 142.04918
#
# Poissons Ratio (x) = -0.08012 0.64442
# Poissons Ratio (y) = -0.16623 0.27337
# Poissons Ratio (z) = 0.36562 0.07476
#
# Static dielectric constant tensor:
#      x y z
#    x 1.834630 0.000000 0.013890 
#    y 0.000000 1.856420 0.000000 
#    z 0.013890 0.000000 1.857550 
# 
# From -- ./inp_files/249193.got.cif
#   From: 2010.05.17/outbox.cif.g08.bks.cpg/sg12_125_cif.got.tgz:249193.got - 2010.06.03 13:09:07.
