data_PCOD9184193
_publ_section_title
;
Structure prediction by ZEFSAII (Michael W. Deem and Ramdas Pophale) SiO2 
 PCOD9184193
Probable space group: C 2/M
;
_chemical_formula_sum "Si O2"
_cell_formula_units_Z 48
_cell_length_a 19.860624
_cell_length_b 8.699932
_cell_length_c 15.166847
_cell_angle_alpha 90.000000
_cell_angle_beta 114.026551
_cell_angle_gamma 90.000000
_cell_volume 2393.561310
_symmetry_space_group_name_H-M "C 2/M"
_symmetry_group_IT_number 12
_symmetry_cell_setting 'monoclinic'
loop_
_space_group_symop_operation_xyz
x,y,z
-x,y,-z
-x,-y,-z
x,-y,z
1/2+x,1/2+y,z
1/2-x,1/2+y,-z
1/2-x,1/2-y,-z
1/2+x,1/2-y,z
loop_
_atom_site_type_symbol
_atom_site_label
_atom_site_fract_x
_atom_site_fract_y
_atom_site_fract_z
Si Si1 0.838418 0.682275 0.623814
Si Si2 0.064458 0.317911 0.157622
Si Si3 0.313321 0.320060 0.901156
Si Si4 0.819690 0.317953 0.417104
Si Si5 0.102981 0.317775 0.898589
Si Si6 0.339867 0.680670 0.242836
O O1 0.819263 0.500000 0.614969
O O2 0.904456 0.704952 0.727052
O O3 0.854185 0.722893 0.530676
O O4 0.766582 0.773648 0.618114
O O5 0.072795 0.500000 0.140205
O O6 0.116222 0.221458 0.121183
O O7 0.978481 0.279947 0.109274
O O8 0.295887 0.500000 0.887904
O O9 0.244030 0.226113 0.827415
O O10 0.336443 0.270177 0.011461
O O11 0.826265 0.500000 0.406524
O O12 0.851295 0.231703 0.349522
O O13 0.114153 0.500000 0.913949
O O14 0.110467 0.270045 0.801194
O O15 0.350299 0.500000 0.238609
#
# Coordination Sequence:
#
# PCOD9184193 Si02
#       6
#     8   8   8   8   8   8
#     4   9  18  34  58  87 118 150 189 235 285 341
#     4  10  21  39  62  88 118 155 193 235 286 343
#     4  12  24  39  61  88 116 151 196 242 289 343
#     4  10  19  33  57  89 117 148 191 239 288 339
#     4  11  24  41  60  84 118 156 195 238 289 346
#     4  12  24  40  60  84 117 155 196 242 293 344
#
# _framework density 20.053799000000001
#
# number of rings (size 3 to 8) (size 9 to 14) (size 15 to 20)
#    0.000    1.333    1.667    5.000    0.000    4.000 
#    0.000    0.833    0.000    5.000    0.000    0.000 
#    0.000    0.000    0.000    0.000    0.000    0.000 
#
# Total GULP energy -134217.664414 kJ/mol
# GULP energy per Si atom -5592.402684 kJ/mol
# Density = 2.000816 g / cm^3
# Si number density = 20.053799 Si / 1000 Ang^3
#
#
#
# Elastic Constant Matrix: (Units=GPa)
#
#
# Indices 1 2 3 4 5 6 
#
# 1 43.1090 1.3121 -7.8370 0.0000 -11.3252 0.0000
# 2 1.3121 20.5295 6.7827 0.0000 3.7110 0.0000
# 3 -7.8370 6.7827 69.7624 0.0000 -10.4752 0.0000
# 4 0.0000 0.0000 0.0000 31.6210 0.0000 -8.6762
# 5 -11.3252 3.7110 -10.4752 0.0000 28.0576 0.0000
# 6 0.0000 0.0000 0.0000 -8.6762 0.0000 25.8835
#
#
#
# Elastic Compliance Matrix: (Units=1/GPa)
#
#
# Indices 1 2 3 4 5 6 
#
# 1 0.028287 -0.006403 0.005977 0.000000 0.014496 0.000000
# 2 -0.006403 0.054010 -0.007873 0.000000 -0.012667 0.000000
# 3 0.005977 -0.007873 0.017257 0.000000 0.009897 0.000000
# 4 0.000000 0.000000 0.000000 0.034828 0.000000 0.011674
# 5 0.014496 -0.012667 0.009897 0.000000 0.046862 0.000000
# 6 0.000000 0.000000 0.000000 0.011674 0.000000 0.042548
#
#
# Mechanical properties :
#
#
# Convention : Reuss Voigt Hill
#
# Bulk Modulus (GPa) = 12.05441 14.87960 13.46701
# Shear Modulus (GPa) = 18.65378 25.98863 22.32121
#
# Velocity S-wave (km/s) = 3.05321 3.60383 3.33988
# Velocity P-wave (km/s) = 4.29575 4.97521 4.64792
#
# Compressibility (1/GPa) = 0.08295722
#
# Stress axis : x y z
#
# Youngs Moduli (GPa) = 35.35224 18.51493 57.94666
#
# Poissons Ratio (x) = 0.11855 -0.34634
# Poissons Ratio (y) = 0.22636 0.45619
# Poissons Ratio (z) = -0.21130 0.14576
#
# Static dielectric constant tensor:
#      x y z
#    x 1.685830 0.000000 -0.020630 
#    y 0.000000 1.672140 0.000000 
#    z -0.020630 0.000000 1.730030 
# 
# From -- ./inp_files/230431.got.cif
#   From: 2010.05.17/outbox.cif.g08.bks.cpg/sg12_116_cif.got.tgz:230431.got - 2010.06.03 13:09:07.
