data_PCOD9184893
_publ_section_title
;
Structure prediction by ZEFSAII (Michael W. Deem and Ramdas Pophale) SiO2 
 PCOD9184893
Probable space group: C 2/M
;
_chemical_formula_sum "Si O2"
_cell_formula_units_Z 64
_cell_length_a 23.351946
_cell_length_b 9.250145
_cell_length_c 21.906748
_cell_angle_alpha 90.000000
_cell_angle_beta 50.985039
_cell_angle_gamma 90.000000
_cell_volume 3676.717559
_symmetry_space_group_name_H-M "C 2/M"
_symmetry_group_IT_number 12
_symmetry_cell_setting 'monoclinic'
loop_
_space_group_symop_operation_xyz
x,y,z
-x,y,-z
-x,-y,-z
x,-y,z
1/2+x,1/2+y,z
1/2-x,1/2+y,-z
1/2-x,1/2-y,-z
1/2+x,1/2-y,z
loop_
_atom_site_type_symbol
_atom_site_label
_atom_site_fract_x
_atom_site_fract_y
_atom_site_fract_z
Si Si1 0.415223 0.823785 0.562548
Si Si2 0.655250 0.834408 0.514657
Si Si3 0.168605 0.165310 0.623123
Si Si4 0.695987 0.825150 0.257306
Si Si5 0.009877 0.672978 0.921816
Si Si6 0.705919 0.327503 0.120502
Si Si7 0.347239 0.325413 0.227413
Si Si8 0.860529 0.672512 0.949998
O O1 0.500000 0.781534 0.500000
O O2 0.376033 0.771982 0.527074
O O3 0.370735 0.780524 0.652852
O O4 0.411398 0.000000 0.564950
O O5 0.743481 0.835264 0.447485
O O6 0.634566 0.752740 0.590142
O O7 0.630251 0.000000 0.536846
O O8 0.156801 0.222471 0.699182
O O9 0.142744 0.000000 0.638360
O O10 0.693400 0.747817 0.193877
O O11 0.772394 0.789398 0.241144
O O12 0.693629 0.000000 0.250997
O O13 0.020387 0.500000 0.908485
O O14 0.081399 0.755399 0.850239
O O15 0.936286 0.711770 0.933227
O O16 0.000000 0.704325 0.000000
O O17 0.695298 0.500000 0.131525
O O18 0.654795 0.259168 0.101903
O O19 0.790198 0.300859 0.041287
O O20 0.352146 0.500000 0.223964
O O21 0.861691 0.500000 0.936449
#
# Coordination Sequence:
#
# PCOD9184893 Si02
#       8
#     8   8   8   8   8   8   8   8
#     4   9  17  32  54  77 101 134 176 220 259 307
#     4   9  16  30  52  75  99 129 172 214 254 308
#     4   9  17  31  50  73 102 135 167 210 263 306
#     4  10  19  34  55  78 106 140 180 221 264 315
#     4  10  21  37  56  80 111 141 172 218 268 309
#     4  10  20  35  58  83 106 138 178 220 261 306
#     4  10  20  34  53  77 107 143 179 218 265 319
#     4   9  19  37  57  78 108 143 177 212 258 314
#
# _framework density 17.406831
#
# number of rings (size 3 to 8) (size 9 to 14) (size 15 to 20)
#    0.000    2.500    1.250    1.125    0.000    3.250 
#    2.250    0.625    0.000    0.750    0.000    0.000 
#    0.000    0.000    0.000    0.000    0.000    0.000 
#
# Total GULP energy -178393.214359 kJ/mol
# GULP energy per Si atom -5574.787949 kJ/mol
# Density = 1.736721 g / cm^3
# Si number density = 17.406831 Si / 1000 Ang^3
#
#
#
# Elastic Constant Matrix: (Units=GPa)
#
#
# Indices 1 2 3 4 5 6 
#
# 1 103.3696 44.2317 91.1785 0.0000 14.3408 0.0001
# 2 44.2317 33.1012 56.1594 0.0001 12.1965 0.0001
# 3 91.1785 56.1594 151.1487 0.0000 28.0564 0.0000
# 4 0.0000 0.0001 0.0000 29.0582 0.0000 3.7374
# 5 14.3408 12.1965 28.0564 0.0000 33.6264 0.0000
# 6 0.0001 0.0001 0.0000 3.7374 0.0000 18.7560
#
#
#
# Elastic Compliance Matrix: (Units=1/GPa)
#
#
# Indices 1 2 3 4 5 6 
#
# 1 0.025633 -0.022231 -0.007893 0.000000 0.003717 0.000000
# 2 -0.022231 0.101757 -0.022844 0.000000 -0.008367 0.000000
# 3 -0.007893 -0.022844 0.020946 0.000000 -0.005825 0.000000
# 4 0.000000 0.000000 0.000000 0.035319 0.000000 -0.007038
# 5 0.003717 -0.008367 -0.005825 0.000000 0.036048 0.000000
# 6 0.000000 0.000000 0.000000 -0.007038 0.000000 0.054719
#
#
# Mechanical properties :
#
#
# Convention : Reuss Voigt Hill
#
# Bulk Modulus (GPa) = 23.58487 74.52877 49.05682
# Shear Modulus (GPa) = 12.67459 22.69142 17.68301
#
# Velocity S-wave (km/s) = 2.70133 3.61445 3.19072
# Velocity P-wave (km/s) = 4.82786 7.76709 6.46668
#
# Compressibility (1/GPa) = 0.04240007
#
# Stress axis : x y z
#
# Youngs Moduli (GPa) = 39.01268 9.82738 47.74121
#
# Poissons Ratio (x) = 0.21847 0.37681
# Poissons Ratio (y) = 0.86727 1.09062
# Poissons Ratio (z) = 0.30792 0.22450
#
# Static dielectric constant tensor:
#      x y z
#    x 1.587710 0.000000 0.003930 
#    y 0.000000 1.591340 0.000000 
#    z 0.003930 0.000000 1.577750 
# 
# From -- ./inp_files/319758.got.cif
#   From: 2010.05.17/outbox.cif.g08.bks.cpg/sg12_160_cif.got.tgz:319758.got - 2010.06.03 13:09:07.
