data_PCOD9184036
_publ_section_title
;
Structure prediction by ZEFSAII (Michael W. Deem and Ramdas Pophale) SiO2 
 PCOD9184036
Probable space group: C 2/M
;
_chemical_formula_sum "Si O2"
_cell_formula_units_Z 48
_cell_length_a 37.577002
_cell_length_b 7.379866
_cell_length_c 25.925902
_cell_angle_alpha 90.000000
_cell_angle_beta 162.496376
_cell_angle_gamma 90.000000
_cell_volume 2162.386870
_symmetry_space_group_name_H-M "C 2/M"
_symmetry_group_IT_number 12
_symmetry_cell_setting 'monoclinic'
loop_
_space_group_symop_operation_xyz
x,y,z
-x,y,-z
-x,-y,-z
x,-y,z
1/2+x,1/2+y,z
1/2-x,1/2+y,-z
1/2-x,1/2-y,-z
1/2+x,1/2-y,z
loop_
_atom_site_type_symbol
_atom_site_label
_atom_site_fract_x
_atom_site_fract_y
_atom_site_fract_z
Si Si1 0.573973 0.778468 0.398292
Si Si2 0.719411 0.219816 0.699097
Si Si3 0.696130 0.216568 0.982024
Si Si4 0.979530 0.209463 0.032518
Si Si5 0.271358 0.716537 0.589185
Si Si6 0.370004 0.289529 0.311328
O O1 0.626184 0.722931 0.526198
O O2 0.439489 0.716315 0.203264
O O3 0.666774 0.719006 0.482411
O O4 0.572154 0.000000 0.395411
O O5 0.690031 0.280088 0.715903
O O6 0.718351 0.000000 0.696536
O O7 0.850877 0.285389 0.866633
O O8 0.688439 0.000000 0.978823
O O9 0.750000 0.250000 0.000000
O O10 0.784741 0.287326 0.148943
O O11 0.098594 0.292748 0.219448
O O12 0.974365 0.000000 0.043733
O O13 0.000000 0.207627 0.000000
O O14 0.277016 0.500000 0.606671
O O15 0.250000 0.750000 0.500000
O O16 0.500000 0.207226 0.500000
O O17 0.389171 0.500000 0.323010
#
# Coordination Sequence:
#
# PCOD9184036 Si02
#       6
#     8   8   8   8   8   8
#     4   9  18  34  55  77 102 137 176 213 257 306
#     4  10  19  33  57  82 102 132 178 221 253 298
#     4  10  21  37  56  77 103 136 173 212 258 311
#     4   9  16  31  54  78 104 137 175 213 254 300
#     4  10  20  34  53  77 108 141 173 212 257 307
#     4  10  22  38  54  76 108 141 169 208 267 320
#
# _framework density 22.197693000000001
#
# number of rings (size 3 to 8) (size 9 to 14) (size 15 to 20)
#    0.000    2.333    1.667    1.000    2.333    1.000 
#    0.000    1.667    0.000    1.000    0.000    0.000 
#    0.000    0.000    0.000    0.000    0.000    0.000 
#
# Total GULP energy -134014.602912 kJ/mol
# GULP energy per Si atom -5583.941788 kJ/mol
# Density = 2.214717 g / cm^3
# Si number density = 22.197693 Si / 1000 Ang^3
#
#
#
# Elastic Constant Matrix: (Units=GPa)
#
#
# Indices 1 2 3 4 5 6 
#
# 1 132.0810 -12.1832 103.3448 0.0000 -11.6837 0.0000
# 2 -12.1832 80.0791 11.9869 0.0000 -2.0227 0.0000
# 3 103.3448 11.9869 262.9836 0.0000 -11.9799 0.0000
# 4 0.0000 0.0000 0.0000 -17.8756 0.0000 -4.8235
# 5 -11.6837 -2.0227 -11.9799 0.0000 44.1388 0.0000
# 6 0.0000 0.0000 0.0000 -4.8235 0.0000 23.2082
#
#
#
# Elastic Compliance Matrix: (Units=1/GPa)
#
#
# Indices 1 2 3 4 5 6 
#
# 1 0.011539 0.002487 -0.004560 0.000000 0.001931 0.000000
# 2 0.002487 0.013117 -0.001537 0.000000 0.000842 0.000000
# 3 -0.004560 -0.001537 0.005676 0.000000 0.000263 0.000000
# 4 0.000000 0.000000 0.000000 -0.052971 0.000000 -0.011009
# 5 0.001931 0.000842 0.000263 0.000000 0.023277 0.000000
# 6 0.000000 0.000000 0.000000 -0.011009 0.000000 0.040800
#
#
# Mechanical properties :
#
#
# Convention : Reuss Voigt Hill
#
# Bulk Modulus (GPa) = 43.26518 75.71562 59.49040
# Shear Modulus (GPa) = 88.71110 34.69396 61.70253
#
# Velocity S-wave (km/s) = 6.32858 3.95771 5.27799
# Velocity P-wave (km/s) = 8.54016 7.42081 8.00008
#
# Compressibility (1/GPa) = 0.02311328
#
# Stress axis : x y z
#
# Youngs Moduli (GPa) = 86.66140 76.23507 176.16551
#
# Poissons Ratio (x) = -0.18959 0.80331
# Poissons Ratio (y) = -0.21552 0.27073
# Poissons Ratio (z) = 0.39517 0.11716
#
# Static dielectric constant tensor:
#      x y z
#    x 1.729160 0.000000 0.025290 
#    y 0.000000 1.847800 0.000000 
#    z 0.025290 0.000000 1.779540 
# 
# From -- ./inp_files/164121.got.cif
#   From: 2010.05.17/outbox.cif.g08.bks.cpg/sg12_83_cif.got.tgz:164121.got - 2010.06.03 13:09:07.
