data_PCOD9184039
_publ_section_title
;
Structure prediction by ZEFSAII (Michael W. Deem and Ramdas Pophale) SiO2 
 PCOD9184039
Probable space group: C 2/M
;
_chemical_formula_sum "Si O2"
_cell_formula_units_Z 56
_cell_length_a 20.813538
_cell_length_b 7.494447
_cell_length_c 18.231216
_cell_angle_alpha 90.000000
_cell_angle_beta 63.286745
_cell_angle_gamma 90.000000
_cell_volume 2540.286104
_symmetry_space_group_name_H-M "C 2/M"
_symmetry_group_IT_number 12
_symmetry_cell_setting 'monoclinic'
loop_
_space_group_symop_operation_xyz
x,y,z
-x,y,-z
-x,-y,-z
x,-y,z
1/2+x,1/2+y,z
1/2-x,1/2+y,-z
1/2-x,1/2-y,-z
1/2+x,1/2-y,z
loop_
_atom_site_type_symbol
_atom_site_label
_atom_site_fract_x
_atom_site_fract_y
_atom_site_fract_z
Si Si1 0.652469 0.707460 0.745588
Si Si2 0.093747 0.718735 0.212028
Si Si3 0.419652 0.217033 0.516143
Si Si4 0.439169 0.206350 0.344942
Si Si5 0.578980 0.215907 0.933459
Si Si6 0.811711 0.281881 0.698498
Si Si7 0.166858 0.286534 0.026402
O O1 0.662202 0.500000 0.723575
O O2 0.617991 0.788262 0.690704
O O3 0.599560 0.725445 0.841694
O O4 0.730177 0.779983 0.729558
O O5 0.092555 0.500000 0.210362
O O6 0.151291 0.772241 0.244324
O O7 0.118781 0.779515 0.119084
O O8 0.014847 0.782246 0.277046
O O9 0.500000 0.265549 0.500000
O O10 0.411212 0.279953 0.436690
O O11 0.361179 0.277751 0.605171
O O12 0.415160 0.000000 0.520615
O O13 0.456164 0.000000 0.352724
O O14 0.579003 0.000000 0.932051
O O15 0.500000 0.273004 0.000000
O O16 0.637360 0.279201 0.963465
O O17 0.811261 0.500000 0.699973
O O18 0.158523 0.500000 0.028807
O O19 0.250000 0.250000 0.000000
#
# Coordination Sequence:
#
# PCOD9184039 Si02
#       7
#     8   8   8   8   8   8   8
#     4  11  23  36  52  78 114 148 175 213 275 337
#     4   9  16  30  53  78 101 131 174 222 265 303
#     4   9  15  28  53  85 108 131 180 233 265 300
#     4  10  19  33  57  82 105 135 180 230 266 306
#     4  10  21  39  60  79 104 141 188 232 264 306
#     4   9  17  30  50  79 112 141 175 222 267 311
#     4  10  20  33  52  78 106 136 172 217 268 319
#
# _framework density 22.044761000000001
#
# number of rings (size 3 to 8) (size 9 to 14) (size 15 to 20)
#    0.000    2.286    1.429    2.143    0.000    4.857 
#    0.000    2.143    0.000    3.000    0.000    0.000 
#    0.000    0.000    0.000    0.000    0.000    0.000 
#
# Total GULP energy -156460.300654 kJ/mol
# GULP energy per Si atom -5587.867881 kJ/mol
# Density = 2.199459 g / cm^3
# Si number density = 22.044761 Si / 1000 Ang^3
#
#
#
# Elastic Constant Matrix: (Units=GPa)
#
#
# Indices 1 2 3 4 5 6 
#
# 1 69.4114 -8.6504 -7.2337 0.0005 14.4724 0.0009
# 2 -8.6504 54.2428 -5.3282 0.0001 -0.1592 0.0004
# 3 -7.2337 -5.3282 85.8351 0.0003 21.6587 0.0006
# 4 0.0005 0.0001 0.0003 -15.5463 0.0000 -10.5154
# 5 14.4724 -0.1592 21.6587 0.0000 44.0196 0.0001
# 6 0.0009 0.0004 0.0006 -10.5154 0.0001 3.7435
#
#
#
# Elastic Compliance Matrix: (Units=1/GPa)
#
#
# Indices 1 2 3 4 5 6 
#
# 1 0.016611 0.002960 0.003378 0.000001 -0.007113 -0.000001
# 2 0.002960 0.019089 0.001898 0.000001 -0.001838 -0.000001
# 3 0.003378 0.001898 0.014079 0.000001 -0.008031 -0.000001
# 4 0.000001 0.000001 0.000001 -0.022181 -0.000001 -0.062306
# 5 -0.007113 -0.001838 -0.008031 -0.000001 0.029001 0.000000
# 6 -0.000001 -0.000001 -0.000001 -0.062306 0.000000 0.092115
#
#
# Mechanical properties :
#
#
# Convention : Reuss Voigt Hill
#
# Bulk Modulus (GPa) = 15.09389 18.56274 16.82831
# Shear Modulus (GPa) = 32.39932 21.82347 27.11139
#
# Velocity S-wave (km/s) = 3.83783 3.14978 3.51070
# Velocity P-wave (km/s) = 5.14786 4.65477 4.90751
#
# Compressibility (1/GPa) = 0.06625198
#
# Stress axis : x y z
#
# Youngs Moduli (GPa) = 60.20170 52.38687 71.02628
#
# Poissons Ratio (x) = -0.15507 -0.23995
# Poissons Ratio (y) = -0.17820 -0.13482
# Poissons Ratio (z) = -0.20338 -0.09944
#
# Static dielectric constant tensor:
#      x y z
#    x 1.776190 0.000000 -0.001600 
#    y 0.000000 1.875470 0.000000 
#    z -0.001600 0.000000 1.772330 
# 
# From -- ./inp_files/275579.got.cif
#   From: 2010.05.17/outbox.cif.g08.bks.cpg/sg12_138_cif.got.tgz:275579.got - 2010.06.03 13:09:07.
