data_PCOD9184463
_publ_section_title
;
Structure prediction by ZEFSAII (Michael W. Deem and Ramdas Pophale) SiO2 
 PCOD9184463
Probable space group: C 2/M
;
_chemical_formula_sum "Si O2"
_cell_formula_units_Z 64
_cell_length_a 25.396986
_cell_length_b 7.566737
_cell_length_c 18.624155
_cell_angle_alpha 90.000000
_cell_angle_beta 104.279423
_cell_angle_gamma 90.000000
_cell_volume 3468.470064
_symmetry_space_group_name_H-M "C 2/M"
_symmetry_group_IT_number 12
_symmetry_cell_setting 'monoclinic'
loop_
_space_group_symop_operation_xyz
x,y,z
-x,y,-z
-x,-y,-z
x,-y,z
1/2+x,1/2+y,z
1/2-x,1/2+y,-z
1/2-x,1/2-y,-z
1/2+x,1/2-y,z
loop_
_atom_site_type_symbol
_atom_site_label
_atom_site_fract_x
_atom_site_fract_y
_atom_site_fract_z
Si Si1 0.490103 0.786996 0.077979
Si Si2 0.189306 0.295198 0.078950
Si Si3 0.893833 0.791268 0.826125
Si Si4 0.201780 0.210556 0.811026
Si Si5 0.370801 0.786307 0.080718
Si Si6 0.313486 0.711949 0.506054
Si Si7 0.204308 0.208980 0.653492
Si Si8 0.669418 0.714342 0.334075
O O1 0.542516 0.739063 0.142064
O O2 0.432179 0.723812 0.087714
O O3 0.487749 0.000000 0.074289
O O4 0.500000 0.722841 0.000000
O O5 0.202479 0.500000 0.068482
O O6 0.140015 0.289366 0.119216
O O7 0.242777 0.216340 0.134339
O O8 0.168157 0.218610 0.996680
O O9 0.870420 0.725142 0.742407
O O10 0.883139 0.000000 0.826120
O O11 0.153826 0.237996 0.851130
O O12 0.190947 0.282763 0.727593
O O13 0.210450 0.000000 0.804578
O O14 0.371580 0.000000 0.075923
O O15 0.320587 0.500000 0.505921
O O16 0.250000 0.750000 0.500000
O O17 0.323085 0.782263 0.428716
O O18 0.342652 0.776381 0.588528
O O19 0.269346 0.230165 0.665770
O O20 0.191942 0.000000 0.649813
O O21 0.668728 0.500000 0.335142
#
# Coordination Sequence:
#
# PCOD9184463 Si02
#       8
#     8   8   8   8   8   8   8   8
#     4  10  20  37  55  67  87 121 159 198 239 284
#     4  10  19  34  50  66  94 129 160 189 226 279
#     4  11  21  30  47  74  98 123 155 195 239 274
#     4  10  20  31  47  71  98 125 155 194 232 270
#     4  10  21  35  51  67  87 123 162 194 235 280
#     4   8  14  25  41  62  91 124 154 183 219 271
#     4   9  16  27  45  67  92 126 159 184 222 274
#     4   9  17  28  42  66  98 125 151 188 231 271
#
# _framework density 18.45194
#
# number of rings (size 3 to 8) (size 9 to 14) (size 15 to 20)
#    0.000    2.375    2.500    0.750    0.000    2.750 
#    0.000    0.000    0.000    0.000    0.000    0.875 
#    0.000    7.000    0.000    0.000    0.000    0.000 
#
# Total GULP energy -178410.955805 kJ/mol
# GULP energy per Si atom -5575.342369 kJ/mol
# Density = 1.840994 g / cm^3
# Si number density = 18.451940 Si / 1000 Ang^3
#
#
#
# Elastic Constant Matrix: (Units=GPa)
#
#
# Indices 1 2 3 4 5 6 
#
# 1 57.8604 -9.9834 44.9437 0.0000 -20.0017 0.0000
# 2 -9.9834 40.3447 -4.2966 0.0000 -0.9474 0.0000
# 3 44.9437 -4.2966 188.5591 0.0000 -21.8047 0.0000
# 4 0.0000 0.0000 0.0000 -10.5658 0.0000 -24.3951
# 5 -20.0017 -0.9474 -21.8047 0.0000 18.6643 0.0000
# 6 0.0000 0.0000 0.0000 -24.3951 0.0000 -7.9911
#
#
#
# Elastic Compliance Matrix: (Units=1/GPa)
#
#
# Indices 1 2 3 4 5 6 
#
# 1 0.032326 0.008287 -0.004002 0.000000 0.030387 0.000000
# 2 0.008287 0.027051 -0.000200 0.000000 0.010020 0.000000
# 3 -0.004002 -0.000200 0.006655 0.000000 0.003475 0.000000
# 4 0.000000 0.000000 0.000000 0.015648 0.000000 -0.047769
# 5 0.030387 0.010020 0.003475 0.000000 0.090711 0.000000
# 6 0.000000 0.000000 0.000000 -0.047769 0.000000 0.020689
#
#
# Mechanical properties :
#
#
# Convention : Reuss Voigt Hill
#
# Bulk Modulus (GPa) = 13.47707 38.67685 26.07696
# Shear Modulus (GPa) = 23.84980 17.09485 20.47232
#
# Velocity S-wave (km/s) = 3.59909 3.04707 3.33452
# Velocity P-wave (km/s) = 4.95893 5.77805 5.38409
#
# Compressibility (1/GPa) = 0.07420011
#
# Stress axis : x y z
#
# Youngs Moduli (GPa) = 30.93469 36.96730 150.27134
#
# Poissons Ratio (x) = -0.30633 0.60143
# Poissons Ratio (y) = -0.25634 0.03007
# Poissons Ratio (z) = 0.12381 0.00740
#
# Static dielectric constant tensor:
#      x y z
#    x 1.585700 0.000000 0.003370 
#    y 0.000000 1.753760 0.000000 
#    z 0.003370 0.000000 1.698960 
# 
# From -- ./inp_files/287759.got.cif
#   From: 2010.05.17/outbox.cif.g08.bks.cpg/sg12_144_cif.got.tgz:287759.got - 2010.06.03 13:09:07.
