data_PCOD9184157
_publ_section_title
;
Structure prediction by ZEFSAII (Michael W. Deem and Ramdas Pophale) SiO2 
 PCOD9184157
Probable space group: C 2/M
;
_chemical_formula_sum "Si O2"
_cell_formula_units_Z 56
_cell_length_a 21.985888
_cell_length_b 8.046234
_cell_length_c 15.095855
_cell_angle_alpha 90.000000
_cell_angle_beta 81.457011
_cell_angle_gamma 90.000000
_cell_volume 2640.880922
_symmetry_space_group_name_H-M "C 2/M"
_symmetry_group_IT_number 12
_symmetry_cell_setting 'monoclinic'
loop_
_space_group_symop_operation_xyz
x,y,z
-x,y,-z
-x,-y,-z
x,-y,z
1/2+x,1/2+y,z
1/2-x,1/2+y,-z
1/2-x,1/2-y,-z
1/2+x,1/2-y,z
loop_
_atom_site_type_symbol
_atom_site_label
_atom_site_fract_x
_atom_site_fract_y
_atom_site_fract_z
Si Si1 0.455536 0.694930 0.143786
Si Si2 0.612902 0.298386 0.669582
Si Si3 0.071426 0.796787 0.487619
Si Si4 0.091760 0.694823 0.112472
Si Si5 0.731382 0.305085 0.754689
Si Si6 0.839423 0.308404 0.064104
Si Si7 0.132676 0.192916 0.292983
O O1 0.440083 0.500000 0.136691
O O2 0.441394 0.742240 0.249190
O O3 0.526366 0.722056 0.106724
O O4 0.406756 0.794288 0.095699
O O5 0.615039 0.500000 0.665248
O O6 0.601086 0.237267 0.573280
O O7 0.676241 0.245165 0.702556
O O8 0.105687 0.741751 0.391273
O O9 0.000000 0.749968 0.500000
O O10 0.074040 0.000000 0.488197
O O11 0.085438 0.500000 0.094266
O O12 0.107626 0.718150 0.211317
O O13 0.146763 0.758424 0.037209
O O14 0.742193 0.500000 0.735984
O O15 0.706671 0.284318 0.860248
O O16 0.794002 0.209746 0.724041
O O17 0.819661 0.500000 0.064579
O O18 0.114257 0.000000 0.288920
#
# Coordination Sequence:
#
# PCOD9184157 Si02
#       7
#     8   8   8   8   8   8   8
#     4  10  19  33  57  87 116 146 182 226 275 328
#     4   8  16  32  55  82 111 145 182 221 269 323
#     4   9  17  32  56  85 113 141 178 223 271 326
#     4  11  23  37  54  78 112 151 186 228 280 328
#     4  10  21  38  58  80 110 146 184 229 278 329
#     4  10  21  37  57  81 110 146 187 229 274 327
#     4  11  23  37  57  82 108 143 187 233 277 326
#
# _framework density 21.205044999999998
#
# number of rings (size 3 to 8) (size 9 to 14) (size 15 to 20)
#    0.000    2.143    0.000    4.286    0.000    7.429 
#    0.000    0.000    0.000   15.429    0.000    0.000 
#    0.000    0.000    0.000    0.000    0.000    0.000 
#
# Total GULP energy -156416.747921 kJ/mol
# GULP energy per Si atom -5586.312426 kJ/mol
# Density = 2.115678 g / cm^3
# Si number density = 21.205045 Si / 1000 Ang^3
#
#
#
# Elastic Constant Matrix: (Units=GPa)
#
#
# Indices 1 2 3 4 5 6 
#
# 1 46.1862 -5.3771 19.7314 0.0000 -19.8814 0.0000
# 2 -5.3771 27.3625 6.5478 0.0000 2.2416 0.0000
# 3 19.7314 6.5478 136.1791 0.0000 -14.1419 0.0000
# 4 0.0000 0.0000 0.0000 -20.6956 0.0000 22.1710
# 5 -19.8814 2.2416 -14.1419 0.0000 25.2474 0.0000
# 6 0.0000 0.0000 0.0000 22.1710 0.0000 10.5251
#
#
#
# Elastic Compliance Matrix: (Units=1/GPa)
#
#
# Indices 1 2 3 4 5 6 
#
# 1 0.034114 0.005285 -0.002608 0.000000 0.024934 0.000000
# 2 0.005285 0.038288 -0.002684 0.000000 -0.000741 0.000000
# 3 -0.002608 -0.002684 0.008135 0.000000 0.002741 0.000000
# 4 0.000000 0.000000 0.000000 -0.014837 0.000000 0.031254
# 5 0.024934 -0.000741 0.002741 0.000000 0.060844 0.000000
# 6 0.000000 0.000000 0.000000 0.031254 0.000000 0.029174
#
#
# Mechanical properties :
#
#
# Convention : Reuss Voigt Hill
#
# Bulk Modulus (GPa) = 12.41861 27.94800 20.18330
# Shear Modulus (GPa) = 27.38661 15.60376 21.49518
#
# Velocity S-wave (km/s) = 3.59766 2.71560 3.18729
# Velocity P-wave (km/s) = 4.80902 4.80012 4.80457
#
# Compressibility (1/GPa) = 0.08052431
#
# Stress axis : x y z
#
# Youngs Moduli (GPa) = 29.31367 26.11793 122.92816
#
# Poissons Ratio (x) = -0.13804 0.32056
# Poissons Ratio (y) = -0.15493 0.32990
# Poissons Ratio (z) = 0.07644 0.07009
#
# Static dielectric constant tensor:
#      x y z
#    x 1.728090 0.000000 0.004940 
#    y 0.000000 1.738530 0.000000 
#    z 0.004940 0.000000 1.787270 
# 
# From -- ./inp_files/237319.got.cif
#   From: 2010.05.17/outbox.cif.g08.bks.cpg/sg12_119_cif.got.tgz:237319.got - 2010.06.03 13:09:07.
