data_PCOD9184138
_publ_section_title
;
Structure prediction by ZEFSAII (Michael W. Deem and Ramdas Pophale) SiO2 
 PCOD9184138
Probable space group: C 2/M
;
_chemical_formula_sum "Si O2"
_cell_formula_units_Z 64
_cell_length_a 20.496184
_cell_length_b 8.872688
_cell_length_c 33.075219
_cell_angle_alpha 90.000000
_cell_angle_beta 37.327360
_cell_angle_gamma 90.000000
_cell_volume 3647.265328
_symmetry_space_group_name_H-M "C 2/M"
_symmetry_group_IT_number 12
_symmetry_cell_setting 'monoclinic'
loop_
_space_group_symop_operation_xyz
x,y,z
-x,y,-z
-x,-y,-z
x,-y,z
1/2+x,1/2+y,z
1/2-x,1/2+y,-z
1/2-x,1/2-y,-z
1/2+x,1/2-y,z
loop_
_atom_site_type_symbol
_atom_site_label
_atom_site_fract_x
_atom_site_fract_y
_atom_site_fract_z
Si Si1 0.348952 0.181218 0.926784
Si Si2 0.859262 0.819248 0.429130
Si Si3 0.420863 0.819988 0.652214
Si Si4 0.874736 0.180791 0.825608
Si Si5 0.413603 0.819960 0.162403
Si Si6 0.755618 0.320694 0.315014
Si Si7 0.384700 0.680772 0.322322
Si Si8 0.738149 0.179652 0.194679
O O1 0.351380 0.245327 0.880229
O O2 0.462584 0.221780 0.891994
O O3 0.342134 0.000000 0.928980
O O4 0.250000 0.250000 0.000000
O O5 0.750000 0.750000 0.500000
O O6 0.871827 0.779037 0.375558
O O7 0.963001 0.754304 0.400934
O O8 0.857608 0.000000 0.433195
O O9 0.351501 0.757052 0.649156
O O10 0.351534 0.782330 0.726831
O O11 0.429548 0.000000 0.645472
O O12 0.794928 0.239944 0.830306
O O13 0.995872 0.222387 0.751866
O O14 0.868549 0.000000 0.831569
O O15 0.348480 0.786509 0.235916
O O16 0.350637 0.735888 0.157839
O O17 0.406472 0.000000 0.159256
O O18 0.741407 0.500000 0.323297
O O19 0.797419 0.258847 0.336834
O O20 0.374347 0.500000 0.323646
O O21 0.738808 0.000000 0.189137
#
# Coordination Sequence:
#
# PCOD9184138 Si02
#       8
#     8   8   8   8   8   8   8   8
#     4  11  23  40  59  85 118 155 193 235 286 345
#     4  11  23  40  59  84 117 155 193 235 287 345
#     4  10  20  35  56  84 117 152 189 233 286 341
#     4  11  21  36  59  86 116 151 191 238 286 337
#     4   9  19  35  55  81 115 150 186 230 284 338
#     4  10  19  33  57  86 115 147 187 237 285 335
#     4  10  21  36  57  85 116 148 189 236 284 336
#     4  10  20  33  56  87 116 146 188 238 284 334
#
# _framework density 17.547393
#
# number of rings (size 3 to 8) (size 9 to 14) (size 15 to 20)
#    0.000    1.750    2.500    2.250    0.000    4.000 
#    0.000    1.250    0.000    7.500    0.000    0.000 
#    0.000    0.000    0.000    0.000    0.000    0.000 
#
# Total GULP energy -178748.090968 kJ/mol
# GULP energy per Si atom -5585.877843 kJ/mol
# Density = 1.750745 g / cm^3
# Si number density = 17.547393 Si / 1000 Ang^3
#
#
#
# Elastic Constant Matrix: (Units=GPa)
#
#
# Indices 1 2 3 4 5 6 
#
# 1 132.3441 45.9169 40.0435 0.0011 -18.0506 0.0183
# 2 45.9169 43.2198 32.6805 0.0005 -7.4678 -0.0048
# 3 40.0435 32.6805 76.0774 0.0007 -12.3456 0.0008
# 4 0.0011 0.0005 0.0007 27.6805 -0.0004 -1.2898
# 5 -18.0506 -7.4678 -12.3456 -0.0004 27.1174 0.0006
# 6 0.0183 -0.0048 0.0008 -1.2898 0.0006 36.2356
#
#
#
# Elastic Compliance Matrix: (Units=1/GPa)
#
#
# Indices 1 2 3 4 5 6 
#
# 1 0.012586 -0.012033 -0.000685 -0.000001 0.004753 -0.000008
# 2 -0.012033 0.045993 -0.013679 0.000000 -0.001571 0.000012
# 3 -0.000685 -0.013679 0.020187 0.000000 0.004968 -0.000002
# 4 -0.000001 0.000000 0.000000 0.036187 0.000000 0.001288
# 5 0.004753 -0.001571 0.004968 0.000000 0.041869 -0.000003
# 6 -0.000008 0.000012 -0.000002 0.001288 -0.000003 0.027643
#
#
# Mechanical properties :
#
#
# Convention : Reuss Voigt Hill
#
# Bulk Modulus (GPa) = 38.50009 54.32481 46.41245
# Shear Modulus (GPa) = 20.33227 27.07339 23.70283
#
# Velocity S-wave (km/s) = 3.40767 3.93220 3.67930
# Velocity P-wave (km/s) = 6.12137 7.18627 6.67509
#
# Compressibility (1/GPa) = 0.02597397
#
# Stress axis : x y z
#
# Youngs Moduli (GPa) = 79.45210 21.74254 49.53708
#
# Poissons Ratio (x) = 0.26162 0.03391
# Poissons Ratio (y) = 0.95603 0.67760
# Poissons Ratio (z) = 0.05440 0.29741
#
# Static dielectric constant tensor:
#      x y z
#    x 1.575020 0.000000 -0.003200 
#    y 0.000000 1.581000 0.000000 
#    z -0.003200 0.000000 1.577310 
# 
# From -- ./inp_files/378262.got.cif
#   From: 2010.05.17/outbox.cif.g08.bks.cpg/sg12_190_cif.got.tgz:378262.got - 2010.06.03 13:09:07.
