data_PCOD9184191
_publ_section_title
;
Structure prediction by ZEFSAII (Michael W. Deem and Ramdas Pophale) SiO2 
 PCOD9184191
Probable space group: C 2/M
;
_chemical_formula_sum "Si O2"
_cell_formula_units_Z 64
_cell_length_a 26.430657
_cell_length_b 8.213514
_cell_length_c 15.228897
_cell_angle_alpha 90.000000
_cell_angle_beta 64.267891
_cell_angle_gamma 90.000000
_cell_volume 2978.174280
_symmetry_space_group_name_H-M "C 2/M"
_symmetry_group_IT_number 12
_symmetry_cell_setting 'monoclinic'
loop_
_space_group_symop_operation_xyz
x,y,z
-x,y,-z
-x,-y,-z
x,-y,z
1/2+x,1/2+y,z
1/2-x,1/2+y,-z
1/2-x,1/2-y,-z
1/2+x,1/2-y,z
loop_
_atom_site_type_symbol
_atom_site_label
_atom_site_fract_x
_atom_site_fract_y
_atom_site_fract_z
Si Si1 0.566238 0.186903 0.435892
Si Si2 0.638973 0.309312 0.225830
Si Si3 0.467812 0.800493 0.174044
Si Si4 0.806883 0.810384 0.499275
Si Si5 0.356540 0.197061 0.150263
Si Si6 0.268730 0.190527 0.713813
Si Si7 0.919127 0.310442 0.387947
Si Si8 0.095380 0.303521 0.069289
O O1 0.500000 0.177670 0.500000
O O2 0.588742 0.272552 0.332740
O O3 0.582264 0.270473 0.515610
O O4 0.588353 0.000000 0.414212
O O5 0.649769 0.500000 0.214254
O O6 0.694286 0.227542 0.227141
O O7 0.619643 0.250769 0.144573
O O8 0.413021 0.749522 0.160036
O O9 0.457605 0.745613 0.282114
O O10 0.530636 0.749546 0.101021
O O11 0.467104 0.000000 0.172816
O O12 0.750000 0.750000 0.500000
O O13 0.798885 0.778777 0.609318
O O14 0.854360 0.706166 0.413427
O O15 0.817056 0.000000 0.475268
O O16 0.296251 0.258527 0.228212
O O17 0.355343 0.000000 0.155817
O O18 0.366700 0.247345 0.041517
O O19 0.270928 0.000000 0.693195
O O20 0.934971 0.500000 0.388241
O O21 0.093831 0.500000 0.071391
#
# Coordination Sequence:
#
# PCOD9184191 Si02
#       8
#     8   8   8   8   8   8   8   8
#     4  10  20  36  60  89 123 164 205 245 299 372
#     4  12  25  41  62  90 126 168 214 269 321 373
#     4   9  18  36  64  97 129 163 207 255 309 380
#     4  12  24  39  60  88 124 163 206 253 305 366
#     4  10  21  39  66  97 127 162 210 266 322 381
#     4  12  25  43  65  90 125 168 214 264 321 384
#     4  10  19  33  57  88 123 162 202 243 296 361
#     4  10  21  40  66  94 125 167 213 261 319 383
#
# _framework density 21.489674999999998
#
# number of rings (size 3 to 8) (size 9 to 14) (size 15 to 20)
#    0.000    1.375    1.250    5.250    0.000    5.750 
#    0.000    2.500    0.000    1.500    0.000    0.000 
#    0.000    0.000    0.000    0.000    0.000    0.000 
#
# Total GULP energy -178663.843666 kJ/mol
# GULP energy per Si atom -5583.245115 kJ/mol
# Density = 2.144076 g / cm^3
# Si number density = 21.489675 Si / 1000 Ang^3
#
#
#
# Elastic Constant Matrix: (Units=GPa)
#
#
# Indices 1 2 3 4 5 6 
#
# 1 81.7282 0.3460 11.0000 0.0000 -4.3901 0.0000
# 2 0.3460 33.5305 8.8645 0.0000 2.7576 0.0000
# 3 11.0000 8.8645 88.0605 0.0000 -4.0130 0.0000
# 4 0.0000 0.0000 0.0000 14.5526 0.0000 -0.6435
# 5 -4.3901 2.7576 -4.0130 0.0000 38.7933 0.0000
# 6 0.0000 0.0000 0.0000 -0.6435 0.0000 22.6526
#
#
#
# Elastic Compliance Matrix: (Units=1/GPa)
#
#
# Indices 1 2 3 4 5 6 
#
# 1 0.012507 0.000171 -0.001523 0.000000 0.001246 0.000000
# 2 0.000171 0.030886 -0.003245 0.000000 -0.002512 0.000000
# 3 -0.001523 -0.003245 0.011932 0.000000 0.001293 0.000000
# 4 0.000000 0.000000 0.000000 0.068803 0.000000 0.001954
# 5 0.001246 -0.002512 0.001293 0.000000 0.026231 0.000000
# 6 0.000000 0.000000 0.000000 0.001954 0.000000 0.044201
#
#
# Mechanical properties :
#
#
# Convention : Reuss Voigt Hill
#
# Bulk Modulus (GPa) = 21.67719 27.08225 24.37972
# Shear Modulus (GPa) = 22.81757 27.40694 25.11226
#
# Velocity S-wave (km/s) = 3.26205 3.57508 3.42215
# Velocity P-wave (km/s) = 4.92921 5.44715 5.19464
#
# Compressibility (1/GPa) = 0.04613144
#
# Stress axis : x y z
#
# Youngs Moduli (GPa) = 79.95643 32.37678 83.81104
#
# Poissons Ratio (x) = -0.00554 0.12762
# Poissons Ratio (y) = -0.01368 0.27197
# Poissons Ratio (z) = 0.12175 0.10506
#
# Static dielectric constant tensor:
#      x y z
#    x 1.905950 0.000000 0.055320 
#    y 0.000000 1.762670 0.000000 
#    z 0.055320 0.000000 1.794660 
# 
# From -- ./inp_files/243870.got.cif
#   From: 2010.05.17/outbox.cif.g08.bks.cpg/sg12_122_cif.got.tgz:243870.got - 2010.06.03 13:09:07.
