data_PCOD9184482
_publ_section_title
;
Structure prediction by ZEFSAII (Michael W. Deem and Ramdas Pophale) SiO2 
 PCOD9184482
Probable space group: C 2/M
;
_chemical_formula_sum "Si O2"
_cell_formula_units_Z 44
_cell_length_a 17.491890
_cell_length_b 21.939232
_cell_length_c 19.704344
_cell_angle_alpha 90.000000
_cell_angle_beta 160.149974
_cell_angle_gamma 90.000000
_cell_volume 2567.649607
_symmetry_space_group_name_H-M "C 2/M"
_symmetry_group_IT_number 12
_symmetry_cell_setting 'monoclinic'
loop_
_space_group_symop_operation_xyz
x,y,z
-x,y,-z
-x,-y,-z
x,-y,z
1/2+x,1/2+y,z
1/2-x,1/2+y,-z
1/2-x,1/2-y,-z
1/2+x,1/2-y,z
loop_
_atom_site_type_symbol
_atom_site_label
_atom_site_fract_x
_atom_site_fract_y
_atom_site_fract_z
Si Si1 0.769740 0.780768 0.604629
Si Si2 0.403609 0.234637 0.847211
Si Si3 0.726851 0.337979 0.927552
Si Si4 0.500000 0.638308 0.500000
Si Si5 0.406076 0.154781 0.657377
Si Si6 0.023107 0.928026 0.375616
O O1 0.786948 0.783319 0.699673
O O2 0.577066 0.817392 0.403999
O O3 0.768969 0.709216 0.582983
O O4 0.999791 0.806739 0.764394
O O5 0.216657 0.181050 0.696523
O O6 0.500000 0.254111 0.000000
O O7 0.617281 0.208595 0.983955
O O8 0.665994 0.393078 0.826456
O O9 0.869084 0.355119 0.112777
O O10 0.468757 0.597211 0.540731
O O11 0.255091 0.094862 0.535029
O O12 0.994467 0.000000 0.350613
#
# Coordination Sequence:
#
# PCOD9184482 Si02
#       6
#     8   8   8   4   8   8
#     4   9  18  31  53  71  89 122 167 206 255 298
#     4  11  20  31  49  71 100 128 165 206 244 295
#     4  10  19  34  51  69  91 128 172 209 250 287
#     4  12  21  34  44  66 104 138 177 198 238 276
#     4   9  17  32  50  68  89 121 166 210 250 283
#     4  11  22  33  46  68  98 138 179 207 232 277
#
# _framework density 17.136293999999999
#
# number of rings (size 3 to 8) (size 9 to 14) (size 15 to 20)
#    0.000    1.818    5.455    2.455    0.000    2.182 
#    0.000    0.909    0.000    0.000    0.000    0.000 
#    0.000   11.636    0.000   74.909    0.000   13.818 
#
# Total GULP energy -122636.395581 kJ/mol
# GULP energy per Si atom -5574.381617 kJ/mol
# Density = 1.709729 g / cm^3
# Si number density = 17.136294 Si / 1000 Ang^3
#
#
#
# Elastic Constant Matrix: (Units=GPa)
#
#
# Indices 1 2 3 4 5 6 
#
# 1 79.5499 37.7539 32.7752 0.0156 -44.2045 -0.0022
# 2 37.7539 59.5963 16.2735 -0.0078 -16.8138 -0.0216
# 3 32.7752 16.2735 81.0867 0.0591 -39.3297 -0.0239
# 4 0.0156 -0.0078 0.0591 12.0641 0.0108 -0.5114
# 5 -44.2045 -16.8138 -39.3297 0.0108 46.8131 -0.0026
# 6 -0.0022 -0.0216 -0.0239 -0.5114 -0.0026 16.9296
#
#
#
# Elastic Compliance Matrix: (Units=1/GPa)
#
#
# Indices 1 2 3 4 5 6 
#
# 1 0.035336 -0.014589 0.003861 -0.000103 0.031371 -0.000007
# 2 -0.014589 0.024728 -0.002430 0.000054 -0.006936 0.000027
# 3 0.003861 -0.002430 0.021274 -0.000128 0.020646 0.000027
# 4 -0.000103 0.000054 -0.000128 0.082998 -0.000204 0.002507
# 5 0.031371 -0.006936 0.020646 -0.000204 0.065839 0.000028
# 6 -0.000007 0.000027 0.000027 0.002507 0.000028 0.059144
#
#
# Mechanical properties :
#
#
# Convention : Reuss Voigt Hill
#
# Bulk Modulus (GPa) = 18.17457 43.75980 30.96718
# Shear Modulus (GPa) = 14.97118 24.05672 19.51395
#
# Velocity S-wave (km/s) = 2.95897 3.75086 3.37820
# Velocity P-wave (km/s) = 4.72260 6.65961 5.77292
#
# Compressibility (1/GPa) = 0.05502194
#
# Stress axis : x y z
#
# Youngs Moduli (GPa) = 28.29977 40.43956 47.00656
#
# Poissons Ratio (x) = 0.58997 -0.18149
# Poissons Ratio (y) = 0.41286 0.11423
# Poissons Ratio (z) = -0.10927 0.09828
#
# Static dielectric constant tensor:
#      x y z
#    x 1.638200 -0.000010 -0.031800 
#    y -0.000010 1.558450 -0.000010 
#    z -0.031800 -0.000010 1.656740 
# 
# From -- ./inp_files/317436.got.cif
#   From: 2010.05.17/outbox.cif.g08.bks.cpg/sg12_159_cif.got.tgz:317436.got - 2010.06.03 13:09:07.
