data_PCOD9184884
_publ_section_title
;
Structure prediction by ZEFSAII (Michael W. Deem and Ramdas Pophale) SiO2 
 PCOD9184884
Probable space group: C 2/M
;
_chemical_formula_sum "Si O2"
_cell_formula_units_Z 56
_cell_length_a 14.733965
_cell_length_b 7.884974
_cell_length_c 25.389048
_cell_angle_alpha 90.000000
_cell_angle_beta 73.482858
_cell_angle_gamma 90.000000
_cell_volume 2827.904709
_symmetry_space_group_name_H-M "C 2/M"
_symmetry_group_IT_number 12
_symmetry_cell_setting 'monoclinic'
loop_
_space_group_symop_operation_xyz
x,y,z
-x,y,-z
-x,-y,-z
x,-y,z
1/2+x,1/2+y,z
1/2-x,1/2+y,-z
1/2-x,1/2-y,-z
1/2+x,1/2-y,z
loop_
_atom_site_type_symbol
_atom_site_label
_atom_site_fract_x
_atom_site_fract_y
_atom_site_fract_z
Si Si1 0.683927 0.300966 0.144496
Si Si2 0.123685 0.795173 0.929891
Si Si3 0.405863 0.293373 0.948897
Si Si4 0.586100 0.792347 0.649102
Si Si5 0.294379 0.697934 0.644575
Si Si6 0.392297 0.801494 0.731323
Si Si7 0.487270 0.199506 0.560309
O O1 0.662394 0.500000 0.150178
O O2 0.796180 0.275187 0.121178
O O3 0.642269 0.230703 0.096387
O O4 0.639684 0.221986 0.203789
O O5 0.016853 0.748323 0.932026
O O6 0.128954 0.000000 0.928229
O O7 0.138224 0.736408 0.988133
O O8 0.400607 0.500000 0.950151
O O9 0.689899 0.733942 0.649102
O O10 0.499448 0.741320 0.701669
O O11 0.554283 0.733217 0.596112
O O12 0.588340 0.000000 0.649087
O O13 0.296001 0.500000 0.630156
O O14 0.321738 0.714988 0.701442
O O15 0.379880 0.782429 0.598311
O O16 0.389811 0.000000 0.718312
O O17 0.500000 0.274237 0.500000
O O18 0.510003 0.000000 0.553073
#
# Coordination Sequence:
#
# PCOD9184884 Si02
#       7
#     8   8   8   8   8   8   8
#     4  11  21  33  50  77 105 129 163 212 259 296
#     4   9  17  34  55  74  98 134 170 201 245 304
#     4   8  17  33  53  74 101 133 167 204 246 302
#     4   8  17  34  54  74 101 136 170 207 252 295
#     4  10  19  34  55  78 104 133 168 215 261 293
#     4  10  21  38  54  71  98 135 174 208 250 309
#     4   9  18  34  54  78 110 144 174 202 238 296
#
# _framework density 19.802648000000001
#
# number of rings (size 3 to 8) (size 9 to 14) (size 15 to 20)
#    0.000    2.714    0.000    3.429    0.000    2.000 
#    0.000   13.571    0.000    0.000    0.000    0.000 
#    0.000    0.000    0.000    0.000    0.000    0.000 
#
# Total GULP energy -156188.249855 kJ/mol
# GULP energy per Si atom -5578.151781 kJ/mol
# Density = 1.975758 g / cm^3
# Si number density = 19.802648 Si / 1000 Ang^3
#
#
#
# Elastic Constant Matrix: (Units=GPa)
#
#
# Indices 1 2 3 4 5 6 
#
# 1 110.8114 -6.6243 38.3370 0.0000 -6.5528 0.0000
# 2 -6.6243 17.7394 -8.3042 0.0000 2.6200 0.0000
# 3 38.3370 -8.3042 101.5976 0.0000 1.7082 0.0000
# 4 0.0000 0.0000 0.0000 3.5551 0.0000 -10.6864
# 5 -6.5528 2.6200 1.7082 0.0000 9.1487 0.0000
# 6 0.0000 0.0000 0.0000 -10.6864 0.0000 14.5104
#
#
#
# Elastic Compliance Matrix: (Units=1/GPa)
#
#
# Indices 1 2 3 4 5 6 
#
# 1 0.011043 0.000894 -0.004236 0.000000 0.008444 0.000000
# 2 0.000894 0.061703 0.005008 0.000000 -0.017966 0.000000
# 3 -0.004236 0.005008 0.011963 0.000000 -0.006702 0.000000
# 4 0.000000 0.000000 0.000000 -0.231748 0.000000 -0.170674
# 5 0.008444 -0.017966 -0.006702 0.000000 0.121749 0.000000
# 6 0.000000 0.000000 0.000000 -0.170674 0.000000 -0.056779
#
#
# Mechanical properties :
#
#
# Convention : Reuss Voigt Hill
#
# Bulk Modulus (GPa) = 11.35835 30.77393 21.06614
# Shear Modulus (GPa) = -89.19977 19.22552 -34.98712
#
# Velocity S-wave (km/s) = -6.71879 3.11924 -4.20788
# Velocity P-wave (km/s) = 7.37844 5.34293 3.59822
#
# Compressibility (1/GPa) = 0.08804098
#
# Stress axis : x y z
#
# Youngs Moduli (GPa) = 90.55903 16.20662 83.59030
#
# Poissons Ratio (x) = -0.01448 0.35407
# Poissons Ratio (y) = -0.08092 -0.41865
# Poissons Ratio (z) = 0.38358 -0.08117
#
# Static dielectric constant tensor:
#      x y z
#    x 1.696280 0.000000 0.014330 
#    y 0.000000 1.722940 0.000000 
#    z 0.014330 0.000000 1.677710 
# 
# From -- ./inp_files/359673.got.cif
#   From: 2010.05.17/outbox.cif.g08.bks.cpg/sg12_180_cif.got.tgz:359673.got - 2010.06.03 13:09:07.
