data_PCOD9184254
_publ_section_title
;
Structure prediction by ZEFSAII (Michael W. Deem and Ramdas Pophale) SiO2 
 PCOD9184254
Probable space group: C 2/M
;
_chemical_formula_sum "Si O2"
_cell_formula_units_Z 44
_cell_length_a 25.166586
_cell_length_b 14.179755
_cell_length_c 19.512178
_cell_angle_alpha 90.000000
_cell_angle_beta 19.803697
_cell_angle_gamma 90.000000
_cell_volume 2359.067819
_symmetry_space_group_name_H-M "C 2/M"
_symmetry_group_IT_number 12
_symmetry_cell_setting 'monoclinic'
loop_
_space_group_symop_operation_xyz
x,y,z
-x,y,-z
-x,-y,-z
x,-y,z
1/2+x,1/2+y,z
1/2-x,1/2+y,-z
1/2-x,1/2-y,-z
1/2+x,1/2-y,z
loop_
_atom_site_type_symbol
_atom_site_label
_atom_site_fract_x
_atom_site_fract_y
_atom_site_fract_z
Si Si1 0.261451 0.605316 0.522595
Si Si2 0.549151 0.786839 0.082035
Si Si3 0.106059 0.386921 0.153528
Si Si4 0.500000 0.736895 0.000000
Si Si5 0.105603 0.889468 0.098185
Si Si6 0.237267 0.392137 0.389352
O O1 0.206473 0.500000 0.610428
O O2 0.434874 0.622763 0.340449
O O3 0.280359 0.602005 0.417547
O O4 0.135044 0.684870 0.690725
O O5 0.616929 0.847263 0.063173
O O6 0.599751 0.681392 0.041586
O O7 0.578870 0.797269 0.965399
O O8 0.094614 0.500000 0.161861
O O9 0.943245 0.356348 0.387706
O O10 0.255044 0.364141 0.019416
O O11 0.636812 0.671413 0.802200
O O12 0.120036 0.000000 0.061908
O O13 0.238931 0.500000 0.360239
#
# Coordination Sequence:
#
# PCOD9184254 Si02
#       6
#     8   8   8   4   8   8
#     4   9  18  35  60  81 103 137 186 233 263 303
#     4  11  21  35  53  83 111 145 178 220 268 319
#     4   9  20  38  60  81 104 138 186 231 268 309
#     4  12  23  30  51  80 116 146 178 208 270 330
#     4  10  19  33  58  87 107 134 179 230 275 313
#     4   9  18  34  54  77 107 142 178 223 268 317
#
# _framework density 18.651434999999999
#
# number of rings (size 3 to 8) (size 9 to 14) (size 15 to 20)
#    0.000    2.182    1.818    3.000    2.545    0.727 
#    0.000    2.727    0.000    3.273    0.000    3.818 
#    0.000    0.000    0.000    0.000    0.000    0.000 
#
# Total GULP energy -122517.322737 kJ/mol
# GULP energy per Si atom -5568.969215 kJ/mol
# Density = 1.860898 g / cm^3
# Si number density = 18.651435 Si / 1000 Ang^3
#
#
#
# Elastic Constant Matrix: (Units=GPa)
#
#
# Indices 1 2 3 4 5 6 
#
# 1 100.4186 29.3310 57.5097 0.0000 -16.2529 -0.0002
# 2 29.3310 55.7601 26.8883 0.0002 -2.1784 -0.0003
# 3 57.5097 26.8883 77.1392 -0.0005 -18.7972 -0.0001
# 4 0.0000 0.0002 -0.0005 19.8258 0.0002 -2.6692
# 5 -16.2529 -2.1784 -18.7972 0.0002 40.8163 0.0002
# 6 -0.0002 -0.0003 -0.0001 -2.6692 0.0002 18.7624
#
#
#
# Elastic Compliance Matrix: (Units=1/GPa)
#
#
# Indices 1 2 3 4 5 6 
#
# 1 0.018046 -0.003760 -0.011761 0.000000 0.001569 0.000000
# 2 -0.003760 0.022589 -0.005792 0.000000 -0.002959 0.000000
# 3 -0.011761 -0.005792 0.025382 0.000001 0.006697 0.000000
# 4 0.000000 0.000000 0.000001 0.051424 0.000000 0.007316
# 5 0.001569 -0.002959 0.006697 0.000000 0.028051 0.000000
# 6 0.000000 0.000000 0.000000 0.007316 0.000000 0.054339
#
#
# Mechanical properties :
#
#
# Convention : Reuss Voigt Hill
#
# Bulk Modulus (GPa) = 42.74901 51.19732 46.97316
# Shear Modulus (GPa) = 19.97971 23.85350 21.91661
#
# Velocity S-wave (km/s) = 3.27649 3.58006 3.43164
# Velocity P-wave (km/s) = 6.10603 6.67819 6.39851
#
# Compressibility (1/GPa) = 0.02339236
#
# Stress axis : x y z
#
# Youngs Moduli (GPa) = 55.41399 44.26928 39.39731
#
# Poissons Ratio (x) = 0.16645 0.46335
# Poissons Ratio (y) = 0.20836 0.22817
# Poissons Ratio (z) = 0.65172 0.25639
#
# Static dielectric constant tensor:
#      x y z
#    x 1.652230 0.000000 -0.034220 
#    y 0.000000 1.723450 0.000000 
#    z -0.034220 0.000000 1.662090 
# 
# From -- ./inp_files/289996.got.cif
#   From: 2010.05.17/outbox.cif.g08.bks.cpg/sg12_145_cif.got.tgz:289996.got - 2010.06.03 13:09:07.
