data_PCOD9184943
_publ_section_title
;
Structure prediction by ZEFSAII (Michael W. Deem and Ramdas Pophale) SiO2 
 PCOD9184943
Probable space group: C 2/M
;
_chemical_formula_sum "Si O2"
_cell_formula_units_Z 56
_cell_length_a 17.104725
_cell_length_b 15.373190
_cell_length_c 11.764319
_cell_angle_alpha 90.000000
_cell_angle_beta 136.246499
_cell_angle_gamma 90.000000
_cell_volume 2139.316233
_symmetry_space_group_name_H-M "C 2/M"
_symmetry_group_IT_number 12
_symmetry_cell_setting 'monoclinic'
loop_
_space_group_symop_operation_xyz
x,y,z
-x,y,-z
-x,-y,-z
x,-y,z
1/2+x,1/2+y,z
1/2-x,1/2+y,-z
1/2-x,1/2-y,-z
1/2+x,1/2-y,z
loop_
_atom_site_type_symbol
_atom_site_label
_atom_site_fract_x
_atom_site_fract_y
_atom_site_fract_z
Si Si1 0.857129 0.144707 0.527539
Si Si2 0.578080 0.306491 0.173284
Si Si3 0.540274 0.148324 0.826252
Si Si4 0.606229 0.159882 0.522866
Si Si5 0.112733 0.098641 0.780223
Si Si6 0.272010 0.899483 0.140044
Si Si7 0.197686 0.646045 0.180495
O O1 0.852251 0.141687 0.658698
O O2 0.860839 0.245027 0.488810
O O3 0.752075 0.103811 0.349881
O O4 0.980176 0.108723 0.624432
O O5 0.504490 0.240385 0.175304
O O6 0.645692 0.236171 0.169374
O O7 0.500000 0.355681 0.000000
O O8 0.442448 0.111669 0.640915
O O9 0.644652 0.158062 0.849414
O O10 0.598961 0.104849 0.998330
O O11 0.500000 0.165678 0.500000
O O12 0.704295 0.119520 0.703997
O O13 0.192815 0.156669 0.785556
O O14 0.144594 0.000000 0.781602
O O15 0.151304 0.109815 0.951858
O O16 0.306608 0.000000 0.157644
#
# Coordination Sequence:
#
# PCOD9184943 Si02
#       7
#     8   8   8   8   8   8   8
#     4  11  21  34  56  86 116 155 204 254 299 353
#     4   9  19  36  54  79 115 152 198 253 307 355
#     4   8  17  31  48  74 110 145 184 237 299 360
#     4   9  17  29  48  79 112 143 187 241 304 353
#     4  10  22  39  59  87 123 164 206 246 297 363
#     4   9  18  33  54  81 116 156 197 247 306 363
#     4  10  19  34  55  79 113 154 196 243 293 354
#
# _framework density 26.176586
#
# number of rings (size 3 to 8) (size 9 to 14) (size 15 to 20)
#    0.000    2.571    0.000    1.714    0.000    7.143 
#    0.000   12.857    0.000    5.571    0.000    1.000 
#    0.000    0.000    0.000    0.000    0.000    0.000 
#
# Total GULP energy -156264.506081 kJ/mol
# GULP energy per Si atom -5580.875217 kJ/mol
# Density = 2.611701 g / cm^3
# Si number density = 26.176586 Si / 1000 Ang^3
#
#
#
# Elastic Constant Matrix: (Units=GPa)
#
#
# Indices 1 2 3 4 5 6 
#
# 1 87.8296 22.6027 14.3467 0.0000 -26.1935 0.0000
# 2 22.6027 48.7478 18.3077 0.0000 1.9485 0.0000
# 3 14.3467 18.3077 309.0014 0.0000 -37.2845 0.0000
# 4 0.0000 0.0000 0.0000 19.4312 0.0000 1.5673
# 5 -26.1935 1.9485 -37.2845 0.0000 34.3129 0.0000
# 6 0.0000 0.0000 0.0000 1.5673 0.0000 14.6600
#
#
#
# Elastic Compliance Matrix: (Units=1/GPa)
#
#
# Indices 1 2 3 4 5 6 
#
# 1 0.018642 -0.009963 0.001738 0.000000 0.016685 0.000000
# 2 -0.009963 0.026564 -0.002545 0.000000 -0.011879 0.000000
# 3 0.001738 -0.002545 0.004010 0.000000 0.005828 0.000000
# 4 0.000000 0.000000 0.000000 0.051911 0.000000 -0.005550
# 5 0.016685 -0.011879 0.005828 0.000000 0.048888 0.000000
# 6 0.000000 0.000000 0.000000 -0.005550 0.000000 0.068806
#
#
# Mechanical properties :
#
#
# Convention : Reuss Voigt Hill
#
# Bulk Modulus (GPa) = 36.13307 61.78811 48.96059
# Shear Modulus (GPa) = 20.03327 39.70226 29.86777
#
# Velocity S-wave (km/s) = 2.76943 3.89872 3.38155
# Velocity P-wave (km/s) = 4.90509 6.62739 5.83019
#
# Compressibility (1/GPa) = 0.02767548
#
# Stress axis : x y z
#
# Youngs Moduli (GPa) = 53.64312 37.64530 249.40716
#
# Poissons Ratio (x) = 0.37507 -0.43347
# Poissons Ratio (y) = 0.53445 0.63464
# Poissons Ratio (z) = -0.09323 0.09579
#
# Static dielectric constant tensor:
#      x y z
#    x 2.111460 0.000000 0.017050 
#    y 0.000000 1.980790 0.000000 
#    z 0.017050 0.000000 2.195400 
# 
# From -- ./inp_files/169506.got.cif
#   From: 2010.05.17/outbox.cif.g08.bks.cpg/sg12_85_cif.got.tgz:169506.got - 2010.06.03 13:09:07.
