data_PCOD9184741
_publ_section_title
;
Structure prediction by ZEFSAII (Michael W. Deem and Ramdas Pophale) SiO2 
 PCOD9184741
Probable space group: C 2/M
;
_chemical_formula_sum "Si O2"
_cell_formula_units_Z 52
_cell_length_a 17.950730
_cell_length_b 16.633259
_cell_length_c 14.354003
_cell_angle_alpha 90.000000
_cell_angle_beta 43.490893
_cell_angle_gamma 90.000000
_cell_volume 2949.659921
_symmetry_space_group_name_H-M "C 2/M"
_symmetry_group_IT_number 12
_symmetry_cell_setting 'monoclinic'
loop_
_space_group_symop_operation_xyz
x,y,z
-x,y,-z
-x,-y,-z
x,-y,z
1/2+x,1/2+y,z
1/2-x,1/2+y,-z
1/2-x,1/2-y,-z
1/2+x,1/2-y,z
loop_
_atom_site_type_symbol
_atom_site_label
_atom_site_fract_x
_atom_site_fract_y
_atom_site_fract_z
Si Si1 0.000974 0.782647 0.261686
Si Si2 0.076870 0.325057 0.021739
Si Si3 0.629237 0.500000 0.373365
Si Si4 0.903352 0.699962 0.533157
Si Si5 0.015526 0.500000 0.096688
Si Si6 0.216659 0.500000 0.593813
Si Si7 0.323463 0.670316 0.755077
Si Si8 0.773602 0.160997 0.433242
O O1 0.032744 0.731675 0.142929
O O2 0.105368 0.821017 0.216235
O O3 0.953852 0.727683 0.388739
O O4 0.903733 0.841912 0.319748
O O5 0.074344 0.416334 0.063405
O O6 0.199619 0.305283 0.883022
O O7 0.000000 0.320876 0.000000
O O8 0.500000 0.500000 0.500000
O O9 0.685442 0.500000 0.422248
O O10 0.669038 0.579238 0.285366
O O11 0.874594 0.775216 0.626076
O O12 0.789329 0.660733 0.608092
O O13 0.000000 0.654439 0.500000
O O14 0.898052 0.500000 0.250068
O O15 0.000000 0.500000 0.000000
O O16 0.227151 0.583995 0.529345
O O17 0.750000 0.250000 0.500000
#
# Coordination Sequence:
#
# PCOD9184741 Si02
#       8
#     8   8   4   8   4   4   8   8
#     4  10  20  34  53  78 108 144 184 225 273 329
#     4  11  21  35  53  78 109 147 184 228 283 339
#     4  12  20  32  52  81 115 145 176 226 287 339
#     4   9  18  34  54  77 107 143 183 227 271 322
#     4  10  20  32  48  75 109 137 171 220 278 336
#     4  12  22  34  55  84 110 144 185 228 280 337
#     4  11  21  34  53  81 112 145 184 229 277 337
#     4  10  19  34  54  78 108 142 178 224 274 328
#
# _framework density 17.629151
#
# number of rings (size 3 to 8) (size 9 to 14) (size 15 to 20)
#    0.000    1.538    0.000    9.692    0.000    0.000 
#    0.000    0.385    0.000    2.769    0.000   14.000 
#    0.000    0.000    0.000    0.000    0.000    0.000 
#
# Total GULP energy -144897.692630 kJ/mol
# GULP energy per Si atom -5572.988178 kJ/mol
# Density = 1.758903 g / cm^3
# Si number density = 17.629151 Si / 1000 Ang^3
#
#
#
# Elastic Constant Matrix: (Units=GPa)
#
#
# Indices 1 2 3 4 5 6 
#
# 1 152.7226 26.3436 32.4589 0.0000 -10.5222 0.0000
# 2 26.3436 81.1176 31.2160 0.0000 16.6503 0.0000
# 3 32.4589 31.2160 110.9433 0.0000 -3.1196 0.0000
# 4 0.0000 0.0000 0.0000 42.1053 0.0000 7.1497
# 5 -10.5222 16.6503 -3.1196 0.0000 31.5358 0.0000
# 6 0.0000 0.0000 0.0000 7.1497 0.0000 21.6540
#
#
#
# Elastic Compliance Matrix: (Units=1/GPa)
#
#
# Indices 1 2 3 4 5 6 
#
# 1 0.007567 -0.002729 -0.001338 0.000000 0.003834 0.000000
# 2 -0.002729 0.016968 -0.004265 0.000000 -0.010291 0.000000
# 3 -0.001338 -0.004265 0.010686 0.000000 0.002862 0.000000
# 4 0.000000 0.000000 0.000000 0.025161 0.000000 -0.008307
# 5 0.003834 -0.010291 0.002862 0.000000 0.038706 0.000000
# 6 0.000000 0.000000 0.000000 -0.008307 0.000000 0.048924
#
#
# Mechanical properties :
#
#
# Convention : Reuss Voigt Hill
#
# Bulk Modulus (GPa) = 53.89264 58.31339 56.10301
# Shear Modulus (GPa) = 29.26347 36.04335 32.65341
#
# Velocity S-wave (km/s) = 4.07867 4.52655 4.30843
# Velocity P-wave (km/s) = 7.26755 7.77620 7.52617
#
# Compressibility (1/GPa) = 0.01855541
#
# Stress axis : x y z
#
# Youngs Moduli (GPa) = 132.15006 58.93487 93.58322
#
# Poissons Ratio (x) = 0.16086 0.12523
# Poissons Ratio (y) = 0.36069 0.39914
# Poissons Ratio (z) = 0.17684 0.25136
#
# Static dielectric constant tensor:
#      x y z
#    x 1.641810 0.000000 -0.045110 
#    y 0.000000 1.645080 0.000000 
#    z -0.045110 0.000000 1.613420 
# 
# From -- ./inp_files/225647.got.cif
#   From: 2010.05.17/outbox.cif.g08.bks.cpg/sg12_113_cif.got.tgz:225647.got - 2010.06.03 13:09:07.
