data_PCOD9184993
_publ_section_title
;
Structure prediction by ZEFSAII (Michael W. Deem and Ramdas Pophale) SiO2 
 PCOD9184993
Probable space group: C 2/M
;
_chemical_formula_sum "Si O2"
_cell_formula_units_Z 56
_cell_length_a 24.055619
_cell_length_b 9.032082
_cell_length_c 15.189959
_cell_angle_alpha 90.000000
_cell_angle_beta 60.838251
_cell_angle_gamma 90.000000
_cell_volume 2882.029363
_symmetry_space_group_name_H-M "C 2/M"
_symmetry_group_IT_number 12
_symmetry_cell_setting 'monoclinic'
loop_
_space_group_symop_operation_xyz
x,y,z
-x,y,-z
-x,-y,-z
x,-y,z
1/2+x,1/2+y,z
1/2-x,1/2+y,-z
1/2-x,1/2-y,-z
1/2+x,1/2-y,z
loop_
_atom_site_type_symbol
_atom_site_label
_atom_site_fract_x
_atom_site_fract_y
_atom_site_fract_z
Si Si1 0.240408 0.175597 0.787676
Si Si2 0.937339 0.323693 0.803860
Si Si3 0.130112 0.828792 0.296765
Si Si4 0.191933 0.676115 0.989759
Si Si5 0.289236 0.676381 0.389661
Si Si6 0.930206 0.662500 0.511459
Si Si7 0.922566 0.329315 0.307413
O O1 0.309464 0.226234 0.767476
O O2 0.193230 0.258844 0.890230
O O3 0.235692 0.217446 0.688614
O O4 0.232267 0.000000 0.801733
O O5 0.937799 0.500000 0.780789
O O6 0.924024 0.226160 0.727972
O O7 0.008050 0.290089 0.785056
O O8 0.876992 0.296333 0.913210
O O9 0.108081 0.792244 0.412364
O O10 0.145094 0.000000 0.272646
O O11 0.202629 0.500000 0.980502
O O12 0.250000 0.750000 0.000000
O O13 0.283770 0.500000 0.403362
O O14 0.250000 0.750000 0.500000
O O15 0.362627 0.727377 0.333961
O O16 0.900874 0.500000 0.555587
O O17 0.932015 0.674726 0.405786
O O18 0.000000 0.662870 0.500000
O O19 0.907402 0.500000 0.295143
#
# Coordination Sequence:
#
# PCOD9184993 Si02
#       7
#     8   8   8   8   8   8   8
#     4  11  24  42  62  85 121 165 208 252 310 374
#     4  10  21  39  60  86 123 162 197 240 306 376
#     4  12  23  33  54  88 122 155 198 253 307 357
#     4  11  22  37  63  95 126 162 205 256 310 366
#     4  11  25  44  66  91 121 163 208 259 311 365
#     4  10  19  34  55  80 116 159 197 235 299 374
#     4  10  21  39  63  87 117 163 205 249 305 367
#
# _framework density 19.430754
#
# number of rings (size 3 to 8) (size 9 to 14) (size 15 to 20)
#    0.000    1.286    2.857    3.429    0.000    7.714 
#    0.000    0.714    0.000    4.286    0.000    0.000 
#    0.000    0.000    0.000    0.000    0.000    0.000 
#
# Total GULP energy -156372.628842 kJ/mol
# GULP energy per Si atom -5584.736744 kJ/mol
# Density = 1.938653 g / cm^3
# Si number density = 19.430754 Si / 1000 Ang^3
#
#
#
# Elastic Constant Matrix: (Units=GPa)
#
#
# Indices 1 2 3 4 5 6 
#
# 1 73.9040 26.2298 26.1734 0.0000 -8.4561 0.0000
# 2 26.2298 55.8184 47.9555 0.0000 -0.6574 0.0000
# 3 26.1734 47.9555 106.6050 0.0000 -10.4588 0.0000
# 4 0.0000 0.0000 0.0000 31.4021 0.0000 -0.7813
# 5 -8.4561 -0.6574 -10.4588 0.0000 28.5587 0.0000
# 6 0.0000 0.0000 0.0000 -0.7813 0.0000 26.6320
#
#
#
# Elastic Compliance Matrix: (Units=1/GPa)
#
#
# Indices 1 2 3 4 5 6 
#
# 1 0.016880 -0.007685 -0.000222 0.000000 0.004740 0.000000
# 2 -0.007685 0.033216 -0.013695 0.000000 -0.006527 0.000000
# 3 -0.000222 -0.013695 0.016138 0.000000 0.005529 0.000000
# 4 0.000000 0.000000 0.000000 0.031868 0.000000 0.000935
# 5 0.004740 -0.006527 0.005529 0.000000 0.038294 0.000000
# 6 0.000000 0.000000 0.000000 0.000935 0.000000 0.037576
#
#
# Mechanical properties :
#
#
# Convention : Reuss Voigt Hill
#
# Bulk Modulus (GPa) = 43.42498 48.56054 45.99276
# Shear Modulus (GPa) = 22.23667 26.38313 24.30990
#
# Velocity S-wave (km/s) = 3.38658 3.68884 3.54093
# Velocity P-wave (km/s) = 6.13913 6.57185 6.35917
#
# Compressibility (1/GPa) = 0.02302822
#
# Stress axis : x y z
#
# Youngs Moduli (GPa) = 59.24272 30.10598 61.96497
#
# Poissons Ratio (x) = 0.23138 0.01376
# Poissons Ratio (y) = 0.45530 0.84863
# Poissons Ratio (z) = 0.01315 0.41231
#
# Static dielectric constant tensor:
#      x y z
#    x 1.686860 0.000000 -0.023610 
#    y 0.000000 1.666650 0.000000 
#    z -0.023610 0.000000 1.720260 
# 
# From -- ./inp_files/238404.got.cif
#   From: 2010.05.17/outbox.cif.g08.bks.cpg/sg12_120_cif.got.tgz:238404.got - 2010.06.03 13:09:07.
