data_PCOD9184104
_publ_section_title
;
Structure prediction by ZEFSAII (Michael W. Deem and Ramdas Pophale) SiO2 
 PCOD9184104
Probable space group: C 2/M
;
_chemical_formula_sum "Si O2"
_cell_formula_units_Z 48
_cell_length_a 19.351174
_cell_length_b 13.041994
_cell_length_c 20.758427
_cell_angle_alpha 90.000000
_cell_angle_beta 31.388974
_cell_angle_gamma 90.000000
_cell_volume 2728.692259
_symmetry_space_group_name_H-M "C 2/M"
_symmetry_group_IT_number 12
_symmetry_cell_setting 'monoclinic'
loop_
_space_group_symop_operation_xyz
x,y,z
-x,y,-z
-x,-y,-z
x,-y,z
1/2+x,1/2+y,z
1/2-x,1/2+y,-z
1/2-x,1/2-y,-z
1/2+x,1/2-y,z
loop_
_atom_site_type_symbol
_atom_site_label
_atom_site_fract_x
_atom_site_fract_y
_atom_site_fract_z
Si Si1 0.470618 0.118136 0.847831
Si Si2 0.346991 0.121905 0.808971
Si Si3 0.740410 0.614711 0.446058
Si Si4 0.932418 0.000000 0.124274
Si Si5 0.561026 0.292111 0.021868
Si Si6 0.126901 0.669636 0.524445
Si Si7 0.847136 0.500000 0.600444
O O1 0.384919 0.147619 0.852848
O O2 0.623013 0.120144 0.702715
O O3 0.438430 0.000000 0.890391
O O4 0.452375 0.196744 0.919981
O O5 0.214976 0.178545 0.892612
O O6 0.474956 0.147170 0.664064
O O7 0.325703 0.000000 0.823560
O O8 0.684507 0.500000 0.483936
O O9 0.785026 0.633098 0.484587
O O10 0.649847 0.709599 0.497802
O O11 0.772764 0.000000 0.252930
O O12 0.000000 0.000000 0.000000
O O13 0.987045 0.893405 0.109636
O O14 0.500000 0.271543 0.000000
O O15 0.168227 0.600901 0.431378
O O16 0.000000 0.500000 0.500000
#
# Coordination Sequence:
#
# PCOD9184104 Si02
#       7
#     8   8   8   4   8   8   4
#     4   9  19  36  58  80 107 149 198 230 287 338
#     4  10  19  36  58  81 113 153 183 240 289 344
#     4   9  17  35  58  80 112 145 181 245 287 338
#     4  10  24  38  52  82 118 156 180 229 293 340
#     4  11  22  35  57  79 116 150 192 229 291 340
#     4  10  19  33  57  85 111 142 193 229 291 332
#     4  12  24  34  58  88 118 144 197 234 280 356
#
# _framework density 17.590844000000001
#
# number of rings (size 3 to 8) (size 9 to 14) (size 15 to 20)
#    0.000    2.000    2.500    2.500    4.667    0.333 
#    0.000    0.833    0.000    0.500    0.000    0.000 
#    0.000    0.000    0.000    0.000    0.000    0.000 
#
# Total GULP energy -133916.145213 kJ/mol
# GULP energy per Si atom -5579.839384 kJ/mol
# Density = 1.755081 g / cm^3
# Si number density = 17.590844 Si / 1000 Ang^3
#
#
#
# Elastic Constant Matrix: (Units=GPa)
#
#
# Indices 1 2 3 4 5 6 
#
# 1 69.5861 42.6977 44.1128 0.0003 4.2788 -0.0001
# 2 42.6977 119.1003 38.5508 0.0002 10.6949 -0.0001
# 3 44.1128 38.5508 75.5912 0.0004 4.5445 -0.0002
# 4 0.0003 0.0002 0.0004 31.6727 -0.0003 2.4464
# 5 4.2788 10.6949 4.5445 -0.0003 11.0577 0.0001
# 6 -0.0001 -0.0001 -0.0002 2.4464 0.0001 10.6948
#
#
#
# Elastic Compliance Matrix: (Units=1/GPa)
#
#
# Indices 1 2 3 4 5 6 
#
# 1 0.025164 -0.005128 -0.012081 0.000000 0.000187 0.000000
# 2 -0.005128 0.011805 -0.002523 0.000000 -0.008397 0.000000
# 3 -0.012081 -0.002523 0.021674 0.000000 -0.001792 0.000000
# 4 0.000000 0.000000 0.000000 0.032141 0.000001 -0.007352
# 5 0.000187 -0.008397 -0.001792 0.000001 0.099220 -0.000002
# 6 0.000000 0.000000 0.000000 -0.007352 -0.000002 0.095185
#
#
# Mechanical properties :
#
#
# Convention : Reuss Voigt Hill
#
# Bulk Modulus (GPa) = 52.14107 57.22224 54.68166
# Shear Modulus (GPa) = 15.10360 19.94612 17.52486
#
# Velocity S-wave (km/s) = 2.93338 3.37099 3.15977
# Velocity P-wave (km/s) = 6.41703 6.91025 6.66820
#
# Compressibility (1/GPa) = 0.01917874
#
# Stress axis : x y z
#
# Youngs Moduli (GPa) = 39.73897 84.70703 46.13824
#
# Poissons Ratio (x) = 0.43435 0.55741
# Poissons Ratio (y) = 0.20377 0.11643
# Poissons Ratio (z) = 0.48010 0.21375
#
# Static dielectric constant tensor:
#      x y z
#    x 1.606690 0.000000 0.005430 
#    y 0.000000 1.609130 0.000000 
#    z 0.005430 0.000000 1.586890 
# 
# From -- ./inp_files/164139.got.cif
#   From: 2010.05.17/outbox.cif.g08.bks.cpg/sg12_83_cif.got.tgz:164139.got - 2010.06.03 13:09:07.
