data_PCOD9184499
_publ_section_title
;
Structure prediction by ZEFSAII (Michael W. Deem and Ramdas Pophale) SiO2 
 PCOD9184499
Probable space group: C 2/M
;
_chemical_formula_sum "Si O2"
_cell_formula_units_Z 40
_cell_length_a 16.157898
_cell_length_b 9.751882
_cell_length_c 21.337810
_cell_angle_alpha 90.000000
_cell_angle_beta 140.451242
_cell_angle_gamma 90.000000
_cell_volume 2140.827209
_symmetry_space_group_name_H-M "C 2/M"
_symmetry_group_IT_number 12
_symmetry_cell_setting 'monoclinic'
loop_
_space_group_symop_operation_xyz
x,y,z
-x,y,-z
-x,-y,-z
x,-y,z
1/2+x,1/2+y,z
1/2-x,1/2+y,-z
1/2-x,1/2-y,-z
1/2+x,1/2-y,z
loop_
_atom_site_type_symbol
_atom_site_label
_atom_site_fract_x
_atom_site_fract_y
_atom_site_fract_z
Si Si1 0.641595 0.500000 0.916903
Si Si2 0.454172 0.000000 0.901800
Si Si3 0.327440 0.500000 0.728815
Si Si4 0.462238 0.500000 0.405947
Si Si5 0.257128 0.731128 0.245947
Si Si6 0.608879 0.731447 0.803974
Si Si7 0.613925 0.000000 0.875123
Si Si8 0.088543 0.000000 0.354735
O O1 0.484707 0.500000 0.833065
O O2 0.673757 0.633932 0.894010
O O3 0.728832 0.500000 0.029767
O O4 0.367040 0.132964 0.835358
O O5 0.571094 0.000000 0.921642
O O6 0.500000 0.000000 0.000000
O O7 0.270900 0.362921 0.727744
O O8 0.306425 0.500000 0.640463
O O9 0.500000 0.500000 0.500000
O O10 0.371516 0.632475 0.338984
O O11 0.584745 0.500000 0.428417
O O12 0.300487 0.771083 0.201007
O O13 0.495513 0.635059 0.710969
O O14 0.561583 0.866565 0.810364
#
# Coordination Sequence:
#
# PCOD9184499 Si02
#       8
#     4   4   4   4   8   8   4   4
#     4  10  20  33  45  65 103 147 178 207 257 300
#     4  11  21  33  50  75 105 140 185 227 250 287
#     4  10  19  34  51  75 107 137 165 214 265 301
#     4   9  19  39  63  80  98 132 170 201 251 326
#     4  10  20  35  55  78 104 134 172 217 259 299
#     4   9  18  32  47  67  96 134 172 209 252 301
#     4  12  20  30  49  72  97 138 187 218 242 295
#     4   8  17  35  54  71 101 136 158 195 265 315
#
# _framework density 18.684366000000001
#
# number of rings (size 3 to 8) (size 9 to 14) (size 15 to 20)
#    0.000    2.400    0.000    6.600    0.000    1.600 
#    0.000    3.000    0.000    0.000    0.000    0.000 
#    0.000    0.000    0.000    0.000    0.000    0.000 
#
# Total GULP energy -111409.981012 kJ/mol
# GULP energy per Si atom -5570.499051 kJ/mol
# Density = 1.864184 g / cm^3
# Si number density = 18.684366 Si / 1000 Ang^3
#
#
#
# Elastic Constant Matrix: (Units=GPa)
#
#
# Indices 1 2 3 4 5 6 
#
# 1 110.4765 70.7825 9.9254 0.0000 -18.7796 0.0000
# 2 70.7825 123.2327 32.1587 0.0000 -32.0719 0.0000
# 3 9.9254 32.1587 40.8466 0.0000 -15.7948 0.0000
# 4 0.0000 0.0000 0.0000 4.7643 0.0000 -10.3327
# 5 -18.7796 -32.0719 -15.7948 0.0000 20.1052 0.0000
# 6 0.0000 0.0000 0.0000 -10.3327 0.0000 27.2774
#
#
#
# Elastic Compliance Matrix: (Units=1/GPa)
#
#
# Indices 1 2 3 4 5 6 
#
# 1 0.014917 -0.008905 0.004713 0.000000 0.003430 0.000000
# 2 -0.008905 0.019527 -0.006293 0.000000 0.017889 0.000000
# 3 0.004713 -0.006293 0.037505 0.000000 0.023828 0.000000
# 4 0.000000 0.000000 0.000000 1.176090 0.000000 0.445503
# 5 0.003430 0.017889 0.023828 0.000000 0.100198 0.000000
# 6 0.000000 0.000000 0.000000 0.445503 0.000000 0.205417
#
#
# Mechanical properties :
#
#
# Convention : Reuss Voigt Hill
#
# Bulk Modulus (GPa) = 19.61594 55.58766 37.60180
# Shear Modulus (GPa) = 3.14146 21.20866 12.17506
#
# Velocity S-wave (km/s) = 1.29807 3.37278 2.55545
# Velocity P-wave (km/s) = 3.57324 6.70694 5.37360
#
# Compressibility (1/GPa) = 0.05097895
#
# Stress axis : x y z
#
# Youngs Moduli (GPa) = 67.03816 51.21017 26.66315
#
# Poissons Ratio (x) = 0.45603 -0.12566
# Poissons Ratio (y) = 0.59698 0.16779
# Poissons Ratio (z) = -0.31593 0.32226
#
# Static dielectric constant tensor:
#      x y z
#    x 1.707040 0.000000 0.011200 
#    y 0.000000 1.623080 0.000000 
#    z 0.011200 0.000000 1.640820 
# 
# From -- ./inp_files/211430.got.cif
#   From: 2010.05.17/outbox.cif.g08.bks.cpg/sg12_106_cif.got.tgz:211430.got - 2010.06.03 13:09:07.
