data_PCOD9184713
_publ_section_title
;
Structure prediction by ZEFSAII (Michael W. Deem and Ramdas Pophale) SiO2 
 PCOD9184713
Probable space group: C 2/M
;
_chemical_formula_sum "Si O2"
_cell_formula_units_Z 56
_cell_length_a 14.699735
_cell_length_b 7.504631
_cell_length_c 23.369674
_cell_angle_alpha 90.000000
_cell_angle_beta 57.794211
_cell_angle_gamma 90.000000
_cell_volume 2181.390315
_symmetry_space_group_name_H-M "C 2/M"
_symmetry_group_IT_number 12
_symmetry_cell_setting 'monoclinic'
loop_
_space_group_symop_operation_xyz
x,y,z
-x,y,-z
-x,-y,-z
x,-y,z
1/2+x,1/2+y,z
1/2-x,1/2+y,-z
1/2-x,1/2-y,-z
1/2+x,1/2-y,z
loop_
_atom_site_type_symbol
_atom_site_label
_atom_site_fract_x
_atom_site_fract_y
_atom_site_fract_z
Si Si1 0.625208 0.295063 0.978275
Si Si2 0.915408 0.213161 0.763468
Si Si3 0.950974 0.218737 0.878057
Si Si4 0.864071 0.300090 0.605476
Si Si5 0.314503 0.713105 0.162020
Si Si6 0.599945 0.295635 0.534558
Si Si7 0.644786 0.280900 0.642577
O O1 0.661197 0.500000 0.971567
O O2 0.683179 0.211421 0.903992
O O3 0.500000 0.299159 0.000000
O O4 0.618721 0.218003 0.044224
O O5 0.801735 0.252757 0.772121
O O6 0.911011 0.279678 0.830213
O O7 0.027560 0.279992 0.700965
O O8 0.924888 0.000000 0.761464
O O9 0.076035 0.272632 0.844156
O O10 0.948378 0.000000 0.880430
O O11 0.864957 0.500000 0.628465
O O12 0.880989 0.306426 0.530545
O O13 0.744059 0.222682 0.648792
O O14 0.971254 0.205786 0.590989
O O15 0.325425 0.500000 0.153857
O O16 0.628514 0.500000 0.514149
O O17 0.656730 0.226585 0.572415
O O18 0.647216 0.500000 0.642421
#
# Coordination Sequence:
#
# PCOD9184713 Si02
#       7
#     8   8   8   8   8   8   8
#     4   7  11  23  45  70  92 118 156 200 244 288
#     4  10  20  34  49  69  97 131 167 197 236 289
#     4   8  15  29  50  70  92 127 165 198 239 294
#     4  10  19  34  55  79 101 125 161 201 237 277
#     4   9  17  31  50  72  96 123 161 207 246 285
#     4  10  19  34  54  77 102 128 157 194 245 291
#     4   9  20  35  50  69 100 136 164 194 235 286
#
# _framework density 25.671700999999999
#
# number of rings (size 3 to 8) (size 9 to 14) (size 15 to 20)
#    0.000    3.000    0.000    3.857    0.000    1.714 
#    0.000    7.143    0.000    3.857    0.000    0.000 
#    0.000    0.000    0.000    0.000    0.000    0.000 
#
# Total GULP energy -156434.927038 kJ/mol
# GULP energy per Si atom -5586.961680 kJ/mol
# Density = 2.561327 g / cm^3
# Si number density = 25.671701 Si / 1000 Ang^3
#
#
#
# Elastic Constant Matrix: (Units=GPa)
#
#
# Indices 1 2 3 4 5 6 
#
# 1 112.4712 3.2294 36.1637 -0.0009 -23.7694 -0.0001
# 2 3.2294 82.4049 -0.2052 -0.0018 -1.4499 -0.0002
# 3 36.1637 -0.2052 58.2687 0.0001 -32.8145 0.0001
# 4 -0.0009 -0.0018 0.0001 -102.3726 -0.0002 -25.0064
# 5 -23.7694 -1.4499 -32.8145 -0.0002 51.1874 0.0000
# 6 -0.0001 -0.0002 0.0001 -25.0064 0.0000 12.8460
#
#
#
# Elastic Compliance Matrix: (Units=1/GPa)
#
#
# Indices 1 2 3 4 5 6 
#
# 1 0.011167 -0.000433 -0.006290 0.000000 0.001141 0.000000
# 2 -0.000433 0.012163 0.000614 0.000000 0.000537 0.000000
# 3 -0.006290 0.000614 0.030412 0.000000 0.016593 0.000000
# 4 0.000000 0.000000 0.000000 -0.006620 0.000000 -0.012887
# 5 0.001141 0.000537 0.016593 0.000000 0.030718 0.000000
# 6 0.000000 0.000000 0.000000 -0.012887 0.000000 0.052758
#
#
# Mechanical properties :
#
#
# Convention : Reuss Voigt Hill
#
# Bulk Modulus (GPa) = 24.08185 36.83562 30.45874
# Shear Modulus (GPa) = 31.91675 6.59596 19.25636
#
# Velocity S-wave (km/s) = 3.52982 1.60466 2.74177
# Velocity P-wave (km/s) = 5.10039 4.22056 4.68119
#
# Compressibility (1/GPa) = 0.04152505
#
# Stress axis : x y z
#
# Youngs Moduli (GPa) = 89.54855 82.21552 32.88184
#
# Poissons Ratio (x) = 0.03562 0.20681
# Poissons Ratio (y) = 0.03879 -0.02019
# Poissons Ratio (z) = 0.56322 -0.05049
#
# Static dielectric constant tensor:
#      x y z
#    x 2.016450 0.000000 -0.023060 
#    y 0.000000 1.955190 0.000000 
#    z -0.023060 0.000000 2.093470 
# 
# From -- ./inp_files/374948.got.cif
#   From: 2010.05.17/outbox.cif.g08.bks.cpg/sg12_188_cif.got.tgz:374948.got - 2010.06.03 13:09:07.
