data_PCOD9184554
_publ_section_title
;
Structure prediction by ZEFSAII (Michael W. Deem and Ramdas Pophale) SiO2 
 PCOD9184554
Probable space group: C 2/M
;
_chemical_formula_sum "Si O2"
_cell_formula_units_Z 56
_cell_length_a 21.313487
_cell_length_b 7.805653
_cell_length_c 23.876778
_cell_angle_alpha 90.000000
_cell_angle_beta 133.831068
_cell_angle_gamma 90.000000
_cell_volume 2865.539947
_symmetry_space_group_name_H-M "C 2/M"
_symmetry_group_IT_number 12
_symmetry_cell_setting 'monoclinic'
loop_
_space_group_symop_operation_xyz
x,y,z
-x,y,-z
-x,-y,-z
x,-y,z
1/2+x,1/2+y,z
1/2-x,1/2+y,-z
1/2-x,1/2-y,-z
1/2+x,1/2-y,z
loop_
_atom_site_type_symbol
_atom_site_label
_atom_site_fract_x
_atom_site_fract_y
_atom_site_fract_z
Si Si1 0.751130 0.792843 0.340239
Si Si2 0.683929 0.205805 0.742225
Si Si3 0.860580 0.209296 0.905800
Si Si4 0.517977 0.706307 0.922135
Si Si5 0.326940 0.295585 0.504433
Si Si6 0.501106 0.795587 0.675263
Si Si7 0.945143 0.295586 0.761890
O O1 0.795492 0.742603 0.309715
O O2 0.801403 0.731793 0.426807
O O3 0.651255 0.729365 0.282151
O O4 0.749181 0.000000 0.340640
O O5 0.765526 0.270222 0.829455
O O6 0.590890 0.273308 0.705232
O O7 0.682959 0.000000 0.747512
O O8 0.931518 0.261890 0.902849
O O9 0.859710 0.000000 0.905130
O O10 0.899806 0.263631 0.989886
O O11 0.518004 0.500000 0.922572
O O12 0.509258 0.763537 0.853157
O O13 0.331657 0.500000 0.504698
O O14 0.250000 0.250000 0.500000
O O15 0.418476 0.231660 0.584386
O O16 0.477959 0.726153 0.722715
O O17 0.512307 0.000000 0.688149
O O18 0.935911 0.500000 0.749747
#
# Coordination Sequence:
#
# PCOD9184554 Si02
#       7
#     8   8   8   8   8   8   8
#     4  10  21  36  55  78 108 140 172 221 273 319
#     4  10  20  36  58  80 106 144 184 220 263 321
#     4   8  15  29  50  78 107 135 172 223 270 305
#     4   9  16  29  52  79 105 133 179 228 260 308
#     4  11  22  38  59  82 109 142 180 223 269 317
#     4  10  22  39  56  78 111 145 179 220 269 323
#     4  10  19  34  52  76 109 141 174 215 269 323
#
# _framework density 19.542565
#
# number of rings (size 3 to 8) (size 9 to 14) (size 15 to 20)
#    0.000    2.286    2.857    1.286    0.000    2.857 
#    0.000    5.714    0.000    0.000    0.000    0.000 
#    0.000    0.000    0.000    0.000    0.000    0.000 
#
# Total GULP energy -156254.339283 kJ/mol
# GULP energy per Si atom -5580.512117 kJ/mol
# Density = 1.949809 g / cm^3
# Si number density = 19.542565 Si / 1000 Ang^3
#
#
#
# Elastic Constant Matrix: (Units=GPa)
#
#
# Indices 1 2 3 4 5 6 
#
# 1 151.8777 7.7141 102.7598 0.0000 6.6782 0.0000
# 2 7.7141 21.1498 -3.3758 0.0000 -0.4020 0.0000
# 3 102.7598 -3.3758 191.1298 0.0000 -3.2178 0.0000
# 4 0.0000 0.0000 0.0000 24.6825 0.0000 -3.9362
# 5 6.6782 -0.4020 -3.2178 0.0000 28.5759 0.0000
# 6 0.0000 0.0000 0.0000 -3.9362 0.0000 15.4671
#
#
#
# Elastic Compliance Matrix: (Units=1/GPa)
#
#
# Indices 1 2 3 4 5 6 
#
# 1 0.011146 -0.005109 -0.006139 0.000000 -0.003368 0.000000
# 2 -0.005109 0.049774 0.003665 0.000000 0.002307 0.000000
# 3 -0.006139 0.003665 0.008639 0.000000 0.002459 0.000000
# 4 0.000000 0.000000 0.000000 0.042228 0.000000 0.010747
# 5 -0.003368 0.002307 0.002459 0.000000 0.036091 0.000000
# 6 0.000000 0.000000 0.000000 0.010747 0.000000 0.067388
#
#
# Mechanical properties :
#
#
# Convention : Reuss Voigt Hill
#
# Bulk Modulus (GPa) = 18.38527 64.26151 41.32339
# Shear Modulus (GPa) = 20.11554 30.88238 25.49896
#
# Velocity S-wave (km/s) = 3.21178 3.97956 3.61611
# Velocity P-wave (km/s) = 4.81480 7.35324 6.21500
#
# Compressibility (1/GPa) = 0.05439136
#
# Stress axis : x y z
#
# Youngs Moduli (GPa) = 89.72068 20.09080 115.75463
#
# Poissons Ratio (x) = 0.10265 0.71066
# Poissons Ratio (y) = 0.45840 -0.42423
# Poissons Ratio (z) = 0.55083 -0.07363
#
# Static dielectric constant tensor:
#      x y z
#    x 1.660580 0.000000 0.000830 
#    y 0.000000 1.727340 0.000000 
#    z 0.000830 0.000000 1.682240 
# 
# From -- ./inp_files/319662.got.cif
#   From: 2010.05.17/outbox.cif.g08.bks.cpg/sg12_160_cif.got.tgz:319662.got - 2010.06.03 13:09:07.
