data_PCOD9184183
_publ_section_title
;
Structure prediction by ZEFSAII (Michael W. Deem and Ramdas Pophale) SiO2 
 PCOD9184183
Probable space group: C 2/M
;
_chemical_formula_sum "Si O2"
_cell_formula_units_Z 56
_cell_length_a 20.850231
_cell_length_b 8.861621
_cell_length_c 17.996889
_cell_angle_alpha 90.000000
_cell_angle_beta 108.587646
_cell_angle_gamma 90.000000
_cell_volume 3151.775046
_symmetry_space_group_name_H-M "C 2/M"
_symmetry_group_IT_number 12
_symmetry_cell_setting 'monoclinic'
loop_
_space_group_symop_operation_xyz
x,y,z
-x,y,-z
-x,-y,-z
x,-y,z
1/2+x,1/2+y,z
1/2-x,1/2+y,-z
1/2-x,1/2-y,-z
1/2+x,1/2-y,z
loop_
_atom_site_type_symbol
_atom_site_label
_atom_site_fract_x
_atom_site_fract_y
_atom_site_fract_z
Si Si1 0.322340 0.819706 0.267203
Si Si2 0.690630 0.679687 0.579236
Si Si3 0.668285 0.318624 0.162216
Si Si4 0.156163 0.319280 0.414236
Si Si5 0.822157 0.818256 0.004440
Si Si6 0.434620 0.180871 0.757872
Si Si7 0.917022 0.818895 0.176078
O O1 0.332316 0.760587 0.354290
O O2 0.245232 0.782645 0.214590
O O3 0.373380 0.743184 0.228623
O O4 0.330137 0.000000 0.266938
O O5 0.684599 0.500000 0.584800
O O6 0.770102 0.716200 0.593843
O O7 0.652368 0.736781 0.491641
O O8 0.659752 0.500000 0.165223
O O9 0.615606 0.238419 0.196629
O O10 0.659467 0.274336 0.072868
O O11 0.154195 0.500000 0.425303
O O12 0.099365 0.276762 0.333694
O O13 0.877770 0.774413 0.085964
O O14 0.815995 0.000000 0.003142
O O15 0.750000 0.750000 0.000000
O O16 0.508064 0.252318 0.794083
O O17 0.438833 0.000000 0.761950
O O18 0.919690 0.000000 0.180061
#
# Coordination Sequence:
#
# PCOD9184183 Si02
#       7
#     8   8   8   8   8   8   8
#     4  11  21  36  60  88 118 153 195 240 287 346
#     4  10  19  33  57  88 118 148 191 241 288 342
#     4  10  21  37  60  87 116 152 195 240 289 344
#     4   9  19  35  55  83 117 152 190 236 289 342
#     4  10  21  38  60  87 117 151 194 244 291 341
#     4  11  23  40  60  85 120 157 195 239 289 348
#     4  11  24  40  60  85 119 157 194 241 295 348
#
# _framework density 17.767766000000002
#
# number of rings (size 3 to 8) (size 9 to 14) (size 15 to 20)
#    0.000    1.714    2.857    1.714    0.000    4.000 
#    0.000    3.571    0.000    4.286    0.000    0.000 
#    0.000    0.000    0.000    0.000    0.000    0.000 
#
# Total GULP energy -156416.218700 kJ/mol
# GULP energy per Si atom -5586.293525 kJ/mol
# Density = 1.772733 g / cm^3
# Si number density = 17.767766 Si / 1000 Ang^3
#
#
#
# Elastic Constant Matrix: (Units=GPa)
#
#
# Indices 1 2 3 4 5 6 
#
# 1 128.3245 54.9828 88.8682 0.0000 5.7860 0.0000
# 2 54.9828 44.9055 57.3644 0.0000 1.3350 0.0000
# 3 88.8682 57.3644 176.3736 0.0000 -1.1626 0.0000
# 4 0.0000 0.0000 0.0000 28.0512 0.0000 -2.4723
# 5 5.7860 1.3350 -1.1626 0.0000 29.7226 0.0000
# 6 0.0000 0.0000 0.0000 -2.4723 0.0000 34.2466
#
#
#
# Elastic Compliance Matrix: (Units=1/GPa)
#
#
# Indices 1 2 3 4 5 6 
#
# 1 0.017575 -0.017281 -0.003253 0.000000 -0.002772 0.000000
# 2 -0.017281 0.055233 -0.009254 0.000000 0.000521 0.000000
# 3 -0.003253 -0.009254 0.010328 0.000000 0.001453 0.000000
# 4 0.000000 0.000000 0.000000 0.035877 0.000000 0.002590
# 5 -0.002772 0.000521 0.001453 0.000000 0.034218 0.000000
# 6 0.000000 0.000000 0.000000 0.002590 0.000000 0.029387
#
#
# Mechanical properties :
#
#
# Convention : Reuss Voigt Hill
#
# Bulk Modulus (GPa) = 42.44266 83.55938 63.00102
# Shear Modulus (GPa) = 19.99624 28.29663 24.14644
#
# Velocity S-wave (km/s) = 3.35837 3.99505 3.69046
# Velocity P-wave (km/s) = 6.24320 8.27111 7.32765
#
# Compressibility (1/GPa) = 0.02356120
#
# Stress axis : x y z
#
# Youngs Moduli (GPa) = 56.89952 18.10504 96.82199
#
# Poissons Ratio (x) = 0.31287 0.31498
# Poissons Ratio (y) = 0.98326 0.89597
# Poissons Ratio (z) = 0.18510 0.16754
#
# Static dielectric constant tensor:
#      x y z
#    x 1.565070 0.000000 0.006170 
#    y 0.000000 1.590330 0.000000 
#    z 0.006170 0.000000 1.603320 
# 
# From -- ./inp_files/275151.got.cif
#   From: 2010.05.17/outbox.cif.g08.bks.cpg/sg12_138_cif.got.tgz:275151.got - 2010.06.03 13:09:07.
