data_PCOD9184467
_publ_section_title
;
Structure prediction by ZEFSAII (Michael W. Deem and Ramdas Pophale) SiO2 
 PCOD9184467
Probable space group: C 2/M
;
_chemical_formula_sum "Si O2"
_cell_formula_units_Z 56
_cell_length_a 17.147688
_cell_length_b 24.714480
_cell_length_c 11.725183
_cell_angle_alpha 90.000000
_cell_angle_beta 149.773552
_cell_angle_gamma 90.000000
_cell_volume 2501.532502
_symmetry_space_group_name_H-M "C 2/M"
_symmetry_group_IT_number 12
_symmetry_cell_setting 'monoclinic'
loop_
_space_group_symop_operation_xyz
x,y,z
-x,y,-z
-x,-y,-z
x,-y,z
1/2+x,1/2+y,z
1/2-x,1/2+y,-z
1/2-x,1/2-y,-z
1/2+x,1/2-y,z
loop_
_atom_site_type_symbol
_atom_site_label
_atom_site_fract_x
_atom_site_fract_y
_atom_site_fract_z
Si Si1 0.488126 0.058623 0.618990
Si Si2 0.665343 0.176282 0.268892
Si Si3 0.678654 0.322454 0.904763
Si Si4 0.678304 0.440671 0.843087
Si Si5 0.310970 0.059275 0.753665
Si Si6 0.298704 0.759905 0.256533
Si Si7 0.447455 0.828930 0.635746
O O1 0.500000 0.069932 0.500000
O O2 0.663267 0.056133 0.885082
O O3 0.407941 0.107571 0.581229
O O4 0.414965 0.000000 0.544528
O O5 0.735989 0.115971 0.362266
O O6 0.745552 0.217885 0.285823
O O7 0.632124 0.196178 0.354346
O O8 0.500000 0.168615 0.000000
O O9 0.610286 0.382246 0.795414
O O10 0.673103 0.294892 0.023004
O O11 0.865590 0.326819 0.118853
O O12 0.624701 0.278373 0.744122
O O13 0.598482 0.500000 0.756402
O O14 0.734382 0.437376 0.782835
O O15 0.269621 0.000000 0.652156
O O16 0.500000 0.058315 0.000000
O O17 0.390190 0.803456 0.446545
#
# Coordination Sequence:
#
# PCOD9184467 Si02
#       7
#     8   8   8   8   8   8   8
#     4   9  16  26  42  67  97 126 156 189 235 293
#     4  11  19  33  46  67 101 132 161 199 240 279
#     4  10  19  34  50  70 102 126 161 203 235 288
#     4   9  15  26  44  65  91 122 150 185 240 293
#     4   9  15  24  41  64  90 122 155 183 231 292
#     4  11  21  32  48  69  95 138 165 193 240 281
#     4  11  20  32  50  69 100 133 164 199 238 285
#
# _framework density 22.386278000000001
#
# number of rings (size 3 to 8) (size 9 to 14) (size 15 to 20)
#    0.000    2.000    2.857    5.143    0.000    1.714 
#    0.000    0.000    0.000    0.000    0.000    0.000 
#    0.000   26.286    0.000    0.143    0.000    0.000 
#
# Total GULP energy -156130.232642 kJ/mol
# GULP energy per Si atom -5576.079737 kJ/mol
# Density = 2.233533 g / cm^3
# Si number density = 22.386278 Si / 1000 Ang^3
#
#
#
# Elastic Constant Matrix: (Units=GPa)
#
#
# Indices 1 2 3 4 5 6 
#
# 1 79.5398 39.2633 28.1607 0.0000 -22.8244 0.0000
# 2 39.2633 167.4458 11.9585 0.0000 0.3192 0.0000
# 3 28.1607 11.9585 71.3436 0.0000 -21.8864 0.0000
# 4 0.0000 0.0000 0.0000 14.3760 0.0000 -7.3377
# 5 -22.8244 0.3192 -21.8864 0.0000 32.0391 0.0000
# 6 0.0000 0.0000 0.0000 -7.3377 0.0000 32.7644
#
#
#
# Elastic Compliance Matrix: (Units=1/GPa)
#
#
# Indices 1 2 3 4 5 6 
#
# 1 0.019131 -0.004269 -0.003342 0.000000 0.011388 0.000000
# 2 -0.004269 0.007020 -0.000564 0.000000 -0.003497 0.000000
# 3 -0.003342 -0.000564 0.018600 0.000000 0.010330 0.000000
# 4 0.000000 0.000000 0.000000 0.078538 0.000000 0.017589
# 5 0.011388 -0.003497 0.010330 0.000000 0.046416 0.000000
# 6 0.000000 0.000000 0.000000 0.017589 0.000000 0.034460
#
#
# Mechanical properties :
#
#
# Convention : Reuss Voigt Hill
#
# Bulk Modulus (GPa) = 35.21184 53.01049 44.11116
# Shear Modulus (GPa) = 21.74086 31.76568 26.75327
#
# Velocity S-wave (km/s) = 3.11974 3.77102 3.46074
# Velocity P-wave (km/s) = 5.36101 6.53392 5.97631
#
# Compressibility (1/GPa) = 0.02839954
#
# Stress axis : x y z
#
# Youngs Moduli (GPa) = 52.27206 142.44958 53.76464
#
# Poissons Ratio (x) = 0.60810 0.17969
# Poissons Ratio (y) = 0.22314 0.03034
# Poissons Ratio (z) = 0.17470 0.08039
#
# Static dielectric constant tensor:
#      x y z
#    x 1.421430 0.000000 -0.123700 
#    y 0.000000 1.954910 0.000000 
#    z -0.123700 0.000000 1.787870 
# 
# From -- ./inp_files/170052.got.cif
#   From: 2010.05.17/outbox.cif.g08.bks.cpg/sg12_86_cif.got.tgz:170052.got - 2010.06.03 13:09:07.
