data_PCOD9184095
_publ_section_title
;
Structure prediction by ZEFSAII (Michael W. Deem and Ramdas Pophale) SiO2 
 PCOD9184095
Probable space group: C 2/M
;
_chemical_formula_sum "Si O2"
_cell_formula_units_Z 50
_cell_length_a 15.037333
_cell_length_b 9.102128
_cell_length_c 17.676516
_cell_angle_alpha 90.000000
_cell_angle_beta 73.855171
_cell_angle_gamma 90.000000
_cell_volume 2323.998142
_symmetry_space_group_name_H-M "C 2/M"
_symmetry_group_IT_number 12
_symmetry_cell_setting 'monoclinic'
loop_
_space_group_symop_operation_xyz
x,y,z
-x,y,-z
-x,-y,-z
x,-y,z
1/2+x,1/2+y,z
1/2-x,1/2+y,-z
1/2-x,1/2-y,-z
1/2+x,1/2-y,z
loop_
_atom_site_type_symbol
_atom_site_label
_atom_site_fract_x
_atom_site_fract_y
_atom_site_fract_z
Si Si1 0.256840 0.826214 0.139281
Si Si2 0.042990 0.178905 0.569506
Si Si3 0.399381 0.162611 0.894612
Si Si4 0.082238 0.172420 0.811473
Si Si5 0.357799 0.673172 0.679499
Si Si6 0.702699 0.327718 0.629082
Si Si7 0.000000 0.500000 0.000000
O O1 0.351630 0.748879 0.141863
O O2 0.190616 0.805026 0.228680
O O3 0.195254 0.752492 0.089039
O O4 0.272858 0.000000 0.123794
O O5 0.142656 0.232780 0.573422
O O6 0.000000 0.225336 0.500000
O O7 0.963861 0.220471 0.648688
O O8 0.050354 0.000000 0.566448
O O9 0.483475 0.248570 0.835048
O O10 0.439054 0.125188 0.968054
O O11 0.384702 0.000000 0.862414
O O12 0.135668 0.185901 0.718802
O O13 0.070624 0.000000 0.829822
O O14 0.356535 0.500000 0.664833
O O15 0.295975 0.747478 0.629837
O O16 0.721574 0.500000 0.613804
#
# Coordination Sequence:
#
# PCOD9184095 Si02
#       7
#     8   8   8   8   8   8   2
#     4  10  19  33  57  85 108 137 178 225 272 315
#     4   9  17  30  48  69 100 144 182 209 256 320
#     4  10  20  38  58  76 113 141 173 214 261 311
#     4  10  19  33  57  85 108 137 178 225 272 315
#     4   9  18  32  50  76 105 131 172 223 265 308
#     4   9  18  32  50  76 105 131 172 223 265 308
#     4   8  24  40  58  76 116 142 176 208 256 312
#
# _framework density 21.514645999999999
#
# number of rings (size 3 to 8) (size 9 to 14) (size 15 to 20)
#    0.480    2.080    0.000    2.400    0.000    4.480 
#    0.000    3.200    0.000    0.960    0.000    0.000 
#    0.000    0.000    0.000    0.000    0.000    0.000 
#
# Total GULP energy -139252.860060 kJ/mol
# GULP energy per Si atom -5570.114402 kJ/mol
# Density = 2.146568 g / cm^3
# Si number density = 21.514646 Si / 1000 Ang^3
#
#
#
# Elastic Constant Matrix: (Units=GPa)
#
#
# Indices 1 2 3 4 5 6 
#
# 1 93.9749 21.1420 21.4611 0.0000 31.4599 0.0000
# 2 21.1420 53.4314 24.3838 0.0000 9.5140 0.0000
# 3 21.4611 24.3838 52.4113 0.0000 23.4241 0.0000
# 4 0.0000 0.0000 0.0000 15.8344 0.0000 11.6335
# 5 31.4599 9.5140 23.4241 0.0000 44.7121 0.0000
# 6 0.0000 0.0000 0.0000 11.6335 0.0000 30.2914
#
#
#
# Elastic Compliance Matrix: (Units=1/GPa)
#
#
# Indices 1 2 3 4 5 6 
#
# 1 0.014755 -0.004227 0.000212 0.000000 -0.009594 0.000000
# 2 -0.004227 0.025003 -0.011560 0.000000 0.003710 0.000000
# 3 0.000212 -0.011560 0.030473 0.000000 -0.013654 0.000000
# 4 0.000000 0.000000 0.000000 0.087977 0.000000 -0.033788
# 5 -0.009594 0.003710 -0.013654 0.000000 0.035479 0.000000
# 6 0.000000 0.000000 0.000000 -0.033788 0.000000 0.045989
#
#
# Mechanical properties :
#
#
# Convention : Reuss Voigt Hill
#
# Bulk Modulus (GPa) = 25.58651 37.08796 31.33723
# Shear Modulus (GPa) = 17.61472 27.02298 22.31885
#
# Velocity S-wave (km/s) = 2.86445 3.54789 3.22433
# Velocity P-wave (km/s) = 4.78106 5.83603 5.33469
#
# Compressibility (1/GPa) = 0.03908310
#
# Stress axis : x y z
#
# Youngs Moduli (GPa) = 67.77212 39.99536 32.81560
#
# Poissons Ratio (x) = 0.16907 -0.00697
# Poissons Ratio (y) = 0.28648 0.37933
# Poissons Ratio (z) = -0.01440 0.46233
#
# Static dielectric constant tensor:
#      x y z
#    x 1.757550 0.000000 -0.026200 
#    y 0.000000 1.718920 0.000000 
#    z -0.026200 0.000000 1.873240 
# 
# From -- ./inp_files/308394.got.cif
#   From: 2010.05.17/outbox.cif.g08.bks.cpg/sg12_155_cif.got.tgz:308394.got - 2010.06.03 13:09:07.
