data_PCOD9184003
_publ_section_title
;
Structure prediction by ZEFSAII (Michael W. Deem and Ramdas Pophale) SiO2 
 PCOD9184003
Probable space group: C 2/M
;
_chemical_formula_sum "Si O2"
_cell_formula_units_Z 32
_cell_length_a 9.440093
_cell_length_b 28.069307
_cell_length_c 5.333472
_cell_angle_alpha 90.000000
_cell_angle_beta 115.825777
_cell_angle_gamma 90.000000
_cell_volume 1272.095687
_symmetry_space_group_name_H-M "C 2/M"
_symmetry_group_IT_number 12
_symmetry_cell_setting 'monoclinic'
loop_
_space_group_symop_operation_xyz
x,y,z
-x,y,-z
-x,-y,-z
x,-y,z
1/2+x,1/2+y,z
1/2-x,1/2+y,-z
1/2-x,1/2-y,-z
1/2+x,1/2-y,z
loop_
_atom_site_type_symbol
_atom_site_label
_atom_site_fract_x
_atom_site_fract_y
_atom_site_fract_z
Si Si1 0.133872 0.053964 0.935797
Si Si2 0.304856 0.196685 0.090156
Si Si3 0.326776 0.946098 0.585465
Si Si4 0.851248 0.342415 0.631566
O O1 0.270189 0.052574 0.252652
O O2 0.072923 0.000000 0.848875
O O3 0.196140 0.063909 0.703637
O O4 0.000000 0.079998 0.000000
O O5 0.495132 0.191420 0.244458
O O6 0.255018 0.172755 0.312364
O O7 0.250000 0.250000 0.000000
O O8 0.255969 0.166692 0.810351
O O9 0.417232 0.896149 0.675919
O O10 0.387605 0.000000 0.684484
#
# Coordination Sequence:
#
# PCOD9184003 Si02
#       4
#     8   8   8   8
#     4   9  17  30  52  78 117 172 213 241 283 338
#     4  10  21  40  65  85 114 157 202 259 313 356
#     4  10  19  33  56  88 129 164 196 246 302 369
#     4  10  21  38  64  93 117 159 200 250 312 371
#
# _framework density 25.155339000000001
#
# number of rings (size 3 to 8) (size 9 to 14) (size 15 to 20)
#    0.000    2.250    0.000    3.000    0.000    3.000 
#    0.000    5.000   55.000    0.000    0.000    0.000 
#    0.000    0.000    0.000    0.000    0.000    0.000 
#
# Total GULP energy -89072.039298 kJ/mol
# GULP energy per Si atom -5567.002456 kJ/mol
# Density = 2.509808 g / cm^3
# Si number density = 25.155339 Si / 1000 Ang^3
#
#
#
# Elastic Constant Matrix: (Units=GPa)
#
#
# Indices 1 2 3 4 5 6 
#
# 1 61.8609 23.1413 22.3397 0.0000 -23.8539 0.0000
# 2 23.1413 213.4361 42.0780 0.0000 13.4875 0.0000
# 3 22.3397 42.0780 181.1371 0.0000 -52.2084 0.0000
# 4 0.0000 0.0000 0.0000 847.1378 0.0000 821.5941
# 5 -23.8539 13.4875 -52.2084 0.0000 41.8569 0.0000
# 6 0.0000 0.0000 0.0000 821.5941 0.0000 882.6812
#
#
#
# Elastic Compliance Matrix: (Units=1/GPa)
#
#
# Indices 1 2 3 4 5 6 
#
# 1 0.024322 -0.004695 0.003938 0.000000 0.020285 0.000000
# 2 -0.004695 0.006487 -0.003594 0.000000 -0.009248 0.000000
# 3 0.003938 -0.003594 0.010695 0.000000 0.016743 0.000000
# 4 0.000000 0.000000 0.000000 0.012135 0.000000 -0.011296
# 5 0.020285 -0.009248 0.016743 0.000000 0.059315 0.000000
# 6 0.000000 0.000000 0.000000 -0.011296 0.000000 0.011647
#
#
# Mechanical properties :
#
#
# Convention : Reuss Voigt Hill
#
# Bulk Modulus (GPa) = 30.48532 70.17246 50.32889
# Shear Modulus (GPa) = 34.66510 378.92685 206.79598
#
# Velocity S-wave (km/s) = 3.71623 12.28665 9.07668
# Velocity P-wave (km/s) = 5.52801 15.14063 11.39731
#
# Compressibility (1/GPa) = 0.03280268
#
# Stress axis : x y z
#
# Youngs Moduli (GPa) = 41.11534 154.15026 93.49786
#
# Poissons Ratio (x) = 0.72377 -0.36818
# Poissons Ratio (y) = 0.19305 0.33599
# Poissons Ratio (z) = -0.16191 0.55394
#
# Static dielectric constant tensor:
#      x y z
#    x 2.529160 0.000000 0.093940 
#    y 0.000000 1.983640 0.000000 
#    z 0.093940 0.000000 2.063850 
# 
# From -- ./inp_files/6513.got.cif
#   From: 2010.05.17/outbox.cif.g08.bks.cpg/sg12_4_cif.got.tgz:6513.got - 2010.06.03 13:09:07.
