data_PCOD9184601
_publ_section_title
;
Structure prediction by ZEFSAII (Michael W. Deem and Ramdas Pophale) SiO2 
 PCOD9184601
Probable space group: C 2/M
;
_chemical_formula_sum "Si O2"
_cell_formula_units_Z 48
_cell_length_a 16.920668
_cell_length_b 13.214429
_cell_length_c 13.142756
_cell_angle_alpha 90.000000
_cell_angle_beta 69.917038
_cell_angle_gamma 90.000000
_cell_volume 2759.998033
_symmetry_space_group_name_H-M "C 2/M"
_symmetry_group_IT_number 12
_symmetry_cell_setting 'monoclinic'
loop_
_space_group_symop_operation_xyz
x,y,z
-x,y,-z
-x,-y,-z
x,-y,z
1/2+x,1/2+y,z
1/2-x,1/2+y,-z
1/2-x,1/2-y,-z
1/2+x,1/2-y,z
loop_
_atom_site_type_symbol
_atom_site_label
_atom_site_fract_x
_atom_site_fract_y
_atom_site_fract_z
Si Si1 0.099843 0.618818 0.462161
Si Si2 0.351650 0.882051 0.327041
Si Si3 0.163700 0.204573 0.082937
Si Si4 0.720174 0.246132 0.268679
Si Si5 0.369923 0.384504 0.110220
Si Si6 0.009017 0.300424 0.883745
O O1 0.118120 0.500000 0.433571
O O2 0.128641 0.641733 0.564502
O O3 0.147732 0.689454 0.361820
O O4 0.000000 0.632554 0.500000
O O5 0.276590 0.814313 0.317274
O O6 0.433046 0.859864 0.220663
O O7 0.330622 0.000000 0.328982
O O8 0.184579 0.186117 0.191340
O O9 0.084551 0.280957 0.115480
O O10 0.250000 0.250000 0.000000
O O11 0.137348 0.122759 0.009578
O O12 0.783463 0.161530 0.193690
O O13 0.384641 0.500000 0.134443
O O14 0.441511 0.306006 0.116465
O O15 0.000000 0.348869 0.000000
#
# Coordination Sequence:
#
# PCOD9184601 Si02
#       6
#     8   8   8   8   8   8
#     4  10  20  34  55  79 100 128 168 210 251 297
#     4  10  21  35  51  74 101 132 171 210 250 297
#     4   9  18  31  47  70 100 130 162 200 245 295
#     4  10  19  34  53  74 104 135 163 204 255 301
#     4   9  18  32  52  76 101 132 170 207 243 291
#     4   9  18  33  51  72 101 134 169 207 249 293
#
# _framework density 17.391317000000001
#
# number of rings (size 3 to 8) (size 9 to 14) (size 15 to 20)
#    0.000    2.500    0.000    3.000    0.000    4.000 
#    0.000    3.333    0.000    1.500    0.000    0.000 
#    0.000    0.000    0.000    0.000    0.000    0.000 
#
# Total GULP energy -133717.987662 kJ/mol
# GULP energy per Si atom -5571.582819 kJ/mol
# Density = 1.735173 g / cm^3
# Si number density = 17.391317 Si / 1000 Ang^3
#
#
#
# Elastic Constant Matrix: (Units=GPa)
#
#
# Indices 1 2 3 4 5 6 
#
# 1 91.9618 17.2180 33.0513 0.0000 7.8515 0.0000
# 2 17.2180 52.0093 43.0905 0.0000 5.6150 0.0000
# 3 33.0513 43.0905 96.0785 0.0000 6.0759 0.0000
# 4 0.0000 0.0000 0.0000 13.9317 0.0000 3.1719
# 5 7.8515 5.6150 6.0759 0.0000 34.2148 0.0000
# 6 0.0000 0.0000 0.0000 3.1719 0.0000 11.4170
#
#
#
# Elastic Compliance Matrix: (Units=1/GPa)
#
#
# Indices 1 2 3 4 5 6 
#
# 1 0.012579 -0.000738 -0.003865 0.000000 -0.002079 0.000000
# 2 -0.000738 0.030873 -0.013434 0.000000 -0.002512 0.000000
# 3 -0.003865 -0.013434 0.017766 0.000000 -0.000064 0.000000
# 4 0.000000 0.000000 0.000000 0.076626 0.000000 -0.021288
# 5 -0.002079 -0.002512 -0.000064 0.000000 0.030128 0.000000
# 6 0.000000 0.000000 0.000000 -0.021288 0.000000 0.093503
#
#
# Mechanical properties :
#
#
# Convention : Reuss Voigt Hill
#
# Bulk Modulus (GPa) = 39.76815 47.41880 43.59347
# Shear Modulus (GPa) = 16.34370 21.69202 19.01786
#
# Velocity S-wave (km/s) = 3.06888 3.53553 3.31044
# Velocity P-wave (km/s) = 5.95598 6.63262 6.30338
#
# Compressibility (1/GPa) = 0.02514575
#
# Stress axis : x y z
#
# Youngs Moduli (GPa) = 79.49926 32.39115 56.28575
#
# Poissons Ratio (x) = 0.02390 0.21753
# Poissons Ratio (y) = 0.05865 0.75612
# Poissons Ratio (z) = 0.30724 0.43513
#
# Static dielectric constant tensor:
#      x y z
#    x 1.588170 0.000000 0.008110 
#    y 0.000000 1.566980 0.000000 
#    z 0.008110 0.000000 1.599820 
# 
# From -- ./inp_files/142894.got.cif
#   From: 2010.05.17/outbox.cif.g08.bks.cpg/sg12_72_cif.got.tgz:142894.got - 2010.06.03 13:09:07.
