data_PCOD9184789
_publ_section_title
;
Structure prediction by ZEFSAII (Michael W. Deem and Ramdas Pophale) SiO2 
 PCOD9184789
Probable space group: C 2/M
;
_chemical_formula_sum "Si O2"
_cell_formula_units_Z 64
_cell_length_a 23.687396
_cell_length_b 13.005135
_cell_length_c 11.442539
_cell_angle_alpha 90.000000
_cell_angle_beta 117.873620
_cell_angle_gamma 90.000000
_cell_volume 3116.000417
_symmetry_space_group_name_H-M "C 2/M"
_symmetry_group_IT_number 12
_symmetry_cell_setting 'monoclinic'
loop_
_space_group_symop_operation_xyz
x,y,z
-x,y,-z
-x,-y,-z
x,-y,z
1/2+x,1/2+y,z
1/2-x,1/2+y,-z
1/2-x,1/2-y,-z
1/2+x,1/2-y,z
loop_
_atom_site_type_symbol
_atom_site_label
_atom_site_fract_x
_atom_site_fract_y
_atom_site_fract_z
Si Si1 0.578474 0.682300 0.326256
Si Si2 0.683455 0.120321 0.932431
Si Si3 0.079194 0.614845 0.211567
Si Si4 0.067163 0.317701 0.947156
Si Si5 0.757808 0.231258 0.813065
Si Si6 0.389298 0.617581 0.897023
Si Si7 0.160371 0.880353 0.626433
Si Si8 0.040030 0.116821 0.659498
O O1 0.603614 0.796351 0.320035
O O2 0.583379 0.624407 0.207650
O O3 0.620503 0.631836 0.468353
O O4 0.505427 0.683791 0.301936
O O5 0.710696 0.153832 0.834436
O O6 0.693043 0.000000 0.961151
O O7 0.609848 0.150639 0.879606
O O8 0.718521 0.188308 0.065039
O O9 0.093413 0.500000 0.262511
O O10 0.098559 0.631858 0.095196
O O11 0.003154 0.637076 0.132473
O O12 0.071550 0.197025 0.983850
O O13 0.818019 0.165840 0.827043
O O14 0.718648 0.301239 0.685368
O O15 0.389522 0.500000 0.937979
O O16 0.111415 0.854837 0.686990
O O17 0.178977 0.000000 0.657640
O O18 0.000000 0.113201 0.500000
O O19 0.042102 0.000000 0.708482
#
# Coordination Sequence:
#
# PCOD9184789 Si02
#       8
#     8   8   8   8   8   8   8   8
#     4  10  20  34  58  81 110 147 182 220 272 331
#     4  10  19  35  55  75 102 141 183 225 273 320
#     4  10  19  34  54  81 113 143 179 227 270 318
#     4   9  19  34  56  80 105 143 184 223 267 326
#     4  10  22  34  54  80 109 142 184 226 271 325
#     4  10  20  37  55  80 116 145 177 227 277 324
#     4  10  20  37  57  81 111 143 184 231 270 322
#     4   8  15  30  52  76 103 137 174 218 265 311
#
# _framework density 20.539149999999999
#
# number of rings (size 3 to 8) (size 9 to 14) (size 15 to 20)
#    0.000    2.375    0.000    4.125    1.750    0.500 
#    0.000    8.750    0.000    3.375    0.000    0.000 
#    0.000    0.000    0.000    0.000    0.000    0.000 
#
# Total GULP energy -178595.785605 kJ/mol
# GULP energy per Si atom -5581.118300 kJ/mol
# Density = 2.049240 g / cm^3
# Si number density = 20.539150 Si / 1000 Ang^3
#
#
#
# Elastic Constant Matrix: (Units=GPa)
#
#
# Indices 1 2 3 4 5 6 
#
# 1 74.6964 11.0198 12.9319 0.0000 -18.5362 0.0000
# 2 11.0198 134.3420 2.6551 0.0000 -11.3670 0.0000
# 3 12.9319 2.6551 35.3399 0.0000 -5.2684 0.0000
# 4 0.0000 0.0000 0.0000 18.3901 0.0000 4.2554
# 5 -18.5362 -11.3670 -5.2684 0.0000 23.9863 0.0000
# 6 0.0000 0.0000 0.0000 4.2554 0.0000 15.5062
#
#
#
# Elastic Compliance Matrix: (Units=1/GPa)
#
#
# Indices 1 2 3 4 5 6 
#
# 1 0.017230 -0.000293 -0.004465 0.000000 0.012196 0.000000
# 2 -0.000293 0.007760 0.000040 0.000000 0.003459 0.000000
# 3 -0.004465 0.000040 0.030412 0.000000 0.003248 0.000000
# 4 0.000000 0.000000 0.000000 0.058064 0.000000 -0.015935
# 5 0.012196 0.003459 0.003248 0.000000 0.053468 0.000000
# 6 0.000000 0.000000 0.000000 -0.015935 0.000000 0.068864
#
#
# Mechanical properties :
#
#
# Convention : Reuss Voigt Hill
#
# Bulk Modulus (GPa) = 21.75553 33.06579 27.41066
# Shear Modulus (GPa) = 19.18979 26.09462 22.64221
#
# Velocity S-wave (km/s) = 3.05995 3.56825 3.32383
# Velocity P-wave (km/s) = 4.80621 5.75416 5.30142
#
# Compressibility (1/GPa) = 0.04596532
#
# Stress axis : x y z
#
# Youngs Moduli (GPa) = 58.03778 128.87152 32.88211
#
# Poissons Ratio (x) = 0.03779 0.14682
# Poissons Ratio (y) = 0.01702 -0.00132
# Poissons Ratio (z) = 0.25913 -0.00516
#
# Static dielectric constant tensor:
#      x y z
#    x 1.785520 0.000000 0.006310 
#    y 0.000000 1.739110 0.000000 
#    z 0.006310 0.000000 1.722700 
# 
# From -- ./inp_files/175328.got.cif
#   From: 2010.05.17/outbox.cif.g08.bks.cpg/sg12_88_cif.got.tgz:175328.got - 2010.06.03 13:09:07.
