data_PCOD9184642
_publ_section_title
;
Structure prediction by ZEFSAII (Michael W. Deem and Ramdas Pophale) SiO2 
 PCOD9184642
Probable space group: C 2/M
;
_chemical_formula_sum "Si O2"
_cell_formula_units_Z 64
_cell_length_a 13.389340
_cell_length_b 21.574127
_cell_length_c 18.149317
_cell_angle_alpha 90.000000
_cell_angle_beta 47.941444
_cell_angle_gamma 90.000000
_cell_volume 3892.477338
_symmetry_space_group_name_H-M "C 2/M"
_symmetry_group_IT_number 12
_symmetry_cell_setting 'monoclinic'
loop_
_space_group_symop_operation_xyz
x,y,z
-x,y,-z
-x,-y,-z
x,-y,z
1/2+x,1/2+y,z
1/2-x,1/2+y,-z
1/2-x,1/2-y,-z
1/2+x,1/2-y,z
loop_
_atom_site_type_symbol
_atom_site_label
_atom_site_fract_x
_atom_site_fract_y
_atom_site_fract_z
Si Si1 0.396555 0.133928 0.268833
Si Si2 0.820294 0.252750 0.386568
Si Si3 0.388329 0.572772 0.889583
Si Si4 0.888300 0.928226 0.618556
Si Si5 0.899010 0.861806 0.115944
Si Si6 0.217683 0.740257 0.755089
Si Si7 0.068619 0.162965 0.267990
Si Si8 0.815985 0.427226 0.877743
O O1 0.392547 0.180400 0.340674
O O2 0.259440 0.094206 0.334588
O O3 0.384472 0.182784 0.207034
O O4 0.531417 0.095520 0.196946
O O5 0.750000 0.250000 0.500000
O O6 0.730359 0.250995 0.355611
O O7 0.927512 0.197529 0.326304
O O8 0.391290 0.500000 0.865955
O O9 0.519336 0.589753 0.873889
O O10 0.387940 0.621689 0.823136
O O11 0.260883 0.582608 0.006541
O O12 0.933061 0.884120 0.662718
O O13 0.000000 0.922572 0.500000
O O14 0.880696 0.000000 0.645007
O O15 0.855169 0.801673 0.182650
O O16 0.769578 0.891926 0.141819
O O17 0.000000 0.843788 0.000000
O O18 0.327502 0.716626 0.758438
O O19 0.810094 0.500000 0.865438
#
# Coordination Sequence:
#
# PCOD9184642 Si02
#       8
#     8   8   8   8   8   8   8   8
#     4   9  19  35  52  79 110 134 179 215 266 320
#     4  10  20  35  56  80 105 139 179 220 272 320
#     4  10  20  35  54  79 107 142 185 223 263 320
#     4  10  20  34  54  78 104 139 177 219 267 316
#     4  10  19  34  53  79 109 140 182 224 262 316
#     4   9  21  34  51  81 106 139 175 220 275 318
#     4  11  20  35  54  76 110 135 179 223 272 317
#     4  10  20  34  56  79 107 147 181 217 268 320
#
# _framework density 16.441970999999999
#
# number of rings (size 3 to 8) (size 9 to 14) (size 15 to 20)
#    0.750    1.375    1.250    2.625    0.000    2.500 
#    0.000    5.000    0.000    6.750    0.000    0.875 
#    0.000    0.000    0.000    0.000    0.000    0.000 
#
# Total GULP energy -178142.607633 kJ/mol
# GULP energy per Si atom -5566.956489 kJ/mol
# Density = 1.640455 g / cm^3
# Si number density = 16.441971 Si / 1000 Ang^3
#
#
#
# Elastic Constant Matrix: (Units=GPa)
#
#
# Indices 1 2 3 4 5 6 
#
# 1 73.9754 23.0284 38.9294 0.0000 -4.4066 0.0001
# 2 23.0284 74.8204 35.6819 0.0000 -9.0479 0.0000
# 3 38.9294 35.6819 61.6130 0.0001 -2.5132 0.0000
# 4 0.0000 0.0000 0.0001 27.3985 0.0000 2.1931
# 5 -4.4066 -9.0479 -2.5132 0.0000 22.6889 0.0000
# 6 0.0001 0.0000 0.0000 2.1931 0.0000 21.9053
#
#
#
# Elastic Compliance Matrix: (Units=1/GPa)
#
#
# Indices 1 2 3 4 5 6 
#
# 1 0.020399 0.000183 -0.012889 0.000000 0.002607 0.000000
# 2 0.000183 0.019380 -0.011073 0.000000 0.006537 0.000000
# 3 -0.012889 -0.011073 0.030643 0.000000 -0.003525 0.000000
# 4 0.000000 0.000000 0.000000 0.036793 0.000000 -0.003684
# 5 0.002607 0.006537 -0.003525 0.000000 0.046797 0.000000
# 6 0.000000 0.000000 0.000000 -0.003684 0.000000 0.046020
#
#
# Mechanical properties :
#
#
# Convention : Reuss Voigt Hill
#
# Bulk Modulus (GPa) = 43.73379 45.07646 44.40513
# Shear Modulus (GPa) = 19.59172 21.91647 20.75409
#
# Velocity S-wave (km/s) = 3.45565 3.65493 3.55669
# Velocity P-wave (km/s) = 6.52523 6.72952 6.62816
#
# Compressibility (1/GPa) = 0.02286562
#
# Stress axis : x y z
#
# Youngs Moduli (GPa) = 49.02246 51.59942 32.63422
#
# Poissons Ratio (x) = -0.00947 0.42061
# Poissons Ratio (y) = -0.00899 0.36135
# Poissons Ratio (z) = 0.63183 0.57135
#
# Static dielectric constant tensor:
#      x y z
#    x 1.571810 0.000000 0.003940 
#    y 0.000000 1.545720 0.000000 
#    z 0.003940 0.000000 1.541690 
# 
# From -- ./inp_files/265070.got.cif
#   From: 2010.05.17/outbox.cif.g08.bks.cpg/sg12_133_cif.got.tgz:265070.got - 2010.06.03 13:09:07.
