data_PCOD9184515
_publ_section_title
;
Structure prediction by ZEFSAII (Michael W. Deem and Ramdas Pophale) SiO2 
 PCOD9184515
Probable space group: C 2/M
;
_chemical_formula_sum "Si O2"
_cell_formula_units_Z 48
_cell_length_a 20.580885
_cell_length_b 18.599422
_cell_length_c 10.287884
_cell_angle_alpha 90.000000
_cell_angle_beta 37.514643
_cell_angle_gamma 90.000000
_cell_volume 2398.177312
_symmetry_space_group_name_H-M "C 2/M"
_symmetry_group_IT_number 12
_symmetry_cell_setting 'monoclinic'
loop_
_space_group_symop_operation_xyz
x,y,z
-x,y,-z
-x,-y,-z
x,-y,z
1/2+x,1/2+y,z
1/2-x,1/2+y,-z
1/2-x,1/2-y,-z
1/2+x,1/2-y,z
loop_
_atom_site_type_symbol
_atom_site_label
_atom_site_fract_x
_atom_site_fract_y
_atom_site_fract_z
Si Si1 0.412491 0.423269 0.945118
Si Si2 0.222644 0.869260 0.057224
Si Si3 0.642653 0.419657 0.460200
Si Si4 0.368257 0.259331 0.442405
Si Si5 0.862874 0.219098 0.160813
Si Si6 0.407704 0.772534 0.812106
O O1 0.414090 0.500000 0.009903
O O2 0.412387 0.356922 0.042005
O O3 0.310070 0.414227 0.016266
O O4 0.514556 0.419594 0.686722
O O5 0.185072 0.909481 0.246715
O O6 0.149738 0.796633 0.161235
O O7 0.344824 0.842204 0.861928
O O8 0.677582 0.500000 0.451068
O O9 0.669801 0.342788 0.483139
O O10 0.265065 0.211089 0.627398
O O11 0.400780 0.252846 0.239801
O O12 0.464804 0.239219 0.386320
O O13 0.879423 0.269358 0.010283
#
# Coordination Sequence:
#
# PCOD9184515 Si02
#       6
#     8   8   8   8   8   8
#     4  10  21  36  55  81 112 145 179 221 275 330
#     4  10  19  34  51  80 110 142 174 215 273 313
#     4  11  21  32  53  81 112 143 172 220 275 323
#     4  11  21  36  54  81 110 136 187 223 266 325
#     4  10  21  36  56  78 105 148 176 227 272 311
#     4  10  20  33  55  78 108 140 181 222 260 317
#
# _framework density 20.0152
#
# number of rings (size 3 to 8) (size 9 to 14) (size 15 to 20)
#    0.000    1.667    5.000    1.500    0.000    2.000 
#    0.000    1.667    0.000    3.000    0.000    2.333 
#    0.000    0.000    0.000    0.000    0.000    0.000 
#
# Total GULP energy -133776.196283 kJ/mol
# GULP energy per Si atom -5574.008178 kJ/mol
# Density = 1.996964 g / cm^3
# Si number density = 20.015200 Si / 1000 Ang^3
#
#
#
# Elastic Constant Matrix: (Units=GPa)
#
#
# Indices 1 2 3 4 5 6 
#
# 1 59.4028 13.6329 16.7082 0.0000 -16.4763 0.0000
# 2 13.6329 67.6788 20.0747 0.0000 -12.1985 0.0000
# 3 16.7082 20.0747 52.1737 0.0000 -8.4445 0.0000
# 4 0.0000 0.0000 0.0000 23.6355 0.0000 -4.0853
# 5 -16.4763 -12.1985 -8.4445 0.0000 31.5075 0.0000
# 6 0.0000 0.0000 0.0000 -4.0853 0.0000 -9.4305
#
#
#
# Elastic Compliance Matrix: (Units=1/GPa)
#
#
# Indices 1 2 3 4 5 6 
#
# 1 0.021013 -0.001142 -0.004791 0.000000 0.009262 0.000000
# 2 -0.001142 0.017515 -0.005616 0.000000 0.004679 0.000000
# 3 -0.004791 -0.005616 0.023107 0.000000 0.001513 0.000000
# 4 0.000000 0.000000 0.000000 0.039362 0.000000 -0.017052
# 5 0.009262 0.004679 0.001513 0.000000 0.038799 0.000000
# 6 0.000000 0.000000 0.000000 -0.017052 0.000000 -0.098652
#
#
# Mechanical properties :
#
#
# Convention : Reuss Voigt Hill
#
# Bulk Modulus (GPa) = 25.94942 31.12074 28.53508
# Shear Modulus (GPa) = 64.86241 17.73180 41.29711
#
# Velocity S-wave (km/s) = 5.69885 2.97966 4.54727
# Velocity P-wave (km/s) = 7.50304 5.23643 6.46977
#
# Compressibility (1/GPa) = 0.03853651
#
# Stress axis : x y z
#
# Youngs Moduli (GPa) = 47.58997 57.09432 43.27752
#
# Poissons Ratio (x) = 0.06522 0.20732
# Poissons Ratio (y) = 0.05436 0.24305
# Poissons Ratio (z) = 0.22798 0.32064
#
# Static dielectric constant tensor:
#      x y z
#    x 1.743390 0.000000 -0.006200 
#    y 0.000000 1.720260 0.000000 
#    z -0.006200 0.000000 1.770400 
# 
# From -- ./inp_files/177688.got.cif
#   From: 2010.05.17/outbox.cif.g08.bks.cpg/sg12_89_cif.got.tgz:177688.got - 2010.06.03 13:09:07.
