data_PCOD9184739
_publ_section_title
;
Structure prediction by ZEFSAII (Michael W. Deem and Ramdas Pophale) SiO2 
 PCOD9184739
Probable space group: C 2/M
;
_chemical_formula_sum "Si O2"
_cell_formula_units_Z 58
_cell_length_a 7.479200
_cell_length_b 29.215519
_cell_length_c 14.471671
_cell_angle_alpha 90.000000
_cell_angle_beta 90.000464
_cell_angle_gamma 90.000000
_cell_volume 3162.186157
_symmetry_space_group_name_H-M "C 2/M"
_symmetry_group_IT_number 12
_symmetry_cell_setting 'monoclinic'
loop_
_space_group_symop_operation_xyz
x,y,z
-x,y,-z
-x,-y,-z
x,-y,z
1/2+x,1/2+y,z
1/2-x,1/2+y,-z
1/2-x,1/2-y,-z
1/2+x,1/2-y,z
loop_
_atom_site_type_symbol
_atom_site_label
_atom_site_fract_x
_atom_site_fract_y
_atom_site_fract_z
Si Si1 0.782576 0.447551 1.000000
Si Si2 0.291444 0.798345 0.245420
Si Si3 0.785744 0.400018 0.809320
Si Si4 0.000003 0.078906 0.342128
Si Si5 0.999995 0.184114 0.605024
Si Si6 0.500000 0.500000 0.500000
Si Si7 0.708561 0.201654 0.245419
Si Si8 0.714255 0.099982 0.809320
O O1 0.722035 0.500000 0.000001
O O2 0.729908 0.422061 0.093776
O O3 0.729907 0.422062 0.906222
O O4 0.000000 0.447737 0.000000
O O5 0.500003 0.799752 0.268035
O O6 0.250002 0.750000 0.196750
O O7 0.249653 0.845335 0.191720
O O8 0.170937 0.799611 0.336898
O O9 0.672652 0.421624 0.725646
O O10 0.749653 0.345335 0.808283
O O11 1.000000 0.406589 0.796691
O O12 0.000008 0.128946 0.389252
O O13 0.000002 0.039932 0.418396
O O14 0.172653 0.078375 0.274352
O O15 0.170927 0.200388 0.663105
O O16 0.000000 0.199630 0.500000
#
# Coordination Sequence:
#
# PCOD9184739 Si02
#       8
#     8   8   8   8   8   2   8   8
#     4   9  18  35  60  89 114 142 188 236 279 340
#     4  10  19  34  54  78 107 147 185 223 281 337
#     4   9  20  38  60  83 116 151 184 233 287 332
#     4  10  22  39  57  82 116 152 188 236 280 334
#     4  10  20  36  53  74 111 143 183 241 280 321
#     4  12  24  40  62  86 112 154 204 228 286 334
#     4  10  19  34  54  78 107 147 185 223 281 337
#     4   9  20  38  60  83 116 151 184 233 287 332
#
# _framework density 18.341742
#
# number of rings (size 3 to 8) (size 9 to 14) (size 15 to 20)
#    0.000    2.345    2.069    0.000    1.931    1.655 
#    0.000    2.759    0.000    0.000    0.000    0.000 
#    0.000    0.000    0.000    0.000    0.000    0.000 
#
# Total GULP energy -161453.753162 kJ/mol
# GULP energy per Si atom -5567.370799 kJ/mol
# Density = 1.830000 g / cm^3
# Si number density = 18.341742 Si / 1000 Ang^3
#
#
#
# Elastic Constant Matrix: (Units=GPa)
#
#
# Indices 1 2 3 4 5 6 
#
# 1 83.7243 39.4507 41.4505 0.0000 -2.7665 0.0000
# 2 39.4507 165.3360 85.9601 0.0000 3.7822 0.0000
# 3 41.4505 85.9601 127.0396 0.0000 6.2818 0.0000
# 4 0.0000 0.0000 0.0000 13.8998 0.0000 1.8316
# 5 -2.7665 3.7822 6.2818 0.0000 4.9196 0.0000
# 6 0.0000 0.0000 0.0000 1.8316 0.0000 -8.5827
#
#
#
# Elastic Compliance Matrix: (Units=1/GPa)
#
#
# Indices 1 2 3 4 5 6 
#
# 1 0.015612 -0.001591 -0.004816 0.000000 0.016151 0.000000
# 2 -0.001591 0.009497 -0.005873 0.000000 -0.000697 0.000000
# 3 -0.004816 -0.005873 0.014225 0.000000 -0.016358 0.000000
# 4 0.000000 0.000000 0.000000 0.069976 0.000000 0.014933
# 5 0.016151 -0.000697 -0.016358 0.000000 0.233772 0.000000
# 6 0.000000 0.000000 0.000000 0.014933 0.000000 -0.113326
#
#
# Mechanical properties :
#
#
# Convention : Reuss Voigt Hill
#
# Bulk Modulus (GPa) = 67.68029 78.86917 73.27473
# Shear Modulus (GPa) = 19.28721 15.99658 17.64189
#
# Velocity S-wave (km/s) = 3.24627 2.95641 3.10473
# Velocity P-wave (km/s) = 7.14358 7.39912 7.27247
#
# Compressibility (1/GPa) = 0.01477535
#
# Stress axis : x y z
#
# Youngs Moduli (GPa) = 64.05532 105.29648 70.29652
#
# Poissons Ratio (x) = 0.16748 0.33856
# Poissons Ratio (y) = 0.10188 0.41282
# Poissons Ratio (z) = 0.30850 0.61837
#
# Static dielectric constant tensor:
#      x y z
#    x 1.649000 0.000000 -0.005180 
#    y 0.000000 1.655060 0.000000 
#    z -0.005180 0.000000 1.585420 
# 
# From -- ./inp_files/199356.got.cif
#   From: 2010.05.17/outbox.cif.g08.bks.cpg/sg12_100_cif.got.tgz:199356.got - 2010.06.03 13:09:07.
