data_PCOD9184426
_publ_section_title
;
Structure prediction by ZEFSAII (Michael W. Deem and Ramdas Pophale) SiO2 
 PCOD9184426
Probable space group: C 2/M
;
_chemical_formula_sum "Si O2"
_cell_formula_units_Z 24
_cell_length_a 17.037451
_cell_length_b 7.929947
_cell_length_c 9.160693
_cell_angle_alpha 90.000000
_cell_angle_beta 120.827789
_cell_angle_gamma 90.000000
_cell_volume 1062.797410
_symmetry_space_group_name_H-M "C 2/M"
_symmetry_group_IT_number 12
_symmetry_cell_setting 'monoclinic'
loop_
_space_group_symop_operation_xyz
x,y,z
-x,y,-z
-x,-y,-z
x,-y,z
1/2+x,1/2+y,z
1/2-x,1/2+y,-z
1/2-x,1/2-y,-z
1/2+x,1/2-y,z
loop_
_atom_site_type_symbol
_atom_site_label
_atom_site_fract_x
_atom_site_fract_y
_atom_site_fract_z
Si Si1 0.898030 0.500000 0.463815
Si Si2 0.235018 0.800004 0.654617
Si Si3 0.989491 0.500000 0.166718
Si Si4 0.592002 0.684974 0.989950
O O1 0.843550 0.668965 0.372609
O O2 0.000000 0.500000 0.500000
O O3 0.916210 0.500000 0.657324
O O4 0.250000 0.750000 0.500000
O O5 0.325048 0.750661 0.832242
O O6 0.215212 0.000000 0.649292
O O7 0.933865 0.330992 0.147241
O O8 0.000000 0.500000 0.000000
O O9 0.613557 0.500000 0.949935
O O10 0.500000 0.667359 0.000000
#
# Coordination Sequence:
#
# PCOD9184426 Si02
#       4
#     4   8   4   8
#     4  12  28  46  65 103 149 177 218 292 357 399
#     4  12  22  39  70 102 133 179 236 281 332 411
#     4  10  20  38  66  93 127 173 222 274 329 401
#     4  10  19  33  61  97 127 160 222 286 330 378
#
# _framework density 22.581914000000001
#
# number of rings (size 3 to 8) (size 9 to 14) (size 15 to 20)
#    0.000    1.000    5.000    4.000    0.000    4.667 
#    0.000    1.667    0.000    0.000    0.000    0.000 
#    0.000    0.000    0.000    0.000    0.000    0.000 
#
# Total GULP energy -67031.100615 kJ/mol
# GULP energy per Si atom -5585.925051 kJ/mol
# Density = 2.253052 g / cm^3
# Si number density = 22.581914 Si / 1000 Ang^3
#
#
#
# Elastic Constant Matrix: (Units=GPa)
#
#
# Indices 1 2 3 4 5 6 
#
# 1 98.3170 39.5059 24.1580 0.0000 21.9264 0.0000
# 2 39.5059 302.6649 68.9486 0.0000 35.3709 0.0000
# 3 24.1580 68.9486 135.4325 0.0000 40.4762 0.0000
# 4 0.0000 0.0000 0.0000 41.9196 0.0000 22.3150
# 5 21.9264 35.3709 40.4762 0.0000 39.5375 0.0000
# 6 0.0000 0.0000 0.0000 22.3150 0.0000 -4.1820
#
#
#
# Elastic Compliance Matrix: (Units=1/GPa)
#
#
# Indices 1 2 3 4 5 6 
#
# 1 0.011807 -0.000877 0.000091 0.000000 -0.005856 0.000000
# 2 -0.000877 0.003917 -0.001348 0.000000 -0.001637 0.000000
# 3 0.000091 -0.001348 0.011107 0.000000 -0.010215 0.000000
# 4 0.000000 0.000000 0.000000 0.006212 0.000000 0.033144
# 5 -0.005856 -0.001637 -0.010215 0.000000 0.040462 0.000000
# 6 0.000000 0.000000 0.000000 0.033144 0.000000 -0.062263
#
#
# Mechanical properties :
#
#
# Convention : Reuss Voigt Hill
#
# Bulk Modulus (GPa) = 44.32413 89.07103 66.69758
# Shear Modulus (GPa) = 217.08905 42.37516 129.73211
#
# Velocity S-wave (km/s) = 9.81543 4.33657 7.58777
# Velocity P-wave (km/s) = 12.17077 8.03764 10.31337
#
# Compressibility (1/GPa) = 0.02256107
#
# Stress axis : x y z
#
# Youngs Moduli (GPa) = 84.69216 255.29678 90.03509
#
# Poissons Ratio (x) = 0.22402 -0.00817
# Poissons Ratio (y) = 0.07432 0.12139
# Poissons Ratio (z) = -0.00768 0.34422
#
# Static dielectric constant tensor:
#      x y z
#    x 1.944740 0.000000 -0.044960 
#    y 0.000000 1.924740 0.000000 
#    z -0.044960 0.000000 1.824100 
# 
# From -- ./inp_files/81892.got.cif
#   From: 2010.05.17/outbox.cif.g08.bks.cpg/sg12_41_cif.got.tgz:81892.got - 2010.06.03 13:09:07.
