data_PCOD9184289
_publ_section_title
;
Structure prediction by ZEFSAII (Michael W. Deem and Ramdas Pophale) SiO2 
 PCOD9184289
Probable space group: C 2/M
;
_chemical_formula_sum "Si O2"
_cell_formula_units_Z 56
_cell_length_a 15.527471
_cell_length_b 8.880868
_cell_length_c 22.164998
_cell_angle_alpha 90.000000
_cell_angle_beta 103.029498
_cell_angle_gamma 90.000000
_cell_volume 2977.803873
_symmetry_space_group_name_H-M "C 2/M"
_symmetry_group_IT_number 12
_symmetry_cell_setting 'monoclinic'
loop_
_space_group_symop_operation_xyz
x,y,z
-x,y,-z
-x,-y,-z
x,-y,z
1/2+x,1/2+y,z
1/2-x,1/2+y,-z
1/2-x,1/2-y,-z
1/2+x,1/2-y,z
loop_
_atom_site_type_symbol
_atom_site_label
_atom_site_fract_x
_atom_site_fract_y
_atom_site_fract_z
Si Si1 0.574110 0.818856 0.842816
Si Si2 0.566281 0.680348 0.710429
Si Si3 0.943926 0.318686 0.931144
Si Si4 0.295016 0.181266 0.354647
Si Si5 0.102781 0.319458 0.506973
Si Si6 0.259118 0.319552 0.934894
Si Si7 0.114755 0.181132 0.380857
O O1 0.558305 0.741240 0.776635
O O2 0.501498 0.777384 0.881752
O O3 0.671237 0.779588 0.883548
O O4 0.571053 0.000000 0.835141
O O5 0.567605 0.500000 0.710778
O O6 0.653499 0.742940 0.691801
O O7 0.480794 0.731260 0.658103
O O8 0.932668 0.500000 0.929960
O O9 0.848694 0.241904 0.919428
O O10 0.000000 0.279136 0.000000
O O11 0.343339 0.224507 0.425001
O O12 0.192763 0.223253 0.347103
O O13 0.301514 0.000000 0.349479
O O14 0.108866 0.500000 0.502082
O O15 0.134049 0.245712 0.449942
O O16 0.000000 0.278765 0.500000
O O17 0.262599 0.500000 0.940305
O O18 0.250000 0.250000 0.000000
O O19 0.114657 0.000000 0.385205
#
# Coordination Sequence:
#
# PCOD9184289 Si02
#       7
#     8   8   8   8   8   8   8
#     4  10  23  42  62  84 119 161 193 234 296 354
#     4  11  24  40  58  84 116 152 199 246 286 342
#     4  10  20  39  63  90 123 155 191 236 291 352
#     4  10  21  39  60  83 117 156 193 237 296 353
#     4  10  19  33  58  89 115 148 194 241 289 349
#     4  11  22  38  62  92 121 153 193 239 293 350
#     4  10  22  38  58  84 116 153 192 242 296 343
#
# _framework density 18.805804999999999
#
# number of rings (size 3 to 8) (size 9 to 14) (size 15 to 20)
#    0.000    1.714    2.857    1.286    0.000    5.143 
#    0.000    4.286    0.000    0.000    0.000    0.000 
#    0.000    0.000    0.000    0.000    0.000    0.000 
#
# Total GULP energy -156443.791912 kJ/mol
# GULP energy per Si atom -5587.278283 kJ/mol
# Density = 1.876300 g / cm^3
# Si number density = 18.805805 Si / 1000 Ang^3
#
#
#
# Elastic Constant Matrix: (Units=GPa)
#
#
# Indices 1 2 3 4 5 6 
#
# 1 107.0528 27.0589 28.0323 0.0000 -30.6894 0.0000
# 2 27.0589 17.3490 27.1128 0.0000 -9.3474 0.0000
# 3 28.0323 27.1128 104.1317 0.0000 -28.5390 0.0000
# 4 0.0000 0.0000 0.0000 33.5515 0.0000 -3.0988
# 5 -30.6894 -9.3474 -28.5390 0.0000 30.6123 0.0000
# 6 0.0000 0.0000 0.0000 -3.0988 0.0000 27.6998
#
#
#
# Elastic Compliance Matrix: (Units=1/GPa)
#
#
# Indices 1 2 3 4 5 6 
#
# 1 0.022266 -0.039187 0.009466 0.000000 0.019182 0.000000
# 2 -0.039187 0.167698 -0.040091 0.000000 -0.025455 0.000000
# 3 0.009466 -0.040091 0.022484 0.000000 0.018210 0.000000
# 4 0.000000 0.000000 0.000000 0.030116 0.000000 0.003369
# 5 0.019182 -0.025455 0.018210 0.000000 0.061100 0.000000
# 6 0.000000 0.000000 0.000000 0.003369 0.000000 0.036478
#
#
# Mechanical properties :
#
#
# Convention : Reuss Voigt Hill
#
# Bulk Modulus (GPa) = 13.73154 43.66015 28.69584
# Shear Modulus (GPa) = 9.91981 28.12801 19.02391
#
# Velocity S-wave (km/s) = 2.29920 3.87163 3.18401
# Velocity P-wave (km/s) = 3.79025 6.57669 5.36744
#
# Compressibility (1/GPa) = 0.07282506
#
# Stress axis : x y z
#
# Youngs Moduli (GPa) = 44.91077 5.96309 44.47606
#
# Poissons Ratio (x) = 0.23368 -0.42101
# Poissons Ratio (y) = 1.75992 1.78308
# Poissons Ratio (z) = -0.42513 0.23907
#
# Static dielectric constant tensor:
#      x y z
#    x 1.656410 0.000000 0.004700 
#    y 0.000000 1.628140 0.000000 
#    z 0.004700 0.000000 1.618280 
# 
# From -- ./inp_files/309010.got.cif
#   From: 2010.05.17/outbox.cif.g08.bks.cpg/sg12_155_cif.got.tgz:309010.got - 2010.06.03 13:09:07.
