data_PCOD9184580
_publ_section_title
;
Structure prediction by ZEFSAII (Michael W. Deem and Ramdas Pophale) SiO2 
 PCOD9184580
Probable space group: C 2/M
;
_chemical_formula_sum "Si O2"
_cell_formula_units_Z 64
_cell_length_a 21.656072
_cell_length_b 21.811561
_cell_length_c 9.703311
_cell_angle_alpha 90.000000
_cell_angle_beta 114.349690
_cell_angle_gamma 90.000000
_cell_volume 4175.675233
_symmetry_space_group_name_H-M "C 2/M"
_symmetry_group_IT_number 12
_symmetry_cell_setting 'monoclinic'
loop_
_space_group_symop_operation_xyz
x,y,z
-x,y,-z
-x,-y,-z
x,-y,z
1/2+x,1/2+y,z
1/2-x,1/2+y,-z
1/2-x,1/2-y,-z
1/2+x,1/2-y,z
loop_
_atom_site_type_symbol
_atom_site_label
_atom_site_fract_x
_atom_site_fract_y
_atom_site_fract_z
Si Si1 0.814245 0.165057 0.359912
Si Si2 0.863550 0.140517 0.702373
Si Si3 0.325919 0.174913 0.106763
Si Si4 0.792439 0.761089 0.829279
Si Si5 0.878792 0.932219 0.972098
Si Si6 0.485364 0.674937 0.137423
Si Si7 0.758430 0.929188 0.082244
Si Si8 0.433497 0.750716 0.346083
O O1 0.825861 0.140112 0.523145
O O2 0.753986 0.214706 0.299954
O O3 0.791834 0.111473 0.234597
O O4 0.880939 0.202234 0.368217
O O5 0.837696 0.197576 0.771937
O O6 0.855783 0.082705 0.795633
O O7 0.943063 0.148489 0.746773
O O8 0.259229 0.196778 0.130114
O O9 0.389488 0.189503 0.263222
O O10 0.330736 0.220516 0.979304
O O11 0.307367 0.107835 0.033241
O O12 0.909150 0.000000 0.009626
O O13 0.814589 0.929236 0.013256
O O14 0.932328 0.880064 0.063338
O O15 0.457943 0.720141 0.226670
O O16 0.500000 0.703177 0.000000
O O17 0.745109 0.000000 0.107725
O O18 0.500000 0.761642 0.500000
#
# Coordination Sequence:
#
# PCOD9184580 Si02
#       8
#     8   8   8   8   8   8   8   8
#     4  10  20  31  50  71 101 129 150 203 247 293
#     4  11  19  30  46  71 101 127 160 200 240 286
#     4   9  17  31  53  71  93 127 161 206 239 285
#     4   9  17  30  49  74  96 124 161 193 250 290
#     4  10  20  33  47  63  92 133 176 204 223 271
#     4  10  20  30  47  67  97 132 163 197 232 286
#     4  10  19  34  53  70  91 129 174 202 231 278
#     4  11  19  33  49  74 102 124 157 192 257 297
#
# _framework density 15.326862
#
# number of rings (size 3 to 8) (size 9 to 14) (size 15 to 20)
#    0.000    2.000    3.750    2.625    0.000    2.750 
#    0.000    0.000    0.000    2.625    0.000    0.000 
#    0.000   12.500    0.000    0.000    0.000    0.000 
#
# Total GULP energy -178294.369363 kJ/mol
# GULP energy per Si atom -5571.699043 kJ/mol
# Density = 1.529198 g / cm^3
# Si number density = 15.326862 Si / 1000 Ang^3
#
#
#
# Elastic Constant Matrix: (Units=GPa)
#
#
# Indices 1 2 3 4 5 6 
#
# 1 49.1227 31.4244 28.9425 0.0000 2.6655 0.0000
# 2 31.4244 75.4650 41.1723 0.0000 12.4851 0.0000
# 3 28.9425 41.1723 103.2376 0.0000 12.8509 0.0000
# 4 0.0000 0.0000 0.0000 15.0745 0.0000 2.1425
# 5 2.6655 12.4851 12.8509 0.0000 26.2190 0.0000
# 6 0.0000 0.0000 0.0000 2.1425 0.0000 13.8563
#
#
#
# Elastic Compliance Matrix: (Units=1/GPa)
#
#
# Indices 1 2 3 4 5 6 
#
# 1 0.029567 -0.010487 -0.004637 0.000000 0.004261 0.000000
# 2 -0.010487 0.021311 -0.004716 0.000000 -0.006770 0.000000
# 3 -0.004637 -0.004716 0.013343 0.000000 -0.003823 0.000000
# 4 0.000000 0.000000 0.000000 0.067828 0.000000 -0.010487
# 5 0.004261 -0.006770 -0.003823 0.000000 0.042805 0.000000
# 6 0.000000 0.000000 0.000000 -0.010487 0.000000 0.073791
#
#
# Mechanical properties :
#
#
# Convention : Reuss Voigt Hill
#
# Bulk Modulus (GPa) = 40.74909 47.87820 44.31364
# Shear Modulus (GPa) = 16.86312 19.44905 18.15609
#
# Velocity S-wave (km/s) = 3.32057 3.56610 3.44553
# Velocity P-wave (km/s) = 6.43009 6.94709 6.69358
#
# Compressibility (1/GPa) = 0.02454043
#
# Stress axis : x y z
#
# Youngs Moduli (GPa) = 33.82188 46.92344 74.94457
#
# Poissons Ratio (x) = 0.49208 0.34752
# Poissons Ratio (y) = 0.35469 0.35347
# Poissons Ratio (z) = 0.15683 0.22131
#
# Static dielectric constant tensor:
#      x y z
#    x 1.506840 0.000000 0.004050 
#    y 0.000000 1.504580 0.000000 
#    z 0.004050 0.000000 1.529350 
# 
# From -- ./inp_files/90410.got.cif
#   From: 2010.05.17/outbox.cif.g08.bks.cpg/sg12_46_cif.got.tgz:90410.got - 2010.06.03 13:09:07.
