data_PCOD9184004
_publ_section_title
;
Structure prediction by ZEFSAII (Michael W. Deem and Ramdas Pophale) SiO2 
 PCOD9184004
Probable space group: C 2/M
;
_chemical_formula_sum "Si O2"
_cell_formula_units_Z 48
_cell_length_a 11.213463
_cell_length_b 14.623850
_cell_length_c 25.724035
_cell_angle_alpha 90.000000
_cell_angle_beta 152.251316
_cell_angle_gamma 90.000000
_cell_volume 1964.030037
_symmetry_space_group_name_H-M "C 2/M"
_symmetry_group_IT_number 12
_symmetry_cell_setting 'monoclinic'
loop_
_space_group_symop_operation_xyz
x,y,z
-x,y,-z
-x,-y,-z
x,-y,z
1/2+x,1/2+y,z
1/2-x,1/2+y,-z
1/2-x,1/2-y,-z
1/2+x,1/2-y,z
loop_
_atom_site_type_symbol
_atom_site_label
_atom_site_fract_x
_atom_site_fract_y
_atom_site_fract_z
Si Si1 0.145813 0.109332 0.938797
Si Si2 0.595621 0.602275 0.804625
Si Si3 0.841658 0.842904 0.484936
Si Si4 0.690504 0.104846 0.890087
Si Si5 0.012894 0.361089 0.565560
Si Si6 0.869503 0.286652 0.232568
O O1 0.222456 0.125473 0.909130
O O2 0.889650 0.165675 0.849735
O O3 0.093344 0.000000 0.922947
O O4 0.332803 0.131812 0.058643
O O5 0.673393 0.500000 0.819614
O O6 0.650564 0.679453 0.784291
O O7 0.285845 0.605714 0.692198
O O8 0.995467 0.750271 0.559181
O O9 0.729704 0.890729 0.493041
O O10 0.585570 0.808915 0.357212
O O11 0.000000 0.891449 0.500000
O O12 0.567506 0.169363 0.799709
O O13 0.606704 0.000000 0.850179
O O14 0.000000 0.107090 0.000000
O O15 0.000000 0.388118 0.500000
#
# Coordination Sequence:
#
# PCOD9184004 Si02
#       6
#     8   8   8   8   8   8
#     4   9  19  37  61  88 115 146 196 252 302 363
#     4  11  22  35  56  87 116 157 207 246 287 360
#     4  10  19  33  56  89 117 154 195 258 310 350
#     4   8  16  32  58  87 113 145 192 247 303 367
#     4  10  19  36  55  81 114 162 206 247 291 358
#     4  11  18  33  58  84 115 154 193 250 301 353
#
# _framework density 24.439546
#
# number of rings (size 3 to 8) (size 9 to 14) (size 15 to 20)
#    0.000    2.167    5.000    1.500    0.000    1.000 
#    0.000    0.000    0.000   11.000    0.000    0.000 
#    0.000    0.000    0.000    0.000    0.000    0.000 
#
# Total GULP energy -134228.100048 kJ/mol
# GULP energy per Si atom -5592.837502 kJ/mol
# Density = 2.438392 g / cm^3
# Si number density = 24.439546 Si / 1000 Ang^3
#
#
#
# Elastic Constant Matrix: (Units=GPa)
#
#
# Indices 1 2 3 4 5 6 
#
# 1 144.4158 27.9686 42.4265 0.0015 2.9552 -0.0001
# 2 27.9686 72.7746 41.4858 0.0033 -3.3151 -0.0004
# 3 42.4265 41.4858 67.4163 0.0111 -20.5426 -0.0018
# 4 0.0015 0.0033 0.0111 -57.8892 0.0019 10.0453
# 5 2.9552 -3.3151 -20.5426 0.0019 42.7040 -0.0001
# 6 -0.0001 -0.0004 -0.0018 10.0453 -0.0001 4.1989
#
#
#
# Elastic Compliance Matrix: (Units=1/GPa)
#
#
# Indices 1 2 3 4 5 6 
#
# 1 0.009035 0.000444 -0.007193 -0.000001 -0.004051 0.000000
# 2 0.000444 0.022314 -0.015809 -0.000002 -0.005904 0.000000
# 3 -0.007193 -0.015809 0.033824 0.000006 0.015542 -0.000001
# 4 -0.000001 -0.000002 0.000006 -0.012207 0.000003 0.029203
# 5 -0.004051 -0.005904 0.015542 0.000003 0.030715 -0.000001
# 6 0.000000 0.000000 -0.000001 0.029203 -0.000001 0.168292
#
#
# Mechanical properties :
#
#
# Convention : Reuss Voigt Hill
#
# Bulk Modulus (GPa) = 49.86223 56.48539 53.17381
# Shear Modulus (GPa) = 16.45948 9.31779 12.88863
#
# Velocity S-wave (km/s) = 2.59796 1.95470 2.29894
# Velocity P-wave (km/s) = 5.42639 5.31573 5.37135
#
# Compressibility (1/GPa) = 0.02005526
#
# Stress axis : x y z
#
# Youngs Moduli (GPa) = 110.68550 44.81514 29.56445
#
# Poissons Ratio (x) = -0.01989 0.21266
# Poissons Ratio (y) = -0.04913 0.46740
# Poissons Ratio (z) = 0.79618 0.70850
#
# Static dielectric constant tensor:
#      x y z
#    x 2.042950 0.000000 0.003030 
#    y 0.000000 1.889750 0.000000 
#    z 0.003030 0.000000 1.891520 
# 
# From -- ./inp_files/358500.got.cif
#   From: 2010.05.17/outbox.cif.g08.bks.cpg/sg12_180_cif.got.tgz:358500.got - 2010.06.03 13:09:07.
