data_PCOD9184140
_publ_section_title
;
Structure prediction by ZEFSAII (Michael W. Deem and Ramdas Pophale) SiO2 
 PCOD9184140
Probable space group: C 2/M
;
_chemical_formula_sum "Si O2"
_cell_formula_units_Z 64
_cell_length_a 24.617841
_cell_length_b 11.608359
_cell_length_c 12.689864
_cell_angle_alpha 90.000000
_cell_angle_beta 110.108009
_cell_angle_gamma 90.000000
_cell_volume 3405.373268
_symmetry_space_group_name_H-M "C 2/M"
_symmetry_group_IT_number 12
_symmetry_cell_setting 'monoclinic'
loop_
_space_group_symop_operation_xyz
x,y,z
-x,y,-z
-x,-y,-z
x,-y,z
1/2+x,1/2+y,z
1/2-x,1/2+y,-z
1/2-x,1/2-y,-z
1/2+x,1/2-y,z
loop_
_atom_site_type_symbol
_atom_site_label
_atom_site_fract_x
_atom_site_fract_y
_atom_site_fract_z
Si Si1 0.559429 0.132348 0.482349
Si Si2 0.287375 0.132400 0.637765
Si Si3 0.952741 0.126213 0.875514
Si Si4 0.181361 0.710791 0.575002
Si Si5 0.157825 0.765327 0.132331
Si Si6 0.779118 0.632542 0.175318
Si Si7 0.016713 0.367464 0.216352
Si Si8 0.617752 0.864154 0.903901
O O1 0.500000 0.163083 0.500000
O O2 0.612612 0.215798 0.541681
O O3 0.546423 0.130312 0.349859
O O4 0.574882 0.000000 0.525336
O O5 0.220971 0.175445 0.600952
O O6 0.307271 0.152934 0.530959
O O7 0.325129 0.203870 0.746617
O O8 0.292722 0.000000 0.668518
O O9 0.887027 0.133239 0.873278
O O10 0.961139 0.251131 0.825535
O O11 0.959958 0.000000 0.825081
O O12 0.000000 0.126598 0.000000
O O13 0.204559 0.640282 0.690450
O O14 0.218814 0.802256 0.122765
O O15 0.125803 0.687473 0.024909
O O16 0.769990 0.500000 0.140550
O O17 0.832805 0.680213 0.142997
O O18 0.025026 0.500000 0.176527
O O19 0.947583 0.348816 0.179973
O O20 0.626457 0.000000 0.917327
#
# Coordination Sequence:
#
# PCOD9184140 Si02
#       8
#     8   8   8   8   8   8   8   8
#     4  10  19  33  57  86 115 148 190 244 295 339
#     4  10  21  36  57  83 111 145 185 238 292 336
#     4  11  23  39  57  81 118 157 191 232 285 344
#     4  10  20  35  55  80 110 143 182 229 286 345
#     4  11  21  36  56  82 111 147 189 229 280 345
#     4  10  20  34  55  80 108 142 184 232 282 336
#     4  10  21  37  59  87 115 150 197 240 287 341
#     4  10  20  35  55  81 111 143 182 237 288 331
#
# _framework density 18.793828000000001
#
# number of rings (size 3 to 8) (size 9 to 14) (size 15 to 20)
#    0.000    1.750    1.250    3.750    0.000    4.250 
#    0.000    5.000    0.000    8.250    0.000    0.000 
#    0.000    0.000    0.000    0.000    0.000    0.000 
#
# Total GULP energy -178343.358950 kJ/mol
# GULP energy per Si atom -5573.229967 kJ/mol
# Density = 1.875105 g / cm^3
# Si number density = 18.793828 Si / 1000 Ang^3
#
#
#
# Elastic Constant Matrix: (Units=GPa)
#
#
# Indices 1 2 3 4 5 6 
#
# 1 80.4559 41.3947 7.9340 0.0000 9.9466 0.0000
# 2 41.3947 72.8546 11.0252 0.0000 1.0283 0.0000
# 3 7.9340 11.0252 45.2736 0.0000 12.4249 0.0000
# 4 0.0000 0.0000 0.0000 -20.1805 0.0000 -22.7472
# 5 9.9466 1.0283 12.4249 0.0000 31.6244 0.0000
# 6 0.0000 0.0000 0.0000 -22.7472 0.0000 -3.6461
#
#
#
# Elastic Compliance Matrix: (Units=1/GPa)
#
#
# Indices 1 2 3 4 5 6 
#
# 1 0.018497 -0.010569 0.000935 0.000000 -0.005842 0.000000
# 2 -0.010569 0.020319 -0.004289 0.000000 0.004349 0.000000
# 3 0.000935 -0.004289 0.025792 0.000000 -0.010288 0.000000
# 4 0.000000 0.000000 0.000000 0.008215 0.000000 -0.051249
# 5 -0.005842 0.004349 -0.010288 0.000000 0.037359 0.000000
# 6 0.000000 0.000000 0.000000 -0.051249 0.000000 0.045466
#
#
# Mechanical properties :
#
#
# Convention : Reuss Voigt Hill
#
# Bulk Modulus (GPa) = 27.20192 35.47689 31.33940
# Shear Modulus (GPa) = 25.54319 10.77489 18.15904
#
# Velocity S-wave (km/s) = 3.69063 2.39701 3.11179
# Velocity P-wave (km/s) = 5.71544 5.15546 5.44266
#
# Compressibility (1/GPa) = 0.03676211
#
# Stress axis : x y z
#
# Youngs Moduli (GPa) = 54.06378 49.21598 38.77158
#
# Poissons Ratio (x) = 0.52014 -0.03627
# Poissons Ratio (y) = 0.57138 0.16631
# Poissons Ratio (z) = -0.05057 0.21111
#
# Static dielectric constant tensor:
#      x y z
#    x 1.648590 0.000000 0.002170 
#    y 0.000000 1.654970 0.000000 
#    z 0.002170 0.000000 1.621380 
# 
# From -- ./inp_files/175299.got.cif
#   From: 2010.05.17/outbox.cif.g08.bks.cpg/sg12_88_cif.got.tgz:175299.got - 2010.06.03 13:09:07.
