data_PCOD9184099
_publ_section_title
;
Structure prediction by ZEFSAII (Michael W. Deem and Ramdas Pophale) SiO2 
 PCOD9184099
Probable space group: C 2/M
;
_chemical_formula_sum "Si O2"
_cell_formula_units_Z 64
_cell_length_a 21.133749
_cell_length_b 7.831944
_cell_length_c 25.512276
_cell_angle_alpha 90.000000
_cell_angle_beta 129.616879
_cell_angle_gamma 90.000000
_cell_volume 3252.891346
_symmetry_space_group_name_H-M "C 2/M"
_symmetry_group_IT_number 12
_symmetry_cell_setting 'monoclinic'
loop_
_space_group_symop_operation_xyz
x,y,z
-x,y,-z
-x,-y,-z
x,-y,z
1/2+x,1/2+y,z
1/2-x,1/2+y,-z
1/2-x,1/2-y,-z
1/2+x,1/2-y,z
loop_
_atom_site_type_symbol
_atom_site_label
_atom_site_fract_x
_atom_site_fract_y
_atom_site_fract_z
Si Si1 0.761355 0.704086 0.845803
Si Si2 0.548619 0.700978 0.296620
Si Si3 0.806938 0.205165 0.078945
Si Si4 0.345242 0.295854 0.551372
Si Si5 0.052276 0.797391 0.076540
Si Si6 0.993279 0.789826 0.158148
Si Si7 0.403050 0.795720 0.292802
Si Si8 0.489822 0.796413 0.553411
O O1 0.767082 0.500000 0.851290
O O2 0.730192 0.769969 0.885953
O O3 0.851265 0.772600 0.880964
O O4 0.691194 0.750552 0.766844
O O5 0.566818 0.500000 0.301975
O O6 0.611526 0.773952 0.372716
O O7 0.545284 0.769732 0.236004
O O8 0.458755 0.720622 0.275382
O O9 0.899459 0.265007 0.117597
O O10 0.810679 0.000000 0.084987
O O11 0.750000 0.250000 0.000000
O O12 0.352706 0.500000 0.555600
O O13 0.250000 0.250000 0.500000
O O14 0.400470 0.233632 0.531862
O O15 0.025074 0.729400 0.118803
O O16 0.035168 0.000000 0.069197
O O17 0.000000 0.726145 0.000000
O O18 0.994750 0.000000 0.159386
O O19 0.443951 0.732130 0.368673
O O20 0.412004 0.000000 0.295648
O O21 0.500000 0.726664 0.500000
O O22 0.502337 0.000000 0.556927
#
# Coordination Sequence:
#
# PCOD9184099 Si02
#       8
#     8   8   8   8   8   8   8   8
#     4  11  22  37  56  78 111 147 179 219 271 329
#     4   9  17  34  57  79 106 143 182 221 271 323
#     4  10  20  34  55  80 104 135 175 221 265 314
#     4  10  20  34  56  82 112 149 184 223 271 325
#     4  10  21  37  57  78 106 143 183 226 270 321
#     4   9  17  34  56  76 102 138 179 218 262 317
#     4  10  19  33  57  85 110 140 180 227 272 319
#     4   9  19  37  59  83 112 145 184 229 277 329
#
# _framework density 19.674804000000002
#
# number of rings (size 3 to 8) (size 9 to 14) (size 15 to 20)
#    0.000    2.250    1.250    1.875    0.000    3.500 
#    2.250    1.250    0.000    0.000    0.000    0.000 
#    0.000    0.000    0.000    0.000    0.000    0.000 
#
# Total GULP energy -178585.060894 kJ/mol
# GULP energy per Si atom -5580.783153 kJ/mol
# Density = 1.963002 g / cm^3
# Si number density = 19.674804 Si / 1000 Ang^3
#
#
#
# Elastic Constant Matrix: (Units=GPa)
#
#
# Indices 1 2 3 4 5 6 
#
# 1 141.2971 -14.4320 95.6763 0.0000 -20.8170 0.0000
# 2 -14.4320 15.1908 -7.8716 -0.0001 -13.6780 0.0001
# 3 95.6763 -7.8716 153.0234 0.0000 -16.9744 0.0000
# 4 0.0000 -0.0001 0.0000 15.7028 0.0000 5.2788
# 5 -20.8170 -13.6780 -16.9744 0.0000 37.7017 0.0000
# 6 0.0000 0.0001 0.0000 5.2788 0.0000 23.6537
#
#
#
# Elastic Compliance Matrix: (Units=1/GPa)
#
#
# Indices 1 2 3 4 5 6 
#
# 1 0.017374 0.026734 -0.007734 0.000000 0.015810 0.000000
# 2 0.026734 0.153818 -0.001026 0.000001 0.070104 -0.000001
# 3 -0.007734 -0.001026 0.011371 0.000000 0.000477 0.000000
# 4 0.000000 0.000001 0.000000 0.068848 0.000000 -0.015365
# 5 0.015810 0.070104 0.000477 0.000000 0.060901 0.000000
# 6 0.000000 -0.000001 0.000000 -0.015365 0.000000 0.045706
#
#
# Mechanical properties :
#
#
# Convention : Reuss Voigt Hill
#
# Bulk Modulus (GPa) = 4.57644 50.69518 27.63581
# Shear Modulus (GPa) = 12.66120 31.15422 21.90771
#
# Velocity S-wave (km/s) = 2.53953 3.98359 3.34052
# Velocity P-wave (km/s) = 3.30606 6.85428 5.38104
#
# Compressibility (1/GPa) = 0.21851068
#
# Stress axis : x y z
#
# Youngs Moduli (GPa) = 57.55714 6.50117 87.94603
#
# Poissons Ratio (x) = -0.17380 0.68017
# Poissons Ratio (y) = -1.53874 0.09026
# Poissons Ratio (z) = 0.44514 0.00667
#
# Static dielectric constant tensor:
#      x y z
#    x 1.656270 0.000000 -0.025440 
#    y 0.000000 1.720420 0.000000 
#    z -0.025440 0.000000 1.707710 
# 
# From -- ./inp_files/346111.got.cif
#   From: 2010.05.17/outbox.cif.g08.bks.cpg/sg12_174_cif.got.tgz:346111.got - 2010.06.03 13:09:07.
