data_PCOD9184246
_publ_section_title
;
Structure prediction by ZEFSAII (Michael W. Deem and Ramdas Pophale) SiO2 
 PCOD9184246
Probable space group: C 2/M
;
_chemical_formula_sum "Si O2"
_cell_formula_units_Z 58
_cell_length_a 14.172924
_cell_length_b 10.936767
_cell_length_c 21.859592
_cell_angle_alpha 90.000000
_cell_angle_beta 53.528470
_cell_angle_gamma 90.000000
_cell_volume 2724.763371
_symmetry_space_group_name_H-M "C 2/M"
_symmetry_group_IT_number 12
_symmetry_cell_setting 'monoclinic'
loop_
_space_group_symop_operation_xyz
x,y,z
-x,y,-z
-x,-y,-z
x,-y,z
1/2+x,1/2+y,z
1/2-x,1/2+y,-z
1/2-x,1/2-y,-z
1/2+x,1/2-y,z
loop_
_atom_site_type_symbol
_atom_site_label
_atom_site_fract_x
_atom_site_fract_y
_atom_site_fract_z
Si Si1 0.945551 0.140734 0.247517
Si Si2 0.763403 0.856622 0.410012
Si Si3 0.386662 0.639014 0.697166
Si Si4 0.500000 0.500000 0.500000
Si Si5 0.682085 0.137043 0.864202
Si Si6 0.291625 0.363873 0.055524
Si Si7 0.427498 0.729899 0.454295
Si Si8 0.055309 0.721638 0.091697
O O1 0.818103 0.177417 0.323223
O O2 0.033871 0.143708 0.271878
O O3 0.996761 0.224549 0.175123
O O4 0.940600 0.000000 0.228148
O O5 0.629860 0.831115 0.480245
O O6 0.843398 0.784749 0.427952
O O7 0.788759 0.000000 0.406818
O O8 0.398358 0.500000 0.665884
O O9 0.256463 0.653636 0.773077
O O10 0.443297 0.730061 0.626144
O O11 0.422846 0.607509 0.495867
O O12 0.712987 0.250604 0.895645
O O13 0.544439 0.146381 0.904260
O O14 0.712281 0.000000 0.876087
O O15 0.303881 0.500000 0.077245
O O16 0.170379 0.354976 0.064572
O O17 0.397975 0.331215 0.969108
#
# Coordination Sequence:
#
# PCOD9184246 Si02
#       8
#     8   8   8   2   8   8   8   8
#     4   9  17  34  62  87 117 159 209 249 306 377
#     4   9  18  36  59  85 117 163 201 245 303 377
#     4   9  17  36  59  83 118 165 205 245 305 370
#     4  12  20  32  54  92 112 150 194 262 298 342
#     4  11  24  42  67  93 125 170 211 259 315 379
#     4  11  25  43  64  94 134 164 205 265 320 378
#     4  10  19  33  58  85 122 152 200 249 303 359
#     4  11  23  39  66  96 123 162 212 260 316 369
#
# _framework density 21.286252000000001
#
# number of rings (size 3 to 8) (size 9 to 14) (size 15 to 20)
#    0.000    1.931    2.759    2.069    0.000    6.069 
#    0.000    1.034    1.517    0.000    0.000    0.000 
#    0.000    0.000    0.000    0.000    0.000    0.000 
#
# Total GULP energy -161513.318159 kJ/mol
# GULP energy per Si atom -5569.424764 kJ/mol
# Density = 2.123780 g / cm^3
# Si number density = 21.286252 Si / 1000 Ang^3
#
#
#
# Elastic Constant Matrix: (Units=GPa)
#
#
# Indices 1 2 3 4 5 6 
#
# 1 58.1549 10.0226 9.4259 0.0000 -21.6002 0.0000
# 2 10.0226 85.1016 39.2220 0.0000 -5.8055 0.0000
# 3 9.4259 39.2220 113.9700 0.0000 -29.1545 0.0000
# 4 0.0000 0.0000 0.0000 25.8598 0.0000 2.4859
# 5 -21.6002 -5.8055 -29.1545 0.0000 30.2124 0.0000
# 6 0.0000 0.0000 0.0000 2.4859 0.0000 21.2440
#
#
#
# Elastic Compliance Matrix: (Units=1/GPa)
#
#
# Indices 1 2 3 4 5 6 
#
# 1 0.025200 -0.003681 0.004794 0.000000 0.021935 0.000000
# 2 -0.003681 0.014658 -0.006231 0.000000 -0.005828 0.000000
# 3 0.004794 -0.006231 0.014728 0.000000 0.016443 0.000000
# 4 0.000000 0.000000 0.000000 0.039110 0.000000 -0.004577
# 5 0.021935 -0.005828 0.016443 0.000000 0.063529 0.000000
# 6 0.000000 0.000000 0.000000 -0.004577 0.000000 0.047608
#
#
# Mechanical properties :
#
#
# Convention : Reuss Voigt Hill
#
# Bulk Modulus (GPa) = 22.54747 41.61861 32.08304
# Shear Modulus (GPa) = 21.75307 28.70030 25.22668
#
# Velocity S-wave (km/s) = 3.20023 3.67591 3.44629
# Velocity P-wave (km/s) = 4.92654 6.13276 5.56244
#
# Compressibility (1/GPa) = 0.04435088
#
# Stress axis : x y z
#
# Youngs Moduli (GPa) = 39.68220 68.22056 67.89687
#
# Poissons Ratio (x) = 0.25111 -0.32549
# Poissons Ratio (y) = 0.14607 0.42306
# Poissons Ratio (z) = -0.19023 0.42508
#
# Static dielectric constant tensor:
#      x y z
#    x 1.839150 0.000000 -0.023590 
#    y 0.000000 1.736180 0.000000 
#    z -0.023590 0.000000 1.847980 
# 
# From -- ./inp_files/309821.got.cif
#   From: 2010.05.17/outbox.cif.g08.bks.cpg/sg12_155_cif.got.tgz:309821.got - 2010.06.03 13:09:07.
