data_PCOD9184378
_publ_section_title
;
Structure prediction by ZEFSAII (Michael W. Deem and Ramdas Pophale) SiO2 
 PCOD9184378
Probable space group: C 2/M
;
_chemical_formula_sum "Si O2"
_cell_formula_units_Z 56
_cell_length_a 14.231046
_cell_length_b 24.445364
_cell_length_c 8.657806
_cell_angle_alpha 90.000000
_cell_angle_beta 70.666952
_cell_angle_gamma 90.000000
_cell_volume 2842.063565
_symmetry_space_group_name_H-M "C 2/M"
_symmetry_group_IT_number 12
_symmetry_cell_setting 'monoclinic'
loop_
_space_group_symop_operation_xyz
x,y,z
-x,y,-z
-x,-y,-z
x,-y,z
1/2+x,1/2+y,z
1/2-x,1/2+y,-z
1/2-x,1/2-y,-z
1/2+x,1/2-y,z
loop_
_atom_site_type_symbol
_atom_site_label
_atom_site_fract_x
_atom_site_fract_y
_atom_site_fract_z
Si Si1 0.526635 0.265508 0.162299
Si Si2 0.085022 0.356187 0.071753
Si Si3 0.808842 0.061361 0.323254
Si Si4 0.098729 0.564394 0.351546
Si Si5 0.097813 0.062592 0.048279
Si Si6 0.304071 0.342429 0.811613
Si Si7 0.404475 0.659030 0.447263
O O1 0.542541 0.200789 0.163076
O O2 0.631103 0.294146 0.147159
O O3 0.441510 0.290735 0.320331
O O4 0.500000 0.278677 0.000000
O O5 0.102617 0.398501 0.198913
O O6 0.190215 0.344865 0.928527
O O7 0.000000 0.376328 0.000000
O O8 0.693396 0.073692 0.411009
O O9 0.876717 0.107532 0.358601
O O10 0.834107 0.000000 0.363396
O O11 0.820541 0.061630 0.131747
O O12 0.099982 0.500000 0.309800
O O13 0.000000 0.576407 0.500000
O O14 0.137135 0.103267 0.157986
O O15 0.081111 0.000000 0.112086
O O16 0.000000 0.078847 0.000000
O O17 0.317265 0.333636 0.620735
O O18 0.500000 0.646342 0.500000
#
# Coordination Sequence:
#
# PCOD9184378 Si02
#       7
#     8   8   8   8   8   8   8
#     4  10  22  42  63  88 122 163 204 251 310 378
#     4  11  25  42  63  92 121 158 213 261 307 360
#     4  10  20  37  60  91 124 163 207 242 295 371
#     4  10  23  43  66  90 122 165 212 254 298 357
#     4  10  19  33  59  93 124 161 203 245 303 375
#     4  11  21  38  62  88 127 160 202 253 316 360
#     4  10  22  37  61  92 129 161 196 250 312 364
#
# _framework density 19.703994000000002
#
# number of rings (size 3 to 8) (size 9 to 14) (size 15 to 20)
#    0.000    1.714    1.429    3.429    2.000    2.857 
#    0.000    2.857    0.000    0.000    0.000    0.000 
#    0.000    0.000    0.000    0.000    0.000    0.000 
#
# Total GULP energy -156230.969415 kJ/mol
# GULP energy per Si atom -5579.677479 kJ/mol
# Density = 1.965915 g / cm^3
# Si number density = 19.703994 Si / 1000 Ang^3
#
#
#
# Elastic Constant Matrix: (Units=GPa)
#
#
# Indices 1 2 3 4 5 6 
#
# 1 59.6158 31.9397 37.3895 0.0000 -12.8775 0.0000
# 2 31.9397 75.7671 46.3277 0.0000 5.2487 0.0000
# 3 37.3895 46.3277 115.9827 0.0000 -12.0342 0.0000
# 4 0.0000 0.0000 0.0000 -43.6643 0.0000 11.5320
# 5 -12.8775 5.2487 -12.0342 0.0000 32.5074 0.0000
# 6 0.0000 0.0000 0.0000 11.5320 0.0000 7.7209
#
#
#
# Elastic Compliance Matrix: (Units=1/GPa)
#
#
# Indices 1 2 3 4 5 6 
#
# 1 0.026565 -0.009785 -0.003536 0.000000 0.010795 0.000000
# 2 -0.009785 0.022113 -0.006709 0.000000 -0.009930 0.000000
# 3 -0.003536 -0.006709 0.012904 0.000000 0.004460 0.000000
# 4 0.000000 0.000000 0.000000 -0.016423 0.000000 0.024530
# 5 0.010795 -0.009930 0.004460 0.000000 0.038293 0.000000
# 6 0.000000 0.000000 0.000000 0.024530 0.000000 0.092880
#
#
# Mechanical properties :
#
#
# Convention : Reuss Voigt Hill
#
# Bulk Modulus (GPa) = 46.45827 53.63105 50.04466
# Shear Modulus (GPa) = 22.36486 8.36004 15.36245
#
# Velocity S-wave (km/s) = 3.37269 2.06204 2.79527
# Velocity P-wave (km/s) = 6.22865 5.73993 5.98928
#
# Compressibility (1/GPa) = 0.02152469
#
# Stress axis : x y z
#
# Youngs Moduli (GPa) = 37.64283 45.22210 77.49401
#
# Poissons Ratio (x) = 0.44248 0.27398
# Poissons Ratio (y) = 0.36832 0.51989
# Poissons Ratio (z) = 0.13309 0.30339
#
# Static dielectric constant tensor:
#      x y z
#    x 1.713770 0.000000 -0.051590 
#    y 0.000000 1.692140 0.000000 
#    z -0.051590 0.000000 1.727660 
# 
# From -- ./inp_files/65282.got.cif
#   From: 2010.05.17/outbox.cif.g08.bks.cpg/sg12_33_cif.got.tgz:65282.got - 2010.06.03 13:09:07.
