data_PCOD9184396
_publ_section_title
;
Structure prediction by ZEFSAII (Michael W. Deem and Ramdas Pophale) SiO2 
 PCOD9184396
Probable space group: C 2/M
;
_chemical_formula_sum "Si O2"
_cell_formula_units_Z 64
_cell_length_a 24.008090
_cell_length_b 13.077217
_cell_length_c 9.854300
_cell_angle_alpha 90.000000
_cell_angle_beta 92.140332
_cell_angle_gamma 90.000000
_cell_volume 3091.687784
_symmetry_space_group_name_H-M "C 2/M"
_symmetry_group_IT_number 12
_symmetry_cell_setting 'monoclinic'
loop_
_space_group_symop_operation_xyz
x,y,z
-x,y,-z
-x,-y,-z
x,-y,z
1/2+x,1/2+y,z
1/2-x,1/2+y,-z
1/2-x,1/2-y,-z
1/2+x,1/2-y,z
loop_
_atom_site_type_symbol
_atom_site_label
_atom_site_fract_x
_atom_site_fract_y
_atom_site_fract_z
Si Si1 0.211886 0.884131 0.716799
Si Si2 0.254517 0.175013 0.150734
Si Si3 0.290215 0.386847 0.588248
Si Si4 0.481864 0.614601 0.656349
Si Si5 0.564381 0.883860 0.554566
Si Si6 0.408112 0.701397 0.235381
Si Si7 0.346276 0.771538 0.971319
Si Si8 0.383585 0.774603 0.681097
O O1 0.238366 0.794415 0.806646
O O2 0.233222 0.873693 0.564467
O O3 0.145862 0.858390 0.711537
O O4 0.221384 0.000000 0.764147
O O5 0.253576 0.117377 0.292667
O O6 0.194017 0.175248 0.074792
O O7 0.305344 0.154697 0.054539
O O8 0.316851 0.500000 0.591515
O O9 0.333854 0.297668 0.623192
O O10 0.500000 0.625231 0.500000
O O11 0.460022 0.500000 0.673348
O O12 0.537413 0.632698 0.747874
O O13 0.436845 0.699550 0.688592
O O14 0.500000 0.871659 0.500000
O O15 0.579999 0.800313 0.669307
O O16 0.602424 0.860763 0.426896
O O17 0.571536 0.000000 0.603184
O O18 0.392377 0.734795 0.081984
O O19 0.369843 0.811488 0.831592
#
# Coordination Sequence:
#
# PCOD9184396 Si02
#       8
#     8   8   8   8   8   8   8   8
#     4  10  19  33  60  90 117 152 196 246 297 347
#     4   9  19  40  54  79 116 163 194 243 292 357
#     4  10  19  33  60  90 117 152 196 246 297 347
#     4  11  20  33  59  95 128 160 193 236 291 349
#     4  11  22  40  64  87 114 157 204 245 296 338
#     4  11  19  39  58  90 123 158 192 246 284 351
#     4   9  22  37  61  77 118 159 199 236 302 342
#     4  11  19  39  58  90 123 158 192 246 284 351
#
# _framework density 20.700668
#
# number of rings (size 3 to 8) (size 9 to 14) (size 15 to 20)
#    0.000    1.750    3.750    1.125    0.000    2.500 
#    0.000   28.750    0.000    1.500    0.000    0.000 
#    0.000    0.000    0.000    0.000    0.000    0.000 
#
# Total GULP energy -178631.784065 kJ/mol
# GULP energy per Si atom -5582.243252 kJ/mol
# Density = 2.065355 g / cm^3
# Si number density = 20.700668 Si / 1000 Ang^3
#
#
#
# Elastic Constant Matrix: (Units=GPa)
#
#
# Indices 1 2 3 4 5 6 
#
# 1 52.8777 11.9020 4.9961 0.0000 1.1002 0.0000
# 2 11.9020 85.9832 21.3790 0.0000 2.4301 0.0000
# 3 4.9961 21.3790 96.4040 0.0000 -8.1919 0.0000
# 4 0.0000 0.0000 0.0000 -0.7471 0.0000 -0.2754
# 5 1.1002 2.4301 -8.1919 0.0000 35.4272 0.0000
# 6 0.0000 0.0000 0.0000 -0.2754 0.0000 16.4620
#
#
#
# Elastic Compliance Matrix: (Units=1/GPa)
#
#
# Indices 1 2 3 4 5 6 
#
# 1 0.019547 -0.002569 -0.000490 0.000000 -0.000544 0.000000
# 2 -0.002569 0.012726 -0.002812 0.000000 -0.001443 0.000000
# 3 -0.000490 -0.002812 0.011261 0.000000 0.002812 0.000000
# 4 0.000000 0.000000 0.000000 -1.330330 0.000000 -0.022256
# 5 -0.000544 -0.001443 0.002812 0.000000 0.028993 0.000000
# 6 0.000000 0.000000 0.000000 -0.022256 0.000000 0.060373
#
#
# Mechanical properties :
#
#
# Convention : Reuss Voigt Hill
#
# Bulk Modulus (GPa) = 31.45250 34.64655 33.04952
# Shear Modulus (GPa) = -4.25499 23.36096 9.55299
#
# Velocity S-wave (km/s) = -1.43525 3.36298 2.15054
# Velocity P-wave (km/s) = 3.53275 5.64382 4.70814
#
# Compressibility (1/GPa) = 0.03179398
#
# Stress axis : x y z
#
# Youngs Moduli (GPa) = 51.15794 78.58172 88.80323
#
# Poissons Ratio (x) = 0.20185 0.04348
# Poissons Ratio (y) = 0.13141 0.24968
# Poissons Ratio (z) = 0.02505 0.22094
#
# Static dielectric constant tensor:
#      x y z
#    x 1.785850 0.000000 -0.010980 
#    y 0.000000 1.722000 0.000000 
#    z -0.010980 0.000000 1.772100 
# 
# From -- ./inp_files/96891.got.cif
#   From: 2010.05.17/outbox.cif.g08.bks.cpg/sg12_49_cif.got.tgz:96891.got - 2010.06.03 13:09:07.
