data_PCOD9184311
_publ_section_title
;
Structure prediction by ZEFSAII (Michael W. Deem and Ramdas Pophale) SiO2 
 PCOD9184311
Probable space group: C 2/M
;
_chemical_formula_sum "Si O2"
_cell_formula_units_Z 56
_cell_length_a 15.486474
_cell_length_b 8.648019
_cell_length_c 23.942968
_cell_angle_alpha 90.000000
_cell_angle_beta 116.002339
_cell_angle_gamma 90.000000
_cell_volume 2882.031394
_symmetry_space_group_name_H-M "C 2/M"
_symmetry_group_IT_number 12
_symmetry_cell_setting 'monoclinic'
loop_
_space_group_symop_operation_xyz
x,y,z
-x,y,-z
-x,-y,-z
x,-y,z
1/2+x,1/2+y,z
1/2-x,1/2+y,-z
1/2-x,1/2-y,-z
1/2+x,1/2-y,z
loop_
_atom_site_type_symbol
_atom_site_label
_atom_site_fract_x
_atom_site_fract_y
_atom_site_fract_z
Si Si1 0.234659 0.685827 0.119818
Si Si2 0.406196 0.314077 0.008367
Si Si3 0.516720 0.314650 0.570365
Si Si4 0.351325 0.185305 0.786794
Si Si5 0.727909 0.184534 0.651403
Si Si6 0.176357 0.314938 0.432861
Si Si7 0.558577 0.686626 0.853299
O O1 0.230775 0.500000 0.115946
O O2 0.177197 0.736594 0.158495
O O3 0.346491 0.729827 0.154236
O O4 0.185228 0.748890 0.050006
O O5 0.401002 0.500000 0.005623
O O6 0.419323 0.267635 0.076221
O O7 0.500000 0.264508 0.000000
O O8 0.500000 0.278556 0.500000
O O9 0.515396 0.500000 0.576089
O O10 0.620019 0.249945 0.617120
O O11 0.429613 0.242499 0.580743
O O12 0.279943 0.261215 0.722410
O O13 0.460328 0.236075 0.806458
O O14 0.342774 0.000000 0.781436
O O15 0.788043 0.251949 0.616414
O O16 0.725672 0.000000 0.647054
O O17 0.180132 0.500000 0.434142
O O18 0.250000 0.250000 0.500000
O O19 0.547072 0.500000 0.848362
#
# Coordination Sequence:
#
# PCOD9184311 Si02
#       7
#     8   8   8   8   8   8   8
#     4  10  22  38  60  87 119 159 203 255 310 369
#     4  10  19  33  58  89 120 156 200 256 311 368
#     4  11  23  41  68  99 132 168 207 257 312 372
#     4  11  24  42  61  86 121 162 208 258 311 375
#     4  12  26  44  67  94 128 170 213 263 319 378
#     4  12  24  41  67  99 132 166 207 256 313 375
#     4  10  21  39  60  86 121 161 205 253 313 376
#
# _framework density 19.430738999999999
#
# number of rings (size 3 to 8) (size 9 to 14) (size 15 to 20)
#    0.000    1.143    2.857    3.857    0.000    3.714 
#    0.000    4.286    0.000    0.000    0.000    0.000 
#    0.000    0.000    0.000    0.000    0.000    0.000 
#
# Total GULP energy -156601.394137 kJ/mol
# GULP energy per Si atom -5592.906933 kJ/mol
# Density = 1.938651 g / cm^3
# Si number density = 19.430739 Si / 1000 Ang^3
#
#
#
# Elastic Constant Matrix: (Units=GPa)
#
#
# Indices 1 2 3 4 5 6 
#
# 1 114.7894 29.6327 26.0319 0.0000 30.6271 0.0000
# 2 29.6327 68.9560 32.5054 0.0000 12.7512 0.0000
# 3 26.0319 32.5054 97.9544 0.0000 28.2726 0.0000
# 4 0.0000 0.0000 0.0000 33.6744 0.0000 7.1224
# 5 30.6271 12.7512 28.2726 0.0000 32.2638 0.0000
# 6 0.0000 0.0000 0.0000 7.1224 0.0000 30.9670
#
#
#
# Elastic Compliance Matrix: (Units=1/GPa)
#
#
# Indices 1 2 3 4 5 6 
#
# 1 0.012463 -0.003837 0.001256 0.000000 -0.011415 0.000000
# 2 -0.003837 0.018513 -0.005439 0.000000 0.001092 0.000000
# 3 0.001256 -0.005439 0.015264 0.000000 -0.012419 0.000000
# 4 0.000000 0.000000 0.000000 0.031215 0.000000 -0.007179
# 5 -0.011415 0.001092 -0.012419 0.000000 0.052281 0.000000
# 6 0.000000 0.000000 0.000000 -0.007179 0.000000 0.033944
#
#
# Mechanical properties :
#
#
# Convention : Reuss Voigt Hill
#
# Bulk Modulus (GPa) = 33.11232 50.89332 42.00282
# Shear Modulus (GPa) = 26.34551 32.28303 29.31427
#
# Velocity S-wave (km/s) = 3.68621 4.08050 3.88835
# Velocity P-wave (km/s) = 5.93259 6.96058 6.46705
#
# Compressibility (1/GPa) = 0.03020024
#
# Stress axis : x y z
#
# Youngs Moduli (GPa) = 80.23835 54.01670 65.51235
#
# Poissons Ratio (x) = 0.20726 -0.08227
# Poissons Ratio (y) = 0.30787 0.35630
# Poissons Ratio (z) = -0.10076 0.29378
#
# Static dielectric constant tensor:
#      x y z
#    x 1.634890 0.000000 -0.004000 
#    y 0.000000 1.652370 0.000000 
#    z -0.004000 0.000000 1.648160 
# 
# From -- ./inp_files/339076.got.cif
#   From: 2010.05.17/outbox.cif.g08.bks.cpg/sg12_170_cif.got.tgz:339076.got - 2010.06.03 13:09:07.
