data_PCOD9184019
_publ_section_title
;
Structure prediction by ZEFSAII (Michael W. Deem and Ramdas Pophale) SiO2 
 PCOD9184019
Probable space group: C 2/M
;
_chemical_formula_sum "Si O2"
_cell_formula_units_Z 36
_cell_length_a 13.805673
_cell_length_b 26.375911
_cell_length_c 8.897318
_cell_angle_alpha 90.000000
_cell_angle_beta 31.685905
_cell_angle_gamma 90.000000
_cell_volume 1701.768270
_symmetry_space_group_name_H-M "C 2/M"
_symmetry_group_IT_number 12
_symmetry_cell_setting 'monoclinic'
loop_
_space_group_symop_operation_xyz
x,y,z
-x,y,-z
-x,-y,-z
x,-y,z
1/2+x,1/2+y,z
1/2-x,1/2+y,-z
1/2-x,1/2-y,-z
1/2+x,1/2-y,z
loop_
_atom_site_type_symbol
_atom_site_label
_atom_site_fract_x
_atom_site_fract_y
_atom_site_fract_z
Si Si1 0.798051 0.795620 0.328396
Si Si2 0.144826 0.500000 0.170155
Si Si3 0.720397 0.108406 0.972576
Si Si4 0.000000 0.324647 0.500000
Si Si5 0.143734 0.890514 0.534868
Si Si6 0.439663 0.500000 0.252389
O O1 0.750000 0.750000 0.500000
O O2 0.658131 0.794301 0.374735
O O3 0.802592 0.849573 0.410279
O O4 0.000000 0.788086 0.000000
O O5 0.000000 0.500000 0.500000
O O6 0.133009 0.552262 0.096624
O O7 0.360333 0.500000 0.932984
O O8 0.745658 0.120895 0.764225
O O9 0.925780 0.111843 0.776159
O O10 0.593215 0.142578 0.245175
O O11 0.165260 0.948413 0.564306
O O12 0.500000 0.500000 0.000000
#
# Coordination Sequence:
#
# PCOD9184019 Si02
#       6
#     8   4   8   4   8   4
#     4  12  29  50  73 104 140 182 233 292 352 418
#     4  10  19  33  57 101 142 181 232 279 335 404
#     4  10  21  39  68 101 141 187 231 289 345 416
#     4  12  26  45  74 102 138 181 232 286 358 410
#     4  10  22  43  68 101 143 182 237 289 347 414
#     4  10  21  35  67  98 137 193 231 279 350 416
#
# _framework density 21.154468000000001
#
# number of rings (size 3 to 8) (size 9 to 14) (size 15 to 20)
#    0.000    1.333    3.333    1.333    6.222    5.333 
#    0.000    0.000    0.000    4.000    0.000    0.000 
#    0.000    0.000    0.000    0.000    0.000    0.000 
#
# Total GULP energy -100604.249953 kJ/mol
# GULP energy per Si atom -5589.124997 kJ/mol
# Density = 2.110632 g / cm^3
# Si number density = 21.154468 Si / 1000 Ang^3
#
#
#
# Elastic Constant Matrix: (Units=GPa)
#
#
# Indices 1 2 3 4 5 6 
#
# 1 113.0796 47.4642 51.1509 0.0000 -5.1245 0.0000
# 2 47.4642 105.0905 46.8939 0.0000 -2.1282 0.0000
# 3 51.1509 46.8939 145.3740 0.0000 14.3533 0.0000
# 4 0.0000 0.0000 0.0000 50.6202 0.0000 -37.4145
# 5 -5.1245 -2.1282 14.3533 0.0000 27.2511 0.0000
# 6 0.0000 0.0000 0.0000 -37.4145 0.0000 152.0879
#
#
#
# Elastic Compliance Matrix: (Units=1/GPa)
#
#
# Indices 1 2 3 4 5 6 
#
# 1 0.012196 -0.003914 -0.003402 0.000000 0.003780 0.000000
# 2 -0.003914 0.012594 -0.002859 0.000000 0.001753 0.000000
# 3 -0.003402 -0.002859 0.009581 0.000000 -0.005910 0.000000
# 4 0.000000 0.000000 0.000000 0.024145 0.000000 0.005940
# 5 0.003780 0.001753 -0.005910 0.000000 0.040656 0.000000
# 6 0.000000 0.000000 0.000000 0.005940 0.000000 0.008036
#
#
# Mechanical properties :
#
#
# Convention : Reuss Voigt Hill
#
# Bulk Modulus (GPa) = 71.31076 72.72911 72.01993
# Shear Modulus (GPa) = 37.81201 60.52752 49.16976
#
# Velocity S-wave (km/s) = 4.23238 5.35484 4.82635
# Velocity P-wave (km/s) = 7.59387 8.52567 8.07322
#
# Compressibility (1/GPa) = 0.01402313
#
# Stress axis : x y z
#
# Youngs Moduli (GPa) = 81.99202 79.40044 104.36861
#
# Poissons Ratio (x) = 0.31076 0.35507
# Poissons Ratio (y) = 0.32091 0.29835
# Poissons Ratio (z) = 0.27894 0.22697
#
# Static dielectric constant tensor:
#      x y z
#    x 1.708560 0.000000 -0.145130 
#    y 0.000000 1.740620 0.000000 
#    z -0.145130 0.000000 1.899400 
# 
# From -- ./inp_files/67266.got.cif
#   From: 2010.05.17/outbox.cif.g08.bks.cpg/sg12_34_cif.got.tgz:67266.got - 2010.06.03 13:09:07.
