data_PCOD9184090
_publ_section_title
;
Structure prediction by ZEFSAII (Michael W. Deem and Ramdas Pophale) SiO2 
 PCOD9184090
Probable space group: C 2/M
;
_chemical_formula_sum "Si O2"
_cell_formula_units_Z 56
_cell_length_a 30.663449
_cell_length_b 8.095336
_cell_length_c 11.505687
_cell_angle_alpha 90.000000
_cell_angle_beta 112.587668
_cell_angle_gamma 90.000000
_cell_volume 2636.986685
_symmetry_space_group_name_H-M "C 2/M"
_symmetry_group_IT_number 12
_symmetry_cell_setting 'monoclinic'
loop_
_space_group_symop_operation_xyz
x,y,z
-x,y,-z
-x,-y,-z
x,-y,z
1/2+x,1/2+y,z
1/2-x,1/2+y,-z
1/2-x,1/2-y,-z
1/2+x,1/2-y,z
loop_
_atom_site_type_symbol
_atom_site_label
_atom_site_fract_x
_atom_site_fract_y
_atom_site_fract_z
Si Si1 0.940393 0.303995 0.835682
Si Si2 0.277804 0.299039 0.145675
Si Si3 0.948687 0.189426 0.486785
Si Si4 0.627714 0.190232 0.423695
Si Si5 0.727285 0.690235 0.598671
Si Si6 0.618223 0.689307 0.804567
Si Si7 0.540461 0.307379 0.889440
O O1 0.937264 0.500000 0.853996
O O2 0.893124 0.250691 0.720652
O O3 0.989380 0.272774 0.816713
O O4 0.947646 0.210141 0.963110
O O5 0.277839 0.500000 0.152686
O O6 0.261941 0.239336 0.259681
O O7 0.331498 0.238275 0.178761
O O8 0.250000 0.250000 0.000000
O O9 0.918798 0.296741 0.544947
O O10 0.915232 0.181593 0.340844
O O11 0.000000 0.249430 0.500000
O O12 0.954285 0.000000 0.537471
O O13 0.670893 0.290023 0.521638
O O14 0.643040 0.000000 0.429907
O O15 0.740744 0.500000 0.619252
O O16 0.750000 0.750000 0.500000
O O17 0.628391 0.500000 0.853958
O O18 0.584744 0.769202 0.866875
O O19 0.536167 0.500000 0.852460
#
# Coordination Sequence:
#
# PCOD9184090 Si02
#       7
#     8   8   8   8   8   8   8
#     4  10  21  36  52  77 121 162 193 242 300 356
#     4  10  22  42  65  90 123 160 202 259 320 380
#     4  10  19  34  59  87 118 157 197 240 299 363
#     4  11  23  38  58  86 121 158 202 249 303 370
#     4  11  24  44  69  93 125 163 209 267 326 384
#     4   9  18  35  56  83 116 146 186 243 299 352
#     4  10  19  33  57  84 111 151 204 248 290 362
#
# _framework density 21.236360999999999
#
# number of rings (size 3 to 8) (size 9 to 14) (size 15 to 20)
#    0.000    1.857    1.429    3.429    0.000    6.000 
#    0.000    5.714    0.000    0.000    0.000    0.000 
#    0.000    0.000    0.000    0.000    0.000    0.000 
#
# Total GULP energy -156101.835196 kJ/mol
# GULP energy per Si atom -5575.065543 kJ/mol
# Density = 2.118803 g / cm^3
# Si number density = 21.236361 Si / 1000 Ang^3
#
#
#
# Elastic Constant Matrix: (Units=GPa)
#
#
# Indices 1 2 3 4 5 6 
#
# 1 99.2883 1.1159 51.5580 0.0000 -11.0476 0.0000
# 2 1.1159 20.7525 7.4752 0.0000 -5.5913 0.0000
# 3 51.5580 7.4752 121.7056 0.0000 -4.6904 0.0000
# 4 0.0000 0.0000 0.0000 10.9066 0.0000 6.3779
# 5 -11.0476 -5.5913 -4.6904 0.0000 31.2663 0.0000
# 6 0.0000 0.0000 0.0000 6.3779 0.0000 21.3781
#
#
#
# Elastic Compliance Matrix: (Units=1/GPa)
#
#
# Indices 1 2 3 4 5 6 
#
# 1 0.013488 0.002502 -0.005700 0.000000 0.004358 0.000000
# 2 0.002502 0.052041 -0.003886 0.000000 0.009608 0.000000
# 3 -0.005700 -0.003886 0.010828 0.000000 -0.001085 0.000000
# 4 0.000000 0.000000 0.000000 0.111064 0.000000 -0.033134
# 5 0.004358 0.009608 -0.001085 0.000000 0.035079 0.000000
# 6 0.000000 0.000000 0.000000 -0.033134 0.000000 0.056662
#
#
# Mechanical properties :
#
#
# Convention : Reuss Voigt Hill
#
# Bulk Modulus (GPa) = 16.07987 40.22716 28.15351
# Shear Modulus (GPa) = 15.92060 24.81669 20.36864
#
# Velocity S-wave (km/s) = 2.74101 3.42218 3.10036
# Velocity P-wave (km/s) = 4.19593 5.88207 5.10904
#
# Compressibility (1/GPa) = 0.06218957
#
# Stress axis : x y z
#
# Youngs Moduli (GPa) = 74.13878 19.21571 92.35317
#
# Poissons Ratio (x) = -0.04808 0.52639
# Poissons Ratio (y) = -0.18550 0.35889
# Poissons Ratio (z) = 0.42257 0.07467
#
# Static dielectric constant tensor:
#      x y z
#    x 1.795700 0.000000 -0.051590 
#    y 0.000000 1.785900 0.000000 
#    z -0.051590 0.000000 1.807950 
# 
# From -- ./inp_files/186827.got.cif
#   From: 2010.05.17/outbox.cif.g08.bks.cpg/sg12_94_cif.got.tgz:186827.got - 2010.06.03 13:09:07.
