data_PCOD9184209
_publ_section_title
;
Structure prediction by ZEFSAII (Michael W. Deem and Ramdas Pophale) SiO2 
 PCOD9184209
Probable space group: C 2/M
;
_chemical_formula_sum "Si O2"
_cell_formula_units_Z 40
_cell_length_a 19.001911
_cell_length_b 8.623718
_cell_length_c 23.248540
_cell_angle_alpha 90.000000
_cell_angle_beta 153.924082
_cell_angle_gamma 90.000000
_cell_volume 1674.585537
_symmetry_space_group_name_H-M "C 2/M"
_symmetry_group_IT_number 12
_symmetry_cell_setting 'monoclinic'
loop_
_space_group_symop_operation_xyz
x,y,z
-x,y,-z
-x,-y,-z
x,-y,z
1/2+x,1/2+y,z
1/2-x,1/2+y,-z
1/2-x,1/2-y,-z
1/2+x,1/2-y,z
loop_
_atom_site_type_symbol
_atom_site_label
_atom_site_fract_x
_atom_site_fract_y
_atom_site_fract_z
Si Si1 0.177805 0.331733 0.154727
Si Si2 0.163126 0.000000 0.159515
Si Si3 0.218604 0.684268 0.884477
Si Si4 0.990604 0.321207 0.163293
Si Si5 0.368167 0.328387 0.455151
Si Si6 0.522846 0.000000 0.446492
O O1 0.227589 0.500000 0.215109
O O2 0.277291 0.281908 0.171216
O O3 0.162618 0.177073 0.182115
O O4 0.000000 0.350080 0.000000
O O5 0.354804 0.000000 0.291600
O O6 0.000000 0.000000 0.000000
O O7 0.226259 0.500000 0.879233
O O8 0.069338 0.717807 0.816243
O O9 0.377409 0.723754 0.038045
O O10 0.942966 0.500000 0.116531
O O11 0.181622 0.317952 0.301148
O O12 0.500000 0.327514 0.500000
O O13 0.386907 0.500000 0.496863
O O14 0.398026 0.165589 0.509444
O O15 0.500000 0.000000 0.500000
#
# Coordination Sequence:
#
# PCOD9184209 Si02
#       6
#     8   4   8   8   8   4
#     4  10  21  37  57  84 120 165 204 251 310 378
#     4  10  22  40  60  90 126 160 203 254 309 374
#     4  10  19  33  57  90 128 165 206 264 319 370
#     4   9  19  34  55  90 128 164 209 260 317 376
#     4   9  19  36  56  83 121 163 199 249 304 368
#     4  10  22  38  60  92 122 158 207 252 307 372
#
# _framework density 23.886507000000002
#
# number of rings (size 3 to 8) (size 9 to 14) (size 15 to 20)
#    0.000    2.400    1.000    0.600    1.400    8.000 
#    0.000    8.000    0.000    1.200    0.000    0.000 
#    0.000    0.000    0.000    0.000    0.000    0.000 
#
# Total GULP energy -111341.384104 kJ/mol
# GULP energy per Si atom -5567.069205 kJ/mol
# Density = 2.383214 g / cm^3
# Si number density = 23.886507 Si / 1000 Ang^3
#
#
#
# Elastic Constant Matrix: (Units=GPa)
#
#
# Indices 1 2 3 4 5 6 
#
# 1 108.7286 25.7253 36.5352 -0.0001 22.6164 0.0000
# 2 25.7253 229.8862 38.9370 -0.0001 1.0153 0.0000
# 3 36.5352 38.9370 111.6900 -0.0005 23.8860 0.0000
# 4 -0.0001 -0.0001 -0.0005 59.1634 0.0001 -0.0702
# 5 22.6164 1.0153 23.8860 0.0001 28.6822 0.0000
# 6 0.0000 0.0000 0.0000 -0.0702 0.0000 15.9671
#
#
#
# Elastic Compliance Matrix: (Units=1/GPa)
#
#
# Indices 1 2 3 4 5 6 
#
# 1 0.011623 -0.000955 -0.001845 0.000000 -0.007594 0.000000
# 2 -0.000955 0.004750 -0.001787 0.000000 0.002073 0.000000
# 3 -0.001845 -0.001787 0.011991 0.000000 -0.008468 0.000000
# 4 0.000000 0.000000 0.000000 0.016902 0.000000 0.000074
# 5 -0.007594 0.002073 -0.008468 0.000000 0.047831 0.000000
# 6 0.000000 0.000000 0.000000 0.000074 0.000000 0.062629
#
#
# Mechanical properties :
#
#
# Convention : Reuss Voigt Hill
#
# Bulk Modulus (GPa) = 52.10920 72.52220 62.31570
# Shear Modulus (GPa) = 29.18903 44.03634 36.61269
#
# Velocity S-wave (km/s) = 3.49949 4.29833 3.91932
# Velocity P-wave (km/s) = 6.17991 7.42033 6.82834
#
# Compressibility (1/GPa) = 0.01919047
#
# Stress axis : x y z
#
# Youngs Moduli (GPa) = 86.03820 210.51154 83.39758
#
# Poissons Ratio (x) = 0.20095 0.15387
# Poissons Ratio (y) = 0.08213 0.14904
# Poissons Ratio (z) = 0.15874 0.37620
#
# Static dielectric constant tensor:
#      x y z
#    x 1.939640 0.000000 0.126500 
#    y 0.000000 2.009360 0.000000 
#    z 0.126500 0.000000 1.726070 
# 
# From -- ./inp_files/323994.got.cif
#   From: 2010.05.17/outbox.cif.g08.bks.cpg/sg12_162_cif.got.tgz:323994.got - 2010.06.03 13:09:07.
