data_PCOD9184067
_publ_section_title
;
Structure prediction by ZEFSAII (Michael W. Deem and Ramdas Pophale) SiO2 
 PCOD9184067
Probable space group: C 2/M
;
_chemical_formula_sum "Si O2"
_cell_formula_units_Z 50
_cell_length_a 7.073186
_cell_length_b 19.009354
_cell_length_c 16.029947
_cell_angle_alpha 90.000000
_cell_angle_beta 104.542078
_cell_angle_gamma 90.000000
_cell_volume 2086.284372
_symmetry_space_group_name_H-M "C 2/M"
_symmetry_group_IT_number 12
_symmetry_cell_setting 'monoclinic'
loop_
_space_group_symop_operation_xyz
x,y,z
-x,y,-z
-x,-y,-z
x,-y,z
1/2+x,1/2+y,z
1/2-x,1/2+y,-z
1/2-x,1/2-y,-z
1/2+x,1/2-y,z
loop_
_atom_site_type_symbol
_atom_site_label
_atom_site_fract_x
_atom_site_fract_y
_atom_site_fract_z
Si Si1 0.040241 0.329743 0.301917
Si Si2 0.000000 0.000000 0.500000
Si Si3 0.210908 0.167219 0.982661
Si Si4 0.615374 0.325068 0.330747
Si Si5 0.551413 0.581543 0.817103
Si Si6 0.381333 0.080902 0.143993
Si Si7 0.722317 0.865693 0.488915
O O1 0.831748 0.340638 0.322147
O O2 0.031830 0.381927 0.223465
O O3 0.050156 0.247585 0.281103
O O4 0.200553 0.341815 0.390836
O O5 0.835245 0.938908 0.501422
O O6 0.183984 0.132993 0.888474
O O7 0.250000 0.250000 0.000000
O O8 0.359443 0.124554 0.057110
O O9 0.000000 0.155088 0.000000
O O10 0.481705 0.386855 0.278942
O O11 0.648347 0.318413 0.433400
O O12 0.614073 0.500000 0.823860
O O13 0.333919 0.582272 0.835572
O O14 0.428920 0.000000 0.133876
O O15 0.500000 0.870541 0.500000
#
# Coordination Sequence:
#
# PCOD9184067 Si02
#       7
#     8   2   8   8   8   8   8
#     4  10  21  37  59  84 118 158 200 249 304 363
#     4  12  26  40  68  94 124 162 212 252 308 382
#     4  10  19  33  57  83 111 148 194 242 294 364
#     4  10  21  37  59  84 118 158 200 249 304 363
#     4   9  18  33  55  83 113 150 196 247 299 357
#     4   9  18  33  55  83 113 150 196 247 299 357
#     4  10  24  42  63  92 127 164 204 257 309 358
#
# _framework density 23.966052999999999
#
# number of rings (size 3 to 8) (size 9 to 14) (size 15 to 20)
#    0.000    2.240    0.000    2.160    4.480    1.920 
#    0.000    0.000    0.000    3.840    0.000    0.000 
#    0.000    0.000    0.000    0.000    0.000    0.000 
#
# Total GULP energy -139503.647206 kJ/mol
# GULP energy per Si atom -5580.145888 kJ/mol
# Density = 2.391150 g / cm^3
# Si number density = 23.966053 Si / 1000 Ang^3
#
#
#
# Elastic Constant Matrix: (Units=GPa)
#
#
# Indices 1 2 3 4 5 6 
#
# 1 98.2137 -8.5892 30.8643 0.0000 15.5214 0.0000
# 2 -8.5892 184.8277 98.9425 0.0000 16.3354 0.0000
# 3 30.8643 98.9425 186.6218 0.0000 18.2968 0.0000
# 4 0.0000 0.0000 0.0000 27.8101 0.0000 -21.3427
# 5 15.5214 16.3354 18.2968 0.0000 33.8090 0.0000
# 6 0.0000 0.0000 0.0000 -21.3427 0.0000 9.2800
#
#
#
# Elastic Compliance Matrix: (Units=1/GPa)
#
#
# Indices 1 2 3 4 5 6 
#
# 1 0.012130 0.002550 -0.002842 0.000000 -0.005263 0.000000
# 2 0.002550 0.008170 -0.004490 0.000000 -0.002689 0.000000
# 3 -0.002842 -0.004490 0.008309 0.000000 -0.001023 0.000000
# 4 0.000000 0.000000 0.000000 -0.047003 0.000000 -0.108101
# 5 -0.005263 -0.002689 -0.001023 0.000000 0.033846 0.000000
# 6 0.000000 0.000000 0.000000 -0.108101 0.000000 -0.140859
#
#
# Mechanical properties :
#
#
# Convention : Reuss Voigt Hill
#
# Bulk Modulus (GPa) = 52.50541 79.12206 65.81373
# Shear Modulus (GPa) = -45.66420 37.40952 -4.12734
#
# Velocity S-wave (km/s) = -4.36979 3.95516 -1.31374
# Velocity P-wave (km/s) = 1.87197 7.34463 5.02192
#
# Compressibility (1/GPa) = 0.01904566
#
# Stress axis : x y z
#
# Youngs Moduli (GPa) = 82.44145 122.39817 120.34974
#
# Poissons Ratio (x) = -0.31216 0.34206
# Poissons Ratio (y) = -0.21025 0.54034
# Poissons Ratio (z) = 0.23432 0.54954
#
# Static dielectric constant tensor:
#      x y z
#    x 1.980000 0.000000 -0.024980 
#    y 0.000000 1.844070 0.000000 
#    z -0.024980 0.000000 1.942940 
# 
# From -- ./inp_files/257246.got.cif
#   From: 2010.05.17/outbox.cif.g08.bks.cpg/sg12_129_cif.got.tgz:257246.got - 2010.06.03 13:09:07.
