data_PCOD9184427
_publ_section_title
;
Structure prediction by ZEFSAII (Michael W. Deem and Ramdas Pophale) SiO2 
 PCOD9184427
Probable space group: C 2/M
;
_chemical_formula_sum "Si O2"
_cell_formula_units_Z 56
_cell_length_a 19.996897
_cell_length_b 13.616185
_cell_length_c 9.359056
_cell_angle_alpha 90.000000
_cell_angle_beta 94.235390
_cell_angle_gamma 90.000000
_cell_volume 2541.338056
_symmetry_space_group_name_H-M "C 2/M"
_symmetry_group_IT_number 12
_symmetry_cell_setting 'monoclinic'
loop_
_space_group_symop_operation_xyz
x,y,z
-x,y,-z
-x,-y,-z
x,-y,z
1/2+x,1/2+y,z
1/2-x,1/2+y,-z
1/2-x,1/2-y,-z
1/2+x,1/2-y,z
loop_
_atom_site_type_symbol
_atom_site_label
_atom_site_fract_x
_atom_site_fract_y
_atom_site_fract_z
Si Si1 0.329898 0.886964 0.141604
Si Si2 0.185334 0.116413 0.484797
Si Si3 0.408258 0.890684 0.431264
Si Si4 0.053735 0.814875 0.619709
Si Si5 0.815049 0.191228 0.839177
Si Si6 0.070756 0.215362 0.936933
Si Si7 0.181101 0.613990 0.316330
O O1 0.343904 0.888608 0.315221
O O2 0.255946 0.842978 0.108632
O O3 0.387759 0.814486 0.094743
O O4 0.334690 0.000000 0.093075
O O5 0.126277 0.166087 0.564779
O O6 0.180864 0.147980 0.319931
O O7 0.254874 0.139037 0.574882
O O8 0.176539 0.000000 0.490289
O O9 0.454636 0.803315 0.384716
O O10 0.382651 0.876162 0.588508
O O11 0.436236 0.000000 0.417952
O O12 0.055158 0.841636 0.786279
O O13 0.000000 0.858277 0.500000
O O14 0.819138 0.308372 0.810685
O O15 0.877439 0.161460 0.948226
O O16 0.000000 0.235973 0.000000
O O17 0.185925 0.500000 0.273343
#
# Coordination Sequence:
#
# PCOD9184427 Si02
#       7
#     8   8   8   8   8   8   8
#     4  10  21  39  65  95 130 171 214 262 318 381
#     4  11  22  38  66  98 125 159 210 266 318 377
#     4   9  17  33  59  94 124 152 200 254 307 370
#     4  11  23  42  64  86 120 172 215 260 310 378
#     4  12  21  39  67  98 133 170 207 268 328 383
#     4  11  26  43  61  91 131 175 219 263 326 387
#     4  10  19  33  61  98 128 156 199 253 314 377
#
# _framework density 22.035634999999999
#
# number of rings (size 3 to 8) (size 9 to 14) (size 15 to 20)
#    0.000    1.429    2.857    3.857    0.000    1.429 
#    0.000    2.857    0.000    3.000    0.000    0.000 
#    0.000    0.000    0.000    0.000    0.000    0.000 
#
# Total GULP energy -156431.792891 kJ/mol
# GULP energy per Si atom -5586.849746 kJ/mol
# Density = 2.198548 g / cm^3
# Si number density = 22.035635 Si / 1000 Ang^3
#
#
#
# Elastic Constant Matrix: (Units=GPa)
#
#
# Indices 1 2 3 4 5 6 
#
# 1 110.4014 -9.2890 49.8376 0.0000 9.7120 0.0000
# 2 -9.2890 33.6429 6.8401 0.0000 9.8241 0.0000
# 3 49.8376 6.8401 134.7880 0.0000 17.6589 0.0000
# 4 0.0000 0.0000 0.0000 11.7451 0.0000 0.8894
# 5 9.7120 9.8241 17.6589 0.0000 42.2640 0.0000
# 6 0.0000 0.0000 0.0000 0.8894 0.0000 -10.1652
#
#
#
# Elastic Compliance Matrix: (Units=1/GPa)
#
#
# Indices 1 2 3 4 5 6 
#
# 1 0.011533 0.004617 -0.004243 0.000000 -0.001951 0.000000
# 2 0.004617 0.033796 -0.002384 0.000000 -0.007920 0.000000
# 3 -0.004243 -0.002384 0.009425 0.000000 -0.002408 0.000000
# 4 0.000000 0.000000 0.000000 0.084581 0.000000 0.007401
# 5 -0.001951 -0.007920 -0.002408 0.000000 0.026956 0.000000
# 6 0.000000 0.000000 0.000000 0.007401 0.000000 -0.097728
#
#
# Mechanical properties :
#
#
# Convention : Reuss Voigt Hill
#
# Bulk Modulus (GPa) = 19.71128 41.51219 30.61174
# Shear Modulus (GPa) = 55.86784 24.19835 40.03309
#
# Velocity S-wave (km/s) = 5.04068 3.31742 4.26695
# Velocity P-wave (km/s) = 6.54542 5.79252 6.18045
#
# Compressibility (1/GPa) = 0.05073237
#
# Stress axis : x y z
#
# Youngs Moduli (GPa) = 86.70514 29.58906 106.10639
#
# Poissons Ratio (x) = -0.13660 0.45023
# Poissons Ratio (y) = -0.40029 0.25300
# Poissons Ratio (z) = 0.36790 0.07055
#
# Static dielectric constant tensor:
#      x y z
#    x 1.795830 0.000000 0.041000 
#    y 0.000000 1.849690 0.000000 
#    z 0.041000 0.000000 1.839340 
# 
# From -- ./inp_files/86384.got.cif
#   From: 2010.05.17/outbox.cif.g08.bks.cpg/sg12_44_cif.got.tgz:86384.got - 2010.06.03 13:09:07.
