data_PCOD9184105
_publ_section_title
;
Structure prediction by ZEFSAII (Michael W. Deem and Ramdas Pophale) SiO2 
 PCOD9184105
Probable space group: C 2/M
;
_chemical_formula_sum "Si O2"
_cell_formula_units_Z 48
_cell_length_a 19.471892
_cell_length_b 7.886124
_cell_length_c 14.075641
_cell_angle_alpha 90.000000
_cell_angle_beta 103.513563
_cell_angle_gamma 90.000000
_cell_volume 2101.584016
_symmetry_space_group_name_H-M "C 2/M"
_symmetry_group_IT_number 12
_symmetry_cell_setting 'monoclinic'
loop_
_space_group_symop_operation_xyz
x,y,z
-x,y,-z
-x,-y,-z
x,-y,z
1/2+x,1/2+y,z
1/2-x,1/2+y,-z
1/2-x,1/2-y,-z
1/2+x,1/2-y,z
loop_
_atom_site_type_symbol
_atom_site_label
_atom_site_fract_x
_atom_site_fract_y
_atom_site_fract_z
Si Si1 0.641954 0.706630 0.427112
Si Si2 0.905843 0.304571 0.902515
Si Si3 0.216252 0.199562 0.638847
Si Si4 0.748089 0.803729 0.853389
Si Si5 0.890861 0.700332 0.101929
Si Si6 0.018202 0.805582 0.259552
O O1 0.643875 0.500000 0.421909
O O2 0.707027 0.773465 0.384954
O O3 0.659574 0.753968 0.541022
O O4 0.568101 0.766015 0.358602
O O5 0.930466 0.500000 0.900346
O O6 0.820832 0.297191 0.874252
O O7 0.934868 0.206388 0.821358
O O8 0.923388 0.235527 0.013354
O O9 0.215803 0.296615 0.737189
O O10 0.206719 0.000000 0.654850
O O11 0.686843 0.730817 0.901004
O O12 0.763704 0.000000 0.881694
O O13 0.881583 0.500000 0.084468
O O14 0.944462 0.724807 0.205595
O O15 0.003287 0.000000 0.278135
#
# Coordination Sequence:
#
# PCOD9184105 Si02
#       6
#     8   8   8   8   8   8
#     4   9  19  35  55  83 115 144 182 231 280 330
#     4  11  22  38  60  84 110 147 193 236 279 333
#     4  10  19  33  57  85 111 145 185 229 281 334
#     4  11  22  38  58  83 115 149 187 235 284 331
#     4  10  24  41  56  79 116 154 188 231 282 336
#     4  11  22  37  59  86 115 148 186 231 281 335
#
# _framework density 22.839914
#
# number of rings (size 3 to 8) (size 9 to 14) (size 15 to 20)
#    0.000    1.667    1.667    3.000    0.000    6.000 
#    0.000    0.833    0.000    5.000    0.000    0.000 
#    0.000    0.000    0.000    0.000    0.000    0.000 
#
# Total GULP energy -134161.353238 kJ/mol
# GULP energy per Si atom -5590.056385 kJ/mol
# Density = 2.278793 g / cm^3
# Si number density = 22.839914 Si / 1000 Ang^3
#
#
#
# Elastic Constant Matrix: (Units=GPa)
#
#
# Indices 1 2 3 4 5 6 
#
# 1 67.0534 -6.5007 1.4551 0.0000 19.5805 0.0000
# 2 -6.5007 40.8883 4.0980 0.0000 0.0428 0.0000
# 3 1.4551 4.0980 93.9988 0.0000 31.4017 0.0000
# 4 0.0000 0.0000 0.0000 22.1179 0.0000 5.4940
# 5 19.5805 0.0428 31.4017 0.0000 35.6374 0.0000
# 6 0.0000 0.0000 0.0000 5.4940 0.0000 17.8939
#
#
#
# Elastic Compliance Matrix: (Units=1/GPa)
#
#
# Indices 1 2 3 4 5 6 
#
# 1 0.019315 0.002641 0.004439 0.000000 -0.014527 0.000000
# 2 0.002641 0.024968 -0.000899 0.000000 -0.000689 0.000000
# 3 0.004439 -0.000899 0.016189 0.000000 -0.016702 0.000000
# 4 0.000000 0.000000 0.000000 0.048945 0.000000 -0.015028
# 5 -0.014527 -0.000689 -0.016702 0.000000 0.050760 0.000000
# 6 0.000000 0.000000 0.000000 -0.015028 0.000000 0.060499
#
#
# Mechanical properties :
#
#
# Convention : Reuss Voigt Hill
#
# Bulk Modulus (GPa) = 13.73008 22.22725 17.97867
# Shear Modulus (GPa) = 21.49692 28.65573 25.07632
#
# Velocity S-wave (km/s) = 3.07123 3.54592 3.31708
# Velocity P-wave (km/s) = 4.31290 5.14953 4.74967
#
# Compressibility (1/GPa) = 0.07283277
#
# Stress axis : x y z
#
# Youngs Moduli (GPa) = 51.77251 40.05185 61.77201
#
# Poissons Ratio (x) = -0.10579 -0.27419
# Poissons Ratio (y) = -0.13674 0.05555
# Poissons Ratio (z) = -0.22981 0.03602
#
# Static dielectric constant tensor:
#      x y z
#    x 1.850600 0.000000 0.021440 
#    y 0.000000 1.827160 0.000000 
#    z 0.021440 0.000000 1.892620 
# 
# From -- ./inp_files/229856.got.cif
#   From: 2010.05.17/outbox.cif.g08.bks.cpg/sg12_115_cif.got.tgz:229856.got - 2010.06.03 13:09:07.
