data_PCOD9184689
_publ_section_title
;
Structure prediction by ZEFSAII (Michael W. Deem and Ramdas Pophale) SiO2 
 PCOD9184689
Probable space group: C 2/M
;
_chemical_formula_sum "Si O2"
_cell_formula_units_Z 56
_cell_length_a 31.022376
_cell_length_b 8.546224
_cell_length_c 17.400665
_cell_angle_alpha 90.000000
_cell_angle_beta 134.070927
_cell_angle_gamma 90.000000
_cell_volume 3314.587211
_symmetry_space_group_name_H-M "C 2/M"
_symmetry_group_IT_number 12
_symmetry_cell_setting 'monoclinic'
loop_
_space_group_symop_operation_xyz
x,y,z
-x,y,-z
-x,-y,-z
x,-y,z
1/2+x,1/2+y,z
1/2-x,1/2+y,-z
1/2-x,1/2-y,-z
1/2+x,1/2-y,z
loop_
_atom_site_type_symbol
_atom_site_label
_atom_site_fract_x
_atom_site_fract_y
_atom_site_fract_z
Si Si1 0.127213 0.310967 0.363890
Si Si2 0.531079 0.811049 0.657331
Si Si3 0.907665 0.309782 0.419770
Si Si4 0.055947 0.810994 0.015441
Si Si5 0.669077 0.187186 0.246865
Si Si6 0.991898 0.812920 0.208544
Si Si7 0.301288 0.189321 0.395340
O O1 0.125492 0.500000 0.362482
O O2 0.152671 0.258155 0.313190
O O3 0.169000 0.261013 0.486689
O O4 0.059667 0.251651 0.290831
O O5 0.465130 0.765530 0.543129
O O6 0.577941 0.760571 0.649494
O O7 0.538920 0.743033 0.751337
O O8 0.532017 0.000000 0.662942
O O9 0.907272 0.500000 0.418875
O O10 0.846578 0.257694 0.384148
O O11 0.117007 0.745260 0.125898
O O12 0.058848 0.000000 0.020964
O O13 0.041675 0.760932 0.910741
O O14 0.000000 0.762777 0.000000
O O15 0.734395 0.248434 0.305489
O O16 0.669620 0.000000 0.248181
O O17 0.994741 0.000000 0.211080
O O18 0.299790 0.000000 0.392765
#
# Coordination Sequence:
#
# PCOD9184689 Si02
#       7
#     8   8   8   8   8   8   8
#     4  10  20  34  52  75 105 141 174 206 251 309
#     4   9  16  31  53  77 105 134 171 211 253 307
#     4   8  15  29  53  78 101 137 175 205 245 311
#     4  10  21  38  55  72  99 139 178 213 257 308
#     4  11  23  35  51  78 106 136 176 218 260 298
#     4  11  21  32  52  79 106 134 170 214 262 305
#     4  10  19  34  54  75 105 144 176 202 248 312
#
# _framework density 16.895015999999998
#
# number of rings (size 3 to 8) (size 9 to 14) (size 15 to 20)
#    0.000    2.143    2.857    2.143    0.000    2.571 
#    0.000    2.143    0.000    0.857    0.000    0.000 
#    0.000    0.000    0.000    0.000    0.000    0.000 
#
# Total GULP energy -156232.968772 kJ/mol
# GULP energy per Si atom -5579.748885 kJ/mol
# Density = 1.685656 g / cm^3
# Si number density = 16.895016 Si / 1000 Ang^3
#
#
#
# Elastic Constant Matrix: (Units=GPa)
#
#
# Indices 1 2 3 4 5 6 
#
# 1 150.9441 21.7929 98.0789 0.0000 -13.5295 0.0000
# 2 21.7929 8.9278 24.1428 0.0000 -1.6572 0.0000
# 3 98.0789 24.1428 141.5835 0.0000 0.7492 0.0000
# 4 0.0000 0.0000 0.0000 20.5380 0.0000 -0.4817
# 5 -13.5295 -1.6572 0.7492 0.0000 28.3620 0.0000
# 6 0.0000 0.0000 0.0000 -0.4817 0.0000 19.8452
#
#
#
# Elastic Compliance Matrix: (Units=1/GPa)
#
#
# Indices 1 2 3 4 5 6 
#
# 1 0.013828 -0.012314 -0.007511 0.000000 0.006075 0.000000
# 2 -0.012314 0.223794 -0.029673 0.000000 0.007985 0.000000
# 3 -0.007511 -0.029673 0.017357 0.000000 -0.005775 0.000000
# 4 0.000000 0.000000 0.000000 0.048718 0.000000 0.001183
# 5 0.006075 0.007985 -0.005775 0.000000 0.038776 0.000000
# 6 0.000000 0.000000 0.000000 0.001183 0.000000 0.050419
#
#
# Mechanical properties :
#
#
# Convention : Reuss Voigt Hill
#
# Bulk Modulus (GPa) = 6.41103 65.49828 35.95465
# Shear Modulus (GPa) = 9.19316 24.24509 16.71913
#
# Velocity S-wave (km/s) = 2.33520 3.79231 3.14919
# Velocity P-wave (km/s) = 3.32772 7.61757 5.87797
#
# Compressibility (1/GPa) = 0.15598114
#
# Stress axis : x y z
#
# Youngs Moduli (GPa) = 72.31629 4.46840 57.61453
#
# Poissons Ratio (x) = 0.05503 0.43277
# Poissons Ratio (y) = 0.89053 1.70959
# Poissons Ratio (z) = 0.54320 0.13259
#
# Static dielectric constant tensor:
#      x y z
#    x 1.580480 0.000000 -0.021130 
#    y 0.000000 1.575570 0.000000 
#    z -0.021130 0.000000 1.539990 
# 
# From -- ./inp_files/248897.got.cif
#   From: 2010.05.17/outbox.cif.g08.bks.cpg/sg12_125_cif.got.tgz:248897.got - 2010.06.03 13:09:07.
