data_PCOD9184990
_publ_section_title
;
Structure prediction by ZEFSAII (Michael W. Deem and Ramdas Pophale) SiO2 
 PCOD9184990
Probable space group: C 2/M
;
_chemical_formula_sum "Si O2"
_cell_formula_units_Z 56
_cell_length_a 25.749323
_cell_length_b 8.449256
_cell_length_c 13.955447
_cell_angle_alpha 90.000000
_cell_angle_beta 69.274970
_cell_angle_gamma 90.000000
_cell_volume 2839.710750
_symmetry_space_group_name_H-M "C 2/M"
_symmetry_group_IT_number 12
_symmetry_cell_setting 'monoclinic'
loop_
_space_group_symop_operation_xyz
x,y,z
-x,y,-z
-x,-y,-z
x,-y,z
1/2+x,1/2+y,z
1/2-x,1/2+y,-z
1/2-x,1/2-y,-z
1/2+x,1/2-y,z
loop_
_atom_site_type_symbol
_atom_site_label
_atom_site_fract_x
_atom_site_fract_y
_atom_site_fract_z
Si Si1 0.445037 0.679285 0.598372
Si Si2 0.304127 0.315044 0.410040
Si Si3 0.789673 0.308040 0.788629
Si Si4 0.652686 0.819268 0.441808
Si Si5 0.595368 0.807994 0.187599
Si Si6 0.829296 0.807933 0.179626
Si Si7 0.561038 0.191017 0.995402
O O1 0.500000 0.679239 0.500000
O O2 0.421607 0.500000 0.609479
O O3 0.404590 0.804337 0.575844
O O4 0.446189 0.731681 0.707809
O O5 0.296094 0.500000 0.402668
O O6 0.250000 0.250000 0.500000
O O7 0.350138 0.280269 0.459979
O O8 0.319186 0.251487 0.295673
O O9 0.790408 0.500000 0.790330
O O10 0.804585 0.263429 0.668668
O O11 0.841358 0.258038 0.822335
O O12 0.725772 0.257936 0.845435
O O13 0.665603 0.000000 0.457960
O O14 0.577029 0.760643 0.093375
O O15 0.593470 0.000000 0.195380
O O16 0.830667 0.000000 0.177756
O O17 0.887598 0.746964 0.102833
O O18 0.559868 0.000000 0.994442
O O19 0.500000 0.246251 0.000000
#
# Coordination Sequence:
#
# PCOD9184990 Si02
#       7
#     8   8   8   8   8   8   8
#     4  10  21  36  55  84 118 148 188 241 288 342
#     4  11  21  34  54  84 121 156 192 235 288 347
#     4   8  15  32  55  81 111 139 177 230 286 343
#     4  10  19  34  55  80 115 154 189 232 286 345
#     4   9  19  37  61  82 109 151 191 237 294 346
#     4  10  21  37  57  83 115 151 193 241 293 349
#     4  10  23  42  59  81 114 150 197 249 288 338
#
# _framework density 19.720319
#
# number of rings (size 3 to 8) (size 9 to 14) (size 15 to 20)
#    0.000    2.286    1.429    2.143    0.000    4.857 
#    0.000    3.571    0.000    0.000    0.000    0.000 
#    0.000    0.000    0.000    0.000    0.000    0.000 
#
# Total GULP energy -155992.553294 kJ/mol
# GULP energy per Si atom -5571.162618 kJ/mol
# Density = 1.967543 g / cm^3
# Si number density = 19.720319 Si / 1000 Ang^3
#
#
#
# Elastic Constant Matrix: (Units=GPa)
#
#
# Indices 1 2 3 4 5 6 
#
# 1 121.1739 18.8658 89.4007 0.0000 -1.7586 0.0000
# 2 18.8658 17.9712 22.9488 0.0000 -0.0191 0.0000
# 3 89.4007 22.9488 143.2469 0.0000 3.6870 0.0000
# 4 0.0000 0.0000 0.0000 21.9948 0.0000 -3.8302
# 5 -1.7586 -0.0191 3.6870 0.0000 32.6592 0.0000
# 6 0.0000 0.0000 0.0000 -3.8302 0.0000 23.1617
#
#
#
# Elastic Compliance Matrix: (Units=1/GPa)
#
#
# Indices 1 2 3 4 5 6 
#
# 1 0.015754 -0.004927 -0.009091 0.000000 0.001872 0.000000
# 2 -0.004927 0.071553 -0.008407 0.000000 0.000726 0.000000
# 3 -0.009091 -0.008407 0.014055 0.000000 -0.002081 0.000000
# 4 0.000000 0.000000 0.000000 0.046813 0.000000 0.007741
# 5 0.001872 0.000726 -0.002081 0.000000 0.030955 0.000000
# 6 0.000000 0.000000 0.000000 0.007741 0.000000 0.044455
#
#
# Mechanical properties :
#
#
# Convention : Reuss Voigt Hill
#
# Bulk Modulus (GPa) = 17.69530 60.53583 39.11556
# Shear Modulus (GPa) = 17.40505 25.64160 21.52333
#
# Velocity S-wave (km/s) = 2.97407 3.60983 3.30726
# Velocity P-wave (km/s) = 4.55918 6.93818 5.87045
#
# Compressibility (1/GPa) = 0.05651219
#
# Stress axis : x y z
#
# Youngs Moduli (GPa) = 63.47534 13.97567 71.14906
#
# Poissons Ratio (x) = 0.06886 0.64682
# Poissons Ratio (y) = 0.31277 0.59812
# Poissons Ratio (z) = 0.57705 0.11749
#
# Static dielectric constant tensor:
#      x y z
#    x 1.774960 0.000000 0.022810 
#    y 0.000000 1.704940 0.000000 
#    z 0.022810 0.000000 1.714880 
# 
# From -- ./inp_files/237328.got.cif
#   From: 2010.05.17/outbox.cif.g08.bks.cpg/sg12_119_cif.got.tgz:237328.got - 2010.06.03 13:09:07.
