data_PCOD9184882
_publ_section_title
;
Structure prediction by ZEFSAII (Michael W. Deem and Ramdas Pophale) SiO2 
 PCOD9184882
Probable space group: C 2/M
;
_chemical_formula_sum "Si O2"
_cell_formula_units_Z 40
_cell_length_a 15.405815
_cell_length_b 10.030620
_cell_length_c 13.122050
_cell_angle_alpha 90.000000
_cell_angle_beta 94.702708
_cell_angle_gamma 90.000000
_cell_volume 2020.922370
_symmetry_space_group_name_H-M "C 2/M"
_symmetry_group_IT_number 12
_symmetry_cell_setting 'monoclinic'
loop_
_space_group_symop_operation_xyz
x,y,z
-x,y,-z
-x,-y,-z
x,-y,z
1/2+x,1/2+y,z
1/2-x,1/2+y,-z
1/2-x,1/2-y,-z
1/2+x,1/2-y,z
loop_
_atom_site_type_symbol
_atom_site_label
_atom_site_fract_x
_atom_site_fract_y
_atom_site_fract_z
Si Si1 0.137737 0.000000 0.563864
Si Si2 0.839835 0.500000 0.965770
Si Si3 0.418646 0.775374 0.693373
Si Si4 0.820904 0.000000 0.646931
Si Si5 0.710506 0.500000 0.137421
Si Si6 0.718717 0.000000 0.261168
Si Si7 0.000000 0.229395 0.500000
Si Si8 0.431079 0.270759 0.914386
O O1 0.205447 0.000000 0.474112
O O2 0.190310 0.000000 0.672858
O O3 0.076519 0.129563 0.546139
O O4 0.776337 0.500000 0.860602
O O5 0.896476 0.632940 0.958426
O O6 0.788032 0.500000 0.065334
O O7 0.380859 0.629427 0.666023
O O8 0.469808 0.811741 0.595878
O O9 0.469021 0.762659 0.805591
O O10 0.338870 0.873631 0.709494
O O11 0.760381 0.000000 0.740867
O O12 0.648963 0.371669 0.111621
O O13 0.500000 0.328957 0.000000
#
# Coordination Sequence:
#
# PCOD9184882 Si02
#       8
#     4   4   8   4   4   4   4   8
#     4   9  18  34  54  76 101 136 170 204 252 305
#     4  10  21  36  51  74 108 137 164 207 258 302
#     4   9  19  35  52  75 105 135 166 209 255 298
#     4   8  17  33  52  71 101 134 162 203 256 296
#     4  10  19  34  55  77  99 129 175 215 242 293
#     4  10  21  34  52  76 106 136 166 206 257 301
#     4   9  18  33  54  76 102 132 170 210 248 298
#     4  10  20  35  54  75 103 136 168 207 257 302
#
# _framework density 19.792942
#
# number of rings (size 3 to 8) (size 9 to 14) (size 15 to 20)
#    0.000    2.600    0.000    1.800    0.000    5.200 
#    0.000    2.000    0.000    1.200    0.000    0.000 
#    0.000    0.000    0.000    0.000    0.000    0.000 
#
# Total GULP energy -111462.319688 kJ/mol
# GULP energy per Si atom -5573.115984 kJ/mol
# Density = 1.974789 g / cm^3
# Si number density = 19.792942 Si / 1000 Ang^3
#
#
#
# Elastic Constant Matrix: (Units=GPa)
#
#
# Indices 1 2 3 4 5 6 
#
# 1 22.2217 -8.3613 33.8702 0.0000 -0.0576 0.0000
# 2 -8.3613 71.6538 -26.0210 0.0000 -5.5253 0.0000
# 3 33.8702 -26.0210 109.8798 0.0000 -21.1830 0.0000
# 4 0.0000 0.0000 0.0000 7.9302 0.0000 -7.8321
# 5 -0.0576 -5.5253 -21.1830 0.0000 43.7239 0.0000
# 6 0.0000 0.0000 0.0000 -7.8321 0.0000 7.5622
#
#
#
# Elastic Compliance Matrix: (Units=1/GPa)
#
#
# Indices 1 2 3 4 5 6 
#
# 1 0.093509 -0.002060 -0.032360 0.000000 -0.015815 0.000000
# 2 -0.002060 0.015997 0.005308 0.000000 0.004591 0.000000
# 3 -0.032360 0.005308 0.022561 0.000000 0.011558 0.000000
# 4 0.000000 0.000000 0.000000 -5.510211 0.000000 -5.706881
# 5 -0.015815 0.004591 0.011558 0.000000 0.029030 0.000000
# 6 0.000000 0.000000 0.000000 -5.706881 0.000000 -5.778335
#
#
# Mechanical properties :
#
#
# Convention : Reuss Voigt Hill
#
# Bulk Modulus (GPa) = 13.54209 22.52566 18.03388
# Shear Modulus (GPa) = -0.45271 25.46110 12.50419
#
# Velocity S-wave (km/s) = -0.47877 3.59049 2.51619
# Velocity P-wave (km/s) = 2.55951 5.34736 4.19198
#
# Compressibility (1/GPa) = 0.07384382
#
# Stress axis : x y z
#
# Youngs Moduli (GPa) = 10.69417 62.51047 44.32387
#
# Poissons Ratio (x) = 0.12874 1.43434
# Poissons Ratio (y) = 0.02203 -0.23528
# Poissons Ratio (z) = 0.34607 -0.33182
#
# Static dielectric constant tensor:
#      x y z
#    x 1.666420 0.000000 -0.027410 
#    y 0.000000 1.685140 0.000000 
#    z -0.027410 0.000000 1.755890 
# 
# From -- ./inp_files/140466.got.cif
#   From: 2010.05.17/outbox.cif.g08.bks.cpg/sg12_71_cif.got.tgz:140466.got - 2010.06.03 13:09:07.
