data_PCOD9184061
_publ_section_title
;
Structure prediction by ZEFSAII (Michael W. Deem and Ramdas Pophale) SiO2 
 PCOD9184061
Probable space group: C 2/M
;
_chemical_formula_sum "Si O2"
_cell_formula_units_Z 48
_cell_length_a 14.474119
_cell_length_b 23.083063
_cell_length_c 11.725764
_cell_angle_alpha 90.000000
_cell_angle_beta 136.399894
_cell_angle_gamma 90.000000
_cell_volume 2701.700041
_symmetry_space_group_name_H-M "C 2/M"
_symmetry_group_IT_number 12
_symmetry_cell_setting 'monoclinic'
loop_
_space_group_symop_operation_xyz
x,y,z
-x,y,-z
-x,-y,-z
x,-y,z
1/2+x,1/2+y,z
1/2-x,1/2+y,-z
1/2-x,1/2-y,-z
1/2+x,1/2-y,z
loop_
_atom_site_type_symbol
_atom_site_label
_atom_site_fract_x
_atom_site_fract_y
_atom_site_fract_z
Si Si1 0.489340 0.193148 0.126266
Si Si2 0.853550 0.104398 0.393098
Si Si3 0.130895 0.500000 0.956562
Si Si4 0.674617 0.000000 0.271413
Si Si5 0.738127 0.379137 0.945060
Si Si6 0.484989 0.667405 0.854553
Si Si7 0.239264 0.181603 0.509968
O O1 0.494088 0.262864 0.136171
O O2 0.613608 0.166874 0.309121
O O3 0.500000 0.177144 0.000000
O O4 0.353806 0.168746 0.059243
O O5 0.762177 0.056846 0.373558
O O6 0.793464 0.119302 0.217497
O O7 0.857949 0.161574 0.474363
O O8 0.000000 0.079881 0.500000
O O9 0.153685 0.500000 0.114783
O O10 0.199507 0.441939 0.970915
O O11 0.970354 0.500000 0.800437
O O12 0.603115 0.363794 0.890722
O O13 0.337280 0.656071 0.668822
O O14 0.500000 0.651789 0.000000
O O15 0.250000 0.250000 0.500000
#
# Coordination Sequence:
#
# PCOD9184061 Si02
#       7
#     8   8   4   4   8   8   8
#     4  10  19  33  57  83 109 144 180 227 285 334
#     4  11  19  32  55  85 116 142 179 231 285 338
#     4   9  20  32  53  83 111 142 178 227 283 342
#     4   9  19  32  52  83 117 139 171 225 298 344
#     4  11  20  35  57  82 113 144 186 227 281 337
#     4  10  22  38  53  77 113 151 192 229 268 324
#     4  10  20  35  52  79 115 146 181 226 276 328
#
# _framework density 17.766590999999998
#
# number of rings (size 3 to 8) (size 9 to 14) (size 15 to 20)
#    0.000    1.833    3.333    1.750    2.333    0.000 
#    0.000    1.250    0.000    0.000    0.000    2.333 
#    0.000    0.000    0.000    0.000    0.000    0.000 
#
# Total GULP energy -133684.681951 kJ/mol
# GULP energy per Si atom -5570.195081 kJ/mol
# Density = 1.772615 g / cm^3
# Si number density = 17.766591 Si / 1000 Ang^3
#
#
#
# Elastic Constant Matrix: (Units=GPa)
#
#
# Indices 1 2 3 4 5 6 
#
# 1 60.3389 37.6713 36.2172 0.0000 3.8281 0.0000
# 2 37.6713 63.3037 19.6040 0.0000 3.2799 0.0000
# 3 36.2172 19.6040 123.0187 0.0000 10.5369 0.0000
# 4 0.0000 0.0000 0.0000 10.1726 0.0000 8.7853
# 5 3.8281 3.2799 10.5369 0.0000 29.5004 0.0000
# 6 0.0000 0.0000 0.0000 8.7853 0.0000 29.2122
#
#
#
# Elastic Compliance Matrix: (Units=1/GPa)
#
#
# Indices 1 2 3 4 5 6 
#
# 1 0.030519 -0.016181 -0.006418 0.000000 0.000131 0.000000
# 2 -0.016181 0.025221 0.000830 0.000000 -0.001001 0.000000
# 3 -0.006418 0.000830 0.010132 0.000000 -0.002879 0.000000
# 4 0.000000 0.000000 0.000000 0.132793 0.000000 -0.039936
# 5 0.000131 -0.001001 -0.002879 0.000000 0.035020 0.000000
# 6 0.000000 0.000000 0.000000 -0.039936 0.000000 0.046243
#
#
# Mechanical properties :
#
#
# Convention : Reuss Voigt Hill
#
# Bulk Modulus (GPa) = 44.77110 48.18293 46.47701
# Shear Modulus (GPa) = 15.10986 23.98830 19.54908
#
# Velocity S-wave (km/s) = 2.91944 3.67848 3.32072
# Velocity P-wave (km/s) = 6.05132 6.72462 6.39683
#
# Compressibility (1/GPa) = 0.02233584
#
# Stress axis : x y z
#
# Youngs Moduli (GPa) = 32.76662 39.65018 98.69295
#
# Poissons Ratio (x) = 0.64157 0.63337
# Poissons Ratio (y) = 0.53019 -0.08195
# Poissons Ratio (z) = 0.21028 -0.03292
#
# Static dielectric constant tensor:
#      x y z
#    x 1.577660 0.000000 0.023150 
#    y 0.000000 1.625250 0.000000 
#    z 0.023150 0.000000 1.661430 
# 
# From -- ./inp_files/135563.got.cif
#   From: 2010.05.17/outbox.cif.g08.bks.cpg/sg12_68_cif.got.tgz:135563.got - 2010.06.03 13:09:07.
