data_PCOD9184462
_publ_section_title
;
Structure prediction by ZEFSAII (Michael W. Deem and Ramdas Pophale) SiO2 
 PCOD9184462
Probable space group: C 2/M
;
_chemical_formula_sum "Si O2"
_cell_formula_units_Z 56
_cell_length_a 19.906034
_cell_length_b 7.463967
_cell_length_c 17.262084
_cell_angle_alpha 90.000000
_cell_angle_beta 86.770222
_cell_angle_gamma 90.000000
_cell_volume 2560.691758
_symmetry_space_group_name_H-M "C 2/M"
_symmetry_group_IT_number 12
_symmetry_cell_setting 'monoclinic'
loop_
_space_group_symop_operation_xyz
x,y,z
-x,y,-z
-x,-y,-z
x,-y,z
1/2+x,1/2+y,z
1/2-x,1/2+y,-z
1/2-x,1/2-y,-z
1/2+x,1/2-y,z
loop_
_atom_site_type_symbol
_atom_site_label
_atom_site_fract_x
_atom_site_fract_y
_atom_site_fract_z
Si Si1 0.032565 0.282609 0.750887
Si Si2 0.203464 0.784928 0.577729
Si Si3 0.845931 0.205887 0.166037
Si Si4 0.272981 0.219210 0.731878
Si Si5 0.589232 0.782997 0.339573
Si Si6 0.572974 0.706224 0.511076
Si Si7 0.477007 0.795254 0.081982
O O1 0.035663 0.500000 0.750089
O O2 0.984135 0.224597 0.685497
O O3 0.108311 0.214509 0.757863
O O4 0.999964 0.222934 0.835819
O O5 0.250000 0.750000 0.500000
O O6 0.238835 0.720933 0.653550
O O7 0.128167 0.713584 0.565083
O O8 0.197740 0.000000 0.584222
O O9 0.773843 0.280946 0.194341
O O10 0.895968 0.293280 0.100371
O O11 0.839107 0.000000 0.143570
O O12 0.350986 0.269340 0.722292
O O13 0.270437 0.000000 0.733626
O O14 0.604945 0.711085 0.423371
O O15 0.588929 0.000000 0.344189
O O16 0.500000 0.791843 0.500000
O O17 0.561479 0.500000 0.535149
O O18 0.501130 0.000000 0.078765
O O19 0.500000 0.710832 0.000000
#
# Coordination Sequence:
#
# PCOD9184462 Si02
#       7
#     8   8   8   8   8   8   8
#     4   8  17  31  47  70  93 120 156 188 227 274
#     4  10  19  34  50  66  90 123 161 196 235 284
#     4   9  17  29  49  75  97 122 154 192 233 276
#     4   9  18  31  49  69  93 126 158 192 238 282
#     4  10  19  34  51  66  91 124 160 196 229 279
#     4  10  22  34  47  68  93 120 154 199 246 285
#     4   8  15  30  50  72  99 126 153 188 229 273
#
# _framework density 21.86909
#
# number of rings (size 3 to 8) (size 9 to 14) (size 15 to 20)
#    0.857    2.000    1.429    0.000    2.000    1.143 
#    0.000    2.857    0.000    0.857    0.000    0.000 
#    0.000    0.000    0.000    0.000    0.000    0.000 
#
# Total GULP energy -155897.099595 kJ/mol
# GULP energy per Si atom -5567.753557 kJ/mol
# Density = 2.181932 g / cm^3
# Si number density = 21.869090 Si / 1000 Ang^3
#
#
#
# Elastic Constant Matrix: (Units=GPa)
#
#
# Indices 1 2 3 4 5 6 
#
# 1 77.0015 -1.1156 -13.2953 0.0000 -19.4617 0.0000
# 2 -1.1156 71.2405 -2.4223 0.0000 2.7914 0.0000
# 3 -13.2953 -2.4223 46.5504 0.0000 -17.8931 0.0000
# 4 0.0000 0.0000 0.0000 1.4224 0.0000 13.6193
# 5 -19.4617 2.7914 -17.8931 0.0000 30.7730 0.0000
# 6 0.0000 0.0000 0.0000 13.6193 0.0000 -26.9722
#
#
#
# Elastic Compliance Matrix: (Units=1/GPa)
#
#
# Indices 1 2 3 4 5 6 
#
# 1 0.020861 -0.000031 0.014203 0.000000 0.021455 0.000000
# 2 -0.000031 0.014091 0.000290 0.000000 -0.001129 0.000000
# 3 0.014203 0.000290 0.037343 0.000000 0.030669 0.000000
# 4 0.000000 0.000000 0.000000 0.120492 0.000000 0.060841
# 5 0.021455 -0.001129 0.030669 0.000000 0.064000 0.000000
# 6 0.000000 0.000000 0.000000 0.060841 0.000000 -0.006354
#
#
# Mechanical properties :
#
#
# Convention : Reuss Voigt Hill
#
# Bulk Modulus (GPa) = 9.87946 17.90287 13.89117
# Shear Modulus (GPa) = 19.58893 15.15303 17.37098
#
# Velocity S-wave (km/s) = 2.99613 2.63515 2.82142
# Velocity P-wave (km/s) = 4.06158 4.17886 4.12063
#
# Compressibility (1/GPa) = 0.10122006
#
# Stress axis : x y z
#
# Youngs Moduli (GPa) = 47.93574 70.96935 26.77906
#
# Poissons Ratio (x) = 0.00220 -0.38035
# Poissons Ratio (y) = 0.00149 -0.00778
# Poissons Ratio (z) = -0.68085 -0.02061
#
# Static dielectric constant tensor:
#      x y z
#    x 1.840590 0.000000 -0.033600 
#    y 0.000000 1.860010 0.000000 
#    z -0.033600 0.000000 1.840030 
# 
# From -- ./inp_files/276052.got.cif
#   From: 2010.05.17/outbox.cif.g08.bks.cpg/sg12_139_cif.got.tgz:276052.got - 2010.06.03 13:09:07.
