data_PCOD9184253
_publ_section_title
;
Structure prediction by ZEFSAII (Michael W. Deem and Ramdas Pophale) SiO2 
 PCOD9184253
Probable space group: C 2/M
;
_chemical_formula_sum "Si O2"
_cell_formula_units_Z 56
_cell_length_a 15.884628
_cell_length_b 8.701070
_cell_length_c 23.894538
_cell_angle_alpha 90.000000
_cell_angle_beta 121.745919
_cell_angle_gamma 90.000000
_cell_volume 2808.447709
_symmetry_space_group_name_H-M "C 2/M"
_symmetry_group_IT_number 12
_symmetry_cell_setting 'monoclinic'
loop_
_space_group_symop_operation_xyz
x,y,z
-x,y,-z
-x,-y,-z
x,-y,z
1/2+x,1/2+y,z
1/2-x,1/2+y,-z
1/2-x,1/2-y,-z
1/2+x,1/2-y,z
loop_
_atom_site_type_symbol
_atom_site_label
_atom_site_fract_x
_atom_site_fract_y
_atom_site_fract_z
Si Si1 0.565078 0.682759 0.793511
Si Si2 0.968687 0.323725 0.930463
Si Si3 0.204091 0.816192 0.427474
Si Si4 0.171907 0.324831 0.930915
Si Si5 0.627677 0.814228 0.210824
Si Si6 0.484826 0.183130 0.340455
Si Si7 0.801078 0.685062 0.344880
O O1 0.563281 0.500000 0.787344
O O2 0.650629 0.733543 0.866485
O O3 0.461834 0.741497 0.784585
O O4 0.569945 0.760661 0.734828
O O5 0.937578 0.500000 0.932954
O O6 0.887183 0.260789 0.858857
O O7 0.067943 0.327935 0.928001
O O8 0.000000 0.247949 0.000000
O O9 0.250000 0.750000 0.500000
O O10 0.266637 0.767428 0.394621
O O11 0.091517 0.760959 0.381015
O O12 0.206236 0.000000 0.430502
O O13 0.199938 0.500000 0.927909
O O14 0.250000 0.250000 0.000000
O O15 0.728314 0.763124 0.274786
O O16 0.617779 0.000000 0.208229
O O17 0.413638 0.220800 0.367677
O O18 0.498278 0.000000 0.342533
O O19 0.788903 0.500000 0.336315
#
# Coordination Sequence:
#
# PCOD9184253 Si02
#       7
#     8   8   8   8   8   8   8
#     4  11  21  36  58  83 116 160 207 258 315 373
#     4   8  16  31  50  75 108 146 191 244 298 354
#     4  11  24  44  68  95 129 170 206 253 313 373
#     4  10  20  34  53  79 112 153 200 253 313 373
#     4  10  19  33  58  86 115 157 206 254 309 370
#     4  11  23  41  65  95 127 164 209 260 312 370
#     4  10  23  41  63  92 128 164 204 255 315 372
#
# _framework density 19.939841999999999
#
# number of rings (size 3 to 8) (size 9 to 14) (size 15 to 20)
#    0.000    1.857    1.429    3.857    0.000    3.429 
#    0.000    4.286    0.000   14.571    0.000    0.000 
#    0.000    0.000    0.000    0.000    0.000    0.000 
#
# Total GULP energy -156353.519790 kJ/mol
# GULP energy per Si atom -5584.054278 kJ/mol
# Density = 1.989446 g / cm^3
# Si number density = 19.939842 Si / 1000 Ang^3
#
#
#
# Elastic Constant Matrix: (Units=GPa)
#
#
# Indices 1 2 3 4 5 6 
#
# 1 86.7316 26.3417 48.2267 0.0000 -18.6591 0.0000
# 2 26.3417 45.7785 20.8806 0.0000 -5.5503 0.0000
# 3 48.2267 20.8806 135.3304 0.0000 -23.2773 0.0000
# 4 0.0000 0.0000 0.0000 35.6296 0.0000 4.7127
# 5 -18.6591 -5.5503 -23.2773 0.0000 22.8135 0.0000
# 6 0.0000 0.0000 0.0000 4.7127 0.0000 20.1971
#
#
#
# Elastic Compliance Matrix: (Units=1/GPa)
#
#
# Indices 1 2 3 4 5 6 
#
# 1 0.017751 -0.007469 -0.003625 0.000000 0.009003 0.000000
# 2 -0.007469 0.026754 -0.001695 0.000000 -0.001329 0.000000
# 3 -0.003625 -0.001695 0.010142 0.000000 0.006971 0.000000
# 4 0.000000 0.000000 0.000000 0.028960 0.000000 -0.006757
# 5 0.009003 -0.001329 0.006971 0.000000 0.057986 0.000000
# 6 0.000000 0.000000 0.000000 -0.006757 0.000000 0.051089
#
#
# Mechanical properties :
#
#
# Convention : Reuss Voigt Hill
#
# Bulk Modulus (GPa) = 34.40137 50.97094 42.68616
# Shear Modulus (GPa) = 21.93480 27.22081 24.57781
#
# Velocity S-wave (km/s) = 3.32030 3.69880 3.51465
# Velocity P-wave (km/s) = 5.65590 6.62264 6.15827
#
# Compressibility (1/GPa) = 0.02906861
#
# Stress axis : x y z
#
# Youngs Moduli (GPa) = 56.33607 37.37742 98.60436
#
# Poissons Ratio (x) = 0.27918 0.35742
# Poissons Ratio (y) = 0.42079 0.16712
# Poissons Ratio (z) = 0.20420 0.06335
#
# Static dielectric constant tensor:
#      x y z
#    x 1.714710 0.000000 -0.009310 
#    y 0.000000 1.680790 0.000000 
#    z -0.009310 0.000000 1.708340 
# 
# From -- ./inp_files/339043.got.cif
#   From: 2010.05.17/outbox.cif.g08.bks.cpg/sg12_170_cif.got.tgz:339043.got - 2010.06.03 13:09:07.
