data_PCOD9184302
_publ_section_title
;
Structure prediction by ZEFSAII (Michael W. Deem and Ramdas Pophale) SiO2 
 PCOD9184302
Probable space group: C 2/M
;
_chemical_formula_sum "Si O2"
_cell_formula_units_Z 56
_cell_length_a 15.685830
_cell_length_b 8.455753
_cell_length_c 24.290897
_cell_angle_alpha 90.000000
_cell_angle_beta 63.704379
_cell_angle_gamma 90.000000
_cell_volume 2888.440781
_symmetry_space_group_name_H-M "C 2/M"
_symmetry_group_IT_number 12
_symmetry_cell_setting 'monoclinic'
loop_
_space_group_symop_operation_xyz
x,y,z
-x,y,-z
-x,-y,-z
x,-y,z
1/2+x,1/2+y,z
1/2-x,1/2+y,-z
1/2-x,1/2-y,-z
1/2+x,1/2-y,z
loop_
_atom_site_type_symbol
_atom_site_label
_atom_site_fract_x
_atom_site_fract_y
_atom_site_fract_z
Si Si1 0.017907 0.307297 0.931702
Si Si2 0.093688 0.190551 0.507055
Si Si3 0.061931 0.808940 0.642161
Si Si4 0.762923 0.309443 0.621815
Si Si5 0.353104 0.810819 0.710145
Si Si6 0.231530 0.689653 0.846427
Si Si7 0.822819 0.690136 0.932681
O O1 0.018408 0.500000 0.931677
O O2 0.121894 0.254732 0.882371
O O3 0.929059 0.257453 0.919609
O O4 0.000000 0.257400 0.000000
O O5 0.082896 0.241934 0.573173
O O6 0.183976 0.254668 0.448451
O O7 0.000000 0.240372 0.500000
O O8 0.098030 0.000000 0.505350
O O9 0.152963 0.759169 0.651814
O O10 0.960822 0.743371 0.689290
O O11 0.056580 0.000000 0.644165
O O12 0.764555 0.500000 0.621751
O O13 0.818479 0.251712 0.659961
O O14 0.283370 0.749371 0.777128
O O15 0.350147 0.000000 0.710444
O O16 0.231001 0.500000 0.846792
O O17 0.288219 0.747566 0.883912
O O18 0.821254 0.500000 0.932750
O O19 0.750000 0.750000 0.000000
#
# Coordination Sequence:
#
# PCOD9184302 Si02
#       7
#     8   8   8   8   8   8   8
#     4   9  18  36  61  88 119 153 189 229 283 348
#     4  10  19  33  58  89 118 151 195 243 293 352
#     4  10  21  39  60  85 118 156 196 241 294 352
#     4  10  22  38  59  85 117 154 196 247 297 343
#     4  11  24  41  58  83 117 154 196 244 293 348
#     4  11  23  41  63  86 116 157 197 239 292 348
#     4  11  21  37  62  92 123 153 191 237 286 343
#
# _framework density 19.387622
#
# number of rings (size 3 to 8) (size 9 to 14) (size 15 to 20)
#    0.000    1.714    2.857    1.714    0.000    3.143 
#    0.000    6.429    0.000    0.000    0.000    0.000 
#    0.000    0.000    0.000    0.000    0.000    0.000 
#
# Total GULP energy -156434.214327 kJ/mol
# GULP energy per Si atom -5586.936226 kJ/mol
# Density = 1.934350 g / cm^3
# Si number density = 19.387622 Si / 1000 Ang^3
#
#
#
# Elastic Constant Matrix: (Units=GPa)
#
#
# Indices 1 2 3 4 5 6 
#
# 1 130.8273 18.2014 36.4388 0.0000 -37.7816 0.0000
# 2 18.2014 20.9388 12.1938 0.0000 -7.5575 0.0001
# 3 36.4388 12.1938 108.8099 0.0000 -32.9260 0.0000
# 4 0.0000 0.0000 0.0000 33.4257 0.0000 -0.8524
# 5 -37.7816 -7.5575 -32.9260 0.0000 30.8329 0.0000
# 6 0.0000 0.0001 0.0000 -0.8524 0.0000 17.4054
#
#
#
# Elastic Compliance Matrix: (Units=1/GPa)
#
#
# Indices 1 2 3 4 5 6 
#
# 1 0.012520 -0.006082 0.001005 0.000000 0.014923 0.000000
# 2 -0.006082 0.055989 -0.003457 0.000000 0.002579 0.000000
# 3 0.001005 -0.003457 0.013825 0.000000 0.015147 0.000000
# 4 0.000000 0.000000 0.000000 0.029955 0.000000 0.001467
# 5 0.014923 0.002579 0.015147 0.000000 0.067527 0.000000
# 6 0.000000 0.000000 0.000000 0.001467 0.000000 0.057525
#
#
# Mechanical properties :
#
#
# Convention : Reuss Voigt Hill
#
# Bulk Modulus (GPa) = 15.32209 43.80491 29.56350
# Shear Modulus (GPa) = 18.10517 29.24893 23.67705
#
# Velocity S-wave (km/s) = 3.05921 3.88833 3.49842
# Velocity P-wave (km/s) = 4.51648 6.54234 5.62142
#
# Compressibility (1/GPa) = 0.06526527
#
# Stress axis : x y z
#
# Youngs Moduli (GPa) = 79.87426 17.86059 72.33353
#
# Poissons Ratio (x) = 0.10862 -0.07268
# Poissons Ratio (y) = 0.48577 0.25008
# Poissons Ratio (z) = -0.08025 0.06175
#
# Static dielectric constant tensor:
#      x y z
#    x 1.689640 0.000000 0.002890 
#    y 0.000000 1.665640 0.000000 
#    z 0.002890 0.000000 1.637770 
# 
# From -- ./inp_files/338551.got.cif
#   From: 2010.05.17/outbox.cif.g08.bks.cpg/sg12_170_cif.got.tgz:338551.got - 2010.06.03 13:09:07.
