data_PCOD9184594
_publ_section_title
;
Structure prediction by ZEFSAII (Michael W. Deem and Ramdas Pophale) SiO2 
 PCOD9184594
Probable space group: C 2/M
;
_chemical_formula_sum "Si O2"
_cell_formula_units_Z 48
_cell_length_a 19.928356
_cell_length_b 7.869290
_cell_length_c 15.936897
_cell_angle_alpha 90.000000
_cell_angle_beta 100.434570
_cell_angle_gamma 90.000000
_cell_volume 2457.924496
_symmetry_space_group_name_H-M "C 2/M"
_symmetry_group_IT_number 12
_symmetry_cell_setting 'monoclinic'
loop_
_space_group_symop_operation_xyz
x,y,z
-x,y,-z
-x,-y,-z
x,-y,z
1/2+x,1/2+y,z
1/2-x,1/2+y,-z
1/2-x,1/2-y,-z
1/2+x,1/2-y,z
loop_
_atom_site_type_symbol
_atom_site_label
_atom_site_fract_x
_atom_site_fract_y
_atom_site_fract_z
Si Si1 0.678664 0.797369 0.527865
Si Si2 0.918124 0.799077 0.640085
Si Si3 0.039019 0.801182 0.088549
Si Si4 0.817667 0.291547 0.278920
Si Si5 0.457212 0.198288 0.231728
Si Si6 0.833657 0.207652 0.784513
O O1 0.750000 0.750000 0.500000
O O2 0.616344 0.735685 0.456508
O O3 0.677067 0.734720 0.623140
O O4 0.675522 0.000000 0.530101
O O5 0.990114 0.715261 0.678741
O O6 0.864879 0.743174 0.700917
O O7 0.927780 0.000000 0.651957
O O8 0.991839 0.788194 0.160313
O O9 0.112505 0.730081 0.133801
O O10 0.050898 0.000000 0.072255
O O11 0.000000 0.724710 0.000000
O O12 0.818638 0.500000 0.279563
O O13 0.744364 0.237440 0.226601
O O14 0.883364 0.235384 0.241661
O O15 0.451428 0.000000 0.208602
O O16 0.833931 0.000000 0.786098
#
# Coordination Sequence:
#
# PCOD9184594 Si02
#       6
#     8   8   8   8   8   8
#     4  11  20  32  51  76 104 137 183 224 257 301
#     4  10  19  34  53  73 102 140 178 216 259 307
#     4   9  18  34  57  80 102 132 169 211 261 318
#     4   9  18  32  50  73 103 140 174 211 263 311
#     4  10  20  34  53  76 103 134 172 217 262 308
#     4   8  14  29  52  72  95 133 174 204 245 311
#
# _framework density 19.528670999999999
#
# number of rings (size 3 to 8) (size 9 to 14) (size 15 to 20)
#    0.000    2.500    1.667    2.500    0.000    1.000 
#    0.000    7.500    0.000    0.000    0.000    0.000 
#    0.000    0.000    0.000    0.000    0.000    0.000 
#
# Total GULP energy -133876.817168 kJ/mol
# GULP energy per Si atom -5578.200715 kJ/mol
# Density = 1.948422 g / cm^3
# Si number density = 19.528671 Si / 1000 Ang^3
#
#
#
# Elastic Constant Matrix: (Units=GPa)
#
#
# Indices 1 2 3 4 5 6 
#
# 1 164.4302 -6.5742 60.2010 0.0000 24.2112 0.0000
# 2 -6.5742 23.1463 -7.7375 0.0000 1.8467 0.0000
# 3 60.2010 -7.7375 100.5639 0.0000 37.3115 0.0000
# 4 0.0000 0.0000 0.0000 15.3188 0.0000 -0.1557
# 5 24.2112 1.8467 37.3115 0.0000 28.3563 0.0000
# 6 0.0000 0.0000 0.0000 -0.1557 0.0000 17.5398
#
#
#
# Elastic Compliance Matrix: (Units=1/GPa)
#
#
# Indices 1 2 3 4 5 6 
#
# 1 0.007822 0.000950 -0.004120 0.000000 -0.001319 0.000000
# 2 0.000950 0.047695 0.008899 0.000000 -0.015626 0.000000
# 3 -0.004120 0.008899 0.023456 0.000000 -0.027926 0.000000
# 4 0.000000 0.000000 0.000000 0.065285 0.000000 0.000580
# 5 -0.001319 -0.015626 -0.027926 0.000000 0.074155 0.000000
# 6 0.000000 0.000000 0.000000 0.000580 0.000000 0.057018
#
#
# Mechanical properties :
#
#
# Convention : Reuss Voigt Hill
#
# Bulk Modulus (GPa) = 11.05825 42.21320 26.63572
# Shear Modulus (GPa) = 17.00002 28.39306 22.69654
#
# Velocity S-wave (km/s) = 2.95365 3.81716 3.41283
# Velocity P-wave (km/s) = 4.16016 6.41019 5.40359
#
# Compressibility (1/GPa) = 0.09043023
#
# Stress axis : x y z
#
# Youngs Moduli (GPa) = 127.83969 20.96668 42.63291
#
# Poissons Ratio (x) = -0.01991 0.17565
# Poissons Ratio (y) = -0.12141 -0.37939
# Poissons Ratio (z) = 0.52671 -0.18658
#
# Static dielectric constant tensor:
#      x y z
#    x 1.681390 0.000000 0.021890 
#    y 0.000000 1.728040 0.000000 
#    z 0.021890 0.000000 1.672520 
# 
# From -- ./inp_files/221527.got.cif
#   From: 2010.05.17/outbox.cif.g08.bks.cpg/sg12_111_cif.got.tgz:221527.got - 2010.06.03 13:09:07.
