data_PCOD9184082
_publ_section_title
;
Structure prediction by ZEFSAII (Michael W. Deem and Ramdas Pophale) SiO2 
 PCOD9184082
Probable space group: C 2/M
;
_chemical_formula_sum "Si O2"
_cell_formula_units_Z 56
_cell_length_a 12.987859
_cell_length_b 16.880942
_cell_length_c 13.654134
_cell_angle_alpha 90.000000
_cell_angle_beta 43.702058
_cell_angle_gamma 90.000000
_cell_volume 2068.325389
_symmetry_space_group_name_H-M "C 2/M"
_symmetry_group_IT_number 12
_symmetry_cell_setting 'monoclinic'
loop_
_space_group_symop_operation_xyz
x,y,z
-x,y,-z
-x,-y,-z
x,-y,z
1/2+x,1/2+y,z
1/2-x,1/2+y,-z
1/2-x,1/2-y,-z
1/2+x,1/2-y,z
loop_
_atom_site_type_symbol
_atom_site_label
_atom_site_fract_x
_atom_site_fract_y
_atom_site_fract_z
Si Si1 0.306927 0.235575 0.231076
Si Si2 0.646657 0.408923 0.824928
Si Si3 0.359554 0.915050 0.496138
Si Si4 0.708649 0.409096 0.218520
Si Si5 0.615187 0.342275 0.537203
Si Si6 0.710325 0.088032 0.056560
Si Si7 0.549739 0.211377 0.268180
O O1 0.406888 0.316469 0.159900
O O2 0.340299 0.145778 0.172215
O O3 0.197970 0.212183 0.398524
O O4 0.195118 0.255571 0.218399
O O5 0.580854 0.500000 0.852623
O O6 0.779823 0.409881 0.654797
O O7 0.695127 0.409061 0.906345
O O8 0.233147 0.902606 0.500604
O O9 0.478020 0.848941 0.393543
O O10 0.431977 0.000000 0.435940
O O11 0.736230 0.500000 0.225048
O O12 0.543473 0.385090 0.372052
O O13 0.700878 0.403079 0.105362
O O14 0.568425 0.280942 0.655399
O O15 0.594143 0.160268 0.144861
O O16 0.642050 0.000000 0.100930
#
# Coordination Sequence:
#
# PCOD9184082 Si02
#       7
#     8   8   8   8   8   8   8
#     4  10  21  35  58  86 114 148 192 246 285 337
#     4   9  19  34  55  83 112 146 184 234 292 338
#     4  11  22  35  55  84 120 154 186 232 291 353
#     4  10  21  37  57  80 113 154 197 241 283 336
#     4  11  22  35  54  84 119 152 188 231 292 349
#     4   9  19  35  56  84 112 144 194 245 285 333
#     4  10  19  33  57  84 109 147 186 241 287 331
#
# _framework density 27.075042
#
# number of rings (size 3 to 8) (size 9 to 14) (size 15 to 20)
#    0.000    2.000    1.429    3.000    2.000    7.429 
#    0.000    4.286    0.000    4.286    0.000    3.000 
#    0.000    0.000    0.000    0.000    0.000    0.000 
#
# Total GULP energy -156089.691024 kJ/mol
# GULP energy per Si atom -5574.631822 kJ/mol
# Density = 2.701342 g / cm^3
# Si number density = 27.075042 Si / 1000 Ang^3
#
#
#
# Elastic Constant Matrix: (Units=GPa)
#
#
# Indices 1 2 3 4 5 6 
#
# 1 64.5965 19.0257 10.0370 0.0003 20.8810 -0.0002
# 2 19.0257 205.3530 45.5392 0.0001 9.5763 -0.0002
# 3 10.0370 45.5392 142.4495 0.0002 18.7196 -0.0002
# 4 0.0003 0.0001 0.0002 48.2732 -0.0003 -10.7688
# 5 20.8810 9.5763 18.7196 -0.0003 21.5893 0.0003
# 6 -0.0002 -0.0002 -0.0002 -10.7688 0.0003 48.4238
#
#
#
# Elastic Compliance Matrix: (Units=1/GPa)
#
#
# Indices 1 2 3 4 5 6 
#
# 1 0.023197 -0.001482 0.001920 0.000000 -0.023443 0.000000
# 2 -0.001482 0.005354 -0.001674 0.000000 0.000510 0.000000
# 3 0.001920 -0.001674 0.008539 0.000000 -0.008519 0.000000
# 4 0.000000 0.000000 0.000000 0.021797 0.000001 0.004847
# 5 -0.023443 0.000510 -0.008519 0.000001 0.076154 0.000000
# 6 0.000000 0.000000 0.000000 0.004847 0.000000 0.021729
#
#
# Mechanical properties :
#
#
# Convention : Reuss Voigt Hill
#
# Bulk Modulus (GPa) = 28.88611 62.40031 45.64321
# Shear Modulus (GPa) = 29.27710 46.17706 37.72708
#
# Velocity S-wave (km/s) = 3.29193 4.13428 3.73691
# Velocity P-wave (km/s) = 5.01409 6.77398 5.95936
#
# Compressibility (1/GPa) = 0.03461872
#
# Stress axis : x y z
#
# Youngs Moduli (GPa) = 43.10917 186.75983 117.10325
#
# Poissons Ratio (x) = 0.27672 -0.22483
# Poissons Ratio (y) = 0.06387 0.19607
# Poissons Ratio (z) = -0.08277 0.31270
#
# Static dielectric constant tensor:
#      x y z
#    x 2.135260 0.000000 -0.012730 
#    y 0.000000 2.200080 0.000000 
#    z -0.012730 0.000000 2.083990 
# 
# From -- ./inp_files/226541.got.cif
#   From: 2010.05.17/outbox.cif.g08.bks.cpg/sg12_114_cif.got.tgz:226541.got - 2010.06.03 13:09:07.
