data_PCOD9184365
_publ_section_title
;
Structure prediction by ZEFSAII (Michael W. Deem and Ramdas Pophale) SiO2 
 PCOD9184365
Probable space group: C 2/M
;
_chemical_formula_sum "Si O2"
_cell_formula_units_Z 48
_cell_length_a 11.052498
_cell_length_b 21.094972
_cell_length_c 10.401073
_cell_angle_alpha 90.000000
_cell_angle_beta 108.300473
_cell_angle_gamma 90.000000
_cell_volume 2302.381244
_symmetry_space_group_name_H-M "C 2/M"
_symmetry_group_IT_number 12
_symmetry_cell_setting 'monoclinic'
loop_
_space_group_symop_operation_xyz
x,y,z
-x,y,-z
-x,-y,-z
x,-y,z
1/2+x,1/2+y,z
1/2-x,1/2+y,-z
1/2-x,1/2-y,-z
1/2+x,1/2-y,z
loop_
_atom_site_type_symbol
_atom_site_label
_atom_site_fract_x
_atom_site_fract_y
_atom_site_fract_z
Si Si1 0.307704 0.927290 0.877469
Si Si2 0.847164 0.500000 0.332244
Si Si3 0.098704 0.734825 0.922559
Si Si4 0.935517 0.000000 0.803690
Si Si5 0.675715 0.500000 0.505748
Si Si6 0.543341 0.633446 0.794960
Si Si7 0.500000 0.394595 0.500000
Si Si8 0.945985 0.395834 0.190446
O O1 0.192880 0.879093 0.835184
O O2 0.409902 0.909158 0.803964
O O3 0.266212 0.000000 0.843977
O O4 0.368940 0.922290 0.040087
O O5 0.806052 0.500000 0.468779
O O6 0.915126 0.436990 0.305455
O O7 0.712119 0.500000 0.209643
O O8 0.030595 0.800168 0.860581
O O9 0.091026 0.678046 0.815956
O O10 0.250000 0.750000 0.000000
O O11 0.000000 0.709495 0.000000
O O12 0.993439 0.069214 0.849499
O O13 0.927899 0.000000 0.646283
O O14 0.629220 0.436980 0.559785
O O15 0.485924 0.639294 0.632166
#
# Coordination Sequence:
#
# PCOD9184365 Si02
#       8
#     8   4   8   4   4   8   4   8
#     4  11  19  35  57  88 114 160 199 234 293 363
#     4  10  19  33  59  89 120 150 192 251 301 349
#     4  12  25  39  58  88 128 165 197 244 307 370
#     4   8  19  32  52  89 111 142 188 253 298 330
#     4   7  16  32  55  86 111 145 186 247 301 331
#     4  11  21  37  63  89 114 155 200 251 299 352
#     4   9  18  38  60  84 116 149 200 252 300 353
#     4  11  20  37  56  81 127 161 193 233 295 370
#
# _framework density 20.847981999999998
#
# number of rings (size 3 to 8) (size 9 to 14) (size 15 to 20)
#    0.500    1.167    5.833    1.000    2.333    0.000 
#    0.000    1.250    0.000   11.000    0.000    0.000 
#    0.000    0.000    0.000    0.000    0.000    0.000 
#
# Total GULP energy -133651.068847 kJ/mol
# GULP energy per Si atom -5568.794535 kJ/mol
# Density = 2.080053 g / cm^3
# Si number density = 20.847982 Si / 1000 Ang^3
#
#
#
# Elastic Constant Matrix: (Units=GPa)
#
#
# Indices 1 2 3 4 5 6 
#
# 1 57.1837 -3.3061 3.4714 0.0000 -9.0027 0.0000
# 2 -3.3061 133.5439 15.1220 0.0000 -6.4746 0.0000
# 3 3.4714 15.1220 37.6151 0.0000 -3.1478 0.0000
# 4 0.0000 0.0000 0.0000 14.2644 0.0000 -4.5682
# 5 -9.0027 -6.4746 -3.1478 0.0000 23.8947 0.0000
# 6 0.0000 0.0000 0.0000 -4.5682 0.0000 22.3780
#
#
#
# Elastic Compliance Matrix: (Units=1/GPa)
#
#
# Indices 1 2 3 4 5 6 
#
# 1 0.018760 0.000984 -0.001530 0.000000 0.007133 0.000000
# 2 0.000984 0.007968 -0.003117 0.000000 0.002119 0.000000
# 3 -0.001530 -0.003117 0.028171 0.000000 0.002290 0.000000
# 4 0.000000 0.000000 0.000000 0.075008 0.000000 0.015312
# 5 0.007133 0.002119 0.002290 0.000000 0.045414 0.000000
# 6 0.000000 0.000000 0.000000 0.015312 0.000000 0.047812
#
#
# Mechanical properties :
#
#
# Convention : Reuss Voigt Hill
#
# Bulk Modulus (GPa) = 21.02023 28.76859 24.89441
# Shear Modulus (GPa) = 20.29899 26.31111 23.30505
#
# Velocity S-wave (km/s) = 3.12375 3.55638 3.34706
# Velocity P-wave (km/s) = 4.80780 5.54013 5.18690
#
# Compressibility (1/GPa) = 0.04757321
#
# Stress axis : x y z
#
# Youngs Moduli (GPa) = 53.30416 125.49895 35.49758
#
# Poissons Ratio (x) = -0.12343 0.05430
# Poissons Ratio (y) = -0.05243 0.11064
# Poissons Ratio (z) = 0.08154 0.39116
#
# Static dielectric constant tensor:
#      x y z
#    x 1.785750 0.000000 0.039980 
#    y 0.000000 1.781800 0.000000 
#    z 0.039980 0.000000 1.794760 
# 
# From -- ./inp_files/132594.got.cif
#   From: 2010.05.17/outbox.cif.g08.bks.cpg/sg12_67_cif.got.tgz:132594.got - 2010.06.03 13:09:07.
