data_PCOD9184078
_publ_section_title
;
Structure prediction by ZEFSAII (Michael W. Deem and Ramdas Pophale) SiO2 
 PCOD9184078
Probable space group: C 2/M
;
_chemical_formula_sum "Si O2"
_cell_formula_units_Z 40
_cell_length_a 18.090055
_cell_length_b 15.145830
_cell_length_c 14.996915
_cell_angle_alpha 90.000000
_cell_angle_beta 149.885988
_cell_angle_gamma 90.000000
_cell_volume 2061.571014
_symmetry_space_group_name_H-M "C 2/M"
_symmetry_group_IT_number 12
_symmetry_cell_setting 'monoclinic'
loop_
_space_group_symop_operation_xyz
x,y,z
-x,y,-z
-x,-y,-z
x,-y,z
1/2+x,1/2+y,z
1/2-x,1/2+y,-z
1/2-x,1/2-y,-z
1/2+x,1/2-y,z
loop_
_atom_site_type_symbol
_atom_site_label
_atom_site_fract_x
_atom_site_fract_y
_atom_site_fract_z
Si Si1 0.173145 0.903452 0.663249
Si Si2 0.891167 0.720074 0.469726
Si Si3 0.603099 0.395110 0.193868
Si Si4 0.447913 0.098825 0.048973
Si Si5 0.573124 0.251830 0.301902
O O1 0.194424 0.813492 0.632023
O O2 0.000000 0.905713 0.500000
O O3 0.212438 0.000000 0.664118
O O4 0.271323 0.894908 0.854146
O O5 0.766445 0.644970 0.346785
O O6 0.982524 0.734516 0.656000
O O7 0.000000 0.706131 0.500000
O O8 0.608875 0.500000 0.214426
O O9 0.541863 0.342118 0.216037
O O10 0.500000 0.377472 0.000000
O O11 0.515859 0.172952 0.180812
O O12 0.484720 0.000000 0.118364
O O13 0.500000 0.107717 0.000000
O O14 0.750000 0.250000 0.500000
#
# Coordination Sequence:
#
# PCOD9184078 Si02
#       5
#     8   8   8   8   8
#     4   9  18  34  55  79 110 144 178 226 288 342
#     4  10  21  37  58  84 115 150 188 236 289 339
#     4  10  21  38  58  79 110 153 195 234 279 339
#     4  10  19  33  57  84 109 141 187 241 287 334
#     4  10  20  34  56  84 113 148 190 236 283 340
#
# _framework density 19.402677000000001
#
# number of rings (size 3 to 8) (size 9 to 14) (size 15 to 20)
#    0.000    2.200    0.000    4.200    0.000    4.400 
#    0.000    9.000    0.000    9.600    0.000    0.000 
#    0.000    0.000    0.000    0.000    0.000    0.000 
#
# Total GULP energy -111439.070263 kJ/mol
# GULP energy per Si atom -5571.953513 kJ/mol
# Density = 1.935852 g / cm^3
# Si number density = 19.402677 Si / 1000 Ang^3
#
#
#
# Elastic Constant Matrix: (Units=GPa)
#
#
# Indices 1 2 3 4 5 6 
#
# 1 109.5809 41.9066 40.3651 0.0001 -17.8154 0.0000
# 2 41.9066 161.8335 68.4344 0.0000 -28.1872 0.0000
# 3 40.3651 68.4344 109.5391 0.0002 -8.3950 0.0001
# 4 0.0001 0.0000 0.0002 35.8302 0.0001 3.9716
# 5 -17.8154 -28.1872 -8.3950 0.0001 32.4256 0.0001
# 6 0.0000 0.0000 0.0001 3.9716 0.0001 -0.4991
#
#
#
# Elastic Compliance Matrix: (Units=1/GPa)
#
#
# Indices 1 2 3 4 5 6 
#
# 1 0.011425 -0.000675 -0.003420 0.000000 0.004804 0.000000
# 2 -0.000675 0.009794 -0.005352 0.000000 0.006757 0.000000
# 3 -0.003420 -0.005352 0.013500 0.000000 -0.003036 0.000001
# 4 0.000000 0.000000 0.000000 0.014830 0.000000 0.117998
# 5 0.004804 0.006757 -0.003036 0.000000 0.038568 0.000002
# 6 0.000000 0.000000 0.000001 0.117998 0.000002 -1.064543
#
#
# Mechanical properties :
#
#
# Convention : Reuss Voigt Hill
#
# Bulk Modulus (GPa) = 63.19281 75.81839 69.50560
# Shear Modulus (GPa) = -5.25069 28.90115 11.82523
#
# Velocity S-wave (km/s) = -1.64683 3.86365 2.47141
# Velocity P-wave (km/s) = 5.38737 7.68536 6.63659
#
# Compressibility (1/GPa) = 0.01582459
#
# Stress axis : x y z
#
# Youngs Moduli (GPa) = 87.52867 102.09989 74.07166
#
# Poissons Ratio (x) = 0.06897 0.25331
# Poissons Ratio (y) = 0.05913 0.39645
# Poissons Ratio (z) = 0.29933 0.54646
#
# Static dielectric constant tensor:
#      x y z
#    x 1.731410 0.000000 0.031250 
#    y 0.000000 1.693800 0.000000 
#    z 0.031250 0.000000 1.707030 
# 
# From -- ./inp_files/58940.got.cif
#   From: 2010.05.17/outbox.cif.g08.bks.cpg/sg12_30_cif.got.tgz:58940.got - 2010.06.03 13:09:07.
