data_PCOD9184048
_publ_section_title
;
Structure prediction by ZEFSAII (Michael W. Deem and Ramdas Pophale) SiO2 
 PCOD9184048
Probable space group: C 2/M
;
_chemical_formula_sum "Si O2"
_cell_formula_units_Z 48
_cell_length_a 18.579697
_cell_length_b 10.528012
_cell_length_c 12.347645
_cell_angle_alpha 90.000000
_cell_angle_beta 92.644657
_cell_angle_gamma 90.000000
_cell_volume 2412.716666
_symmetry_space_group_name_H-M "C 2/M"
_symmetry_group_IT_number 12
_symmetry_cell_setting 'monoclinic'
loop_
_space_group_symop_operation_xyz
x,y,z
-x,y,-z
-x,-y,-z
x,-y,z
1/2+x,1/2+y,z
1/2-x,1/2+y,-z
1/2-x,1/2-y,-z
1/2+x,1/2-y,z
loop_
_atom_site_type_symbol
_atom_site_label
_atom_site_fract_x
_atom_site_fract_y
_atom_site_fract_z
Si Si1 0.616585 0.000000 0.500229
Si Si2 0.201513 0.142281 0.645702
Si Si3 0.048253 0.249818 0.228238
Si Si4 0.587667 0.853495 0.014541
Si Si5 0.663488 0.266809 0.416566
Si Si6 0.598005 0.356627 0.840208
Si Si7 0.514543 0.000000 0.678833
O O1 0.656078 0.871876 0.471846
O O2 0.589529 0.000000 0.621340
O O3 0.547219 0.000000 0.416863
O O4 0.264193 0.248039 0.648527
O O5 0.170536 0.144171 0.521026
O O6 0.140491 0.166214 0.730926
O O7 0.230438 0.000000 0.670885
O O8 0.099889 0.295672 0.134772
O O9 0.095765 0.209819 0.334360
O O10 0.000779 0.374317 0.254830
O O11 0.988046 0.150832 0.187070
O O12 0.611996 0.000000 0.005537
O O13 0.500000 0.855049 0.000000
O O14 0.615154 0.754194 0.927245
O O15 0.615716 0.500000 0.879176
#
# Coordination Sequence:
#
# PCOD9184048 Si02
#       7
#     4   8   8   8   8   8   4
#     4   9  16  28  48  76 108 133 171 218 265 323
#     4  10  21  38  54  76 116 154 187 223 280 342
#     4  10  19  33  57  82 110 140 185 236 283 327
#     4   9  18  34  56  81 110 145 185 237 286 329
#     4  10  20  35  55  81 105 148 188 227 277 335
#     4  10  22  37  55  81 115 153 187 229 280 341
#     4   9  16  26  47  82 108 128 167 227 276 310
#
# _framework density 19.894586
#
# number of rings (size 3 to 8) (size 9 to 14) (size 15 to 20)
#    0.000    2.333    1.667    1.000    1.167    5.667 
#    1.500    2.500    0.000    0.000    0.000    0.000 
#    0.000    0.000    0.000    0.000    0.000    0.000 
#
# Total GULP energy -133773.920492 kJ/mol
# GULP energy per Si atom -5573.913354 kJ/mol
# Density = 1.984931 g / cm^3
# Si number density = 19.894586 Si / 1000 Ang^3
#
#
#
# Elastic Constant Matrix: (Units=GPa)
#
#
# Indices 1 2 3 4 5 6 
#
# 1 34.0183 14.7532 20.1809 0.0000 -15.7544 0.0000
# 2 14.7532 84.8561 34.0908 0.0000 -26.1363 0.0000
# 3 20.1809 34.0908 96.7646 0.0000 -25.4157 0.0000
# 4 0.0000 0.0000 0.0000 26.8426 0.0000 -2.3762
# 5 -15.7544 -26.1363 -25.4157 0.0000 20.4885 0.0000
# 6 0.0000 0.0000 0.0000 -2.3762 0.0000 13.9620
#
#
#
# Elastic Compliance Matrix: (Units=1/GPa)
#
#
# Indices 1 2 3 4 5 6 
#
# 1 0.046861 0.004880 -0.000583 0.000000 0.041536 0.000000
# 2 0.004880 0.019936 -0.000558 0.000000 0.028492 0.000000
# 3 -0.000583 -0.000558 0.015349 0.000000 0.017880 0.000000
# 4 0.000000 0.000000 0.000000 0.037824 0.000000 0.006437
# 5 0.041536 0.028492 0.017880 0.000000 0.139273 0.000000
# 6 0.000000 0.000000 0.000000 0.006437 0.000000 0.072719
#
#
# Mechanical properties :
#
#
# Convention : Reuss Voigt Hill
#
# Bulk Modulus (GPa) = 11.15757 39.29874 25.22815
# Shear Modulus (GPa) = 14.11002 22.03289 18.07146
#
# Velocity S-wave (km/s) = 2.66604 3.33150 3.01717
# Velocity P-wave (km/s) = 3.88556 5.88174 4.98460
#
# Compressibility (1/GPa) = 0.08962529
#
# Stress axis : x y z
#
# Youngs Moduli (GPa) = 21.33958 50.16017 65.15179
#
# Poissons Ratio (x) = -0.24479 0.03798
# Poissons Ratio (y) = -0.10414 0.03634
# Poissons Ratio (z) = 0.01244 0.02798
#
# Static dielectric constant tensor:
#      x y z
#    x 1.704210 0.000000 -0.013800 
#    y 0.000000 1.721200 0.000000 
#    z -0.013800 0.000000 1.732780 
# 
# From -- ./inp_files/164211.got.cif
#   From: 2010.05.17/outbox.cif.g08.bks.cpg/sg12_83_cif.got.tgz:164211.got - 2010.06.03 13:09:07.
