data_PCOD9184231
_publ_section_title
;
Structure prediction by ZEFSAII (Michael W. Deem and Ramdas Pophale) SiO2 
 PCOD9184231
Probable space group: C 2/M
;
_chemical_formula_sum "Si O2"
_cell_formula_units_Z 64
_cell_length_a 8.452587
_cell_length_b 21.401683
_cell_length_c 21.518959
_cell_angle_alpha 90.000000
_cell_angle_beta 128.388705
_cell_angle_gamma 90.000000
_cell_volume 3051.215622
_symmetry_space_group_name_H-M "C 2/M"
_symmetry_group_IT_number 12
_symmetry_cell_setting 'monoclinic'
loop_
_space_group_symop_operation_xyz
x,y,z
-x,y,-z
-x,-y,-z
x,-y,z
1/2+x,1/2+y,z
1/2-x,1/2+y,-z
1/2-x,1/2-y,-z
1/2+x,1/2-y,z
loop_
_atom_site_type_symbol
_atom_site_label
_atom_site_fract_x
_atom_site_fract_y
_atom_site_fract_z
Si Si1 0.091923 0.074790 0.457424
Si Si2 0.197543 0.926640 0.961527
Si Si3 0.851134 0.251531 0.790145
Si Si4 0.017479 0.339786 0.273317
Si Si5 0.965057 0.074772 0.694470
Si Si6 0.212865 0.841901 0.851774
Si Si7 0.496398 0.926673 0.615420
Si Si8 0.723488 0.073066 0.877067
O O1 0.009969 0.096264 0.370936
O O2 0.333575 0.083583 0.521338
O O3 0.000000 0.098841 0.500000
O O4 0.056196 0.000000 0.448395
O O5 0.275264 0.883304 0.925472
O O6 0.953552 0.918402 0.908615
O O7 0.233576 0.000000 0.956950
O O8 0.280498 0.912976 0.050533
O O9 0.828108 0.294149 0.723318
O O10 0.660927 0.206806 0.750049
O O11 0.044261 0.207484 0.832915
O O12 0.867894 0.298427 0.852502
O O13 0.069504 0.382986 0.343849
O O14 0.925209 0.385159 0.198593
O O15 0.106133 0.112053 0.776008
O O16 0.729433 0.084764 0.655120
O O17 0.002661 0.000000 0.708030
O O18 0.480221 0.000000 0.629277
O O19 0.675018 0.000000 0.857409
#
# Coordination Sequence:
#
# PCOD9184231 Si02
#       8
#     8   8   8   8   8   8   8   8
#     4   9  19  33  51  84 119 138 166 220 281 329
#     4   9  17  32  57  86 113 140 176 225 275 324
#     4  10  24  36  55  75 110 146 190 228 264 307
#     4  11  20  39  55  80 106 147 186 226 267 321
#     4  10  19  33  58  84 109 141 178 222 273 330
#     4  11  20  39  55  80 106 147 186 226 267 321
#     4  10  19  33  58  84 109 141 178 222 273 330
#     4   9  17  32  57  86 113 140 176 225 275 324
#
# _framework density 20.975245999999999
#
# number of rings (size 3 to 8) (size 9 to 14) (size 15 to 20)
#    0.000    2.125    2.500    1.875    1.750    3.500 
#    0.000    6.250    0.000    6.000    0.000    0.000 
#    0.000    0.000    0.000    0.000    0.000    0.000 
#
# Total GULP energy -178774.595123 kJ/mol
# GULP energy per Si atom -5586.706098 kJ/mol
# Density = 2.092750 g / cm^3
# Si number density = 20.975246 Si / 1000 Ang^3
#
#
#
# Elastic Constant Matrix: (Units=GPa)
#
#
# Indices 1 2 3 4 5 6 
#
# 1 56.7338 34.5223 30.4174 0.0000 -24.6770 0.0000
# 2 34.5223 82.8222 59.2519 0.0000 -19.3229 0.0000
# 3 30.4174 59.2519 103.8202 0.0000 -22.6773 0.0000
# 4 0.0000 0.0000 0.0000 31.8493 0.0000 -38.3759
# 5 -24.6770 -19.3229 -22.6773 0.0000 30.0224 0.0000
# 6 0.0000 0.0000 0.0000 -38.3759 0.0000 48.4705
#
#
#
# Elastic Compliance Matrix: (Units=1/GPa)
#
#
# Indices 1 2 3 4 5 6 
#
# 1 0.031732 -0.008420 0.000026 0.000000 0.020683 0.000000
# 2 -0.008420 0.023339 -0.010879 0.000000 -0.000116 0.000000
# 3 0.000026 -0.010879 0.017135 0.000000 0.005963 0.000000
# 4 0.000000 0.000000 0.000000 0.682307 0.000000 0.540208
# 5 0.020683 -0.000116 0.005963 0.000000 0.054738 0.000000
# 6 0.000000 0.000000 0.000000 0.540208 0.000000 0.448334
#
#
# Mechanical properties :
#
#
# Convention : Reuss Voigt Hill
#
# Bulk Modulus (GPa) = 29.70728 54.63995 42.17361
# Shear Modulus (GPa) = 3.82453 30.01405 16.91929
#
# Velocity S-wave (km/s) = 1.35178 3.78686 2.84321
# Velocity P-wave (km/s) = 4.07801 6.72508 5.56134
#
# Compressibility (1/GPa) = 0.03366178
#
# Stress axis : x y z
#
# Youngs Moduli (GPa) = 31.51415 42.84631 58.35854
#
# Poissons Ratio (x) = 0.36077 -0.00154
# Poissons Ratio (y) = 0.26535 0.63486
# Poissons Ratio (z) = -0.00083 0.46611
#
# Static dielectric constant tensor:
#      x y z
#    x 1.816630 0.000000 -0.009170 
#    y 0.000000 1.716300 0.000000 
#    z -0.009170 0.000000 1.728230 
# 
# From -- ./inp_files/301756.got.cif
#   From: 2010.05.17/outbox.cif.g08.bks.cpg/sg12_151_cif.got.tgz:301756.got - 2010.06.03 13:09:07.
