data_PCOD9184513
_publ_section_title
;
Structure prediction by ZEFSAII (Michael W. Deem and Ramdas Pophale) SiO2 
 PCOD9184513
Probable space group: C 2/M
;
_chemical_formula_sum "Si O2"
_cell_formula_units_Z 64
_cell_length_a 27.405235
_cell_length_b 12.236487
_cell_length_c 16.547373
_cell_angle_alpha 90.000000
_cell_angle_beta 37.952881
_cell_angle_gamma 90.000000
_cell_volume 3412.744635
_symmetry_space_group_name_H-M "C 2/M"
_symmetry_group_IT_number 12
_symmetry_cell_setting 'monoclinic'
loop_
_space_group_symop_operation_xyz
x,y,z
-x,y,-z
-x,-y,-z
x,-y,z
1/2+x,1/2+y,z
1/2-x,1/2+y,-z
1/2-x,1/2-y,-z
1/2+x,1/2-y,z
loop_
_atom_site_type_symbol
_atom_site_label
_atom_site_fract_x
_atom_site_fract_y
_atom_site_fract_z
Si Si1 0.084742 0.130761 0.224171
Si Si2 0.586470 0.694522 0.886799
Si Si3 0.269709 0.384464 0.391495
Si Si4 0.920418 0.874101 0.506356
Si Si5 0.054737 0.629291 0.793497
Si Si6 0.788929 0.870225 0.805257
Si Si7 0.658252 0.292180 0.545941
Si Si8 0.112627 0.272644 0.027779
O O1 0.164972 0.145095 0.170544
O O2 0.089851 0.198137 0.134544
O O3 0.010461 0.168578 0.377997
O O4 0.074011 0.000000 0.223100
O O5 0.646125 0.621203 0.759932
O O6 0.575684 0.809936 0.851299
O O7 0.500000 0.644298 0.000000
O O8 0.614788 0.707950 0.940684
O O9 0.229317 0.500000 0.434075
O O10 0.289355 0.360728 0.459429
O O11 0.219727 0.286206 0.420529
O O12 0.852187 0.827859 0.654736
O O13 0.888028 0.863943 0.457240
O O14 0.929120 0.000000 0.520460
O O15 0.074119 0.500000 0.768764
O O16 0.103558 0.705876 0.666682
O O17 0.961911 0.645483 0.891437
O O18 0.779737 0.000000 0.802396
O O19 0.700584 0.821837 0.922783
#
# Coordination Sequence:
#
# PCOD9184513 Si02
#       8
#     8   8   8   8   8   8   8   8
#     4  10  21  37  57  82 111 144 184 230 279 326
#     4   9  21  35  50  77 109 141 182 220 263 323
#     4  10  20  33  50  72 106 143 177 219 263 315
#     4  10  19  35  58  81 108 142 183 228 276 326
#     4  10  20  35  55  79 111 145 179 222 269 322
#     4  10  21  35  56  85 112 141 182 233 281 325
#     4  10  19  34  51  79 106 139 184 220 266 323
#     4  11  20  36  55  82 111 145 182 223 275 329
#
# _framework density 18.753233999999999
#
# number of rings (size 3 to 8) (size 9 to 14) (size 15 to 20)
#    0.000    2.000    1.250    2.625    0.000    5.000 
#    0.000    3.125    0.000    0.000    0.000    0.875 
#    0.000    0.000    0.000    0.000    0.000    0.000 
#
# Total GULP energy -178221.541087 kJ/mol
# GULP energy per Si atom -5569.423159 kJ/mol
# Density = 1.871055 g / cm^3
# Si number density = 18.753234 Si / 1000 Ang^3
#
#
#
# Elastic Constant Matrix: (Units=GPa)
#
#
# Indices 1 2 3 4 5 6 
#
# 1 75.5678 15.6642 22.0713 0.0000 -7.6549 0.0000
# 2 15.6642 55.3348 30.2576 0.0000 2.9269 0.0000
# 3 22.0713 30.2576 92.9209 0.0000 -4.3828 0.0000
# 4 0.0000 0.0000 0.0000 14.3574 0.0000 0.5275
# 5 -7.6549 2.9269 -4.3828 0.0000 34.6784 0.0000
# 6 0.0000 0.0000 0.0000 0.5275 0.0000 59.4829
#
#
#
# Elastic Compliance Matrix: (Units=1/GPa)
#
#
# Indices 1 2 3 4 5 6 
#
# 1 0.014897 -0.003088 -0.002380 0.000000 0.003248 0.000000
# 2 -0.003088 0.022896 -0.006886 0.000000 -0.003484 0.000000
# 3 -0.002380 -0.006886 0.013654 0.000000 0.001781 0.000000
# 4 0.000000 0.000000 0.000000 0.069673 0.000000 -0.000618
# 5 0.003248 -0.003484 0.001781 0.000000 0.030073 0.000000
# 6 0.000000 0.000000 0.000000 -0.000618 0.000000 0.016817
#
#
# Mechanical properties :
#
#
# Convention : Reuss Voigt Hill
#
# Bulk Modulus (GPa) = 37.39893 39.97885 38.68889
# Shear Modulus (GPa) = 24.79787 32.09243 28.44515
#
# Velocity S-wave (km/s) = 3.64032 4.14128 3.89885
# Velocity P-wave (km/s) = 6.13639 6.65068 6.39870
#
# Compressibility (1/GPa) = 0.02673873
#
# Stress axis : x y z
#
# Youngs Moduli (GPa) = 67.12626 43.67627 73.24088
#
# Poissons Ratio (x) = 0.13485 0.17431
# Poissons Ratio (y) = 0.20726 0.50437
# Poissons Ratio (z) = 0.15975 0.30077
#
# Static dielectric constant tensor:
#      x y z
#    x 1.635660 0.000000 -0.018120 
#    y 0.000000 1.648850 0.000000 
#    z -0.018120 0.000000 1.713910 
# 
# From -- ./inp_files/245948.got.cif
#   From: 2010.05.17/outbox.cif.g08.bks.cpg/sg12_123_cif.got.tgz:245948.got - 2010.06.03 13:09:07.
