data_PCOD9184434
_publ_section_title
;
Structure prediction by ZEFSAII (Michael W. Deem and Ramdas Pophale) SiO2 
 PCOD9184434
Probable space group: C 2/M
;
_chemical_formula_sum "Si O2"
_cell_formula_units_Z 48
_cell_length_a 6.800071
_cell_length_b 22.467326
_cell_length_c 18.358286
_cell_angle_alpha 90.000000
_cell_angle_beta 51.904823
_cell_angle_gamma 90.000000
_cell_volume 2207.315951
_symmetry_space_group_name_H-M "C 2/M"
_symmetry_group_IT_number 12
_symmetry_cell_setting 'monoclinic'
loop_
_space_group_symop_operation_xyz
x,y,z
-x,y,-z
-x,-y,-z
x,-y,z
1/2+x,1/2+y,z
1/2-x,1/2+y,-z
1/2-x,1/2-y,-z
1/2+x,1/2-y,z
loop_
_atom_site_type_symbol
_atom_site_label
_atom_site_fract_x
_atom_site_fract_y
_atom_site_fract_z
Si Si1 0.575637 0.744045 0.807900
Si Si2 0.792239 0.152757 0.106468
Si Si3 0.124798 0.388667 0.591054
Si Si4 0.641670 0.625470 0.608068
Si Si5 0.569470 0.246834 0.660500
Si Si6 0.865105 0.566917 0.255298
O O1 0.402128 0.797007 0.879344
O O2 0.138049 0.678805 0.621381
O O3 0.371157 0.737281 0.779471
O O4 0.772363 0.747442 0.688387
O O5 0.924247 0.181584 0.148293
O O6 0.613293 0.099000 0.170248
O O7 0.000000 0.138540 0.000000
O O8 0.861745 0.394810 0.610002
O O9 0.125740 0.431430 0.659253
O O10 0.321803 0.398862 0.481424
O O11 0.672082 0.696459 0.593704
O O12 0.620351 0.607140 0.297069
O O13 0.836328 0.500000 0.234806
#
# Coordination Sequence:
#
# PCOD9184434 Si02
#       6
#     8   8   8   8   8   8
#     4  10  19  33  62  92 123 157 191 245 321 379
#     4  11  22  40  64  95 124 158 202 261 325 382
#     4  11  23  39  62  93 129 169 207 260 309 372
#     4  11  23  38  62  95 127 166 213 255 314 368
#     4  11  16  35  58  91 129 157 192 246 320 374
#     4  12  26  44  63  86 124 174 219 261 306 365
#
# _framework density 21.745868999999999
#
# number of rings (size 3 to 8) (size 9 to 14) (size 15 to 20)
#    0.000    1.000    6.667    1.500    0.000    2.333 
#    0.000    1.667    0.000    0.000    0.000    3.500 
#    0.000    0.000    0.000    0.000    0.000    0.000 
#
# Total GULP energy -133777.497367 kJ/mol
# GULP energy per Si atom -5574.062390 kJ/mol
# Density = 2.169637 g / cm^3
# Si number density = 21.745869 Si / 1000 Ang^3
#
#
#
# Elastic Constant Matrix: (Units=GPa)
#
#
# Indices 1 2 3 4 5 6 
#
# 1 125.3687 1.9229 24.7513 0.0000 1.8359 0.0000
# 2 1.9229 89.0131 25.4076 0.0000 -5.8825 0.0000
# 3 24.7513 25.4076 115.5542 0.0000 -14.0701 0.0000
# 4 0.0000 0.0000 0.0000 2.3911 0.0000 5.8752
# 5 1.8359 -5.8825 -14.0701 0.0000 31.8593 0.0000
# 6 0.0000 0.0000 0.0000 5.8752 0.0000 12.4590
#
#
#
# Elastic Compliance Matrix: (Units=1/GPa)
#
#
# Indices 1 2 3 4 5 6 
#
# 1 0.008391 0.000310 -0.002026 0.000000 -0.001321 0.000000
# 2 0.000310 0.012035 -0.002583 0.000000 0.001064 0.000000
# 3 -0.002026 -0.002583 0.010158 0.000000 0.004126 0.000000
# 4 0.000000 0.000000 0.000000 -2.635313 0.000000 1.242716
# 5 -0.001321 0.001064 0.004126 0.000000 0.033483 0.000000
# 6 0.000000 0.000000 0.000000 1.242716 0.000000 -0.505755
#
#
# Mechanical properties :
#
#
# Convention : Reuss Voigt Hill
#
# Bulk Modulus (GPa) = 45.48478 48.23329 46.85904
# Shear Modulus (GPa) = -1.63341 27.86548 13.11603
#
# Velocity S-wave (km/s) = -0.86762 3.58357 2.45858
# Velocity P-wave (km/s) = 4.46746 6.27305 5.44562
#
# Compressibility (1/GPa) = 0.02198537
#
# Stress axis : x y z
#
# Youngs Moduli (GPa) = 119.17347 83.08958 98.44119
#
# Poissons Ratio (x) = -0.02574 0.19948
# Poissons Ratio (y) = -0.03692 0.25428
# Poissons Ratio (z) = 0.24149 0.21463
#
# Static dielectric constant tensor:
#      x y z
#    x 1.996140 0.000000 -0.013330 
#    y 0.000000 1.699330 0.000000 
#    z -0.013330 0.000000 1.788080 
# 
# From -- ./inp_files/336626.got.cif
#   From: 2010.05.17/outbox.cif.g08.bks.cpg/sg12_169_cif.got.tgz:336626.got - 2010.06.03 13:09:07.
