data_PCOD9184122
_publ_section_title
;
Structure prediction by ZEFSAII (Michael W. Deem and Ramdas Pophale) SiO2 
 PCOD9184122
Probable space group: C 2/M
;
_chemical_formula_sum "Si O2"
_cell_formula_units_Z 64
_cell_length_a 11.016563
_cell_length_b 18.674445
_cell_length_c 30.607340
_cell_angle_alpha 90.000000
_cell_angle_beta 150.066163
_cell_angle_gamma 90.000000
_cell_volume 3142.097253
_symmetry_space_group_name_H-M "C 2/M"
_symmetry_group_IT_number 12
_symmetry_cell_setting 'monoclinic'
loop_
_space_group_symop_operation_xyz
x,y,z
-x,y,-z
-x,-y,-z
x,-y,z
1/2+x,1/2+y,z
1/2-x,1/2+y,-z
1/2-x,1/2-y,-z
1/2+x,1/2-y,z
loop_
_atom_site_type_symbol
_atom_site_label
_atom_site_fract_x
_atom_site_fract_y
_atom_site_fract_z
Si Si1 0.969556 0.314657 0.622401
Si Si2 0.580931 0.578780 0.335308
Si Si3 0.527421 0.822756 0.962763
Si Si4 0.708295 0.659992 0.456471
Si Si5 0.011484 0.202171 0.242878
Si Si6 0.261031 0.667434 0.948701
Si Si7 0.541408 0.077447 0.206399
Si Si8 0.174855 0.647530 0.332049
O O1 0.918890 0.344549 0.558009
O O2 0.825299 0.239051 0.574924
O O3 0.864648 0.361477 0.628958
O O4 0.257913 0.301639 0.718114
O O5 0.657352 0.500000 0.344093
O O6 0.733687 0.607632 0.423851
O O7 0.546101 0.635185 0.285870
O O8 0.314924 0.573500 0.274468
O O9 0.669233 0.859784 0.967092
O O10 0.259031 0.801117 0.861546
O O11 0.500000 0.863908 0.000000
O O12 0.679294 0.750940 0.023552
O O13 0.456639 0.648714 0.405107
O O14 0.058096 0.275140 0.284028
O O15 0.062846 0.646336 0.851200
O O16 0.500000 0.636607 0.000000
O O17 0.545409 0.092102 0.259219
O O18 0.424443 0.000000 0.159844
#
# Coordination Sequence:
#
# PCOD9184122 Si02
#       8
#     8   8   8   8   8   8   8   8
#     4  10  20  33  57  85 119 152 194 251 293 342
#     4  10  20  38  60  82 116 158 199 238 283 354
#     4  10  21  35  56  86 120 145 188 254 303 353
#     4   9  19  35  53  85 117 154 197 241 297 342
#     4  11  21  35  58  85 115 152 198 235 298 352
#     4  10  20  35  56  85 113 150 190 247 297 351
#     4  10  21  38  60  84 117 160 199 236 294 362
#     4  10  19  33  57  85 116 153 195 249 289 340
#
# _framework density 20.368561
#
# number of rings (size 3 to 8) (size 9 to 14) (size 15 to 20)
#    0.000    2.000    2.500    1.875    0.000    4.750 
#    0.000    2.500    0.000    4.500    0.000    0.000 
#    0.000    0.000    0.000    0.000    0.000    0.000 
#
# Total GULP energy -178358.902482 kJ/mol
# GULP energy per Si atom -5573.715703 kJ/mol
# Density = 2.032220 g / cm^3
# Si number density = 20.368561 Si / 1000 Ang^3
#
#
#
# Elastic Constant Matrix: (Units=GPa)
#
#
# Indices 1 2 3 4 5 6 
#
# 1 98.0614 6.8418 33.0682 0.0006 -12.4467 0.0001
# 2 6.8418 65.5938 28.9173 0.0005 -3.7709 -0.0001
# 3 33.0682 28.9173 95.1412 0.0008 -0.6492 0.0000
# 4 0.0006 0.0005 0.0008 9.5575 0.0003 4.1095
# 5 -12.4467 -3.7709 -0.6492 0.0003 26.7334 0.0002
# 6 0.0001 -0.0001 0.0000 4.1095 0.0002 -7.7824
#
#
#
# Elastic Compliance Matrix: (Units=1/GPa)
#
#
# Indices 1 2 3 4 5 6 
#
# 1 0.012413 0.001067 -0.004599 -0.000001 0.005818 0.000000
# 2 0.001067 0.017845 -0.005775 0.000000 0.002874 0.000000
# 3 -0.004599 -0.005775 0.013847 0.000000 -0.002620 0.000000
# 4 -0.000001 0.000000 0.000000 0.085269 -0.000002 0.045027
# 5 0.005818 0.002874 -0.002620 -0.000002 0.040457 0.000000
# 6 0.000000 0.000000 0.000000 0.045027 0.000000 -0.104718
#
#
# Mechanical properties :
#
#
# Convention : Reuss Voigt Hill
#
# Bulk Modulus (GPa) = 39.23023 44.05013 41.64018
# Shear Modulus (GPa) = 54.21624 18.36630 36.29127
#
# Velocity S-wave (km/s) = 5.16482 3.00609 4.22563
# Velocity P-wave (km/s) = 7.40737 5.80708 6.65550
#
# Compressibility (1/GPa) = 0.02549055
#
# Stress axis : x y z
#
# Youngs Moduli (GPa) = 80.56386 56.03731 72.22008
#
# Poissons Ratio (x) = -0.05980 0.33213
# Poissons Ratio (y) = -0.08598 0.41709
# Poissons Ratio (z) = 0.37050 0.32363
#
# Static dielectric constant tensor:
#      x y z
#    x 1.786270 0.000000 0.034970 
#    y 0.000000 1.745790 0.000000 
#    z 0.034970 0.000000 1.802570 
# 
# From -- ./inp_files/374487.got.cif
#   From: 2010.05.17/outbox.cif.g08.bks.cpg/sg12_188_cif.got.tgz:374487.got - 2010.06.03 13:09:07.
