data_PCOD9184850
_publ_section_title
;
Structure prediction by ZEFSAII (Michael W. Deem and Ramdas Pophale) SiO2 
 PCOD9184850
Probable space group: C 2/M
;
_chemical_formula_sum "Si O2"
_cell_formula_units_Z 64
_cell_length_a 25.412728
_cell_length_b 9.693963
_cell_length_c 12.748491
_cell_angle_alpha 90.000000
_cell_angle_beta 84.383506
_cell_angle_gamma 90.000000
_cell_volume 3125.514191
_symmetry_space_group_name_H-M "C 2/M"
_symmetry_group_IT_number 12
_symmetry_cell_setting 'monoclinic'
loop_
_space_group_symop_operation_xyz
x,y,z
-x,y,-z
-x,-y,-z
x,-y,z
1/2+x,1/2+y,z
1/2-x,1/2+y,-z
1/2-x,1/2-y,-z
1/2+x,1/2-y,z
loop_
_atom_site_type_symbol
_atom_site_label
_atom_site_fract_x
_atom_site_fract_y
_atom_site_fract_z
Si Si1 0.668655 0.334927 0.029274
Si Si2 0.831122 0.842243 0.283530
Si Si3 0.890443 0.837036 0.633266
Si Si4 0.561984 0.334331 0.147767
Si Si5 0.202371 0.845278 0.480779
Si Si6 0.054277 0.346498 0.550585
Si Si7 0.234567 0.663104 0.845171
Si Si8 0.550027 0.334435 0.759212
O O1 0.669489 0.500000 0.002988
O O2 0.608248 0.287775 0.060103
O O3 0.704888 0.321213 0.127309
O O4 0.698681 0.242319 0.938814
O O5 0.835957 0.836606 0.408984
O O6 0.786250 0.737833 0.254778
O O7 0.888652 0.813933 0.220785
O O8 0.816141 0.000000 0.260280
O O9 0.914827 0.802253 0.740895
O O10 0.828239 0.821607 0.621741
O O11 0.913152 0.738477 0.540565
O O12 0.902393 0.000000 0.611736
O O13 0.562517 0.500000 0.137311
O O14 0.499905 0.295151 0.157049
O O15 0.250000 0.750000 0.500000
O O16 0.222761 0.000000 0.473346
O O17 0.075957 0.500000 0.571415
O O18 0.044597 0.256126 0.655763
O O19 0.000000 0.363829 0.500000
O O20 0.223890 0.500000 0.843897
O O21 0.545100 0.500000 0.738781
#
# Coordination Sequence:
#
# PCOD9184850 Si02
#       8
#     8   8   8   8   8   8   8   8
#     4   9  19  38  61  86 111 133 174 230 275 327
#     4  10  21  37  56  81 111 146 186 226 266 321
#     4  10  19  34  55  76 104 145 191 229 263 316
#     4   9  18  32  58  86 105 136 182 232 277 313
#     4  10  22  36  52  78 113 150 188 228 272 318
#     4  11  21  31  46  73 109 144 181 223 271 317
#     4  10  21  37  61  86 108 142 178 218 278 333
#     4  10  19  35  57  78 105 144 188 227 269 321
#
# _framework density 20.476631999999999
#
# number of rings (size 3 to 8) (size 9 to 14) (size 15 to 20)
#    0.000    2.125    2.500    0.750    1.750    2.500 
#    0.000    1.875    0.000    3.750    0.000    0.000 
#    0.000    0.000    0.000    0.000    0.000    0.000 
#
# Total GULP energy -178288.131556 kJ/mol
# GULP energy per Si atom -5571.504111 kJ/mol
# Density = 2.043003 g / cm^3
# Si number density = 20.476632 Si / 1000 Ang^3
#
#
#
# Elastic Constant Matrix: (Units=GPa)
#
#
# Indices 1 2 3 4 5 6 
#
# 1 79.9970 32.7040 -5.8912 0.0000 -17.3019 0.0000
# 2 32.7040 36.9664 8.3105 0.0000 2.4232 0.0000
# 3 -5.8912 8.3105 28.0486 0.0000 -7.6372 0.0000
# 4 0.0000 0.0000 0.0000 -3.9922 0.0000 43.3503
# 5 -17.3019 2.4232 -7.6372 0.0000 32.4450 0.0000
# 6 0.0000 0.0000 0.0000 43.3503 0.0000 -41.3333
#
#
#
# Elastic Compliance Matrix: (Units=1/GPa)
#
#
# Indices 1 2 3 4 5 6 
#
# 1 0.038979 -0.043117 0.029382 0.000000 0.030923 0.000000
# 2 -0.043117 0.077297 -0.042516 0.000000 -0.038774 0.000000
# 3 0.029382 -0.042516 0.063630 0.000000 0.033822 0.000000
# 4 0.000000 0.000000 0.000000 0.024112 0.000000 0.025288
# 5 0.030923 -0.038774 0.033822 0.000000 0.058169 0.000000
# 6 0.000000 0.000000 0.000000 0.025288 0.000000 0.002329
#
#
# Mechanical properties :
#
#
# Convention : Reuss Voigt Hill
#
# Bulk Modulus (GPa) = 14.83599 23.91765 19.37682
# Shear Modulus (GPa) = 12.51612 4.74981 8.63297
#
# Velocity S-wave (km/s) = 2.47501 1.52468 2.05552
# Velocity P-wave (km/s) = 3.92793 3.84777 3.88806
#
# Compressibility (1/GPa) = 0.06740367
#
# Stress axis : x y z
#
# Youngs Moduli (GPa) = 25.65473 12.93715 15.71592
#
# Poissons Ratio (x) = 0.55781 -0.46176
# Poissons Ratio (y) = 1.10616 0.66818
# Poissons Ratio (z) = -0.75379 0.55003
#
# Static dielectric constant tensor:
#      x y z
#    x 1.737300 0.000000 -0.015520 
#    y 0.000000 1.771820 0.000000 
#    z -0.015520 0.000000 1.788850 
# 
# From -- ./inp_files/243914.got.cif
#   From: 2010.05.17/outbox.cif.g08.bks.cpg/sg12_122_cif.got.tgz:243914.got - 2010.06.03 13:09:07.
