data_PCOD9184932
_publ_section_title
;
Structure prediction by ZEFSAII (Michael W. Deem and Ramdas Pophale) SiO2 
 PCOD9184932
Probable space group: C 2/M
;
_chemical_formula_sum "Si O2"
_cell_formula_units_Z 52
_cell_length_a 17.061416
_cell_length_b 18.817690
_cell_length_c 12.393913
_cell_angle_alpha 90.000000
_cell_angle_beta 135.307278
_cell_angle_gamma 90.000000
_cell_volume 2798.550605
_symmetry_space_group_name_H-M "C 2/M"
_symmetry_group_IT_number 12
_symmetry_cell_setting 'monoclinic'
loop_
_space_group_symop_operation_xyz
x,y,z
-x,y,-z
-x,-y,-z
x,-y,z
1/2+x,1/2+y,z
1/2-x,1/2+y,-z
1/2-x,1/2-y,-z
1/2+x,1/2-y,z
loop_
_atom_site_type_symbol
_atom_site_label
_atom_site_fract_x
_atom_site_fract_y
_atom_site_fract_z
Si Si1 0.725969 0.344852 0.547413
Si Si2 0.400628 0.212811 0.550546
Si Si3 0.134724 0.500000 0.602961
Si Si4 0.275519 0.000000 0.553088
Si Si5 0.132614 0.724023 0.120531
Si Si6 0.713208 0.150888 0.756870
Si Si7 0.516553 0.000000 0.887612
Si Si8 0.612046 0.853098 0.882864
O O1 0.615784 0.297041 0.451256
O O2 0.793533 0.320866 0.507137
O O3 0.710297 0.428412 0.518712
O O4 0.805187 0.321400 0.725556
O O5 0.381818 0.191676 0.407481
O O6 0.504124 0.181025 0.716945
O O7 0.170094 0.500000 0.512827
O O8 0.192288 0.570047 0.704735
O O9 0.000000 0.500000 0.500000
O O10 0.388458 0.000000 0.729984
O O11 0.177530 0.804554 0.167499
O O12 0.156798 0.691342 0.027302
O O13 0.000000 0.719737 0.000000
O O14 0.699448 0.149299 0.871587
O O15 0.575588 0.930022 0.894740
O O16 0.500000 0.000000 0.000000
#
# Coordination Sequence:
#
# PCOD9184932 Si02
#       8
#     8   8   4   4   8   8   4   8
#     4  10  20  33  53  82 109 139 188 232 282 330
#     4  10  19  34  55  79 109 143 182 233 280 329
#     4  12  22  34  55  82 112 140 171 233 289 330
#     4  12  18  32  50  79 107 141 174 227 279 328
#     4  11  22  38  56  77 112 152 186 229 273 339
#     4  11  23  36  55  85 112 144 185 231 288 340
#     4  12  22  32  52  85 113 147 180 225 281 337
#     4  12  21  36  56  81 114 147 184 229 288 343
#
# _framework density 18.581046000000001
#
# number of rings (size 3 to 8) (size 9 to 14) (size 15 to 20)
#    0.000    0.923    4.615    4.615    0.000    0.000 
#    0.000    0.385    0.000    0.923    0.000    9.692 
#    0.000    0.000    0.000    4.923    0.000    0.000 
#
# Total GULP energy -144951.718893 kJ/mol
# GULP energy per Si atom -5575.066111 kJ/mol
# Density = 1.853875 g / cm^3
# Si number density = 18.581046 Si / 1000 Ang^3
#
#
#
# Elastic Constant Matrix: (Units=GPa)
#
#
# Indices 1 2 3 4 5 6 
#
# 1 46.5606 28.4153 30.5478 0.0000 -29.0361 0.0000
# 2 28.4153 157.5973 20.6641 0.0000 -5.5751 0.0000
# 3 30.5478 20.6641 78.3524 0.0000 -29.1175 0.0000
# 4 0.0000 0.0000 0.0000 30.7253 0.0000 -27.7729
# 5 -29.0361 -5.5751 -29.1175 0.0000 34.9264 0.0000
# 6 0.0000 0.0000 0.0000 -27.7729 0.0000 181.4037
#
#
#
# Elastic Compliance Matrix: (Units=1/GPa)
#
#
# Indices 1 2 3 4 5 6 
#
# 1 0.053992 -0.007782 -0.004026 0.000000 0.040288 0.000000
# 2 -0.007782 0.007702 -0.001369 0.000000 -0.006381 0.000000
# 3 -0.004026 -0.001369 0.019369 0.000000 0.012582 0.000000
# 4 0.000000 0.000000 0.000000 0.037774 0.000000 0.005783
# 5 0.040288 -0.006381 0.012582 0.000000 0.071596 0.000000
# 6 0.000000 0.000000 0.000000 0.005783 0.000000 0.006398
#
#
# Mechanical properties :
#
#
# Convention : Reuss Voigt Hill
#
# Bulk Modulus (GPa) = 18.27809 49.08497 33.68153
# Shear Modulus (GPa) = 20.71064 62.93662 41.82363
#
# Velocity S-wave (km/s) = 3.34220 5.82623 4.74949
# Velocity P-wave (km/s) = 4.97514 8.46959 6.94572
#
# Compressibility (1/GPa) = 0.05471032
#
# Stress axis : x y z
#
# Youngs Moduli (GPa) = 18.52115 129.83459 51.62798
#
# Poissons Ratio (x) = 1.01036 0.20786
# Poissons Ratio (y) = 0.14413 0.07066
# Poissons Ratio (z) = 0.07457 0.17770
#
# Static dielectric constant tensor:
#      x y z
#    x 1.677310 0.000000 -0.057710 
#    y 0.000000 1.732790 0.000000 
#    z -0.057710 0.000000 1.758760 
# 
# From -- ./inp_files/158361.got.cif
#   From: 2010.05.17/outbox.cif.g08.bks.cpg/sg12_80_cif.got.tgz:158361.got - 2010.06.03 13:09:07.
