data_PCOD9184655
_publ_section_title
;
Structure prediction by ZEFSAII (Michael W. Deem and Ramdas Pophale) SiO2 
 PCOD9184655
Probable space group: C 2/M
;
_chemical_formula_sum "Si O2"
_cell_formula_units_Z 64
_cell_length_a 16.525900
_cell_length_b 17.219397
_cell_length_c 12.092469
_cell_angle_alpha 90.000000
_cell_angle_beta 95.052245
_cell_angle_gamma 90.000000
_cell_volume 3427.736585
_symmetry_space_group_name_H-M "C 2/M"
_symmetry_group_IT_number 12
_symmetry_cell_setting 'monoclinic'
loop_
_space_group_symop_operation_xyz
x,y,z
-x,y,-z
-x,-y,-z
x,-y,z
1/2+x,1/2+y,z
1/2-x,1/2+y,-z
1/2-x,1/2-y,-z
1/2+x,1/2-y,z
loop_
_atom_site_type_symbol
_atom_site_label
_atom_site_fract_x
_atom_site_fract_y
_atom_site_fract_z
Si Si1 0.989723 0.588314 0.296598
Si Si2 0.305415 0.284583 0.739696
Si Si3 0.917280 0.826526 0.433044
Si Si4 0.875024 0.672024 0.563389
Si Si5 0.115552 0.737886 0.776686
Si Si6 0.917355 0.415947 0.920328
Si Si7 0.216791 0.091251 0.450588
Si Si8 0.657122 0.242665 0.024820
O O1 0.958956 0.500000 0.311327
O O2 0.046420 0.621438 0.399855
O O3 0.051740 0.584737 0.200859
O O4 0.923861 0.653933 0.256769
O O5 0.341337 0.214501 0.669953
O O6 0.211025 0.266756 0.756439
O O7 0.307734 0.359788 0.661351
O O8 0.352318 0.290546 0.862399
O O9 0.895977 0.743449 0.486038
O O10 0.923742 0.804192 0.305338
O O11 0.845515 0.883799 0.459779
O O12 0.000000 0.853797 0.500000
O O13 0.804798 0.621244 0.499868
O O14 0.106817 0.756310 0.906105
O O15 0.880600 0.500000 0.942173
O O16 0.860059 0.345546 0.942020
O O17 0.000000 0.408050 0.000000
O O18 0.216093 0.000000 0.431765
O O19 0.750000 0.250000 0.000000
#
# Coordination Sequence:
#
# PCOD9184655 Si02
#       8
#     8   8   8   8   8   8   8   8
#     4  11  22  32  54  90 121 151 183 225 288 350
#     4  10  20  38  58  80 111 150 197 240 273 339
#     4  11  21  37  60  84 113 150 191 236 282 339
#     4  11  19  37  60  81 114 152 190 228 283 347
#     4  11  20  36  54  82 119 153 186 230 279 337
#     4  10  19  34  53  80 119 151 183 228 279 337
#     4  11  23  39  61  83 111 152 192 241 294 333
#     4  10  21  34  57  82 112 154 199 225 273 340
#
# _framework density 18.671212000000001
#
# number of rings (size 3 to 8) (size 9 to 14) (size 15 to 20)
#    0.000    1.375    6.250    1.125    0.000    0.750 
#    0.000    2.500    0.000    0.750    0.000    0.875 
#    0.000    0.000    0.000    0.000    0.000    0.000 
#
# Total GULP energy -178585.053366 kJ/mol
# GULP energy per Si atom -5580.782918 kJ/mol
# Density = 1.862872 g / cm^3
# Si number density = 18.671212 Si / 1000 Ang^3
#
#
#
# Elastic Constant Matrix: (Units=GPa)
#
#
# Indices 1 2 3 4 5 6 
#
# 1 42.7973 14.9559 25.1316 0.0000 11.3021 0.0000
# 2 14.9559 66.4320 46.8590 0.0000 4.8060 0.0000
# 3 25.1316 46.8590 133.7280 0.0000 9.6267 0.0000
# 4 0.0000 0.0000 0.0000 12.5277 0.0000 -0.8220
# 5 11.3021 4.8060 9.6267 0.0000 26.4542 0.0000
# 6 0.0000 0.0000 0.0000 -0.8220 0.0000 24.6373
#
#
#
# Elastic Compliance Matrix: (Units=1/GPa)
#
#
# Indices 1 2 3 4 5 6 
#
# 1 0.029461 -0.003317 -0.003606 0.000000 -0.010672 0.000000
# 2 -0.003317 0.020400 -0.006531 0.000000 0.000088 0.000000
# 3 -0.003606 -0.006531 0.010524 0.000000 -0.001102 0.000000
# 4 0.000000 0.000000 0.000000 0.079999 0.000000 0.002669
# 5 -0.010672 0.000088 -0.001102 0.000000 0.042746 0.000000
# 6 0.000000 0.000000 0.000000 0.002669 0.000000 0.040678
#
#
# Mechanical properties :
#
#
# Convention : Reuss Voigt Hill
#
# Bulk Modulus (GPa) = 29.87205 46.31668 38.09436
# Shear Modulus (GPa) = 19.09313 23.12456 21.10884
#
# Velocity S-wave (km/s) = 3.20128 3.52307 3.36602
# Velocity P-wave (km/s) = 5.44958 6.43504 5.96270
#
# Compressibility (1/GPa) = 0.03347611
#
# Stress axis : x y z
#
# Youngs Moduli (GPa) = 33.94330 49.01864 95.02500
#
# Poissons Ratio (x) = 0.16259 0.34267
# Poissons Ratio (y) = 0.11259 0.62064
# Poissons Ratio (z) = 0.12240 0.32016
#
# Static dielectric constant tensor:
#      x y z
#    x 1.655400 0.000000 0.017230 
#    y 0.000000 1.620040 0.000000 
#    z 0.017230 0.000000 1.728590 
# 
# From -- ./inp_files/157862.got.cif
#   From: 2010.05.17/outbox.cif.g08.bks.cpg/sg12_79_cif.got.tgz:157862.got - 2010.06.03 13:09:07.
