data_PCOD9184628
_publ_section_title
;
Structure prediction by ZEFSAII (Michael W. Deem and Ramdas Pophale) SiO2 
 PCOD9184628
Probable space group: C 2/M
;
_chemical_formula_sum "Si O2"
_cell_formula_units_Z 40
_cell_length_a 11.715848
_cell_length_b 14.936313
_cell_length_c 14.126951
_cell_angle_alpha 90.000000
_cell_angle_beta 51.947760
_cell_angle_gamma 90.000000
_cell_volume 1946.650829
_symmetry_space_group_name_H-M "C 2/M"
_symmetry_group_IT_number 12
_symmetry_cell_setting 'monoclinic'
loop_
_space_group_symop_operation_xyz
x,y,z
-x,y,-z
-x,-y,-z
x,-y,z
1/2+x,1/2+y,z
1/2-x,1/2+y,-z
1/2-x,1/2-y,-z
1/2+x,1/2-y,z
loop_
_atom_site_type_symbol
_atom_site_label
_atom_site_fract_x
_atom_site_fract_y
_atom_site_fract_z
Si Si1 0.730512 0.602854 0.388264
Si Si2 0.732310 0.652292 0.175725
Si Si3 0.500000 0.265146 0.000000
Si Si4 0.289878 0.402388 0.020905
Si Si5 0.547201 0.822453 0.277516
Si Si6 0.500000 0.248106 0.500000
O O1 0.708275 0.500000 0.434299
O O2 0.709208 0.600959 0.285000
O O3 0.621031 0.681829 0.476628
O O4 0.889725 0.639723 0.332503
O O5 0.880664 0.707649 0.115181
O O6 0.599295 0.721098 0.226700
O O7 0.757943 0.602607 0.063816
O O8 0.408633 0.327068 0.977479
O O9 0.350190 0.500000 0.009130
O O10 0.160979 0.381853 0.160259
O O11 0.558037 0.814644 0.386049
#
# Coordination Sequence:
#
# PCOD9184628 Si02
#       6
#     8   8   4   8   8   4
#     4  11  21  37  59  85 109 136 179 235 277 314
#     4  10  20  35  58  84 112 146 178 212 270 336
#     4  10  19  34  53  76 114 154 178 204 255 328
#     4  11  21  35  55  85 115 142 177 225 270 315
#     4  10  21  37  58  80 108 147 185 220 266 326
#     4  10  23  40  59  76 104 148 190 222 269 326
#
# _framework density 20.548112
#
# number of rings (size 3 to 8) (size 9 to 14) (size 15 to 20)
#    0.000    1.600    0.000    7.200    0.000    0.000 
#    0.000    5.000    0.000    0.000    0.000    0.000 
#    0.000    0.000    0.000    0.000    0.000    0.000 
#
# Total GULP energy -111470.349287 kJ/mol
# GULP energy per Si atom -5573.517464 kJ/mol
# Density = 2.050134 g / cm^3
# Si number density = 20.548112 Si / 1000 Ang^3
#
#
#
# Elastic Constant Matrix: (Units=GPa)
#
#
# Indices 1 2 3 4 5 6 
#
# 1 53.9542 3.5058 6.9080 0.0000 -13.8940 0.0000
# 2 3.5058 51.7789 0.6199 0.0000 4.0794 0.0000
# 3 6.9080 0.6199 80.6354 0.0000 18.4459 0.0000
# 4 0.0000 0.0000 0.0000 27.8096 0.0000 4.1744
# 5 -13.8940 4.0794 18.4459 0.0000 34.0032 0.0000
# 6 0.0000 0.0000 0.0000 4.1744 0.0000 4.3507
#
#
#
# Elastic Compliance Matrix: (Units=1/GPa)
#
#
# Indices 1 2 3 4 5 6 
#
# 1 0.022355 -0.002398 -0.004626 0.000000 0.011932 0.000000
# 2 -0.002398 0.019768 0.000936 0.000000 -0.003859 0.000000
# 3 -0.004626 0.000936 0.015126 0.000000 -0.010208 0.000000
# 4 0.000000 0.000000 0.000000 0.042009 0.000000 -0.040306
# 5 0.011932 -0.003859 -0.010208 0.000000 0.040285 0.000000
# 6 0.000000 0.000000 0.000000 -0.040306 0.000000 0.268519
#
#
# Mechanical properties :
#
#
# Convention : Reuss Voigt Hill
#
# Bulk Modulus (GPa) = 22.18633 23.15954 22.67293
# Shear Modulus (GPa) = 11.48734 24.92169 18.20451
#
# Velocity S-wave (km/s) = 2.36698 3.48637 2.97971
# Velocity P-wave (km/s) = 4.27678 5.24421 4.78501
#
# Compressibility (1/GPa) = 0.04507279
#
# Stress axis : x y z
#
# Youngs Moduli (GPa) = 44.73276 50.58648 66.11229
#
# Poissons Ratio (x) = 0.12132 0.30585
# Poissons Ratio (y) = 0.10728 -0.06191
# Poissons Ratio (z) = 0.20694 -0.04737
#
# Static dielectric constant tensor:
#      x y z
#    x 1.741550 0.000000 0.014580 
#    y 0.000000 1.731990 0.000000 
#    z 0.014580 0.000000 1.766090 
# 
# From -- ./inp_files/204181.got.cif
#   From: 2010.05.17/outbox.cif.g08.bks.cpg/sg12_103_cif.got.tgz:204181.got - 2010.06.03 13:09:07.
