data_PCOD9184608
_publ_section_title
;
Structure prediction by ZEFSAII (Michael W. Deem and Ramdas Pophale) SiO2 
 PCOD9184608
Probable space group: C 2/M
;
_chemical_formula_sum "Si O2"
_cell_formula_units_Z 48
_cell_length_a 21.497988
_cell_length_b 16.397831
_cell_length_c 8.882515
_cell_angle_alpha 90.000000
_cell_angle_beta 42.287396
_cell_angle_gamma 90.000000
_cell_volume 2106.872694
_symmetry_space_group_name_H-M "C 2/M"
_symmetry_group_IT_number 12
_symmetry_cell_setting 'monoclinic'
loop_
_space_group_symop_operation_xyz
x,y,z
-x,y,-z
-x,-y,-z
x,-y,z
1/2+x,1/2+y,z
1/2-x,1/2+y,-z
1/2-x,1/2-y,-z
1/2+x,1/2-y,z
loop_
_atom_site_type_symbol
_atom_site_label
_atom_site_fract_x
_atom_site_fract_y
_atom_site_fract_z
Si Si1 0.410464 0.095454 0.481452
Si Si2 0.513221 0.500000 0.224720
Si Si3 0.847096 0.000000 0.737797
Si Si4 0.225381 0.595787 0.566587
Si Si5 0.113628 0.850093 0.915840
Si Si6 0.750105 0.154588 0.041253
Si Si7 0.936794 0.334292 0.976536
O O1 0.341493 0.104606 0.460402
O O2 0.352331 0.131276 0.722239
O O3 0.426361 0.000000 0.474947
O O4 0.506521 0.138445 0.270067
O O5 0.410687 0.500000 0.475816
O O6 0.581769 0.500000 0.247456
O O7 0.540837 0.421115 0.079208
O O8 0.788459 0.916468 0.861800
O O9 0.238979 0.500000 0.566260
O O10 0.322189 0.636480 0.345940
O O11 0.166560 0.634060 0.807862
O O12 0.183531 0.852994 0.932150
O O13 0.067665 0.762378 0.002362
O O14 0.750000 0.250000 0.000000
O O15 0.000000 0.368086 0.000000
#
# Coordination Sequence:
#
# PCOD9184608 Si02
#       7
#     8   4   4   8   8   8   8
#     4   9  17  32  52  76  99 128 173 212 244 297
#     4   9  18  32  53  75  95 131 176 212 240 292
#     4   9  18  34  54  75  98 131 176 214 245 296
#     4   9  16  31  54  74  96 132 171 207 246 295
#     4  10  19  34  53  75 103 131 169 210 250 297
#     4  10  20  34  56  77 100 134 170 211 257 300
#     4  10  20  31  51  78 103 131 166 208 249 300
#
# _framework density 22.782582000000001
#
# number of rings (size 3 to 8) (size 9 to 14) (size 15 to 20)
#    0.000    2.500    1.667    1.000    2.333    2.000 
#    0.000    0.417    3.667    1.000    0.000    0.000 
#    0.000    0.000    0.000    0.000    0.000    0.000 
#
# Total GULP energy -134126.030139 kJ/mol
# GULP energy per Si atom -5588.584589 kJ/mol
# Density = 2.273073 g / cm^3
# Si number density = 22.782582 Si / 1000 Ang^3
#
#
#
# Elastic Constant Matrix: (Units=GPa)
#
#
# Indices 1 2 3 4 5 6 
#
# 1 81.6800 -1.1345 16.6992 0.0000 -8.8298 0.0000
# 2 -1.1345 170.7777 143.0513 0.0000 -10.0682 0.0000
# 3 16.6992 143.0513 279.2400 0.0000 -13.3383 0.0000
# 4 0.0000 0.0000 0.0000 35.3488 0.0000 -12.8946
# 5 -8.8298 -10.0682 -13.3383 0.0000 -8.0247 0.0000
# 6 0.0000 0.0000 0.0000 -12.8946 0.0000 19.1003
#
#
#
# Elastic Compliance Matrix: (Units=1/GPa)
#
#
# Indices 1 2 3 4 5 6 
#
# 1 0.011406 0.000773 -0.001597 0.000000 -0.010865 0.000000
# 2 0.000773 0.010184 -0.005479 0.000000 -0.004520 0.000000
# 3 -0.001597 -0.005479 0.006389 0.000000 -0.001987 0.000000
# 4 0.000000 0.000000 0.000000 0.037532 0.000000 0.025338
# 5 -0.010865 -0.004520 -0.001987 0.000000 -0.103686 0.000000
# 6 0.000000 0.000000 0.000000 0.025338 0.000000 0.069461
#
#
# Mechanical properties :
#
#
# Convention : Reuss Voigt Hill
#
# Bulk Modulus (GPa) = 65.05525 94.32552 79.69039
# Shear Modulus (GPa) = 102.00732 34.15700 68.08216
#
# Velocity S-wave (km/s) = 6.69862 3.87623 5.47250
# Velocity P-wave (km/s) = 9.40454 7.84384 8.65943
#
# Compressibility (1/GPa) = 0.01537155
#
# Stress axis : x y z
#
# Youngs Moduli (GPa) = 87.67618 98.19479 156.52717
#
# Poissons Ratio (x) = -0.07590 0.24998
# Poissons Ratio (y) = -0.06777 0.85764
# Poissons Ratio (z) = 0.14002 0.53803
#
# Static dielectric constant tensor:
#      x y z
#    x 1.932320 0.000000 -0.002110 
#    y 0.000000 1.774330 0.000000 
#    z -0.002110 0.000000 1.839090 
# 
# From -- ./inp_files/143131.got.cif
#   From: 2010.05.17/outbox.cif.g08.bks.cpg/sg12_72_cif.got.tgz:143131.got - 2010.06.03 13:09:07.
