data_PCOD9184460
_publ_section_title
;
Structure prediction by ZEFSAII (Michael W. Deem and Ramdas Pophale) SiO2 
 PCOD9184460
Probable space group: C 2/M
;
_chemical_formula_sum "Si O2"
_cell_formula_units_Z 52
_cell_length_a 7.228170
_cell_length_b 21.778758
_cell_length_c 17.421273
_cell_angle_alpha 90.000000
_cell_angle_beta 96.405360
_cell_angle_gamma 90.000000
_cell_volume 2725.346759
_symmetry_space_group_name_H-M "C 2/M"
_symmetry_group_IT_number 12
_symmetry_cell_setting 'monoclinic'
loop_
_space_group_symop_operation_xyz
x,y,z
-x,y,-z
-x,-y,-z
x,-y,z
1/2+x,1/2+y,z
1/2-x,1/2+y,-z
1/2-x,1/2-y,-z
1/2+x,1/2-y,z
loop_
_atom_site_type_symbol
_atom_site_label
_atom_site_fract_x
_atom_site_fract_y
_atom_site_fract_z
Si Si1 0.860023 0.332462 0.645440
Si Si2 0.564496 0.311594 0.326570
Si Si3 0.285154 0.323028 0.514198
Si Si4 0.516321 0.156484 0.189977
Si Si5 0.342527 0.930249 0.057610
Si Si6 0.500000 0.345639 0.000000
Si Si7 0.575659 0.295301 0.837853
O O1 0.641857 0.332525 0.659188
O O2 0.924556 0.261465 0.656561
O O3 0.851157 0.351978 0.556008
O O4 0.967776 0.363599 0.720371
O O5 0.714814 0.337442 0.394699
O O6 0.565826 0.320191 0.234993
O O7 0.500000 0.334488 0.500000
O O8 0.250000 0.250000 0.500000
O O9 0.424870 0.104557 0.134705
O O10 0.414330 0.222265 0.175759
O O11 0.725363 0.173074 0.169610
O O12 0.284051 0.000000 0.072131
O O13 0.500000 0.932027 0.000000
O O14 0.176472 0.889333 0.017717
O O15 0.518635 0.307014 0.922664
#
# Coordination Sequence:
#
# PCOD9184460 Si02
#       7
#     8   8   8   8   8   4   8
#     4   8  14  23  40  61  91 129 161 196 234 289
#     4   8  14  24  36  61  96 128 161 194 236 289
#     4   8  12  20  35  56  87 128 162 189 229 283
#     4  10  19  34  49  75 107 134 171 209 257 305
#     4  11  24  41  58  75  99 132 174 220 259 303
#     4  12  23  38  58  78 101 132 172 210 262 312
#     4  10  20  30  50  76 106 139 167 210 256 310
#
# _framework density 19.080141000000001
#
# number of rings (size 3 to 8) (size 9 to 14) (size 15 to 20)
#    0.000    2.615    1.538    1.154    1.077    2.462 
#    0.000    0.000    0.000    0.000    0.000    0.000 
#    0.000   19.077    0.000    0.000    0.000    0.000 
#
# Total GULP energy -144866.490223 kJ/mol
# GULP energy per Si atom -5571.788086 kJ/mol
# Density = 1.903671 g / cm^3
# Si number density = 19.080141 Si / 1000 Ang^3
#
#
#
# Elastic Constant Matrix: (Units=GPa)
#
#
# Indices 1 2 3 4 5 6 
#
# 1 58.0543 4.5600 35.6745 0.0000 1.4705 0.0000
# 2 4.5600 31.1469 33.9296 0.0000 7.6163 0.0000
# 3 35.6745 33.9296 217.4317 0.0000 13.2221 0.0000
# 4 0.0000 0.0000 0.0000 -117.9201 0.0000 -57.7060
# 5 1.4705 7.6163 13.2221 0.0000 32.8493 0.0000
# 6 0.0000 0.0000 0.0000 -57.7060 0.0000 -17.0287
#
#
#
# Elastic Compliance Matrix: (Units=1/GPa)
#
#
# Indices 1 2 3 4 5 6 
#
# 1 0.019174 0.000682 -0.003271 0.000000 0.000300 0.000000
# 2 0.000682 0.040201 -0.005962 0.000000 -0.006951 0.000000
# 3 -0.003271 -0.005962 0.006123 0.000000 -0.000936 0.000000
# 4 0.000000 0.000000 0.000000 0.012881 0.000000 -0.043652
# 5 0.000300 -0.006951 -0.000936 0.000000 0.032417 0.000000
# 6 0.000000 0.000000 0.000000 -0.043652 0.000000 0.089201
#
#
# Mechanical properties :
#
#
# Convention : Reuss Voigt Hill
#
# Bulk Modulus (GPa) = 20.66262 50.55120 35.60691
# Shear Modulus (GPa) = 21.43794 -4.92197 8.25799
#
# Velocity S-wave (km/s) = 3.35561 -1.60786 2.08265
# Velocity P-wave (km/s) = 5.08590 4.80673 4.94829
#
# Compressibility (1/GPa) = 0.04839657
#
# Stress axis : x y z
#
# Youngs Moduli (GPa) = 52.15431 24.87498 163.31606
#
# Poissons Ratio (x) = -0.01697 0.53414
# Poissons Ratio (y) = -0.03559 0.97377
# Poissons Ratio (z) = 0.17058 0.14832
#
# Static dielectric constant tensor:
#      x y z
#    x 1.765890 0.000000 -0.037650 
#    y 0.000000 1.591230 0.000000 
#    z -0.037650 0.000000 1.771170 
# 
# From -- ./inp_files/257576.got.cif
#   From: 2010.05.17/outbox.cif.g08.bks.cpg/sg12_129_cif.got.tgz:257576.got - 2010.06.03 13:09:07.
