data_PCOD9184125
_publ_section_title
;
Structure prediction by ZEFSAII (Michael W. Deem and Ramdas Pophale) SiO2 
 PCOD9184125
Probable space group: C 2/M
;
_chemical_formula_sum "Si O2"
_cell_formula_units_Z 56
_cell_length_a 28.055101
_cell_length_b 14.053678
_cell_length_c 22.321317
_cell_angle_alpha 90.000000
_cell_angle_beta 19.270941
_cell_angle_gamma 90.000000
_cell_volume 2904.574641
_symmetry_space_group_name_H-M "C 2/M"
_symmetry_group_IT_number 12
_symmetry_cell_setting 'monoclinic'
loop_
_space_group_symop_operation_xyz
x,y,z
-x,y,-z
-x,-y,-z
x,-y,z
1/2+x,1/2+y,z
1/2-x,1/2+y,-z
1/2-x,1/2-y,-z
1/2+x,1/2-y,z
loop_
_atom_site_type_symbol
_atom_site_label
_atom_site_fract_x
_atom_site_fract_y
_atom_site_fract_z
Si Si1 0.291775 0.890961 0.897493
Si Si2 0.404318 0.221419 0.343185
Si Si3 0.234599 0.105731 0.628867
Si Si4 0.071541 0.167894 0.058192
Si Si5 0.928544 0.809431 0.750414
Si Si6 0.907154 0.889520 0.554078
Si Si7 0.163987 0.760011 0.823061
O O1 0.393577 0.797880 0.768407
O O2 0.347259 0.000000 0.834262
O O3 0.174575 0.884849 0.982800
O O4 0.210115 0.860933 0.055974
O O5 0.250000 0.250000 0.500000
O O6 0.364639 0.128017 0.428322
O O7 0.520743 0.233533 0.151907
O O8 0.459944 0.295018 0.327261
O O9 0.228330 0.178830 0.691666
O O10 0.080566 0.117215 0.777189
O O11 0.246195 0.000000 0.638988
O O12 0.151462 0.184202 0.900708
O O13 0.996082 0.872216 0.618950
O O14 0.762707 0.830311 0.716687
O O15 0.000000 0.853242 0.500000
O O16 0.876138 0.000000 0.600060
O O17 0.000000 0.735521 0.000000
#
# Coordination Sequence:
#
# PCOD9184125 Si02
#       7
#     8   8   8   8   8   8   8
#     4  10  20  34  57  85 116 151 189 235 291 350
#     4   9  18  35  57  79 112 150 192 239 289 344
#     4  10  19  33  57  85 117 155 194 238 294 358
#     4   9  19  34  56  80 117 154 194 236 286 345
#     4  10  20  37  57  83 114 150 192 243 289 350
#     4  11  23  40  62  84 113 155 204 246 298 364
#     4  10  21  38  60  86 120 158 194 249 298 349
#
# _framework density 19.279931000000001
#
# number of rings (size 3 to 8) (size 9 to 14) (size 15 to 20)
#    0.000    2.143    1.429    1.714    0.000    4.000 
#    0.000    1.429    0.000    1.714    0.000    0.000 
#    0.000    0.000    0.000    0.000    0.000    0.000 
#
# Total GULP energy -156021.130017 kJ/mol
# GULP energy per Si atom -5572.183215 kJ/mol
# Density = 1.923605 g / cm^3
# Si number density = 19.279931 Si / 1000 Ang^3
#
#
#
# Elastic Constant Matrix: (Units=GPa)
#
#
# Indices 1 2 3 4 5 6 
#
# 1 81.4317 21.6498 0.8398 -0.0001 -4.8852 0.0001
# 2 21.6498 87.8390 20.6658 -0.0004 -11.4582 -0.0002
# 3 0.8398 20.6658 29.9999 0.0000 3.5437 0.0005
# 4 -0.0001 -0.0004 0.0000 16.7161 -0.0001 -5.9424
# 5 -4.8852 -11.4582 3.5437 -0.0001 20.4482 -0.0001
# 6 0.0001 -0.0002 0.0005 -5.9424 -0.0001 14.0820
#
#
#
# Elastic Compliance Matrix: (Units=1/GPa)
#
#
# Indices 1 2 3 4 5 6 
#
# 1 0.013277 -0.003656 0.002056 0.000000 0.000767 0.000000
# 2 -0.003656 0.016642 -0.012618 0.000001 0.010639 0.000001
# 3 0.002056 -0.012618 0.043639 -0.000001 -0.014142 -0.000002
# 4 0.000000 0.000001 -0.000001 0.070381 0.000001 0.029700
# 5 0.000767 0.010639 -0.014142 0.000001 0.057499 0.000001
# 6 0.000000 0.000001 -0.000002 0.029700 0.000001 0.083546
#
#
# Mechanical properties :
#
#
# Convention : Reuss Voigt Hill
#
# Bulk Modulus (GPa) = 22.16243 31.73126 26.94685
# Shear Modulus (GPa) = 15.22253 20.65694 17.93973
#
# Velocity S-wave (km/s) = 2.81295 3.27681 3.05370
# Velocity P-wave (km/s) = 4.69790 5.55073 5.14202
#
# Compressibility (1/GPa) = 0.04512141
#
# Stress axis : x y z
#
# Youngs Moduli (GPa) = 75.31779 60.08846 22.91540
#
# Poissons Ratio (x) = 0.21969 -0.04712
# Poissons Ratio (y) = 0.27538 0.28916
# Poissons Ratio (z) = -0.15488 0.75822
#
# Static dielectric constant tensor:
#      x y z
#    x 1.683430 0.000000 -0.008390 
#    y 0.000000 1.674800 0.000000 
#    z -0.008390 0.000000 1.699100 
# 
# From -- ./inp_files/353938.got.cif
#   From: 2010.05.17/outbox.cif.g08.bks.cpg/sg12_177_cif.got.tgz:353938.got - 2010.06.03 13:09:07.
