data_PCOD9184149
_publ_section_title
;
Structure prediction by ZEFSAII (Michael W. Deem and Ramdas Pophale) SiO2 
 PCOD9184149
Probable space group: C 2/M
;
_chemical_formula_sum "Si O2"
_cell_formula_units_Z 58
_cell_length_a 22.796246
_cell_length_b 7.598687
_cell_length_c 18.307696
_cell_angle_alpha 90.000000
_cell_angle_beta 124.824176
_cell_angle_gamma 90.000000
_cell_volume 2603.336107
_symmetry_space_group_name_H-M "C 2/M"
_symmetry_group_IT_number 12
_symmetry_cell_setting 'monoclinic'
loop_
_space_group_symop_operation_xyz
x,y,z
-x,y,-z
-x,-y,-z
x,-y,z
1/2+x,1/2+y,z
1/2-x,1/2+y,-z
1/2-x,1/2-y,-z
1/2+x,1/2-y,z
loop_
_atom_site_type_symbol
_atom_site_label
_atom_site_fract_x
_atom_site_fract_y
_atom_site_fract_z
Si Si1 0.156379 0.699758 0.964123
Si Si2 0.145575 0.787666 0.230156
Si Si3 0.490923 0.704424 0.080057
Si Si4 0.173208 0.209903 0.411826
Si Si5 0.500000 0.500000 0.500000
Si Si6 0.254889 0.208724 0.837005
Si Si7 0.535184 0.793510 0.407968
Si Si8 0.892338 0.296117 0.223904
O O1 0.182040 0.500000 0.969214
O O2 0.138057 0.785478 0.873025
O O3 0.079732 0.695620 0.948327
O O4 0.209319 0.780561 0.062309
O O5 0.064207 0.724106 0.164787
O O6 0.173805 0.727586 0.328295
O O7 0.193715 0.740549 0.194993
O O8 0.142034 0.000000 0.226789
O O9 0.481309 0.500000 0.095885
O O10 0.500000 0.706789 0.000000
O O11 0.250000 0.250000 0.500000
O O12 0.106838 0.285188 0.410405
O O13 0.162644 0.000000 0.403377
O O14 0.537901 0.656922 0.476442
O O15 0.175271 0.282503 0.770346
O O16 0.248432 0.000000 0.840161
O O17 0.465740 0.730514 0.310928
O O18 0.523576 0.000000 0.420419
O O19 0.907044 0.500000 0.217098
#
# Coordination Sequence:
#
# PCOD9184149 Si02
#       8
#     8   8   8   8   2   8   8   8
#     4  10  21  37  57  89 128 175 221 275 334 396
#     4  10  22  40  62  90 130 174 222 279 341 406
#     4  10  19  33  57  86 118 162 212 262 323 392
#     4  11  24  45  72 103 141 183 229 291 358 424
#     4  12  26  48  80 106 148 178 230 296 356 418
#     4  11  23  36  58  92 132 176 230 277 337 401
#     4  11  25  48  77 109 140 184 236 287 357 431
#     4  10  23  42  64  90 131 176 226 278 335 408
#
# _framework density 22.279105000000001
#
# number of rings (size 3 to 8) (size 9 to 14) (size 15 to 20)
#    0.000    1.517    2.069    2.276    0.966    4.138 
#    0.000    1.379    0.000    0.000    0.000    0.000 
#    0.000    0.000    0.000    0.000    0.000    0.000 
#
# Total GULP energy -161749.705032 kJ/mol
# GULP energy per Si atom -5577.576036 kJ/mol
# Density = 2.222840 g / cm^3
# Si number density = 22.279105 Si / 1000 Ang^3
#
#
#
# Elastic Constant Matrix: (Units=GPa)
#
#
# Indices 1 2 3 4 5 6 
#
# 1 117.8366 12.9203 21.5197 0.0000 23.9354 0.0000
# 2 12.9203 93.9479 12.3264 0.0000 -8.4622 0.0000
# 3 21.5197 12.3264 58.7999 0.0000 28.5779 0.0000
# 4 0.0000 0.0000 0.0000 20.8323 0.0000 13.6110
# 5 23.9354 -8.4622 28.5779 0.0000 38.4963 0.0000
# 6 0.0000 0.0000 0.0000 13.6110 0.0000 60.5514
#
#
#
# Elastic Compliance Matrix: (Units=1/GPa)
#
#
# Indices 1 2 3 4 5 6 
#
# 1 0.010064 -0.001982 -0.000023 0.000000 -0.006676 0.000000
# 2 -0.001982 0.012457 -0.005970 0.000000 0.008402 0.000000
# 3 -0.000023 -0.005970 0.029564 0.000000 -0.023245 0.000000
# 4 0.000000 0.000000 0.000000 0.056266 0.000000 -0.012648
# 5 -0.006676 0.008402 -0.023245 0.000000 0.049231 0.000000
# 6 0.000000 0.000000 0.000000 -0.012648 0.000000 0.019358
#
#
# Mechanical properties :
#
#
# Convention : Reuss Voigt Hill
#
# Bulk Modulus (GPa) = 27.67382 40.45747 34.06565
# Shear Modulus (GPa) = 24.39808 38.89720 31.64764
#
# Velocity S-wave (km/s) = 3.31284 4.18294 3.77305
# Velocity P-wave (km/s) = 5.20399 6.44423 5.85703
#
# Compressibility (1/GPa) = 0.03613524
#
# Stress axis : x y z
#
# Youngs Moduli (GPa) = 99.36462 80.27679 33.82466
#
# Poissons Ratio (x) = 0.15914 0.00078
# Poissons Ratio (y) = 0.19698 0.20192
# Poissons Ratio (z) = 0.00228 0.47922
#
# Static dielectric constant tensor:
#      x y z
#    x 1.800450 0.000000 0.014610 
#    y 0.000000 1.852360 0.000000 
#    z 0.014610 0.000000 1.880250 
# 
# From -- ./inp_files/282222.got.cif
#   From: 2010.05.17/outbox.cif.g08.bks.cpg/sg12_142_cif.got.tgz:282222.got - 2010.06.03 13:09:07.
