data_PCOD9184046
_publ_section_title
;
Structure prediction by ZEFSAII (Michael W. Deem and Ramdas Pophale) SiO2 
 PCOD9184046
Probable space group: C 2/M
;
_chemical_formula_sum "Si O2"
_cell_formula_units_Z 50
_cell_length_a 5.100960
_cell_length_b 32.181440
_cell_length_c 14.605723
_cell_angle_alpha 90.000000
_cell_angle_beta 120.721472
_cell_angle_gamma 90.000000
_cell_volume 2061.140590
_symmetry_space_group_name_H-M "C 2/M"
_symmetry_group_IT_number 12
_symmetry_cell_setting 'monoclinic'
loop_
_space_group_symop_operation_xyz
x,y,z
-x,y,-z
-x,-y,-z
x,-y,z
1/2+x,1/2+y,z
1/2-x,1/2+y,-z
1/2-x,1/2-y,-z
1/2+x,1/2-y,z
loop_
_atom_site_type_symbol
_atom_site_label
_atom_site_fract_x
_atom_site_fract_y
_atom_site_fract_z
Si Si1 0.642859 0.926415 0.894119
Si Si2 0.805007 0.453173 0.652823
Si Si3 0.747394 0.901726 0.613120
Si Si4 0.000000 0.500000 0.000000
Si Si5 0.738653 0.225409 0.610907
Si Si6 0.585577 0.371428 0.853196
Si Si7 0.001691 0.778600 0.855539
O O1 0.459746 0.949438 0.779652
O O2 0.413251 0.890217 0.887054
O O3 0.918068 0.902290 0.893681
O O4 0.674930 0.962953 0.973113
O O5 0.701731 0.500000 0.619560
O O6 0.529130 0.420690 0.607803
O O7 0.061421 0.439311 0.627190
O O8 0.500000 0.882559 0.500000
O O9 0.887022 0.875446 0.722649
O O10 0.500000 0.204073 0.500000
O O11 0.542081 0.266235 0.606733
O O12 0.834253 0.211783 0.728496
O O13 0.604216 0.325074 0.898137
O O14 0.766125 0.754610 0.878970
#
# Coordination Sequence:
#
# PCOD9184046 Si02
#       7
#     8   8   8   2   8   8   8
#     4  10  23  39  63  92 122 154 184 242 309 360
#     4  10  19  35  52  78 114 147 194 251 292 338
#     4  10  21  33  51  75 111 165 206 239 292 345
#     4  12  24  46  76 102 118 154 196 226 292 402
#     4   8  14  24  39  66 101 136 187 250 290 316
#     4  10  22  40  56  87 132 156 193 259 302 329
#     4  10  19  33  57  82 108 156 208 238 285 354
#
# _framework density 24.258413000000001
#
# number of rings (size 3 to 8) (size 9 to 14) (size 15 to 20)
#    0.000    2.240    0.800    1.920    0.000    4.480 
#    0.000    0.000    0.000   11.520    0.000   11.200 
#    0.000    0.000    0.000    0.000    0.000    0.000 
#
# Total GULP energy -139320.923233 kJ/mol
# GULP energy per Si atom -5572.836929 kJ/mol
# Density = 2.420320 g / cm^3
# Si number density = 24.258413 Si / 1000 Ang^3
#
#
#
# Elastic Constant Matrix: (Units=GPa)
#
#
# Indices 1 2 3 4 5 6 
#
# 1 134.7293 35.0967 -3.3791 0.0000 2.4906 0.0000
# 2 35.0967 167.6410 5.4572 0.0000 10.5870 0.0000
# 3 -3.3791 5.4572 76.1049 0.0000 3.1661 0.0000
# 4 0.0000 0.0000 0.0000 27.5951 0.0000 56.6587
# 5 2.4906 10.5870 3.1661 0.0000 23.5312 0.0000
# 6 0.0000 0.0000 0.0000 56.6587 0.0000 25.3604
#
#
#
# Elastic Compliance Matrix: (Units=1/GPa)
#
#
# Indices 1 2 3 4 5 6 
#
# 1 0.007868 -0.001653 0.000474 0.000000 -0.000153 0.000000
# 2 -0.001653 0.006495 -0.000427 0.000000 -0.002690 0.000000
# 3 0.000474 -0.000427 0.013260 0.000000 -0.001642 0.000000
# 4 0.000000 0.000000 0.000000 -0.010102 0.000000 0.022570
# 5 -0.000153 -0.002690 -0.001642 0.000000 0.043944 0.000000
# 6 0.000000 0.000000 0.000000 0.022570 0.000000 -0.010992
#
#
# Mechanical properties :
#
#
# Convention : Reuss Voigt Hill
#
# Bulk Modulus (GPa) = 40.96607 50.31387 45.63997
# Shear Modulus (GPa) = 80.87942 38.05071 59.46507
#
# Velocity S-wave (km/s) = 5.78041 3.96480 4.95645
# Velocity P-wave (km/s) = 7.84059 6.46106 7.18402
#
# Compressibility (1/GPa) = 0.02441045
#
# Stress axis : x y z
#
# Youngs Moduli (GPa) = 127.10376 153.96582 75.41614
#
# Poissons Ratio (x) = 0.25449 -0.03576
# Poissons Ratio (y) = 0.21009 0.03222
# Poissons Ratio (z) = -0.06027 0.06578
#
# Static dielectric constant tensor:
#      x y z
#    x 1.871390 0.000000 0.031660 
#    y 0.000000 1.794100 0.000000 
#    z 0.031660 0.000000 2.031180 
# 
# From -- ./inp_files/253675.got.cif
#   From: 2010.05.17/outbox.cif.g08.bks.cpg/sg12_127_cif.got.tgz:253675.got - 2010.06.03 13:09:07.
