data_PCOD9184643
_publ_section_title
;
Structure prediction by ZEFSAII (Michael W. Deem and Ramdas Pophale) SiO2 
 PCOD9184643
Probable space group: C 2/M
;
_chemical_formula_sum "Si O2"
_cell_formula_units_Z 48
_cell_length_a 17.333301
_cell_length_b 12.638966
_cell_length_c 29.297595
_cell_angle_alpha 90.000000
_cell_angle_beta 155.454516
_cell_angle_gamma 90.000000
_cell_volume 2666.290542
_symmetry_space_group_name_H-M "C 2/M"
_symmetry_group_IT_number 12
_symmetry_cell_setting 'monoclinic'
loop_
_space_group_symop_operation_xyz
x,y,z
-x,y,-z
-x,-y,-z
x,-y,z
1/2+x,1/2+y,z
1/2-x,1/2+y,-z
1/2-x,1/2-y,-z
1/2+x,1/2-y,z
loop_
_atom_site_type_symbol
_atom_site_label
_atom_site_fract_x
_atom_site_fract_y
_atom_site_fract_z
Si Si1 0.963090 0.723884 0.866450
Si Si2 0.846758 0.875365 0.104523
Si Si3 0.929679 0.123515 0.334332
Si Si4 0.663789 0.376798 0.551299
Si Si5 0.335537 0.616065 0.875539
Si Si6 0.983124 0.236649 0.266712
O O1 0.774056 0.658778 0.757417
O O2 0.906563 0.807502 0.874576
O O3 0.034821 0.793612 0.862707
O O4 0.132824 0.652432 0.976619
O O5 0.901090 0.845117 0.185563
O O6 0.881129 0.000000 0.114254
O O7 0.986213 0.185294 0.318817
O O8 0.075306 0.138535 0.453551
O O9 0.921283 0.000000 0.318607
O O10 0.500000 0.364377 0.500000
O O11 0.729718 0.500000 0.590164
O O12 0.823506 0.289934 0.643541
O O13 0.289970 0.500000 0.832795
O O14 0.161455 0.667261 0.806842
O O15 0.500000 0.608605 0.000000
#
# Coordination Sequence:
#
# PCOD9184643 Si02
#       6
#     8   8   8   8   8   8
#     4  10  21  37  55  81 111 151 185 227 279 329
#     4  11  22  36  55  82 115 148 186 228 279 337
#     4  10  21  37  59  83 112 147 187 231 279 332
#     4  10  21  38  59  84 111 146 191 235 276 325
#     4  10  19  34  53  79 111 145 186 227 269 323
#     4  11  21  36  57  84 114 149 184 230 283 332
#
# _framework density 18.002538999999999
#
# number of rings (size 3 to 8) (size 9 to 14) (size 15 to 20)
#    0.000    1.667    1.667    3.500    0.000    0.000 
#    0.000    4.167    0.000   12.000    0.000    0.000 
#    0.000    0.000    0.000    0.000    0.000    0.000 
#
# Total GULP energy -133898.939293 kJ/mol
# GULP energy per Si atom -5579.122471 kJ/mol
# Density = 1.796156 g / cm^3
# Si number density = 18.002539 Si / 1000 Ang^3
#
#
#
# Elastic Constant Matrix: (Units=GPa)
#
#
# Indices 1 2 3 4 5 6 
#
# 1 58.0057 11.6103 14.4411 -0.0001 1.5877 0.0000
# 2 11.6103 87.3529 35.6830 0.0005 2.8870 0.0002
# 3 14.4411 35.6830 47.2513 0.0033 4.5942 -0.0003
# 4 -0.0001 0.0005 0.0033 18.1181 0.0000 9.2287
# 5 1.5877 2.8870 4.5942 0.0000 26.7591 0.0001
# 6 0.0000 0.0002 -0.0003 9.2287 0.0001 7.2455
#
#
#
# Elastic Compliance Matrix: (Units=1/GPa)
#
#
# Indices 1 2 3 4 5 6 
#
# 1 0.018663 -0.000219 -0.005525 0.000003 -0.000135 -0.000005
# 2 -0.000219 0.016561 -0.012475 0.000007 0.000368 -0.000009
# 3 -0.005525 -0.012475 0.032655 -0.000019 -0.003933 0.000026
# 4 0.000003 0.000007 -0.000019 0.157148 0.000003 -0.200162
# 5 -0.000135 0.000368 -0.003933 0.000003 0.038014 -0.000005
# 6 -0.000005 -0.000009 0.000026 -0.200162 -0.000005 0.392967
#
#
# Mechanical properties :
#
#
# Convention : Reuss Voigt Hill
#
# Bulk Modulus (GPa) = 31.80648 35.11985 33.46316
# Shear Modulus (GPa) = 7.11312 19.14958 13.13135
#
# Velocity S-wave (km/s) = 1.98991 3.26500 2.70370
# Velocity P-wave (km/s) = 4.79435 5.81070 5.32682
#
# Compressibility (1/GPa) = 0.03144014
#
# Stress axis : x y z
#
# Youngs Moduli (GPa) = 53.58258 60.38365 30.62280
#
# Poissons Ratio (x) = 0.01323 0.16920
# Poissons Ratio (y) = 0.01174 0.38202
# Poissons Ratio (z) = 0.29606 0.75330
#
# Static dielectric constant tensor:
#      x y z
#    x 1.629760 0.000000 -0.025480 
#    y 0.000000 1.606310 0.000000 
#    z -0.025480 0.000000 1.647940 
# 
# From -- ./inp_files/143551.got.cif
#   From: 2010.05.17/outbox.cif.g08.bks.cpg/sg12_72_cif.got.tgz:143551.got - 2010.06.03 13:09:07.
