data_PCOD9184562
_publ_section_title
;
Structure prediction by ZEFSAII (Michael W. Deem and Ramdas Pophale) SiO2 
 PCOD9184562
Probable space group: C 2/M
;
_chemical_formula_sum "Si O2"
_cell_formula_units_Z 60
_cell_length_a 14.342714
_cell_length_b 9.768134
_cell_length_c 19.205929
_cell_angle_alpha 90.000000
_cell_angle_beta 95.538308
_cell_angle_gamma 90.000000
_cell_volume 2678.219616
_symmetry_space_group_name_H-M "C 2/M"
_symmetry_group_IT_number 12
_symmetry_cell_setting 'monoclinic'
loop_
_space_group_symop_operation_xyz
x,y,z
-x,y,-z
-x,-y,-z
x,-y,z
1/2+x,1/2+y,z
1/2-x,1/2+y,-z
1/2-x,1/2-y,-z
1/2+x,1/2-y,z
loop_
_atom_site_type_symbol
_atom_site_label
_atom_site_fract_x
_atom_site_fract_y
_atom_site_fract_z
Si Si1 0.535921 0.156560 0.707103
Si Si2 0.078493 0.845245 0.830076
Si Si3 0.783346 0.500000 0.500918
Si Si4 0.868140 0.151930 0.862052
Si Si5 0.982448 0.157738 0.579043
Si Si6 0.816496 0.657440 0.742020
Si Si7 0.657974 0.662386 0.984372
Si Si8 0.268111 0.267810 0.596050
O O1 0.593241 0.239033 0.769447
O O2 0.533050 0.241995 0.635826
O O3 0.426088 0.153593 0.724568
O O4 0.565732 0.000000 0.701202
O O5 0.112021 0.796764 0.908274
O O6 0.966458 0.857082 0.829844
O O7 0.112921 0.000000 0.819058
O O8 0.799309 0.378445 0.443253
O O9 0.763394 0.621335 0.557916
O O10 0.812167 0.268196 0.816640
O O11 0.823195 0.000000 0.856124
O O12 0.891977 0.181264 0.944567
O O13 0.871370 0.169343 0.585772
O O14 0.000000 0.192741 0.500000
O O15 0.011443 0.000000 0.591946
O O16 0.786310 0.500000 0.742498
O O17 0.764645 0.742416 0.678012
O O18 0.675407 0.500000 0.979813
O O19 0.750000 0.750000 0.000000
#
# Coordination Sequence:
#
# PCOD9184562 Si02
#       8
#     8   8   4   8   8   8   8   8
#     4   9  18  31  51  80 105 133 167 218 270 305
#     4   9  17  33  58  80 104 133 174 220 260 305
#     4  10  20  32  54  72 108 136 180 216 260 316
#     4   9  18  32  55  82 103 129 177 220 256 302
#     4  10  20  34  54  76 105 137 176 218 263 317
#     4   9  17  30  50  76 106 129 167 219 264 307
#     4  10  21  36  55  78 109 144 173 207 257 315
#     4  10  19  34  52  78 101 141 176 218 265 312
#
# _framework density 22.402943
#
# number of rings (size 3 to 8) (size 9 to 14) (size 15 to 20)
#    0.000    2.533    1.333    0.800    1.867    4.533 
#    0.000    0.000    5.867    4.000    0.000    0.000 
#    0.000    0.000    0.000    0.000    0.000    0.000 
#
# Total GULP energy -167058.756346 kJ/mol
# GULP energy per Si atom -5568.625212 kJ/mol
# Density = 2.235195 g / cm^3
# Si number density = 22.402943 Si / 1000 Ang^3
#
#
#
# Elastic Constant Matrix: (Units=GPa)
#
#
# Indices 1 2 3 4 5 6 
#
# 1 36.4982 0.6269 8.5168 0.0000 -12.4253 0.0000
# 2 0.6269 145.5059 123.0706 0.0000 8.0471 0.0000
# 3 8.5168 123.0706 179.4366 0.0000 -3.2924 0.0000
# 4 0.0000 0.0000 0.0000 42.8698 0.0000 5.7828
# 5 -12.4253 8.0471 -3.2924 0.0000 24.7149 0.0000
# 6 0.0000 0.0000 0.0000 5.7828 0.0000 6.9242
#
#
#
# Elastic Compliance Matrix: (Units=1/GPa)
#
#
# Indices 1 2 3 4 5 6 
#
# 1 0.033346 0.000051 -0.001313 0.000000 0.016573 0.000000
# 2 0.000051 0.017609 -0.012215 0.000000 -0.007335 0.000000
# 3 -0.001313 -0.012215 0.014109 0.000000 0.005196 0.000000
# 4 0.000000 0.000000 0.000000 0.026288 0.000000 -0.021954
# 5 0.016573 -0.007335 0.005196 0.000000 0.051874 0.000000
# 6 0.000000 0.000000 0.000000 -0.021954 0.000000 0.162756
#
#
# Mechanical properties :
#
#
# Convention : Reuss Voigt Hill
#
# Bulk Modulus (GPa) = 26.24043 69.54105 47.89074
# Shear Modulus (GPa) = 14.46590 30.18355 22.32472
#
# Velocity S-wave (km/s) = 2.54385 3.67454 3.16018
# Velocity P-wave (km/s) = 4.51293 7.00796 5.89398
#
# Compressibility (1/GPa) = 0.03810914
#
# Stress axis : x y z
#
# Youngs Moduli (GPa) = 29.98828 56.78758 70.87924
#
# Poissons Ratio (x) = -0.00287 0.09309
# Poissons Ratio (y) = -0.00152 0.86578
# Poissons Ratio (z) = 0.03939 0.69365
#
# Static dielectric constant tensor:
#      x y z
#    x 1.913720 0.000000 -0.021160 
#    y 0.000000 1.773320 0.000000 
#    z -0.021160 0.000000 1.839930 
# 
# From -- ./inp_files/281429.got.cif
#   From: 2010.05.17/outbox.cif.g08.bks.cpg/sg12_141_cif.got.tgz:281429.got - 2010.06.03 13:09:07.
