data_PCOD9184207
_publ_section_title
;
Structure prediction by ZEFSAII (Michael W. Deem and Ramdas Pophale) SiO2 
 PCOD9184207
Probable space group: C 2/M
;
_chemical_formula_sum "Si O2"
_cell_formula_units_Z 50
_cell_length_a 32.386169
_cell_length_b 8.083607
_cell_length_c 31.462554
_cell_angle_alpha 90.000000
_cell_angle_beta 163.248484
_cell_angle_gamma 90.000000
_cell_volume 2374.024927
_symmetry_space_group_name_H-M "C 2/M"
_symmetry_group_IT_number 12
_symmetry_cell_setting 'monoclinic'
loop_
_space_group_symop_operation_xyz
x,y,z
-x,y,-z
-x,-y,-z
x,-y,z
1/2+x,1/2+y,z
1/2-x,1/2+y,-z
1/2-x,1/2-y,-z
1/2+x,1/2-y,z
loop_
_atom_site_type_symbol
_atom_site_label
_atom_site_fract_x
_atom_site_fract_y
_atom_site_fract_z
Si Si1 0.386903 0.313638 0.431923
Si Si2 0.851102 0.187885 0.636008
Si Si3 0.686827 0.194113 0.314648
Si Si4 0.168226 0.199024 0.962407
Si Si5 0.000000 0.500000 0.500000
Si Si6 0.362156 0.802717 0.974167
Si Si7 0.666825 0.310911 0.149298
O O1 0.451348 0.500000 0.495986
O O2 0.301523 0.289797 0.391146
O O3 0.264153 0.304935 0.274335
O O4 0.482769 0.152455 0.518548
O O5 0.750000 0.250000 0.500000
O O6 0.774012 0.206921 0.604948
O O7 0.006779 0.268159 0.795922
O O8 0.882847 0.000000 0.657267
O O9 0.529460 0.248972 0.144050
O O10 0.675523 0.000000 0.314639
O O11 0.210313 0.258980 0.051709
O O12 0.170386 0.000000 0.967184
O O13 0.250000 0.250000 0.000000
O O14 0.355181 0.000000 0.961846
O O15 0.316454 0.723542 0.884255
O O16 0.718871 0.500000 0.210106
O O17 0.500000 0.298403 0.000000
#
# Coordination Sequence:
#
# PCOD9184207 Si02
#       7
#     8   8   8   8   2   8   8
#     4  11  23  41  64  88 120 165 208 257 306 366
#     4  10  21  36  60  89 119 150 198 255 305 360
#     4   9  19  35  59  88 117 151 198 248 305 363
#     4  10  21  38  59  86 119 159 198 243 306 375
#     4  12  26  44  58  82 120 168 222 246 304 370
#     4  10  19  33  57  90 123 154 191 244 305 371
#     4  11  21  34  59  94 127 153 194 255 311 363
#
# _framework density 21.061277
#
# number of rings (size 3 to 8) (size 9 to 14) (size 15 to 20)
#    0.000    1.760    2.400    2.160    1.120    3.200 
#    0.000    1.600    0.000    3.840    0.000    0.000 
#    0.000    0.000    0.000    0.000    0.000    0.000 
#
# Total GULP energy -139232.927243 kJ/mol
# GULP energy per Si atom -5569.317090 kJ/mol
# Density = 2.101334 g / cm^3
# Si number density = 21.061277 Si / 1000 Ang^3
#
#
#
# Elastic Constant Matrix: (Units=GPa)
#
#
# Indices 1 2 3 4 5 6 
#
# 1 141.8597 23.9771 26.2002 -0.0089 1.3421 -0.0022
# 2 23.9771 97.0719 13.2743 -0.0108 0.2956 -0.0034
# 3 26.2002 13.2743 23.0286 -0.0111 -9.6132 -0.0033
# 4 -0.0089 -0.0108 -0.0111 25.1020 -0.0012 -0.1277
# 5 1.3421 0.2956 -9.6132 -0.0012 38.1037 0.0010
# 6 -0.0022 -0.0034 -0.0033 -0.1277 0.0010 39.8990
#
#
#
# Elastic Compliance Matrix: (Units=1/GPa)
#
#
# Indices 1 2 3 4 5 6 
#
# 1 0.009336 -0.000715 -0.011563 -0.000002 -0.003240 0.000000
# 2 -0.000715 0.011364 -0.006442 0.000002 -0.001688 0.000000
# 3 -0.011563 -0.006442 0.067603 0.000024 0.017513 0.000004
# 4 -0.000002 0.000002 0.000024 0.039838 0.000007 0.000127
# 5 -0.003240 -0.001688 0.017513 0.000007 0.030790 0.000000
# 6 0.000000 0.000000 0.000004 0.000127 0.000000 0.025064
#
#
# Mechanical properties :
#
#
# Convention : Reuss Voigt Hill
#
# Bulk Modulus (GPa) = 19.65995 43.20706 31.43350
# Shear Modulus (GPa) = 20.97405 33.85483 27.41444
#
# Velocity S-wave (km/s) = 3.15915 4.01364 3.61175
# Velocity P-wave (km/s) = 4.76045 6.48372 5.68772
#
# Compressibility (1/GPa) = 0.05086484
#
# Stress axis : x y z
#
# Youngs Moduli (GPa) = 107.10936 87.99474 14.79215
#
# Poissons Ratio (x) = 0.06292 0.17104
# Poissons Ratio (y) = 0.07659 0.09529
# Poissons Ratio (z) = 1.23847 0.56685
#
# Static dielectric constant tensor:
#      x y z
#    x 1.800880 0.000000 0.119800 
#    y 0.000000 1.762120 -0.000010 
#    z 0.119800 -0.000010 2.157560 
# 
# From -- ./inp_files/384877.got.cif
#   From: 2010.05.17/outbox.cif.g08.bks.cpg/sg12_193_cif.got.tgz:384877.got - 2010.06.03 13:09:07.
