data_PCOD9184184
_publ_section_title
;
Structure prediction by ZEFSAII (Michael W. Deem and Ramdas Pophale) SiO2 
 PCOD9184184
Probable space group: C 2/M
;
_chemical_formula_sum "Si O2"
_cell_formula_units_Z 64
_cell_length_a 20.834708
_cell_length_b 8.828223
_cell_length_c 32.822620
_cell_angle_alpha 90.000000
_cell_angle_beta 143.308489
_cell_angle_gamma 90.000000
_cell_volume 3607.251992
_symmetry_space_group_name_H-M "C 2/M"
_symmetry_group_IT_number 12
_symmetry_cell_setting 'monoclinic'
loop_
_space_group_symop_operation_xyz
x,y,z
-x,y,-z
-x,-y,-z
x,-y,z
1/2+x,1/2+y,z
1/2-x,1/2+y,-z
1/2-x,1/2-y,-z
1/2+x,1/2-y,z
loop_
_atom_site_type_symbol
_atom_site_label
_atom_site_fract_x
_atom_site_fract_y
_atom_site_fract_z
Si Si1 0.139345 0.819562 0.215401
Si Si2 0.890314 0.319704 0.710616
Si Si3 0.627467 0.819130 0.795699
Si Si4 0.920880 0.319421 0.081358
Si Si5 0.912812 0.181208 0.570026
Si Si6 0.228419 0.819343 0.924318
Si Si7 0.649424 0.318141 0.717300
Si Si8 0.233787 0.819897 0.425918
O O1 0.124471 0.763456 0.254153
O O2 0.249080 0.753497 0.253362
O O3 0.037319 0.754582 0.138850
O O4 0.139609 0.000000 0.213895
O O5 0.883328 0.500000 0.713357
O O6 0.803485 0.264703 0.633534
O O7 0.007858 0.285342 0.751816
O O8 0.709208 0.755513 0.870986
O O9 0.643148 0.741598 0.760229
O O10 0.637785 0.000000 0.797138
O O11 0.930475 0.500000 0.091924
O O12 0.857676 0.250592 0.087917
O O13 0.844649 0.290763 0.003692
O O14 0.852034 0.215886 0.581739
O O15 0.847574 0.265385 0.501555
O O16 0.037046 0.222717 0.638126
O O17 0.904173 0.000000 0.559465
O O18 0.212308 0.000000 0.913795
O O19 0.657718 0.500000 0.721649
O O20 0.232897 0.000000 0.419022
#
# Coordination Sequence:
#
# PCOD9184184 Si02
#       8
#     8   8   8   8   8   8   8   8
#     4  12  25  40  60  86 119 156 197 241 293 351
#     4  11  22  37  59  87 119 154 195 242 289 341
#     4  11  22  36  59  89 120 152 195 244 289 343
#     4  10  20  36  57  85 118 154 194 237 292 347
#     4   9  19  35  56  84 116 153 190 232 290 348
#     4  10  20  34  58  88 118 151 192 243 291 341
#     4  11  23  41  62  84 119 158 196 239 292 354
#     4  10  19  33  57  88 118 149 190 241 289 339
#
# _framework density 17.742038000000001
#
# number of rings (size 3 to 8) (size 9 to 14) (size 15 to 20)
#    0.000    1.500    2.500    3.375    0.000    4.000 
#    0.000    1.250    0.000    7.500    0.000    0.000 
#    0.000    0.000    0.000    0.000    0.000    0.000 
#
# Total GULP energy -178817.095675 kJ/mol
# GULP energy per Si atom -5588.034240 kJ/mol
# Density = 1.770166 g / cm^3
# Si number density = 17.742038 Si / 1000 Ang^3
#
#
#
# Elastic Constant Matrix: (Units=GPa)
#
#
# Indices 1 2 3 4 5 6 
#
# 1 79.9456 52.3230 57.8813 0.0000 15.0393 0.0001
# 2 52.3230 82.1563 66.0211 -0.0001 8.9331 0.0001
# 3 57.8813 66.0211 141.3093 0.0000 11.8585 0.0000
# 4 0.0000 -0.0001 0.0000 32.0768 0.0000 -2.9788
# 5 15.0393 8.9331 11.8585 0.0000 26.7694 0.0000
# 6 0.0001 0.0001 0.0000 -2.9788 0.0000 30.3901
#
#
#
# Elastic Compliance Matrix: (Units=1/GPa)
#
#
# Indices 1 2 3 4 5 6 
#
# 1 0.024422 -0.011495 -0.003950 0.000000 -0.008135 0.000000
# 2 -0.011495 0.025070 -0.007109 0.000000 0.001241 0.000000
# 3 -0.003950 -0.007109 0.012080 0.000000 -0.000760 0.000000
# 4 0.000000 0.000000 0.000000 0.031462 0.000000 0.003084
# 5 -0.008135 0.001241 -0.000760 0.000000 0.041849 0.000000
# 6 0.000000 0.000000 0.000000 0.003084 0.000000 0.033208
#
#
# Mechanical properties :
#
#
# Convention : Reuss Voigt Hill
#
# Bulk Modulus (GPa) = 60.73736 72.87359 66.80547
# Shear Modulus (GPa) = 22.86382 26.32630 24.59506
#
# Velocity S-wave (km/s) = 3.59371 3.85624 3.72729
# Velocity P-wave (km/s) = 7.17827 7.80965 7.50061
#
# Compressibility (1/GPa) = 0.01646433
#
# Stress axis : x y z
#
# Youngs Moduli (GPa) = 40.94688 39.88769 82.78211
#
# Poissons Ratio (x) = 0.45849 0.32702
# Poissons Ratio (y) = 0.47067 0.58850
# Poissons Ratio (z) = 0.16175 0.28356
#
# Static dielectric constant tensor:
#      x y z
#    x 1.572120 0.000000 0.004740 
#    y 0.000000 1.587750 0.000000 
#    z 0.004740 0.000000 1.607570 
# 
# From -- ./inp_files/378269.got.cif
#   From: 2010.05.17/outbox.cif.g08.bks.cpg/sg12_190_cif.got.tgz:378269.got - 2010.06.03 13:09:07.
