data_PCOD9184538
_publ_section_title
;
Structure prediction by ZEFSAII (Michael W. Deem and Ramdas Pophale) SiO2 
 PCOD9184538
Probable space group: C 2/M
;
_chemical_formula_sum "Si O2"
_cell_formula_units_Z 64
_cell_length_a 17.806056
_cell_length_b 11.762915
_cell_length_c 32.989476
_cell_angle_alpha 90.000000
_cell_angle_beta 31.324210
_cell_angle_gamma 90.000000
_cell_volume 3592.206670
_symmetry_space_group_name_H-M "C 2/M"
_symmetry_group_IT_number 12
_symmetry_cell_setting 'monoclinic'
loop_
_space_group_symop_operation_xyz
x,y,z
-x,y,-z
-x,-y,-z
x,-y,z
1/2+x,1/2+y,z
1/2-x,1/2+y,-z
1/2-x,1/2-y,-z
1/2+x,1/2-y,z
loop_
_atom_site_type_symbol
_atom_site_label
_atom_site_fract_x
_atom_site_fract_y
_atom_site_fract_z
Si Si1 0.836732 0.125980 0.247336
Si Si2 0.397794 0.286351 0.675122
Si Si3 0.945756 0.222023 0.789564
Si Si4 0.518085 0.717909 0.090392
Si Si5 0.314265 0.131953 0.922067
Si Si6 0.219176 0.626454 0.831792
Si Si7 0.310291 0.630558 0.491292
Si Si8 0.932866 0.368953 0.338271
O O1 0.713371 0.220962 0.302412
O O2 0.944988 0.146668 0.234533
O O3 0.928433 0.142246 0.163624
O O4 0.774426 0.000000 0.277591
O O5 0.306604 0.360991 0.749069
O O6 0.519419 0.354458 0.594560
O O7 0.476051 0.192073 0.667809
O O8 0.861249 0.300145 0.860562
O O9 0.831895 0.151385 0.815566
O O10 0.033894 0.299851 0.717454
O O11 0.595300 0.814287 0.082413
O O12 0.405615 0.779361 0.112653
O O13 0.645916 0.651753 0.009414
O O14 0.346787 0.000000 0.902914
O O15 0.159118 0.500000 0.863114
O O16 0.272310 0.500000 0.493365
O O17 0.250000 0.750000 0.500000
O O18 0.233975 0.633621 0.570356
O O19 0.977471 0.500000 0.313654
#
# Coordination Sequence:
#
# PCOD9184538 Si02
#       8
#     8   8   8   8   8   8   8   8
#     4  10  19  34  53  74 103 135 171 214 259 305
#     4   9  18  31  53  79 100 131 175 213 252 303
#     4  10  21  33  50  76 102 134 170 203 254 313
#     4   9  20  34  53  78  96 126 172 209 251 304
#     4  10  19  35  54  73 101 130 163 208 253 300
#     4  10  19  34  52  73 103 132 164 208 254 301
#     4   9  17  31  53  81 109 137 174 219 264 310
#     4   9  17  32  52  75 104 134 167 209 256 305
#
# _framework density 17.816347
#
# number of rings (size 3 to 8) (size 9 to 14) (size 15 to 20)
#    0.000    2.500    0.000    2.250    0.000    1.000 
#    0.000    8.125    0.000    2.250    0.000    0.000 
#    0.000    0.000    0.000    0.000    0.000    0.000 
#
# Total GULP energy -178241.248019 kJ/mol
# GULP energy per Si atom -5570.039001 kJ/mol
# Density = 1.777580 g / cm^3
# Si number density = 17.816347 Si / 1000 Ang^3
#
#
#
# Elastic Constant Matrix: (Units=GPa)
#
#
# Indices 1 2 3 4 5 6 
#
# 1 72.2627 14.4064 0.9143 0.0000 -0.4421 -0.0001
# 2 14.4064 82.9591 -1.5439 0.0000 2.9618 -0.0001
# 3 0.9143 -1.5439 53.3618 -0.0001 -2.3298 0.0000
# 4 0.0000 0.0000 -0.0001 14.1012 0.0000 -1.8534
# 5 -0.4421 2.9618 -2.3298 0.0000 17.6895 0.0000
# 6 -0.0001 -0.0001 0.0000 -1.8534 0.0000 3.3121
#
#
#
# Elastic Compliance Matrix: (Units=1/GPa)
#
#
# Indices 1 2 3 4 5 6 
#
# 1 0.014350 -0.002524 -0.000286 0.000000 0.000743 0.000000
# 2 -0.002524 0.012574 0.000314 0.000000 -0.002127 0.000000
# 3 -0.000286 0.000314 0.018860 0.000000 0.002424 0.000000
# 4 0.000000 0.000000 0.000000 0.076546 0.000000 0.042833
# 5 0.000743 -0.002127 0.002424 0.000000 0.057225 0.000000
# 6 0.000000 0.000000 0.000000 0.042833 0.000000 0.325890
#
#
# Mechanical properties :
#
#
# Convention : Reuss Voigt Hill
#
# Bulk Modulus (GPa) = 24.51482 26.23747 25.37615
# Shear Modulus (GPa) = 9.54139 20.00769 14.77454
#
# Velocity S-wave (km/s) = 2.31669 3.35475 2.88283
# Velocity P-wave (km/s) = 4.57664 5.45567 5.03538
#
# Compressibility (1/GPa) = 0.04079165
#
# Stress axis : x y z
#
# Youngs Moduli (GPa) = 69.68773 79.52796 53.02275
#
# Poissons Ratio (x) = 0.20071 0.01519
# Poissons Ratio (y) = 0.17588 -0.01666
# Poissons Ratio (z) = 0.01996 -0.02499
#
# Static dielectric constant tensor:
#      x y z
#    x 1.589690 0.000000 -0.018050 
#    y 0.000000 1.618670 0.000000 
#    z -0.018050 0.000000 1.610900 
# 
# From -- ./inp_files/379091.got.cif
#   From: 2010.05.17/outbox.cif.g08.bks.cpg/sg12_190_cif.got.tgz:379091.got - 2010.06.03 13:09:07.
