data_PCOD9184635
_publ_section_title
;
Structure prediction by ZEFSAII (Michael W. Deem and Ramdas Pophale) SiO2 
 PCOD9184635
Probable space group: C 2/M
;
_chemical_formula_sum "Si O2"
_cell_formula_units_Z 60
_cell_length_a 22.947956
_cell_length_b 16.157162
_cell_length_c 20.452597
_cell_angle_alpha 90.000000
_cell_angle_beta 20.260416
_cell_angle_gamma 90.000000
_cell_volume 2625.998659
_symmetry_space_group_name_H-M "C 2/M"
_symmetry_group_IT_number 12
_symmetry_cell_setting 'monoclinic'
loop_
_space_group_symop_operation_xyz
x,y,z
-x,y,-z
-x,-y,-z
x,-y,z
1/2+x,1/2+y,z
1/2-x,1/2+y,-z
1/2-x,1/2-y,-z
1/2+x,1/2-y,z
loop_
_atom_site_type_symbol
_atom_site_label
_atom_site_fract_x
_atom_site_fract_y
_atom_site_fract_z
Si Si1 0.237101 0.910733 0.345369
Si Si2 0.531380 0.412506 0.889530
Si Si3 0.507102 0.906163 0.801534
Si Si4 0.511695 0.769918 0.285448
Si Si5 0.889876 0.907245 0.787606
Si Si6 0.682495 0.911779 0.182146
Si Si7 0.000000 0.635252 0.500000
Si Si8 0.745278 0.236166 0.323741
O O1 0.362349 0.904520 0.275861
O O2 0.281932 0.827829 0.260235
O O3 0.040136 0.907339 0.575295
O O4 0.264532 0.000000 0.284431
O O5 0.623751 0.500000 0.775091
O O6 0.614273 0.323814 0.796351
O O7 0.500000 0.418123 0.000000
O O8 0.363973 0.410976 0.023640
O O9 0.547152 0.827579 0.712658
O O10 0.531616 0.000000 0.748138
O O11 0.305551 0.899870 0.029730
O O12 0.572476 0.675709 0.209713
O O13 0.647184 0.831158 0.176863
O O14 0.376958 0.758854 0.485070
O O15 0.907156 0.000000 0.799880
O O16 0.553310 0.911324 0.378942
O O17 0.661087 0.000000 0.169772
O O18 0.844084 0.690358 0.641933
#
# Coordination Sequence:
#
# PCOD9184635 Si02
#       8
#     8   8   8   8   8   8   4   8
#     4   9  20  39  60  81 107 144 188 229 274 325
#     4  10  20  35  53  78 108 146 180 216 272 330
#     4  10  20  36  57  80 110 147 184 226 276 323
#     4  10  21  35  54  82 110 143 184 226 271 317
#     4   9  19  36  55  78 108 145 187 227 270 324
#     4  10  20  33  52  78 111 143 178 220 270 328
#     4  10  19  34  53  78 106 144 179 214 277 330
#     4  10  21  35  56  80 107 141 181 226 270 326
#
# _framework density 22.84845
#
# number of rings (size 3 to 8) (size 9 to 14) (size 15 to 20)
#    0.000    2.267    1.333    1.000    1.867    4.800 
#    2.400    0.333    0.000    1.200    0.000    0.000 
#    0.000    0.000    0.000    0.000    0.000    0.000 
#
# Total GULP energy -167117.046092 kJ/mol
# GULP energy per Si atom -5570.568203 kJ/mol
# Density = 2.279645 g / cm^3
# Si number density = 22.848450 Si / 1000 Ang^3
#
#
#
# Elastic Constant Matrix: (Units=GPa)
#
#
# Indices 1 2 3 4 5 6 
#
# 1 21.9818 -8.8370 -9.0528 -0.0010 -10.8307 0.0031
# 2 -8.8370 207.6097 11.3855 0.0071 -6.1130 -0.0113
# 3 -9.0528 11.3855 33.9462 0.0008 0.5856 -0.0155
# 4 -0.0010 0.0071 0.0008 43.3369 -0.0022 2.7654
# 5 -10.8307 -6.1130 0.5856 -0.0022 20.4917 -0.0037
# 6 0.0031 -0.0113 -0.0155 2.7654 -0.0037 2.7955
#
#
#
# Elastic Compliance Matrix: (Units=1/GPa)
#
#
# Indices 1 2 3 4 5 6 
#
# 1 0.073557 0.003312 0.017826 -0.000003 0.039357 0.000084
# 2 0.003312 0.005103 -0.000885 -0.000002 0.003298 0.000018
# 3 0.017826 -0.000885 0.034368 -0.000012 0.008176 0.000189
# 4 -0.000003 -0.000002 -0.000012 0.024630 -0.000003 -0.024365
# 5 0.039357 0.003298 0.008176 -0.000003 0.070352 0.000111
# 6 0.000084 0.000018 0.000189 -0.024365 0.000111 0.381820
#
#
# Mechanical properties :
#
#
# Convention : Reuss Voigt Hill
#
# Bulk Modulus (GPa) = 6.51317 27.83656 17.17487
# Shear Modulus (GPa) = 8.32636 31.32761 19.82698
#
# Velocity S-wave (km/s) = 1.91104 3.70686 2.94897
# Velocity P-wave (km/s) = 2.77961 5.52546 4.37361
#
# Compressibility (1/GPa) = 0.15353504
#
# Stress axis : x y z
#
# Youngs Moduli (GPa) = 13.59494 195.94843 29.09663
#
# Poissons Ratio (x) = -0.64902 -0.51869
# Poissons Ratio (y) = -0.04503 0.02576
# Poissons Ratio (z) = -0.24235 0.17346
#
# Static dielectric constant tensor:
#      x y z
#    x 1.866670 -0.000040 0.001330 
#    y -0.000040 2.007110 0.000020 
#    z 0.001330 0.000020 1.912260 
# 
# From -- ./inp_files/352128.got.cif
#   From: 2010.05.17/outbox.cif.g08.bks.cpg/sg12_177_cif.got.tgz:352128.got - 2010.06.03 13:09:07.
