data_PCOD9184421
_publ_section_title
;
Structure prediction by ZEFSAII (Michael W. Deem and Ramdas Pophale) SiO2 
 PCOD9184421
Probable space group: C 2/M
;
_chemical_formula_sum "Si O2"
_cell_formula_units_Z 40
_cell_length_a 25.306705
_cell_length_b 20.100239
_cell_length_c 9.141839
_cell_angle_alpha 90.000000
_cell_angle_beta 19.520013
_cell_angle_gamma 90.000000
_cell_volume 1553.795243
_symmetry_space_group_name_H-M "C 2/M"
_symmetry_group_IT_number 12
_symmetry_cell_setting 'monoclinic'
loop_
_space_group_symop_operation_xyz
x,y,z
-x,y,-z
-x,-y,-z
x,-y,z
1/2+x,1/2+y,z
1/2-x,1/2+y,-z
1/2-x,1/2-y,-z
1/2+x,1/2-y,z
loop_
_atom_site_type_symbol
_atom_site_label
_atom_site_fract_x
_atom_site_fract_y
_atom_site_fract_z
Si Si1 0.396533 0.790480 0.050506
Si Si2 0.410833 0.569735 0.405852
Si Si3 0.680030 0.625636 0.071375
Si Si4 0.211246 0.209558 0.262106
Si Si5 0.285194 0.077095 0.486504
O O1 0.250000 0.750000 0.500000
O O2 0.363442 0.777091 0.964514
O O3 0.441765 0.756069 0.320619
O O4 0.378995 0.866944 0.149828
O O5 0.364716 0.500000 0.454706
O O6 0.340373 0.568980 0.753969
O O7 0.345512 0.638553 0.517956
O O8 0.400487 0.575666 0.074077
O O9 0.500000 0.641827 0.500000
O O10 0.738618 0.686019 0.021897
O O11 0.774017 0.603184 0.684050
O O12 0.340649 0.000000 0.332818
#
# Coordination Sequence:
#
# PCOD9184421 Si02
#       5
#     8   8   8   8   8
#     4  12  22  40  57  89 131 169 207 252 317 380
#     4   8  15  30  55  84 116 146 197 258 308 349
#     4   8  15  34  55  89 117 155 201 255 316 361
#     4  10  23  37  61  86 126 175 205 253 310 379
#     4  10  19  33  61  93 126 158 203 269 323 364
#
# _framework density 25.743418999999999
#
# number of rings (size 3 to 8) (size 9 to 14) (size 15 to 20)
#    1.200    1.200    2.000    1.200    0.000    3.200 
#    0.000    8.000    0.000    3.600    0.000    0.000 
#    0.000   15.200    0.000    0.000    0.000    0.000 
#
# Total GULP energy -111705.544943 kJ/mol
# GULP energy per Si atom -5585.277247 kJ/mol
# Density = 2.568483 g / cm^3
# Si number density = 25.743419 Si / 1000 Ang^3
#
#
#
# Elastic Constant Matrix: (Units=GPa)
#
#
# Indices 1 2 3 4 5 6 
#
# 1 112.0707 43.6165 56.3449 -0.0003 26.9189 0.0002
# 2 43.6165 193.6775 48.9886 -0.0016 -25.7553 0.0005
# 3 56.3449 48.9886 106.7461 -0.0026 15.6271 0.0013
# 4 -0.0003 -0.0016 -0.0026 -89.6372 0.0001 63.4416
# 5 26.9189 -25.7553 15.6271 0.0001 33.8834 -0.0003
# 6 0.0002 0.0005 0.0013 63.4416 -0.0003 -0.5454
#
#
#
# Elastic Compliance Matrix: (Units=1/GPa)
#
#
# Indices 1 2 3 4 5 6 
#
# 1 0.016345 -0.004444 -0.004496 0.000000 -0.014290 0.000000
# 2 -0.004444 0.008514 -0.003245 0.000000 0.011499 0.000000
# 3 -0.004496 -0.003245 0.014015 0.000000 -0.005358 0.000000
# 4 0.000000 0.000000 0.000000 0.000137 0.000000 0.015956
# 5 -0.014290 0.011499 -0.005358 0.000000 0.052077 0.000000
# 6 0.000000 0.000000 0.000000 0.015956 0.000000 0.022545
#
#
# Mechanical properties :
#
#
# Convention : Reuss Voigt Hill
#
# Bulk Modulus (GPa) = 68.94723 78.93272 73.93997
# Shear Modulus (GPa) = 35.00455 6.30977 20.65716
#
# Velocity S-wave (km/s) = 3.69148 1.56727 2.83578
# Velocity P-wave (km/s) = 6.70894 5.83121 6.28542
#
# Compressibility (1/GPa) = 0.01450385
#
# Stress axis : x y z
#
# Youngs Moduli (GPa) = 61.17896 117.45540 71.35256
#
# Poissons Ratio (x) = 0.52198 0.32082
# Poissons Ratio (y) = 0.27188 0.23153
# Poissons Ratio (z) = 0.27508 0.38113
#
# Static dielectric constant tensor:
#      x y z
#    x 2.054270 0.000000 0.132450 
#    y 0.000000 2.153930 0.000000 
#    z 0.132450 0.000000 2.036680 
# 
# From -- ./inp_files/103455.got.cif
#   From: 2010.05.17/outbox.cif.g08.bks.cpg/sg12_52_cif.got.tgz:103455.got - 2010.06.03 13:09:07.
