data_PCOD9184385
_publ_section_title
;
Structure prediction by ZEFSAII (Michael W. Deem and Ramdas Pophale) SiO2 
 PCOD9184385
Probable space group: C 2/M
;
_chemical_formula_sum "Si O2"
_cell_formula_units_Z 56
_cell_length_a 22.724918
_cell_length_b 20.673567
_cell_length_c 7.972339
_cell_angle_alpha 90.000000
_cell_angle_beta 137.716145
_cell_angle_gamma 90.000000
_cell_volume 2519.951074
_symmetry_space_group_name_H-M "C 2/M"
_symmetry_group_IT_number 12
_symmetry_cell_setting 'monoclinic'
loop_
_space_group_symop_operation_xyz
x,y,z
-x,y,-z
-x,-y,-z
x,-y,z
1/2+x,1/2+y,z
1/2-x,1/2+y,-z
1/2-x,1/2-y,-z
1/2+x,1/2-y,z
loop_
_atom_site_type_symbol
_atom_site_label
_atom_site_fract_x
_atom_site_fract_y
_atom_site_fract_z
Si Si1 0.778882 0.641396 0.527862
Si Si2 0.447507 0.170421 0.712231
Si Si3 0.627102 0.166513 0.914746
Si Si4 0.532961 0.687863 0.258371
Si Si5 0.238732 0.426325 0.955499
Si Si6 0.156139 0.932256 0.479601
Si Si7 0.842449 0.189210 0.992762
O O1 0.859682 0.630943 0.570207
O O2 0.821989 0.658953 0.798402
O O3 0.716056 0.582118 0.444405
O O4 0.712339 0.691376 0.297994
O O5 0.419947 0.244003 0.609706
O O6 0.500000 0.169911 0.000000
O O7 0.525063 0.157437 0.744745
O O8 0.653295 0.114290 0.830770
O O9 0.656247 0.239202 0.923385
O O10 0.594883 0.627351 0.390143
O O11 0.500000 0.693504 0.000000
O O12 0.445592 0.678315 0.181338
O O13 0.227799 0.500000 0.862291
O O14 0.283442 0.435995 0.230625
O O15 0.299846 0.373532 0.990320
O O16 0.107860 0.000000 0.355952
#
# Coordination Sequence:
#
# PCOD9184385 Si02
#       7
#     8   8   8   8   8   8   8
#     4  10  19  33  60  86 111 138 181 236 281 325
#     4   8  17  31  56  87 112 135 175 231 286 329
#     4   9  19  37  59  84 113 144 183 231 285 336
#     4  10  19  34  53  85 115 139 180 234 284 327
#     4  10  23  40  56  77 114 157 191 224 274 336
#     4  10  22  37  54  78 114 159 190 216 272 339
#     4  11  21  34  58  87 111 143 190 235 277 330
#
# _framework density 22.222653000000001
#
# number of rings (size 3 to 8) (size 9 to 14) (size 15 to 20)
#    0.000    2.286    1.429    1.714    4.000    2.000 
#    0.000    2.857    0.000    5.143    0.000    0.000 
#    0.000    0.000    0.000    0.000    0.000    0.000 
#
# Total GULP energy -155998.526526 kJ/mol
# GULP energy per Si atom -5571.375947 kJ/mol
# Density = 2.217207 g / cm^3
# Si number density = 22.222653 Si / 1000 Ang^3
#
#
#
# Elastic Constant Matrix: (Units=GPa)
#
#
# Indices 1 2 3 4 5 6 
#
# 1 127.3129 67.7546 10.4228 0.0000 15.2226 0.0000
# 2 67.7546 116.8039 -1.3035 0.0000 9.2238 0.0000
# 3 10.4228 -1.3035 50.8740 0.0000 -6.2136 0.0000
# 4 0.0000 0.0000 0.0000 18.2972 0.0000 -44.0483
# 5 15.2226 9.2238 -6.2136 0.0000 34.6641 0.0000
# 6 0.0000 0.0000 0.0000 -44.0483 0.0000 559.2749
#
#
#
# Elastic Compliance Matrix: (Units=1/GPa)
#
#
# Indices 1 2 3 4 5 6 
#
# 1 0.012230 -0.006804 -0.003185 0.000000 -0.004131 0.000000
# 2 -0.006804 0.012530 0.001710 0.000000 -0.000040 0.000000
# 3 -0.003185 0.001710 0.020926 0.000000 0.004694 0.000000
# 4 0.000000 0.000000 0.000000 0.067440 0.000000 0.005312
# 5 -0.004131 -0.000040 0.004694 0.000000 0.031515 0.000000
# 6 0.000000 0.000000 0.000000 0.005312 0.000000 0.002206
#
#
# Mechanical properties :
#
#
# Convention : Reuss Voigt Hill
#
# Bulk Modulus (GPa) = 34.32873 49.85984 42.09428
# Shear Modulus (GPa) = 28.88270 136.98837 82.93553
#
# Velocity S-wave (km/s) = 3.60904 7.85986 6.11566
# Velocity P-wave (km/s) = 5.73132 10.23988 8.29768
#
# Compressibility (1/GPa) = 0.02913012
#
# Stress axis : x y z
#
# Youngs Moduli (GPa) = 81.76488 79.80715 47.78735
#
# Poissons Ratio (x) = 0.54298 0.15218
# Poissons Ratio (y) = 0.55630 -0.08172
# Poissons Ratio (z) = 0.26039 -0.13648
#
# Static dielectric constant tensor:
#      x y z
#    x 1.938590 0.000000 0.156890 
#    y 0.000000 1.892410 0.000000 
#    z 0.156890 0.000000 2.274560 
# 
# From -- ./inp_files/89690.got.cif
#   From: 2010.05.17/outbox.cif.g08.bks.cpg/sg12_45_cif.got.tgz:89690.got - 2010.06.03 13:09:07.
