data_PCOD9184919
_publ_section_title
;
Structure prediction by ZEFSAII (Michael W. Deem and Ramdas Pophale) SiO2 
 PCOD9184919
Probable space group: C 2/M
;
_chemical_formula_sum "Si O2"
_cell_formula_units_Z 40
_cell_length_a 20.305522
_cell_length_b 8.591055
_cell_length_c 12.417670
_cell_angle_alpha 90.000000
_cell_angle_beta 123.342203
_cell_angle_gamma 90.000000
_cell_volume 1809.658657
_symmetry_space_group_name_H-M "C 2/M"
_symmetry_group_IT_number 12
_symmetry_cell_setting 'monoclinic'
loop_
_space_group_symop_operation_xyz
x,y,z
-x,y,-z
-x,-y,-z
x,-y,z
1/2+x,1/2+y,z
1/2-x,1/2+y,-z
1/2-x,1/2-y,-z
1/2+x,1/2-y,z
loop_
_atom_site_type_symbol
_atom_site_label
_atom_site_fract_x
_atom_site_fract_y
_atom_site_fract_z
Si Si1 0.598092 0.320057 0.398348
Si Si2 0.320532 0.811719 0.318261
Si Si3 0.162691 0.312394 0.905421
Si Si4 0.350904 0.320489 0.786692
Si Si5 0.509293 0.182319 0.866949
O O1 0.572625 0.500000 0.384307
O O2 0.633615 0.259605 0.540374
O O3 0.660043 0.315573 0.353904
O O4 0.528643 0.215563 0.286033
O O5 0.357919 0.773616 0.236833
O O6 0.229202 0.754480 0.236594
O O7 0.317936 0.000000 0.327675
O O8 0.164451 0.500000 0.915667
O O9 0.097316 0.250785 0.930482
O O10 0.250000 0.250000 0.000000
O O11 0.359015 0.500000 0.826076
O O12 0.437048 0.243563 0.875762
O O13 0.515622 0.000000 0.891267
#
# Coordination Sequence:
#
# PCOD9184919 Si02
#       5
#     8   8   8   8   8
#     4   9  18  31  52  83 111 137 168 206 258 309
#     4  10  19  34  55  79 106 138 175 212 254 307
#     4  10  23  40  57  75  99 137 180 220 262 303
#     4   8  17  32  52  80 109 136 169 207 255 309
#     4   9  18  34  54  76 106 139 170 208 259 312
#
# _framework density 22.103615000000001
#
# number of rings (size 3 to 8) (size 9 to 14) (size 15 to 20)
#    1.200    1.600    0.000    1.200    0.000    4.000 
#    0.000    5.000    0.000    6.000    0.000    0.000 
#    0.000    0.000    0.000    0.000    0.000    0.000 
#
# Total GULP energy -111439.062646 kJ/mol
# GULP energy per Si atom -5571.953132 kJ/mol
# Density = 2.205331 g / cm^3
# Si number density = 22.103615 Si / 1000 Ang^3
#
#
#
# Elastic Constant Matrix: (Units=GPa)
#
#
# Indices 1 2 3 4 5 6 
#
# 1 164.6001 19.0663 37.1682 0.0000 1.8538 0.0000
# 2 19.0663 14.6092 -7.3737 0.0000 -9.4240 0.0000
# 3 37.1682 -7.3737 56.0319 0.0000 -3.8501 0.0000
# 4 0.0000 0.0000 0.0000 28.6746 0.0000 5.0779
# 5 1.8538 -9.4240 -3.8501 0.0000 31.0555 0.0000
# 6 0.0000 0.0000 0.0000 5.0779 0.0000 18.0395
#
#
#
# Elastic Compliance Matrix: (Units=1/GPa)
#
#
# Indices 1 2 3 4 5 6 
#
# 1 0.012887 -0.031341 -0.013494 0.000000 -0.011953 0.000000
# 2 -0.031341 0.172039 0.047550 0.000000 0.059972 0.000000
# 3 -0.013494 0.047550 0.034396 0.000000 0.019499 0.000000
# 4 0.000000 0.000000 0.000000 0.036704 0.000000 -0.010332
# 5 -0.011953 0.059972 0.019499 0.000000 0.053530 0.000000
# 6 0.000000 0.000000 0.000000 -0.010332 0.000000 0.058342
#
#
# Mechanical properties :
#
#
# Convention : Reuss Voigt Hill
#
# Bulk Modulus (GPa) = 4.44933 36.99585 20.72259
# Shear Modulus (GPa) = 11.43157 27.97930 19.70543
#
# Velocity S-wave (km/s) = 2.27663 3.56170 2.98904
# Velocity P-wave (km/s) = 2.98798 5.80415 4.61607
#
# Compressibility (1/GPa) = 0.22475285
#
# Stress axis : x y z
#
# Youngs Moduli (GPa) = 77.59496 5.81263 29.07335
#
# Poissons Ratio (x) = 0.18217 0.39233
# Poissons Ratio (y) = 2.43188 -1.38245
# Poissons Ratio (z) = 1.04710 -0.27639
#
# Static dielectric constant tensor:
#      x y z
#    x 1.859330 0.000000 -0.007720 
#    y 0.000000 1.777810 0.000000 
#    z -0.007720 0.000000 1.859370 
# 
# From -- ./inp_files/230621.got.cif
#   From: 2010.05.17/outbox.cif.g08.bks.cpg/sg12_116_cif.got.tgz:230621.got - 2010.06.03 13:09:07.
