data_PCOD9184829
_publ_section_title
;
Structure prediction by ZEFSAII (Michael W. Deem and Ramdas Pophale) SiO2 
 PCOD9184829
Probable space group: C 2/M
;
_chemical_formula_sum "Si O2"
_cell_formula_units_Z 64
_cell_length_a 15.135746
_cell_length_b 8.951676
_cell_length_c 24.430937
_cell_angle_alpha 90.000000
_cell_angle_beta 94.918185
_cell_angle_gamma 90.000000
_cell_volume 3297.967301
_symmetry_space_group_name_H-M "C 2/M"
_symmetry_group_IT_number 12
_symmetry_cell_setting 'monoclinic'
loop_
_space_group_symop_operation_xyz
x,y,z
-x,y,-z
-x,-y,-z
x,-y,z
1/2+x,1/2+y,z
1/2-x,1/2+y,-z
1/2-x,1/2-y,-z
1/2+x,1/2-y,z
loop_
_atom_site_type_symbol
_atom_site_label
_atom_site_fract_x
_atom_site_fract_y
_atom_site_fract_z
Si Si1 0.934414 0.322288 0.743035
Si Si2 0.842403 0.669214 0.400915
Si Si3 0.879130 0.682095 0.286910
Si Si4 0.235372 0.679700 0.917626
Si Si5 0.102077 0.819955 0.993638
Si Si6 0.218758 0.180171 0.202968
Si Si7 0.365695 0.327746 0.629981
Si Si8 0.397625 0.669668 0.511368
O O1 0.927397 0.500000 0.747327
O O2 0.876203 0.245626 0.786464
O O3 0.897474 0.268206 0.682463
O O4 0.037623 0.279510 0.746345
O O5 0.874714 0.500000 0.411313
O O6 0.890763 0.737283 0.350077
O O7 0.740582 0.665285 0.376819
O O8 0.849228 0.751296 0.458814
O O9 0.876076 0.500000 0.290997
O O10 0.789147 0.730455 0.252760
O O11 0.225924 0.500000 0.919991
O O12 0.150573 0.752131 0.942872
O O13 0.247299 0.723311 0.855160
O O14 0.326827 0.718668 0.954634
O O15 0.100441 0.000000 0.988750
O O16 0.000000 0.771808 0.000000
O O17 0.214105 0.000000 0.204739
O O18 0.398533 0.500000 0.637116
O O19 0.391830 0.264515 0.571843
O O20 0.500000 0.665650 0.500000
O O21 0.362789 0.500000 0.514405
#
# Coordination Sequence:
#
# PCOD9184829 Si02
#       8
#     8   8   8   8   8   8   8   8
#     4  11  22  35  55  82 106 134 180 229 273 320
#     4  10  19  34  55  73  95 136 180 212 264 333
#     4   9  19  36  55  75 104 141 176 220 274 324
#     4   9  19  34  56  83 108 149 195 223 262 322
#     4   9  18  34  55  82 119 153 181 226 279 316
#     4  10  20  39  59  76 110 150 185 223 268 327
#     4  10  20  36  55  73 101 142 176 210 273 338
#     4  10  21  34  49  75 106 131 166 222 276 321
#
# _framework density 19.405894
#
# number of rings (size 3 to 8) (size 9 to 14) (size 15 to 20)
#    0.000    2.250    1.250    1.500    0.000    3.000 
#    0.000    1.875    0.000    0.000    0.000    0.000 
#    0.000    0.000    0.000    0.000    0.000    0.000 
#
# Total GULP energy -178481.779292 kJ/mol
# GULP energy per Si atom -5577.555603 kJ/mol
# Density = 1.936172 g / cm^3
# Si number density = 19.405894 Si / 1000 Ang^3
#
#
#
# Elastic Constant Matrix: (Units=GPa)
#
#
# Indices 1 2 3 4 5 6 
#
# 1 87.3456 10.1565 21.4215 0.0000 -27.4166 0.0000
# 2 10.1565 14.1154 16.1968 0.0000 -5.8765 0.0000
# 3 21.4215 16.1968 103.5590 0.0000 -31.3295 0.0000
# 4 0.0000 0.0000 0.0000 23.7876 0.0000 -9.9549
# 5 -27.4166 -5.8765 -31.3295 0.0000 29.2970 0.0000
# 6 0.0000 0.0000 0.0000 -9.9549 0.0000 18.8948
#
#
#
# Elastic Compliance Matrix: (Units=1/GPa)
#
#
# Indices 1 2 3 4 5 6 
#
# 1 0.017269 -0.008646 0.003170 0.000000 0.017816 0.000000
# 2 -0.008646 0.091028 -0.013855 0.000000 -0.004648 0.000000
# 3 0.003170 -0.013855 0.016592 0.000000 0.017931 0.000000
# 4 0.000000 0.000000 0.000000 0.053930 0.000000 0.028413
# 5 0.017816 -0.004648 0.017931 0.000000 0.069048 0.000000
# 6 0.000000 0.000000 0.000000 0.028413 0.000000 0.067894
#
#
# Mechanical properties :
#
#
# Convention : Reuss Voigt Hill
#
# Bulk Modulus (GPa) = 11.59712 33.39663 22.49688
# Shear Modulus (GPa) = 13.04922 24.87889 18.96405
#
# Velocity S-wave (km/s) = 2.59595 3.58443 3.12946
# Velocity P-wave (km/s) = 3.86967 5.86325 4.96750
#
# Compressibility (1/GPa) = 0.08622828
#
# Stress axis : x y z
#
# Youngs Moduli (GPa) = 57.90753 10.98562 60.27004
#
# Poissons Ratio (x) = 0.09498 -0.19105
# Poissons Ratio (y) = 0.50065 0.83502
# Poissons Ratio (z) = -0.18357 0.15220
#
# Static dielectric constant tensor:
#      x y z
#    x 1.695860 0.000000 -0.019280 
#    y 0.000000 1.676770 0.000000 
#    z -0.019280 0.000000 1.691930 
# 
# From -- ./inp_files/338703.got.cif
#   From: 2010.05.17/outbox.cif.g08.bks.cpg/sg12_170_cif.got.tgz:338703.got - 2010.06.03 13:09:07.
