data_PCOD9184888
_publ_section_title
;
Structure prediction by ZEFSAII (Michael W. Deem and Ramdas Pophale) SiO2 
 PCOD9184888
Probable space group: C 2/M
;
_chemical_formula_sum "Si O2"
_cell_formula_units_Z 48
_cell_length_a 20.658422
_cell_length_b 7.524182
_cell_length_c 14.605139
_cell_angle_alpha 90.000000
_cell_angle_beta 92.261453
_cell_angle_gamma 90.000000
_cell_volume 2268.421513
_symmetry_space_group_name_H-M "C 2/M"
_symmetry_group_IT_number 12
_symmetry_cell_setting 'monoclinic'
loop_
_space_group_symop_operation_xyz
x,y,z
-x,y,-z
-x,-y,-z
x,-y,z
1/2+x,1/2+y,z
1/2-x,1/2+y,-z
1/2-x,1/2-y,-z
1/2+x,1/2-y,z
loop_
_atom_site_type_symbol
_atom_site_label
_atom_site_fract_x
_atom_site_fract_y
_atom_site_fract_z
Si Si1 0.312490 0.787485 0.564334
Si Si2 0.183562 0.288535 0.049296
Si Si3 0.445147 0.296011 0.063146
Si Si4 0.932763 0.285253 0.452725
Si Si5 0.262748 0.782209 0.755613
Si Si6 0.113075 0.788402 0.754053
O O1 0.250000 0.750000 0.500000
O O2 0.374357 0.718036 0.513213
O O3 0.297005 0.720546 0.664827
O O4 0.320502 0.000000 0.572420
O O5 0.172732 0.500000 0.049002
O O6 0.196956 0.227795 0.153344
O O7 0.250000 0.250000 0.000000
O O8 0.122416 0.205080 0.995566
O O9 0.466342 0.500000 0.081294
O O10 0.427971 0.216446 0.161955
O O11 0.500000 0.214593 0.000000
O O12 0.932632 0.500000 0.456094
O O13 0.919542 0.238979 0.346331
O O14 0.000000 0.223117 0.500000
O O15 0.187633 0.721968 0.756426
O O16 0.261056 0.000000 0.754684
O O17 0.118346 0.000000 0.769630
#
# Coordination Sequence:
#
# PCOD9184888 Si02
#       6
#     8   8   8   8   8   8
#     4  10  19  34  55  78 105 139 180 223 268 318
#     4  11  21  36  59  86 115 149 191 234 281 337
#     4  10  22  40  59  82 116 152 188 237 289 336
#     4  10  22  37  54  81 115 145 177 226 281 330
#     4   9  18  33  55  81 109 143 182 227 275 325
#     4  10  19  36  59  80 108 147 186 224 278 338
#
# _framework density 21.160088999999999
#
# number of rings (size 3 to 8) (size 9 to 14) (size 15 to 20)
#    0.000    2.000    3.333    0.500    0.000    2.667 
#    0.000    3.333    0.000    0.000    0.000    0.000 
#    0.000    0.000    0.000    0.000    0.000    0.000 
#
# Total GULP energy -134035.663590 kJ/mol
# GULP energy per Si atom -5584.819316 kJ/mol
# Density = 2.111193 g / cm^3
# Si number density = 21.160089 Si / 1000 Ang^3
#
#
#
# Elastic Constant Matrix: (Units=GPa)
#
#
# Indices 1 2 3 4 5 6 
#
# 1 146.2630 -5.5524 83.4476 0.0000 -27.6751 0.0000
# 2 -5.5524 58.1758 -1.8836 0.0000 -7.1846 0.0000
# 3 83.4476 -1.8836 217.3938 0.0000 -31.0261 0.0000
# 4 0.0000 0.0000 0.0000 12.3060 0.0000 11.9042
# 5 -27.6751 -7.1846 -31.0261 0.0000 38.9289 0.0000
# 6 0.0000 0.0000 0.0000 11.9042 0.0000 12.1813
#
#
#
# Elastic Compliance Matrix: (Units=1/GPa)
#
#
# Indices 1 2 3 4 5 6 
#
# 1 0.009449 0.001376 -0.002957 0.000000 0.004615 0.000000
# 2 0.001376 0.017884 0.000268 0.000000 0.004492 0.000000
# 3 -0.002957 0.000268 0.006143 0.000000 0.002843 0.000000
# 4 0.000000 0.000000 0.000000 1.487123 0.000000 -1.453305
# 5 0.004615 0.004492 0.002843 0.000000 0.032064 0.000000
# 6 0.000000 0.000000 0.000000 -1.453305 0.000000 1.502348
#
#
# Mechanical properties :
#
#
# Convention : Reuss Voigt Hill
#
# Bulk Modulus (GPa) = 32.41360 63.76176 48.08768
# Shear Modulus (GPa) = 1.62977 35.73797 18.68387
#
# Velocity S-wave (km/s) = 0.87857 4.11412 2.97472
# Velocity P-wave (km/s) = 4.04731 7.26405 5.87993
#
# Compressibility (1/GPa) = 0.03085125
#
# Stress axis : x y z
#
# Youngs Moduli (GPa) = 105.82766 55.91562 162.78752
#
# Poissons Ratio (x) = -0.07695 0.48129
# Poissons Ratio (y) = -0.14563 -0.04361
# Poissons Ratio (z) = 0.31289 -0.01498
#
# Static dielectric constant tensor:
#      x y z
#    x 1.673840 0.000000 0.014300 
#    y 0.000000 1.800420 0.000000 
#    z 0.014300 0.000000 1.708810 
# 
# From -- ./inp_files/221640.got.cif
#   From: 2010.05.17/outbox.cif.g08.bks.cpg/sg12_111_cif.got.tgz:221640.got - 2010.06.03 13:09:07.
