data_PCOD9184809
_publ_section_title
;
Structure prediction by ZEFSAII (Michael W. Deem and Ramdas Pophale) SiO2 
 PCOD9184809
Probable space group: C 2/M
;
_chemical_formula_sum "Si O2"
_cell_formula_units_Z 44
_cell_length_a 27.075755
_cell_length_b 12.390288
_cell_length_c 8.506264
_cell_angle_alpha 90.000000
_cell_angle_beta 55.828262
_cell_angle_gamma 90.000000
_cell_volume 2360.990083
_symmetry_space_group_name_H-M "C 2/M"
_symmetry_group_IT_number 12
_symmetry_cell_setting 'monoclinic'
loop_
_space_group_symop_operation_xyz
x,y,z
-x,y,-z
-x,-y,-z
x,-y,z
1/2+x,1/2+y,z
1/2-x,1/2+y,-z
1/2-x,1/2-y,-z
1/2+x,1/2-y,z
loop_
_atom_site_type_symbol
_atom_site_label
_atom_site_fract_x
_atom_site_fract_y
_atom_site_fract_z
Si Si1 0.239366 0.382076 0.387138
Si Si2 0.590222 0.127472 0.114209
Si Si3 0.603730 0.629338 0.503022
Si Si4 0.188856 0.704758 0.173894
Si Si5 0.000000 0.755139 0.500000
Si Si6 0.853769 0.763996 0.255665
O O1 0.243100 0.500000 0.450383
O O2 0.206290 0.376847 0.280496
O O3 0.195243 0.313957 0.576008
O O4 0.307351 0.340946 0.246234
O O5 0.649217 0.147475 0.113771
O O6 0.537914 0.179796 0.313552
O O7 0.581011 0.000000 0.101679
O O8 0.602527 0.196339 0.934213
O O9 0.609412 0.500000 0.485814
O O10 0.653608 0.694550 0.314532
O O11 0.542896 0.670829 0.530578
O O12 0.612303 0.671695 0.666724
O O13 0.250000 0.750000 0.000000
#
# Coordination Sequence:
#
# PCOD9184809 Si02
#       6
#     8   8   8   8   4   8
#     4  10  19  34  54  83 125 159 184 231 287 349
#     4  11  22  40  63  87 119 160 197 250 301 341
#     4  10  22  41  63  84 118 159 195 250 303 344
#     4  10  20  37  56  91 121 151 198 235 282 364
#     4  10  24  44  62  86 116 148 216 252 290 364
#     4  10  21  36  56  89 121 149 203 236 287 365
#
# _framework density 18.636247999999998
#
# number of rings (size 3 to 8) (size 9 to 14) (size 15 to 20)
#    0.000    1.818    1.818    2.182    0.000    2.182 
#    0.000    7.273    0.000    0.000    0.000    0.000 
#    0.000    0.000    0.000    0.000    0.000    0.000 
#
# Total GULP energy -122652.462359 kJ/mol
# GULP energy per Si atom -5575.111925 kJ/mol
# Density = 1.859383 g / cm^3
# Si number density = 18.636248 Si / 1000 Ang^3
#
#
#
# Elastic Constant Matrix: (Units=GPa)
#
#
# Indices 1 2 3 4 5 6 
#
# 1 104.1859 51.0311 35.3022 0.0000 -1.0222 0.0000
# 2 51.0311 135.8471 28.8543 0.0000 -2.6982 0.0000
# 3 35.3022 28.8543 78.8259 0.0000 -8.2503 0.0000
# 4 0.0000 0.0000 0.0000 5.8202 0.0000 -5.5062
# 5 -1.0222 -2.6982 -8.2503 0.0000 26.0200 0.0000
# 6 0.0000 0.0000 0.0000 -5.5062 0.0000 6.4020
#
#
#
# Elastic Compliance Matrix: (Units=1/GPa)
#
#
# Indices 1 2 3 4 5 6 
#
# 1 0.013068 -0.003972 -0.004539 0.000000 -0.001338 0.000000
# 2 -0.003972 0.009189 -0.001553 0.000000 0.000304 0.000000
# 3 -0.004539 -0.001553 0.015775 0.000000 0.004663 0.000000
# 4 0.000000 0.000000 0.000000 0.922043 0.000000 0.793018
# 5 -0.001338 0.000304 0.004663 0.000000 0.039889 0.000000
# 6 0.000000 0.000000 0.000000 0.793018 0.000000 0.838249
#
#
# Mechanical properties :
#
#
# Convention : Reuss Voigt Hill
#
# Bulk Modulus (GPa) = 55.84814 61.02600 58.43707
# Shear Modulus (GPa) = 2.68196 21.22655 11.95425
#
# Velocity S-wave (km/s) = 1.20093 3.37856 2.53544
# Velocity P-wave (km/s) = 5.65292 6.93084 6.32424
#
# Compressibility (1/GPa) = 0.01790570
#
# Stress axis : x y z
#
# Youngs Moduli (GPa) = 76.52057 108.82451 63.38965
#
# Poissons Ratio (x) = 0.43221 0.28772
# Poissons Ratio (y) = 0.30391 0.09845
# Poissons Ratio (z) = 0.34731 0.16902
#
# Static dielectric constant tensor:
#      x y z
#    x 1.661390 0.000000 0.023300 
#    y 0.000000 1.645580 0.000000 
#    z 0.023300 0.000000 1.635720 
# 
# From -- ./inp_files/84039.got.cif
#   From: 2010.05.17/outbox.cif.g08.bks.cpg/sg12_43_cif.got.tgz:84039.got - 2010.06.03 13:09:07.
