data_PCOD9184982
_publ_section_title
;
Structure prediction by ZEFSAII (Michael W. Deem and Ramdas Pophale) SiO2 
 PCOD9184982
Probable space group: C 2/M
;
_chemical_formula_sum "Si O2"
_cell_formula_units_Z 56
_cell_length_a 23.088509
_cell_length_b 7.744719
_cell_length_c 15.242660
_cell_angle_alpha 90.000000
_cell_angle_beta 113.529193
_cell_angle_gamma 90.000000
_cell_volume 2498.985981
_symmetry_space_group_name_H-M "C 2/M"
_symmetry_group_IT_number 12
_symmetry_cell_setting 'monoclinic'
loop_
_space_group_symop_operation_xyz
x,y,z
-x,y,-z
-x,-y,-z
x,-y,z
1/2+x,1/2+y,z
1/2-x,1/2+y,-z
1/2-x,1/2-y,-z
1/2+x,1/2-y,z
loop_
_atom_site_type_symbol
_atom_site_label
_atom_site_fract_x
_atom_site_fract_y
_atom_site_fract_z
Si Si1 0.403678 0.199428 0.246269
Si Si2 0.268279 0.792982 0.412442
Si Si3 0.926363 0.788473 0.958507
Si Si4 0.140340 0.789631 0.262711
Si Si5 0.093828 0.290860 0.553545
Si Si6 0.823528 0.195655 0.037683
Si Si7 0.461837 0.704313 0.661531
O O1 0.409691 0.270996 0.348565
O O2 0.355632 0.291176 0.152592
O O3 0.476069 0.211876 0.259242
O O4 0.383525 0.000000 0.238480
O O5 0.250000 0.750000 0.500000
O O6 0.212165 0.728921 0.316121
O O7 0.337635 0.726987 0.435484
O O8 0.271694 0.000000 0.404856
O O9 0.894169 0.740048 0.846974
O O10 0.929295 0.000000 0.966654
O O11 0.877250 0.725011 0.004609
O O12 0.000000 0.731256 0.000000
O O13 0.099661 0.734231 0.322611
O O14 0.141799 0.000000 0.265094
O O15 0.090085 0.500000 0.554680
O O16 0.046783 0.240072 0.447055
O O17 0.819126 0.000000 0.004442
O O18 0.750000 0.250000 0.000000
O O19 0.467824 0.500000 0.677710
#
# Coordination Sequence:
#
# PCOD9184982 Si02
#       7
#     8   8   8   8   8   8   8
#     4  11  24  41  61  84 117 159 201 243 290 348
#     4  10  19  34  55  80 112 150 193 240 288 345
#     4   9  18  35  62  91 117 151 201 252 296 355
#     4   9  18  32  56  86 115 148 191 239 291 351
#     4  10  22  37  57  83 116 158 201 238 287 352
#     4  11  24  42  66  93 123 159 203 254 308 360
#     4  11  21  36  60  90 121 152 190 241 298 353
#
# _framework density 22.409087
#
# number of rings (size 3 to 8) (size 9 to 14) (size 15 to 20)
#    0.000    1.857    1.429    2.571    2.000    5.143 
#    0.000    0.000    0.000    9.429    0.000    0.000 
#    0.000    0.000    0.000    0.000    0.000    0.000 
#
# Total GULP energy -156284.456849 kJ/mol
# GULP energy per Si atom -5581.587745 kJ/mol
# Density = 2.235808 g / cm^3
# Si number density = 22.409087 Si / 1000 Ang^3
#
#
#
# Elastic Constant Matrix: (Units=GPa)
#
#
# Indices 1 2 3 4 5 6 
#
# 1 135.8381 2.8656 69.3263 0.0000 20.9258 0.0000
# 2 2.8656 30.6510 -8.0224 0.0000 -0.9164 0.0000
# 3 69.3263 -8.0224 141.7929 0.0000 26.0530 0.0000
# 4 0.0000 0.0000 0.0000 18.2731 0.0000 6.2613
# 5 20.9258 -0.9164 26.0530 0.0000 45.4019 0.0000
# 6 0.0000 0.0000 0.0000 6.2613 0.0000 17.4523
#
#
#
# Elastic Compliance Matrix: (Units=1/GPa)
#
#
# Indices 1 2 3 4 5 6 
#
# 1 0.010120 -0.002238 -0.004705 0.000000 -0.002009 0.000000
# 2 -0.002238 0.033619 0.002998 0.000000 -0.000010 0.000000
# 3 -0.004705 0.002998 0.010187 0.000000 -0.003617 0.000000
# 4 0.000000 0.000000 0.000000 0.062395 0.000000 -0.022385
# 5 -0.002009 -0.000010 -0.003617 0.000000 0.025027 0.000000
# 6 0.000000 0.000000 0.000000 -0.022385 0.000000 0.065330
#
#
# Mechanical properties :
#
#
# Convention : Reuss Voigt Hill
#
# Bulk Modulus (GPa) = 21.72203 48.51343 35.11773
# Shear Modulus (GPa) = 21.74735 32.49965 27.12350
#
# Velocity S-wave (km/s) = 3.11862 3.81240 3.48283
# Velocity P-wave (km/s) = 4.76258 6.40899 5.64612
#
# Compressibility (1/GPa) = 0.04603622
#
# Stress axis : x y z
#
# Youngs Moduli (GPa) = 98.81596 29.74516 98.16253
#
# Poissons Ratio (x) = 0.06656 0.46188
# Poissons Ratio (y) = 0.22112 -0.29430
# Poissons Ratio (z) = 0.46495 -0.08918
#
# Static dielectric constant tensor:
#      x y z
#    x 1.869680 0.000000 -0.019900 
#    y 0.000000 1.856490 0.000000 
#    z -0.019900 0.000000 1.779050 
# 
# From -- ./inp_files/239015.got.cif
#   From: 2010.05.17/outbox.cif.g08.bks.cpg/sg12_120_cif.got.tgz:239015.got - 2010.06.03 13:09:07.
