data_PCOD9184959
_publ_section_title
;
Structure prediction by ZEFSAII (Michael W. Deem and Ramdas Pophale) SiO2 
 PCOD9184959
Probable space group: C 2/M
;
_chemical_formula_sum "Si O2"
_cell_formula_units_Z 64
_cell_length_a 23.853971
_cell_length_b 14.163463
_cell_length_c 15.518296
_cell_angle_alpha 90.000000
_cell_angle_beta 143.292260
_cell_angle_gamma 90.000000
_cell_volume 3133.875452
_symmetry_space_group_name_H-M "C 2/M"
_symmetry_group_IT_number 12
_symmetry_cell_setting 'monoclinic'
loop_
_space_group_symop_operation_xyz
x,y,z
-x,y,-z
-x,-y,-z
x,-y,z
1/2+x,1/2+y,z
1/2-x,1/2+y,-z
1/2-x,1/2-y,-z
1/2+x,1/2-y,z
loop_
_atom_site_type_symbol
_atom_site_label
_atom_site_fract_x
_atom_site_fract_y
_atom_site_fract_z
Si Si1 0.904587 0.104471 0.471575
Si Si2 0.081094 0.387637 0.298108
Si Si3 0.652761 0.599056 0.978301
Si Si4 0.554285 0.186045 0.446504
Si Si5 0.693118 0.110763 0.266636
Si Si6 0.140637 0.352474 0.735612
Si Si7 0.377978 0.811753 0.997047
Si Si8 0.681425 0.639039 0.819827
O O1 0.961011 0.200623 0.560468
O O2 0.805452 0.116688 0.398790
O O3 0.873602 0.104381 0.332672
O O4 0.943268 0.000000 0.539476
O O5 0.084771 0.500000 0.315832
O O6 0.099296 0.336307 0.410881
O O7 0.152405 0.363361 0.309193
O O8 0.977417 0.357100 0.140508
O O9 0.608299 0.500000 0.954901
O O10 0.763664 0.593936 0.134762
O O11 0.620096 0.700607 0.974844
O O12 0.647506 0.601206 0.868444
O O13 0.457235 0.127522 0.337196
O O14 0.616232 0.156921 0.604729
O O15 0.668387 0.000000 0.219381
O O16 0.649145 0.173426 0.136374
O O17 0.166777 0.250357 0.803831
O O18 0.293703 0.867626 0.942574
#
# Coordination Sequence:
#
# PCOD9184959 Si02
#       8
#     8   8   8   8   8   8   8   8
#     4   9  18  34  54  76 106 140 174 217 265 309
#     4  11  22  35  55  81 104 132 175 223 267 312
#     4  11  21  33  54  81 109 142 177 212 256 314
#     4  10  20  34  52  76 108 143 177 212 255 311
#     4   9  19  36  59  83 101 126 173 228 275 312
#     4   9  19  35  50  71 108 145 174 208 251 303
#     4  10  19  34  55  80 109 136 166 216 274 316
#     4   9  17  32  53  77 103 135 176 217 256 301
#
# _framework density 20.421999
#
# number of rings (size 3 to 8) (size 9 to 14) (size 15 to 20)
#    0.000    2.250    0.000    4.875    0.000    5.000 
#    0.000    8.750    0.000    3.750    0.000    0.000 
#    0.000    0.000    0.000    0.000    0.000    0.000 
#
# Total GULP energy -178607.043178 kJ/mol
# GULP energy per Si atom -5581.470099 kJ/mol
# Density = 2.037552 g / cm^3
# Si number density = 20.421999 Si / 1000 Ang^3
#
#
#
# Elastic Constant Matrix: (Units=GPa)
#
#
# Indices 1 2 3 4 5 6 
#
# 1 113.9659 27.3168 33.6954 0.0000 -21.3052 0.0000
# 2 27.3168 72.7911 -2.6677 0.0000 -5.3700 0.0000
# 3 33.6954 -2.6677 43.0484 0.0000 0.9742 0.0000
# 4 0.0000 0.0000 0.0000 3.6177 0.0000 15.2415
# 5 -21.3052 -5.3700 0.9742 0.0000 21.0268 0.0000
# 6 0.0000 0.0000 0.0000 15.2415 0.0000 -41.4275
#
#
#
# Elastic Compliance Matrix: (Units=1/GPa)
#
#
# Indices 1 2 3 4 5 6 
#
# 1 0.017717 -0.005922 -0.014622 0.000000 0.017117 0.000000
# 2 -0.005922 0.016008 0.005677 0.000000 -0.002175 0.000000
# 3 -0.014622 0.005677 0.035366 0.000000 -0.015004 0.000000
# 4 0.000000 0.000000 0.000000 0.108399 0.000000 0.039881
# 5 0.017117 -0.002175 -0.015004 0.000000 0.065041 0.000000
# 6 0.000000 0.000000 0.000000 0.039881 0.000000 -0.009466
#
#
# Mechanical properties :
#
#
# Convention : Reuss Voigt Hill
#
# Bulk Modulus (GPa) = 25.40900 38.49938 31.95419
# Shear Modulus (GPa) = 18.12127 8.07414 13.09771
#
# Velocity S-wave (km/s) = 2.98206 1.99054 2.53524
# Velocity P-wave (km/s) = 4.93213 4.91689 4.92452
#
# Compressibility (1/GPa) = 0.03935614
#
# Stress axis : x y z
#
# Youngs Moduli (GPa) = 56.44295 62.46928 28.27566
#
# Poissons Ratio (x) = 0.36994 0.41345
# Poissons Ratio (y) = 0.33425 -0.16051
# Poissons Ratio (z) = 0.82531 -0.35461
#
# Static dielectric constant tensor:
#      x y z
#    x 1.736150 0.000000 0.026380 
#    y 0.000000 1.773710 0.000000 
#    z 0.026380 0.000000 1.745390 
# 
# From -- ./inp_files/240718.got.cif
#   From: 2010.05.17/outbox.cif.g08.bks.cpg/sg12_121_cif.got.tgz:240718.got - 2010.06.03 13:09:07.
