data_PCOD9184836
_publ_section_title
;
Structure prediction by ZEFSAII (Michael W. Deem and Ramdas Pophale) SiO2 
 PCOD9184836
Probable space group: C 2/M
;
_chemical_formula_sum "Si O2"
_cell_formula_units_Z 56
_cell_length_a 20.515137
_cell_length_b 7.695746
_cell_length_c 18.837707
_cell_angle_alpha 90.000000
_cell_angle_beta 132.726969
_cell_angle_gamma 90.000000
_cell_volume 2184.747912
_symmetry_space_group_name_H-M "C 2/M"
_symmetry_group_IT_number 12
_symmetry_cell_setting 'monoclinic'
loop_
_space_group_symop_operation_xyz
x,y,z
-x,y,-z
-x,-y,-z
x,-y,z
1/2+x,1/2+y,z
1/2-x,1/2+y,-z
1/2-x,1/2-y,-z
1/2+x,1/2-y,z
loop_
_atom_site_type_symbol
_atom_site_label
_atom_site_fract_x
_atom_site_fract_y
_atom_site_fract_z
Si Si1 0.531389 0.208295 0.600707
Si Si2 0.525213 0.704199 0.943440
Si Si3 0.214557 0.793088 0.817772
Si Si4 0.447611 0.302433 0.680877
Si Si5 0.830527 0.713299 0.777052
Si Si6 0.770691 0.686087 0.593525
Si Si7 0.635222 0.295152 0.899369
O O1 0.500000 0.271504 0.500000
O O2 0.625886 0.267528 0.703744
O O3 0.459672 0.263485 0.606769
O O4 0.534966 0.000000 0.601111
O O5 0.546254 0.500000 0.968894
O O6 0.428391 0.714440 0.836100
O O7 0.602224 0.780939 0.950270
O O8 0.500000 0.788397 0.000000
O O9 0.294275 0.728501 0.827065
O O10 0.203246 0.721557 0.890309
O O11 0.224146 0.000000 0.833197
O O12 0.416645 0.500000 0.668284
O O13 0.377095 0.177996 0.663976
O O14 0.543711 0.286611 0.786765
O O15 0.831537 0.500000 0.776806
O O16 0.763716 0.775355 0.664988
O O17 0.726942 0.500000 0.568825
O O18 0.750000 0.750000 0.500000
O O19 0.654557 0.500000 0.923340
#
# Coordination Sequence:
#
# PCOD9184836 Si02
#       7
#     8   8   8   8   8   8   8
#     4  10  21  34  49  76 110 144 186 238 286 331
#     4  10  20  36  61  89 114 145 188 235 286 347
#     4   9  19  36  56  77 105 148 193 231 281 339
#     4  10  19  34  55  75 101 146 191 231 277 329
#     4  10  22  39  58  83 115 149 189 241 290 339
#     4  11  23  36  52  79 112 149 191 236 288 343
#     4   8  15  32  56  79 104 140 182 224 271 327
#
# _framework density 25.632248000000001
#
# number of rings (size 3 to 8) (size 9 to 14) (size 15 to 20)
#    0.000    2.286    1.429    2.143    2.000    2.571 
#    0.000    0.714    0.000    0.000    0.000    0.000 
#    0.000    0.000    0.000    0.000    0.000    0.000 
#
# Total GULP energy -156250.520631 kJ/mol
# GULP energy per Si atom -5580.375737 kJ/mol
# Density = 2.557391 g / cm^3
# Si number density = 25.632248 Si / 1000 Ang^3
#
#
#
# Elastic Constant Matrix: (Units=GPa)
#
#
# Indices 1 2 3 4 5 6 
#
# 1 168.0803 5.4574 43.1845 0.0000 -41.0468 0.0000
# 2 5.4574 50.3678 6.7420 0.0000 -5.3248 0.0000
# 3 43.1845 6.7420 115.1022 0.0000 -40.9435 0.0000
# 4 0.0000 0.0000 0.0000 22.4004 0.0000 3.6347
# 5 -41.0468 -5.3248 -40.9435 0.0000 58.6422 0.0000
# 6 0.0000 0.0000 0.0000 3.6347 0.0000 11.2533
#
#
#
# Elastic Compliance Matrix: (Units=1/GPa)
#
#
# Indices 1 2 3 4 5 6 
#
# 1 0.007306 -0.000179 -0.001220 0.000000 0.004245 0.000000
# 2 -0.000179 0.020093 -0.000672 0.000000 0.001230 0.000000
# 3 -0.001220 -0.000672 0.011787 0.000000 0.007314 0.000000
# 4 0.000000 0.000000 0.000000 0.047111 0.000000 -0.015217
# 5 0.004245 0.001230 0.007314 0.000000 0.025243 0.000000
# 6 0.000000 0.000000 0.000000 -0.015217 0.000000 0.093778
#
#
# Mechanical properties :
#
#
# Convention : Reuss Voigt Hill
#
# Bulk Modulus (GPa) = 28.53722 49.36868 38.95295
# Shear Modulus (GPa) = 22.60989 37.00361 29.80675
#
# Velocity S-wave (km/s) = 2.97322 3.80364 3.41377
# Velocity P-wave (km/s) = 4.79001 6.21228 5.54692
#
# Compressibility (1/GPa) = 0.03504195
#
# Stress axis : x y z
#
# Youngs Moduli (GPa) = 136.88058 49.76771 84.83939
#
# Poissons Ratio (x) = 0.00893 0.10353
# Poissons Ratio (y) = 0.02456 0.05703
# Poissons Ratio (z) = 0.16704 0.03346
#
# Static dielectric constant tensor:
#      x y z
#    x 2.049010 0.000000 -0.035700 
#    y 0.000000 2.008690 0.000000 
#    z -0.035700 0.000000 2.188070 
# 
# From -- ./inp_files/281649.got.cif
#   From: 2010.05.17/outbox.cif.g08.bks.cpg/sg12_141_cif.got.tgz:281649.got - 2010.06.03 13:09:07.
