data_PCOD9184137
_publ_section_title
;
Structure prediction by ZEFSAII (Michael W. Deem and Ramdas Pophale) SiO2 
 PCOD9184137
Probable space group: C 2/M
;
_chemical_formula_sum "Si O2"
_cell_formula_units_Z 56
_cell_length_a 9.738175
_cell_length_b 18.224090
_cell_length_c 18.437992
_cell_angle_alpha 90.000000
_cell_angle_beta 109.282645
_cell_angle_gamma 90.000000
_cell_volume 3088.613068
_symmetry_space_group_name_H-M "C 2/M"
_symmetry_group_IT_number 12
_symmetry_cell_setting 'monoclinic'
loop_
_space_group_symop_operation_xyz
x,y,z
-x,y,-z
-x,-y,-z
x,-y,z
1/2+x,1/2+y,z
1/2-x,1/2+y,-z
1/2-x,1/2-y,-z
1/2+x,1/2-y,z
loop_
_atom_site_type_symbol
_atom_site_label
_atom_site_fract_x
_atom_site_fract_y
_atom_site_fract_z
Si Si1 0.772793 0.416354 0.642802
Si Si2 0.941923 0.828810 0.193621
Si Si3 0.628633 0.817830 0.211565
Si Si4 0.549972 0.582462 0.343272
Si Si5 0.440174 0.915697 0.071252
Si Si6 0.130744 0.086075 0.966233
Si Si7 0.160761 0.824730 0.492132
O O1 0.829192 0.500000 0.649406
O O2 0.861185 0.362244 0.710985
O O3 0.611697 0.420551 0.650150
O O4 0.747169 0.379857 0.560347
O O5 0.043834 0.758237 0.203618
O O6 0.026926 0.886774 0.258968
O O7 0.791801 0.808470 0.208766
O O8 0.900883 0.865835 0.109989
O O9 0.539671 0.867494 0.139664
O O10 0.609803 0.500000 0.354414
O O11 0.637908 0.637135 0.410353
O O12 0.440941 0.000000 0.097269
O O13 0.500000 0.914660 0.000000
O O14 0.275024 0.889183 0.033971
O O15 0.153947 0.000000 0.948922
O O16 0.000000 0.089345 0.000000
O O17 0.250000 0.750000 0.500000
O O18 0.000000 0.812741 0.500000
#
# Coordination Sequence:
#
# PCOD9184137 Si02
#       7
#     8   8   8   8   8   8   8
#     4   9  18  34  57  83 109 141 187 230 263 312
#     4  11  23  37  55  80 112 145 181 227 276 327
#     4  11  23  36  55  81 111 146 181 226 278 323
#     4   9  18  34  58  83 107 142 188 228 264 315
#     4  10  20  37  59  80 104 139 186 227 267 326
#     4  10  22  39  59  81 107 141 181 228 277 324
#     4  10  19  33  57  86 115 145 177 220 271 321
#
# _framework density 18.131115000000001
#
# number of rings (size 3 to 8) (size 9 to 14) (size 15 to 20)
#    0.000    2.000    1.429    2.143    2.000    4.000 
#    0.000    0.000    0.000    3.429    0.000    0.000 
#    0.000    0.000    0.000    0.000    0.000    0.000 
#
# Total GULP energy -156262.460352 kJ/mol
# GULP energy per Si atom -5580.802155 kJ/mol
# Density = 1.808985 g / cm^3
# Si number density = 18.131115 Si / 1000 Ang^3
#
#
#
# Elastic Constant Matrix: (Units=GPa)
#
#
# Indices 1 2 3 4 5 6 
#
# 1 59.1625 29.0594 19.0563 0.0000 10.9973 0.0000
# 2 29.0594 107.2762 35.2557 0.0000 13.0711 0.0000
# 3 19.0563 35.2557 74.9732 0.0000 15.2120 0.0000
# 4 0.0000 0.0000 0.0000 29.6703 0.0000 8.3321
# 5 10.9973 13.0711 15.2120 0.0000 18.4881 0.0000
# 6 0.0000 0.0000 0.0000 8.3321 0.0000 19.8293
#
#
#
# Elastic Compliance Matrix: (Units=1/GPa)
#
#
# Indices 1 2 3 4 5 6 
#
# 1 0.021004 -0.004123 -0.001748 0.000000 -0.008140 0.000000
# 2 -0.004123 0.012119 -0.004093 0.000000 -0.002747 0.000000
# 3 -0.001748 -0.004093 0.017897 0.000000 -0.010792 0.000000
# 4 0.000000 0.000000 0.000000 0.038213 0.000000 -0.016057
# 5 -0.008140 -0.002747 -0.010792 0.000000 0.069753 0.000000
# 6 0.000000 0.000000 0.000000 -0.016057 0.000000 0.057177
#
#
# Mechanical properties :
#
#
# Convention : Reuss Voigt Hill
#
# Bulk Modulus (GPa) = 32.16430 45.35053 38.75741
# Shear Modulus (GPa) = 20.28764 24.13356 22.21060
#
# Velocity S-wave (km/s) = 3.34869 3.65232 3.50380
# Velocity P-wave (km/s) = 5.72101 6.54621 6.14747
#
# Compressibility (1/GPa) = 0.03109037
#
# Stress axis : x y z
#
# Youngs Moduli (GPa) = 47.60970 82.51754 55.87554
#
# Poissons Ratio (x) = 0.34025 0.09767
# Poissons Ratio (y) = 0.19631 0.22871
# Poissons Ratio (z) = 0.08323 0.33777
#
# Static dielectric constant tensor:
#      x y z
#    x 1.643360 0.000000 0.010390 
#    y 0.000000 1.617860 0.000000 
#    z 0.010390 0.000000 1.603040 
# 
# From -- ./inp_files/257182.got.cif
#   From: 2010.05.17/outbox.cif.g08.bks.cpg/sg12_129_cif.got.tgz:257182.got - 2010.06.03 13:09:07.
