data_PCOD9184609
_publ_section_title
;
Structure prediction by ZEFSAII (Michael W. Deem and Ramdas Pophale) SiO2 
 PCOD9184609
Probable space group: C 2/M
;
_chemical_formula_sum "Si O2"
_cell_formula_units_Z 40
_cell_length_a 28.376798
_cell_length_b 8.259102
_cell_length_c 26.325250
_cell_angle_alpha 90.000000
_cell_angle_beta 159.477238
_cell_angle_gamma 90.000000
_cell_volume 2162.993424
_symmetry_space_group_name_H-M "C 2/M"
_symmetry_group_IT_number 12
_symmetry_cell_setting 'monoclinic'
loop_
_space_group_symop_operation_xyz
x,y,z
-x,y,-z
-x,-y,-z
x,-y,z
1/2+x,1/2+y,z
1/2-x,1/2+y,-z
1/2-x,1/2-y,-z
1/2+x,1/2-y,z
loop_
_atom_site_type_symbol
_atom_site_label
_atom_site_fract_x
_atom_site_fract_y
_atom_site_fract_z
Si Si1 0.785993 0.197234 0.144704
Si Si2 0.298731 0.811662 0.439188
Si Si3 0.495141 0.690583 0.271672
Si Si4 0.511798 0.809587 0.175474
Si Si5 0.506439 0.696141 0.448287
O O1 0.867377 0.246879 0.176208
O O2 0.875961 0.246376 0.283652
O O3 0.784646 0.000000 0.142404
O O4 0.632658 0.252302 0.989811
O O5 0.376946 0.714820 0.562404
O O6 0.141351 0.776791 0.283379
O O7 0.365893 0.759944 0.454014
O O8 0.324940 0.000000 0.474698
O O9 0.480587 0.500000 0.245712
O O10 0.511354 0.783870 0.235703
O O11 0.522421 0.000000 0.174886
O O12 0.500000 0.749564 0.500000
O O13 0.511539 0.500000 0.452642
#
# Coordination Sequence:
#
# PCOD9184609 Si02
#       5
#     8   8   8   8   8
#     4   8  17  32  52  78 104 132 169 210 252 303
#     4  11  22  35  51  75 105 137 174 210 250 300
#     4  10  19  34  53  75 104 138 176 211 250 300
#     4  11  20  32  50  75 108 140 170 207 253 300
#     4   9  18  37  62  81  98 126 167 214 261 307
#
# _framework density 18.492891
#
# number of rings (size 3 to 8) (size 9 to 14) (size 15 to 20)
#    0.000    2.200    0.000    5.400    0.000    0.400 
#    0.000   10.000    0.000    6.000    0.000    0.000 
#    0.000    0.000    0.000    0.000    0.000    0.000 
#
# Total GULP energy -111663.688020 kJ/mol
# GULP energy per Si atom -5583.184401 kJ/mol
# Density = 1.845080 g / cm^3
# Si number density = 18.492891 Si / 1000 Ang^3
#
#
#
# Elastic Constant Matrix: (Units=GPa)
#
#
# Indices 1 2 3 4 5 6 
#
# 1 104.6400 -10.7222 61.6829 0.0001 -6.0669 0.0000
# 2 -10.7222 11.7671 -7.5448 0.0002 -6.5859 0.0000
# 3 61.6829 -7.5448 126.2649 0.0004 25.2718 0.0002
# 4 0.0001 0.0002 0.0004 7.8499 0.0001 6.8015
# 5 -6.0669 -6.5859 25.2718 0.0001 10.5952 0.0000
# 6 0.0000 0.0000 0.0002 6.8015 0.0000 21.2080
#
#
#
# Elastic Compliance Matrix: (Units=1/GPa)
#
#
# Indices 1 2 3 4 5 6 
#
# 1 -0.013783 -0.049467 0.022027 0.000003 -0.091179 -0.000001
# 2 -0.049467 -0.027465 0.060487 0.000002 -0.189672 -0.000001
# 3 0.022027 0.060487 -0.017750 -0.000003 0.092547 0.000001
# 4 0.000003 0.000002 -0.000003 0.176410 0.000009 -0.056576
# 5 -0.091179 -0.189672 0.092547 0.000009 -0.296471 -0.000003
# 6 -0.000001 -0.000001 0.000001 -0.056576 -0.000003 0.065296
#
#
# Mechanical properties :
#
#
# Convention : Reuss Voigt Hill
#
# Bulk Modulus (GPa) = 140.91615 36.61154 88.76384
# Shear Modulus (GPa) = -28.17056 21.21436 -3.47810
#
# Velocity S-wave (km/s) = -3.90721 3.39065 -1.37290
# Velocity P-wave (km/s) = 7.48402 5.93037 6.75203
#
# Compressibility (1/GPa) = 0.00709642
#
# Stress axis : x y z
#
# Youngs Moduli (GPa) = -72.55404 -36.41002 -56.33950
#
# Poissons Ratio (x) = -1.80110 1.24097
# Poissons Ratio (y) = -3.58903 3.40782
# Poissons Ratio (z) = 1.59812 2.20234
#
# Static dielectric constant tensor:
#      x y z
#    x 1.605190 0.000000 0.002210 
#    y 0.000000 1.627620 0.000000 
#    z 0.002210 0.000000 1.647090 
# 
# From -- ./inp_files/92708.got.cif
#   From: 2010.05.17/outbox.cif.g08.bks.cpg/sg12_47_cif.got.tgz:92708.got - 2010.06.03 13:09:07.
