data_PCOD9184238
_publ_section_title
;
Structure prediction by ZEFSAII (Michael W. Deem and Ramdas Pophale) SiO2 
 PCOD9184238
Probable space group: C 2/M
;
_chemical_formula_sum "Si O2"
_cell_formula_units_Z 56
_cell_length_a 15.542575
_cell_length_b 18.415256
_cell_length_c 10.719051
_cell_angle_alpha 90.000000
_cell_angle_beta 66.608439
_cell_angle_gamma 90.000000
_cell_volume 2815.861739
_symmetry_space_group_name_H-M "C 2/M"
_symmetry_group_IT_number 12
_symmetry_cell_setting 'monoclinic'
loop_
_space_group_symop_operation_xyz
x,y,z
-x,y,-z
-x,-y,-z
x,-y,z
1/2+x,1/2+y,z
1/2-x,1/2+y,-z
1/2-x,1/2-y,-z
1/2+x,1/2-y,z
loop_
_atom_site_type_symbol
_atom_site_label
_atom_site_fract_x
_atom_site_fract_y
_atom_site_fract_z
Si Si1 0.632790 0.664799 0.021526
Si Si2 0.066384 0.853994 0.788047
Si Si3 0.864776 0.584038 0.273973
Si Si4 0.459173 0.786820 0.334732
Si Si5 0.656986 0.782776 0.353099
Si Si6 0.297763 0.186599 0.104862
Si Si7 0.760548 0.916855 0.417553
O O1 0.544970 0.634427 0.149992
O O2 0.730183 0.653846 0.036491
O O3 0.611699 0.632477 0.897305
O O4 0.635496 0.752393 0.995711
O O5 0.069676 0.768267 0.756981
O O6 0.130063 0.897750 0.656199
O O7 0.887778 0.500000 0.247287
O O8 0.941023 0.631394 0.303217
O O9 0.846395 0.623482 0.154256
O O10 0.776256 0.590984 0.419724
O O11 0.565829 0.783298 0.317709
O O12 0.389207 0.762822 0.487005
O O13 0.731362 0.730798 0.241883
O O14 0.706549 0.859275 0.359579
O O15 0.742720 0.000000 0.390120
#
# Coordination Sequence:
#
# PCOD9184238 Si02
#       7
#     8   8   8   8   8   8   8
#     4  10  22  32  59  82 107 146 188 234 275 319
#     4  11  19  37  56  83 111 143 191 234 276 329
#     4  10  21  37  58  84 116 150 181 229 290 343
#     4  10  19  33  58  86 110 141 186 241 286 328
#     4  10  19  33  58  85 109 142 189 242 284 321
#     4  11  19  37  57  83 111 145 193 235 279 330
#     4  10  21  37  57  82 116 153 186 227 285 340
#
# _framework density 19.887339999999998
#
# number of rings (size 3 to 8) (size 9 to 14) (size 15 to 20)
#    0.000    1.714    4.286    0.857    0.000    2.857 
#    0.000    5.714    0.000    3.429    0.000    0.000 
#    0.000    0.000    0.000    0.000    0.000    0.000 
#
# Total GULP energy -156065.670977 kJ/mol
# GULP energy per Si atom -5573.773963 kJ/mol
# Density = 1.984208 g / cm^3
# Si number density = 19.887340 Si / 1000 Ang^3
#
#
#
# Elastic Constant Matrix: (Units=GPa)
#
#
# Indices 1 2 3 4 5 6 
#
# 1 41.7835 -13.8993 10.8785 0.0000 5.1132 0.0000
# 2 -13.8993 42.2870 3.4704 0.0000 7.0661 0.0000
# 3 10.8785 3.4704 26.1475 0.0000 3.7733 0.0000
# 4 0.0000 0.0000 0.0000 22.9879 0.0000 3.0235
# 5 5.1132 7.0661 3.7733 0.0000 32.5213 0.0000
# 6 0.0000 0.0000 0.0000 3.0235 0.0000 7.8666
#
#
#
# Elastic Compliance Matrix: (Units=1/GPa)
#
#
# Indices 1 2 3 4 5 6 
#
# 1 0.032804 0.013024 -0.014466 0.000000 -0.006309 0.000000
# 2 0.013024 0.029875 -0.008290 0.000000 -0.007577 0.000000
# 3 -0.014466 -0.008290 0.045538 0.000000 -0.001208 0.000000
# 4 0.000000 0.000000 0.000000 0.045817 0.000000 -0.017610
# 5 -0.006309 -0.007577 -0.001208 0.000000 0.033527 0.000000
# 6 0.000000 0.000000 0.000000 -0.017610 0.000000 0.133887
#
#
# Mechanical properties :
#
#
# Convention : Reuss Voigt Hill
#
# Bulk Modulus (GPa) = 11.26741 12.34636 11.80688
# Shear Modulus (GPa) = 13.49537 19.99304 16.74421
#
# Velocity S-wave (km/s) = 2.60780 3.17411 2.90479
# Velocity P-wave (km/s) = 3.83998 4.43339 4.14731
#
# Compressibility (1/GPa) = 0.08875151
#
# Stress axis : x y z
#
# Youngs Moduli (GPa) = 30.48446 33.47263 21.95982
#
# Poissons Ratio (x) = -0.43594 0.31767
# Poissons Ratio (y) = -0.39702 0.18205
# Poissons Ratio (z) = 0.44099 0.27749
#
# Static dielectric constant tensor:
#      x y z
#    x 1.702300 0.000000 -0.023220 
#    y 0.000000 1.682450 0.000000 
#    z -0.023220 0.000000 1.772360 
# 
# From -- ./inp_files/145503.got.cif
#   From: 2010.05.17/outbox.cif.g08.bks.cpg/sg12_73_cif.got.tgz:145503.got - 2010.06.03 13:09:07.
