data_PCOD9184849
_publ_section_title
;
Structure prediction by ZEFSAII (Michael W. Deem and Ramdas Pophale) SiO2 
 PCOD9184849
Probable space group: C 2/M
;
_chemical_formula_sum "Si O2"
_cell_formula_units_Z 36
_cell_length_a 24.875192
_cell_length_b 11.936938
_cell_length_c 16.869880
_cell_angle_alpha 90.000000
_cell_angle_beta 159.622709
_cell_angle_gamma 90.000000
_cell_volume 1744.218154
_symmetry_space_group_name_H-M "C 2/M"
_symmetry_group_IT_number 12
_symmetry_cell_setting 'monoclinic'
loop_
_space_group_symop_operation_xyz
x,y,z
-x,y,-z
-x,-y,-z
x,-y,z
1/2+x,1/2+y,z
1/2-x,1/2+y,-z
1/2-x,1/2-y,-z
1/2+x,1/2-y,z
loop_
_atom_site_type_symbol
_atom_site_label
_atom_site_fract_x
_atom_site_fract_y
_atom_site_fract_z
Si Si1 0.500000 0.233594 0.000000
Si Si2 0.814753 0.372147 0.416149
Si Si3 0.152945 0.128630 0.956963
Si Si4 0.925046 0.289236 0.728635
Si Si5 0.046618 0.783377 0.646748
O O1 0.349020 0.311949 0.797358
O O2 0.484917 0.167221 0.896199
O O3 0.794835 0.500000 0.364819
O O4 0.912799 0.366366 0.634040
O O5 0.911034 0.300257 0.486652
O O6 0.080317 0.138171 0.768253
O O7 0.032226 0.184929 0.850721
O O8 0.186321 0.000000 0.021925
O O9 0.303426 0.206604 0.161473
O O10 0.750000 0.250000 0.500000
O O11 0.000000 0.840206 0.500000
#
# Coordination Sequence:
#
# PCOD9184849 Si02
#       5
#     4   8   8   8   8
#     4  10  19  34  55  76 104 144 183 222 269 324
#     4  10  20  34  53  79 109 140 178 224 271 318
#     4  10  21  37  57  80 109 145 181 220 270 324
#     4   9  20  35  52  77 108 137 176 225 267 313
#     4  10  21  36  55  82 112 141 178 225 268 315
#
# _framework density 20.639621000000002
#
# number of rings (size 3 to 8) (size 9 to 14) (size 15 to 20)
#    0.000    2.222    0.000    2.333    0.000    8.444 
#    0.000    0.556    0.000   21.333    0.000    0.000 
#    0.000    0.000    0.000    0.000    0.000    0.000 
#
# Total GULP energy -100442.874263 kJ/mol
# GULP energy per Si atom -5580.159681 kJ/mol
# Density = 2.059264 g / cm^3
# Si number density = 20.639621 Si / 1000 Ang^3
#
#
#
# Elastic Constant Matrix: (Units=GPa)
#
#
# Indices 1 2 3 4 5 6 
#
# 1 117.4451 1.7085 39.2330 0.0000 -27.5704 0.0000
# 2 1.7085 30.9565 -1.2760 0.0000 18.4330 0.0000
# 3 39.2330 -1.2760 73.1606 0.0000 -10.2209 0.0000
# 4 0.0000 0.0000 0.0000 7.8518 0.0000 2.0357
# 5 -27.5704 18.4330 -10.2209 0.0000 63.1984 0.0000
# 6 0.0000 0.0000 0.0000 2.0357 0.0000 -7.1151
#
#
#
# Elastic Compliance Matrix: (Units=1/GPa)
#
#
# Indices 1 2 3 4 5 6 
#
# 1 0.011711 -0.004090 -0.005597 0.000000 0.005397 0.000000
# 2 -0.004090 0.040584 0.001021 0.000000 -0.013456 0.000000
# 3 -0.005597 0.001021 0.016682 0.000000 -0.000042 0.000000
# 4 0.000000 0.000000 0.000000 0.118565 0.000000 0.033922
# 5 0.005397 -0.013456 -0.000042 0.000000 0.022096 0.000000
# 6 0.000000 0.000000 0.000000 0.033922 0.000000 -0.130841
#
#
# Mechanical properties :
#
#
# Convention : Reuss Voigt Hill
#
# Bulk Modulus (GPa) = 19.36335 33.43256 26.39796
# Shear Modulus (GPa) = 44.11380 24.91348 34.51364
#
# Velocity S-wave (km/s) = 4.62815 3.47806 4.09369
# Velocity P-wave (km/s) = 6.16131 5.68882 5.92977
#
# Compressibility (1/GPa) = 0.05164396
#
# Stress axis : x y z
#
# Youngs Moduli (GPa) = 85.39092 24.64035 59.94412
#
# Poissons Ratio (x) = 0.10079 0.33553
# Poissons Ratio (y) = 0.34929 -0.06123
# Poissons Ratio (z) = 0.47797 -0.02517
#
# Static dielectric constant tensor:
#      x y z
#    x 1.774480 0.000000 -0.067060 
#    y 0.000000 1.655480 0.000000 
#    z -0.067060 0.000000 1.764740 
# 
# From -- ./inp_files/58592.got.cif
#   From: 2010.05.17/outbox.cif.g08.bks.cpg/sg12_30_cif.got.tgz:58592.got - 2010.06.03 13:09:07.
