data_PCOD9184970
_publ_section_title
;
Structure prediction by ZEFSAII (Michael W. Deem and Ramdas Pophale) SiO2 
 PCOD9184970
Probable space group: C 2/M
;
_chemical_formula_sum "Si O2"
_cell_formula_units_Z 64
_cell_length_a 8.213244
_cell_length_b 19.289904
_cell_length_c 22.993856
_cell_angle_alpha 90.000000
_cell_angle_beta 113.025087
_cell_angle_gamma 90.000000
_cell_volume 3352.755748
_symmetry_space_group_name_H-M "C 2/M"
_symmetry_group_IT_number 12
_symmetry_cell_setting 'monoclinic'
loop_
_space_group_symop_operation_xyz
x,y,z
-x,y,-z
-x,-y,-z
x,-y,z
1/2+x,1/2+y,z
1/2-x,1/2+y,-z
1/2-x,1/2-y,-z
1/2+x,1/2-y,z
loop_
_atom_site_type_symbol
_atom_site_label
_atom_site_fract_x
_atom_site_fract_y
_atom_site_fract_z
Si Si1 0.449378 0.831441 0.316709
Si Si2 0.235409 0.775834 0.390161
Si Si3 0.480552 0.420703 0.929639
Si Si4 0.250554 0.080406 0.689146
Si Si5 0.624072 0.921136 0.066931
Si Si6 0.632392 0.319583 0.184221
Si Si7 0.507804 0.645878 0.564192
Si Si8 0.751734 0.336809 0.810075
O O1 0.344026 0.824566 0.362048
O O2 0.568402 0.760452 0.333255
O O3 0.583862 0.894188 0.326490
O O4 0.303370 0.837248 0.246524
O O5 0.356370 0.710528 0.423470
O O6 0.168372 0.818503 0.435782
O O7 0.409188 0.500000 0.916479
O O8 0.678173 0.422520 0.931043
O O9 0.375967 0.366162 0.875155
O O10 0.500000 0.401473 0.000000
O O11 0.082004 0.097419 0.625496
O O12 0.249045 0.128603 0.746155
O O13 0.259506 0.000000 0.706015
O O14 0.636183 0.882855 0.129471
O O15 0.562087 0.000000 0.067773
O O16 0.500000 0.888796 0.000000
O O17 0.449049 0.331852 0.193454
O O18 0.658239 0.238211 0.177085
O O19 0.500000 0.611897 0.500000
#
# Coordination Sequence:
#
# PCOD9184970 Si02
#       8
#     8   8   8   8   8   8   8   8
#     4  10  19  34  55  80 110 140 178 226 276 331
#     4   9  18  34  57  86 114 141 177 227 283 331
#     4   9  20  37  54  76 108 144 182 223 269 329
#     4  11  24  39  55  78 111 150 189 230 278 334
#     4   9  19  36  56  76 103 143 186 226 271 324
#     4  11  21  35  58  84 109 141 180 227 281 329
#     4  10  19  34  59  86 114 147 185 229 276 331
#     4  11  22  37  57  83 113 142 182 232 281 333
#
# _framework density 19.088774000000001
#
# number of rings (size 3 to 8) (size 9 to 14) (size 15 to 20)
#    0.000    2.000    0.000    5.250    0.000    3.750 
#    0.000    5.625    0.000    0.750    0.000    0.000 
#    0.000    0.000    0.000    0.000    0.000    0.000 
#
# Total GULP energy -178588.554047 kJ/mol
# GULP energy per Si atom -5580.892314 kJ/mol
# Density = 1.904533 g / cm^3
# Si number density = 19.088774 Si / 1000 Ang^3
#
#
#
# Elastic Constant Matrix: (Units=GPa)
#
#
# Indices 1 2 3 4 5 6 
#
# 1 59.4133 13.1598 9.3277 0.0000 -14.9135 0.0000
# 2 13.1598 75.5165 28.0777 0.0000 -17.7261 0.0000
# 3 9.3277 28.0777 99.7178 0.0000 -24.3174 0.0000
# 4 0.0000 0.0000 0.0000 -20.1816 0.0000 14.6281
# 5 -14.9135 -17.7261 -24.3174 0.0000 21.7889 0.0000
# 6 0.0000 0.0000 0.0000 14.6281 0.0000 6.2067
#
#
#
# Elastic Compliance Matrix: (Units=1/GPa)
#
#
# Indices 1 2 3 4 5 6 
#
# 1 0.020657 -0.000640 0.002155 0.000000 0.016024 0.000000
# 2 -0.000640 0.016646 -0.001967 0.000000 0.010909 0.000000
# 3 0.002155 -0.001967 0.014220 0.000000 0.015746 0.000000
# 4 0.000000 0.000000 0.000000 -0.018296 0.000000 0.043120
# 5 0.016024 0.010909 0.015746 0.000000 0.083310 0.000000
# 6 0.000000 0.000000 0.000000 0.043120 0.000000 0.059490
#
#
# Mechanical properties :
#
#
# Convention : Reuss Voigt Hill
#
# Bulk Modulus (GPa) = 19.75508 37.30865 28.53186
# Shear Modulus (GPa) = 25.79948 13.83496 19.81722
#
# Velocity S-wave (km/s) = 3.68033 2.69508 3.22555
# Velocity P-wave (km/s) = 5.33210 5.41034 5.37137
#
# Compressibility (1/GPa) = 0.05061990
#
# Stress axis : x y z
#
# Youngs Moduli (GPa) = 48.41046 60.07614 70.32228
#
# Poissons Ratio (x) = 0.03844 -0.15158
# Poissons Ratio (y) = 0.03098 0.13831
# Poissons Ratio (z) = -0.10435 0.11816
#
# Static dielectric constant tensor:
#      x y z
#    x 1.684660 0.000000 0.014240 
#    y 0.000000 1.657260 0.000000 
#    z 0.014240 0.000000 1.683590 
# 
# From -- ./inp_files/301748.got.cif
#   From: 2010.05.17/outbox.cif.g08.bks.cpg/sg12_151_cif.got.tgz:301748.got - 2010.06.03 13:09:07.
