data_PCOD9184386
_publ_section_title
;
Structure prediction by ZEFSAII (Michael W. Deem and Ramdas Pophale) SiO2 
 PCOD9184386
Probable space group: C 2/M
;
_chemical_formula_sum "Si O2"
_cell_formula_units_Z 40
_cell_length_a 9.981495
_cell_length_b 28.241263
_cell_length_c 13.940194
_cell_angle_alpha 90.000000
_cell_angle_beta 29.835936
_cell_angle_gamma 90.000000
_cell_volume 1955.048049
_symmetry_space_group_name_H-M "C 2/M"
_symmetry_group_IT_number 12
_symmetry_cell_setting 'monoclinic'
loop_
_space_group_symop_operation_xyz
x,y,z
-x,y,-z
-x,-y,-z
x,-y,z
1/2+x,1/2+y,z
1/2-x,1/2+y,-z
1/2-x,1/2-y,-z
1/2+x,1/2-y,z
loop_
_atom_site_type_symbol
_atom_site_label
_atom_site_fract_x
_atom_site_fract_y
_atom_site_fract_z
Si Si1 0.059229 0.210069 0.571750
Si Si2 0.279286 0.365600 0.275518
Si Si3 0.990818 0.635934 0.257365
Si Si4 0.221680 0.799539 0.070023
Si Si5 0.671408 0.446976 0.992029
O O1 0.250000 0.250000 0.500000
O O2 0.215004 0.159472 0.464901
O O3 0.000000 0.224645 0.500000
O O4 0.801062 0.205993 0.801426
O O5 0.204416 0.355711 0.211096
O O6 0.427837 0.320704 0.226396
O O7 0.481528 0.409759 0.165518
O O8 0.000000 0.375959 0.500000
O O9 0.077378 0.664702 0.108923
O O10 0.046169 0.580513 0.201578
O O11 0.250000 0.750000 0.000000
O O12 0.702884 0.500000 0.011394
O O13 0.500000 0.451133 0.000000
#
# Coordination Sequence:
#
# PCOD9184386 Si02
#       5
#     8   8   8   8   8
#     4  12  27  40  60  88 120 159 205 251 294 355
#     4  10  19  33  60  86 122 159 200 251 304 351
#     4  10  21  38  58  85 119 163 194 247 304 354
#     4  11  22  37  57  83 117 159 200 239 293 359
#     4   8  16  32  56  89 122 154 196 246 306 362
#
# _framework density 20.459854
#
# number of rings (size 3 to 8) (size 9 to 14) (size 15 to 20)
#    0.000    1.800    4.000    1.800    2.800    2.800 
#    0.000    0.000    0.000    0.600    0.000    5.600 
#    0.000    0.000    0.000    0.000    0.000    0.000 
#
# Total GULP energy -111537.853068 kJ/mol
# GULP energy per Si atom -5576.892653 kJ/mol
# Density = 2.041329 g / cm^3
# Si number density = 20.459854 Si / 1000 Ang^3
#
#
#
# Elastic Constant Matrix: (Units=GPa)
#
#
# Indices 1 2 3 4 5 6 
#
# 1 80.0527 25.1213 14.4453 0.0000 28.2263 0.0000
# 2 25.1213 156.7203 48.2263 0.0000 -1.9957 0.0000
# 3 14.4453 48.2263 135.1350 0.0000 19.4437 0.0000
# 4 0.0000 0.0000 0.0000 20.3407 0.0000 -3.7304
# 5 28.2263 -1.9957 19.4437 0.0000 32.5897 0.0000
# 6 0.0000 0.0000 0.0000 -3.7304 0.0000 20.2505
#
#
#
# Elastic Compliance Matrix: (Units=1/GPa)
#
#
# Indices 1 2 3 4 5 6 
#
# 1 0.020037 -0.004072 0.002017 0.000000 -0.018807 0.000000
# 2 -0.004072 0.008136 -0.003334 0.000000 0.006014 0.000000
# 3 0.002017 -0.003334 0.009468 0.000000 -0.007600 0.000000
# 4 0.000000 0.000000 0.000000 0.050881 0.000000 0.009373
# 5 -0.018807 0.006014 -0.007600 0.000000 0.051876 0.000000
# 6 0.000000 0.000000 0.000000 0.009373 0.000000 0.051108
#
#
# Mechanical properties :
#
#
# Convention : Reuss Voigt Hill
#
# Bulk Modulus (GPa) = 37.22457 60.83265 49.02861
# Shear Modulus (GPa) = 23.67008 33.57720 28.62364
#
# Velocity S-wave (km/s) = 3.40502 4.05548 3.74440
# Velocity P-wave (km/s) = 5.80451 7.19211 6.53524
#
# Compressibility (1/GPa) = 0.02686398
#
# Stress axis : x y z
#
# Youngs Moduli (GPa) = 49.90780 122.91185 105.62429
#
# Poissons Ratio (x) = 0.50051 -0.21309
# Poissons Ratio (y) = 0.20323 0.35210
# Poissons Ratio (z) = -0.10069 0.40973
#
# Static dielectric constant tensor:
#      x y z
#    x 1.801210 0.000000 0.004550 
#    y 0.000000 1.734930 0.000000 
#    z 0.004550 0.000000 1.816000 
# 
# From -- ./inp_files/208910.got.cif
#   From: 2010.05.17/outbox.cif.g08.bks.cpg/sg12_105_cif.got.tgz:208910.got - 2010.06.03 13:09:07.
