data_PCOD9184108
_publ_section_title
;
Structure prediction by ZEFSAII (Michael W. Deem and Ramdas Pophale) SiO2 
 PCOD9184108
Probable space group: C 2/M
;
_chemical_formula_sum "Si O2"
_cell_formula_units_Z 48
_cell_length_a 20.888489
_cell_length_b 8.640775
_cell_length_c 32.427780
_cell_angle_alpha 90.000000
_cell_angle_beta 152.343544
_cell_angle_gamma 90.000000
_cell_volume 2716.771393
_symmetry_space_group_name_H-M "C 2/M"
_symmetry_group_IT_number 12
_symmetry_cell_setting 'monoclinic'
loop_
_space_group_symop_operation_xyz
x,y,z
-x,y,-z
-x,-y,-z
x,-y,z
1/2+x,1/2+y,z
1/2-x,1/2+y,-z
1/2-x,1/2-y,-z
1/2+x,1/2-y,z
loop_
_atom_site_type_symbol
_atom_site_label
_atom_site_fract_x
_atom_site_fract_y
_atom_site_fract_z
Si Si1 0.384291 0.684115 0.553495
Si Si2 0.928146 0.314120 0.271922
Si Si3 0.648199 0.688009 0.069189
Si Si4 0.870598 0.686809 0.453811
Si Si5 0.298705 0.814103 0.071531
Si Si6 0.937939 0.185575 0.734319
O O1 0.380857 0.500000 0.553416
O O2 0.250000 0.750000 0.500000
O O3 0.515464 0.747511 0.653431
O O4 0.382156 0.741100 0.505534
O O5 0.939640 0.500000 0.278439
O O6 0.771469 0.271210 0.170872
O O7 0.020149 0.247647 0.287004
O O8 0.642326 0.500000 0.064757
O O9 0.698405 0.736659 0.052185
O O10 0.500000 0.745053 0.000000
O O11 0.873309 0.500000 0.459515
O O12 0.721619 0.727582 0.349575
O O13 0.000000 0.734501 0.500000
O O14 0.451080 0.756191 0.170986
O O15 0.298646 0.000000 0.070650
O O16 0.250000 0.750000 0.000000
O O17 0.950569 0.000000 0.741988
#
# Coordination Sequence:
#
# PCOD9184108 Si02
#       6
#     8   8   8   8   8   8
#     4  12  23  36  58  84 113 147 189 233 277 333
#     4  10  19  33  57  85 112 144 185 231 275 327
#     4   8  16  33  56  81 107 139 179 224 271 320
#     4  10  22  40  59  82 113 149 189 231 280 335
#     4  10  20  35  57  81 109 142 185 230 274 331
#     4  10  19  34  58  82 109 145 186 229 276 332
#
# _framework density 17.668030999999999
#
# number of rings (size 3 to 8) (size 9 to 14) (size 15 to 20)
#    0.000    2.000    1.667    4.000    0.000    1.000 
#    3.000    0.000    0.000   17.000    0.000    0.000 
#    0.000    0.000    0.000    0.000    0.000    0.000 
#
# Total GULP energy -133951.994180 kJ/mol
# GULP energy per Si atom -5581.333091 kJ/mol
# Density = 1.762782 g / cm^3
# Si number density = 17.668031 Si / 1000 Ang^3
#
#
#
# Elastic Constant Matrix: (Units=GPa)
#
#
# Indices 1 2 3 4 5 6 
#
# 1 120.1535 45.7610 104.7173 0.0000 2.4367 0.0002
# 2 45.7610 52.5988 50.0281 0.0001 0.5382 0.0003
# 3 104.7173 50.0281 172.2633 0.0000 2.9842 0.0000
# 4 0.0000 0.0001 0.0000 29.9146 0.0000 -7.0393
# 5 2.4367 0.5382 2.9842 0.0000 38.5820 0.0000
# 6 0.0002 0.0003 0.0000 -7.0393 0.0000 26.0883
#
#
#
# Elastic Compliance Matrix: (Units=1/GPa)
#
#
# Indices 1 2 3 4 5 6 
#
# 1 0.019883 -0.008020 -0.009751 0.000000 -0.000390 0.000000
# 2 -0.008020 0.029504 -0.003700 0.000000 0.000381 0.000000
# 3 -0.009751 -0.003700 0.012813 0.000000 -0.000324 0.000000
# 4 0.000000 0.000000 0.000000 0.035695 0.000000 0.009631
# 5 -0.000390 0.000381 -0.000324 0.000000 0.025963 0.000000
# 6 0.000000 0.000000 0.000000 0.009631 0.000000 0.040930
#
#
# Mechanical properties :
#
#
# Convention : Reuss Voigt Hill
#
# Bulk Modulus (GPa) = 51.92476 82.89204 67.40840
# Shear Modulus (GPa) = 23.34813 28.55094 25.94953
#
# Velocity S-wave (km/s) = 3.63917 4.02427 3.83656
# Velocity P-wave (km/s) = 6.86375 8.28319 7.60665
#
# Compressibility (1/GPa) = 0.01925863
#
# Stress axis : x y z
#
# Youngs Moduli (GPa) = 50.29331 33.89323 78.04756
#
# Poissons Ratio (x) = 0.27183 0.76104
# Poissons Ratio (y) = 0.40336 0.28876
# Poissons Ratio (z) = 0.49041 0.12540
#
# Static dielectric constant tensor:
#      x y z
#    x 1.577740 0.000000 0.013130 
#    y 0.000000 1.599150 0.000000 
#    z 0.013130 0.000000 1.611640 
# 
# From -- ./inp_files/378548.got.cif
#   From: 2010.05.17/outbox.cif.g08.bks.cpg/sg12_190_cif.got.tgz:378548.got - 2010.06.03 13:09:07.
