data_PCOD9184070
_publ_section_title
;
Structure prediction by ZEFSAII (Michael W. Deem and Ramdas Pophale) SiO2 
 PCOD9184070
Probable space group: C 2/M
;
_chemical_formula_sum "Si O2"
_cell_formula_units_Z 64
_cell_length_a 23.322841
_cell_length_b 16.708820
_cell_length_c 8.595334
_cell_angle_alpha 90.000000
_cell_angle_beta 125.253838
_cell_angle_gamma 90.000000
_cell_volume 2735.274416
_symmetry_space_group_name_H-M "C 2/M"
_symmetry_group_IT_number 12
_symmetry_cell_setting 'monoclinic'
loop_
_space_group_symop_operation_xyz
x,y,z
-x,y,-z
-x,-y,-z
x,-y,z
1/2+x,1/2+y,z
1/2-x,1/2+y,-z
1/2-x,1/2-y,-z
1/2+x,1/2-y,z
loop_
_atom_site_type_symbol
_atom_site_label
_atom_site_fract_x
_atom_site_fract_y
_atom_site_fract_z
Si Si1 0.329535 0.875665 0.561473
Si Si2 0.935775 0.203658 0.004585
Si Si3 0.683304 0.724666 0.657585
Si Si4 0.395798 0.120451 0.002623
Si Si5 0.536836 0.318159 0.401652
Si Si6 0.969100 0.622009 0.618927
Si Si7 0.809701 0.088852 0.816125
Si Si8 0.786788 0.354266 0.047840
O O1 0.315466 0.781737 0.492286
O O2 0.361946 0.892394 0.780932
O O3 0.390673 0.903889 0.538901
O O4 0.254378 0.911958 0.406512
O O5 0.901325 0.282399 0.023774
O O6 0.869928 0.149705 0.855330
O O7 0.000000 0.236987 0.000000
O O8 0.985088 0.149757 0.190743
O O9 0.618788 0.665089 0.531730
O O10 0.749578 0.678786 0.832053
O O11 0.673651 0.786419 0.787708
O O12 0.346598 0.091385 0.066471
O O13 0.475177 0.094835 0.163361
O O14 0.500000 0.341927 0.500000
O O15 0.534569 0.220152 0.385263
O O16 0.000000 0.599406 0.500000
O O17 0.838258 0.000000 0.879453
O O18 0.771715 0.114789 0.920818
#
# Coordination Sequence:
#
# PCOD9184070 Si02
#       8
#     8   8   8   8   8   8   8   8
#     4  10  20  33  56  88 123 154 186 246 316 368
#     4  11  22  35  58  90 121 153 189 240 308 370
#     4   9  16  29  50  82 114 143 184 235 306 369
#     4  11  19  32  59  98 129 143 178 245 325 385
#     4   9  15  26  47  77 114 145 173 220 288 355
#     4   9  16  29  52  85 123 156 180 220 292 374
#     4  11  25  44  59  75 112 169 223 254 280 342
#     4  10  19  33  57  83 112 155 201 247 297 352
#
# _framework density 23.398018
#
# number of rings (size 3 to 8) (size 9 to 14) (size 15 to 20)
#    0.000    2.000    0.000    9.375    0.000    3.250 
#    0.000    0.625    0.000    8.250    0.000    0.000 
#    0.000    0.000    0.000    0.000    0.000    0.000 
#
# Total GULP energy -178301.874217 kJ/mol
# GULP energy per Si atom -5571.933569 kJ/mol
# Density = 2.334476 g / cm^3
# Si number density = 23.398018 Si / 1000 Ang^3
#
#
#
# Elastic Constant Matrix: (Units=GPa)
#
#
# Indices 1 2 3 4 5 6 
#
# 1 104.5735 13.5140 33.8781 0.0000 17.5723 0.0000
# 2 13.5140 54.5076 1.8891 0.0000 18.0547 0.0000
# 3 33.8781 1.8891 140.7359 0.0000 31.0376 0.0000
# 4 0.0000 0.0000 0.0000 -13.6343 0.0000 2.3386
# 5 17.5723 18.0547 31.0376 0.0000 41.3574 0.0000
# 6 0.0000 0.0000 0.0000 2.3386 0.0000 -10.6741
#
#
#
# Elastic Compliance Matrix: (Units=1/GPa)
#
#
# Indices 1 2 3 4 5 6 
#
# 1 0.010859 -0.001886 -0.002100 0.000000 -0.002214 0.000000
# 2 -0.001886 0.022321 0.002548 0.000000 -0.010856 0.000000
# 3 -0.002100 0.002548 0.009138 0.000000 -0.007078 0.000000
# 4 0.000000 0.000000 0.000000 -0.076208 0.000000 -0.016696
# 5 -0.002214 -0.010856 -0.007078 0.000000 0.035171 0.000000
# 6 0.000000 0.000000 0.000000 -0.016696 0.000000 -0.097342
#
#
# Mechanical properties :
#
#
# Convention : Reuss Voigt Hill
#
# Bulk Modulus (GPa) = 25.35370 44.26439 34.80905
# Shear Modulus (GPa) = -62.47009 20.11216 -21.17897
#
# Velocity S-wave (km/s) = -5.17270 2.93502 -3.01185
# Velocity P-wave (km/s) = 4.98161 5.51768 1.67756
#
# Compressibility (1/GPa) = 0.03944197
#
# Stress axis : x y z
#
# Youngs Moduli (GPa) = 92.09043 44.80078 109.43528
#
# Poissons Ratio (x) = 0.08449 0.22985
# Poissons Ratio (y) = 0.17368 -0.27889
# Poissons Ratio (z) = 0.19342 -0.11417
#
# Static dielectric constant tensor:
#      x y z
#    x 1.406300 0.000000 0.204010 
#    y 0.000000 1.926460 0.000000 
#    z 0.204010 0.000000 1.840280 
# 
# From -- ./inp_files/99147.got.cif
#   From: 2010.05.17/outbox.cif.g08.bks.cpg/sg12_50_cif.got.tgz:99147.got - 2010.06.03 13:09:07.
