data_PCOD9184625
_publ_section_title
;
Structure prediction by ZEFSAII (Michael W. Deem and Ramdas Pophale) SiO2 
 PCOD9184625
Probable space group: C 2/M
;
_chemical_formula_sum "Si O2"
_cell_formula_units_Z 64
_cell_length_a 10.929832
_cell_length_b 21.780180
_cell_length_c 17.584877
_cell_angle_alpha 90.000000
_cell_angle_beta 124.427020
_cell_angle_gamma 90.000000
_cell_volume 3452.929189
_symmetry_space_group_name_H-M "C 2/M"
_symmetry_group_IT_number 12
_symmetry_cell_setting 'monoclinic'
loop_
_space_group_symop_operation_xyz
x,y,z
-x,y,-z
-x,-y,-z
x,-y,z
1/2+x,1/2+y,z
1/2-x,1/2+y,-z
1/2-x,1/2-y,-z
1/2+x,1/2-y,z
loop_
_atom_site_type_symbol
_atom_site_label
_atom_site_fract_x
_atom_site_fract_y
_atom_site_fract_z
Si Si1 0.909573 0.928745 0.891454
Si Si2 0.433967 0.250947 0.902201
Si Si3 0.547566 0.930001 0.928575
Si Si4 0.620060 0.300507 0.605303
Si Si5 0.777387 0.634834 0.786541
Si Si6 0.447203 0.662293 0.169830
Si Si7 0.550616 0.236274 0.319297
Si Si8 0.673906 0.152879 0.852880
O O1 0.969683 0.892783 0.840641
O O2 0.739519 0.909134 0.839870
O O3 0.930849 0.000000 0.890508
O O4 0.000000 0.909866 0.000000
O O5 0.358336 0.201220 0.822275
O O6 0.560515 0.286982 0.900022
O O7 0.307879 0.298485 0.886696
O O8 0.500000 0.221039 0.000000
O O9 0.396163 0.919044 0.827421
O O10 0.642893 0.872931 0.927355
O O11 0.607090 0.000000 0.939536
O O12 0.500000 0.923978 0.000000
O O13 0.500000 0.317060 0.500000
O O14 0.669989 0.356687 0.677637
O O15 0.538288 0.251275 0.633528
O O16 0.774098 0.278446 0.619513
O O17 0.692328 0.634581 0.836744
O O18 0.532523 0.701240 0.263835
O O19 0.459739 0.182872 0.242070
#
# Coordination Sequence:
#
# PCOD9184625 Si02
#       8
#     8   8   8   8   8   8   8   8
#     4  10  22  37  53  76 109 154 204 244 274 321
#     4  11  21  33  54  83 112 150 187 229 287 338
#     4  11  25  38  53  78 113 158 199 229 269 326
#     4  11  21  37  60  89 122 150 186 235 304 369
#     4  11  22  37  54  81 117 147 185 233 286 348
#     4  10  19  34  53  76 110 145 186 228 280 336
#     4  11  20  38  59  88 122 150 183 243 297 362
#     4  11  19  38  58  77 116 148 196 233 285 338
#
# _framework density 18.534987000000001
#
# number of rings (size 3 to 8) (size 9 to 14) (size 15 to 20)
#    0.000    1.250    5.000    3.375    3.500    1.000 
#    0.000    0.625    0.000    0.375    0.000    0.000 
#    0.000    6.500    0.000    0.000    0.000    0.000 
#
# Total GULP energy -178263.422384 kJ/mol
# GULP energy per Si atom -5570.731950 kJ/mol
# Density = 1.849280 g / cm^3
# Si number density = 18.534987 Si / 1000 Ang^3
#
#
#
# Elastic Constant Matrix: (Units=GPa)
#
#
# Indices 1 2 3 4 5 6 
#
# 1 87.9129 9.1322 9.3689 0.0000 -2.4496 0.0000
# 2 9.1322 62.4197 18.2302 0.0000 -1.8273 0.0000
# 3 9.3689 18.2302 88.1985 0.0000 4.1025 0.0000
# 4 0.0000 0.0000 0.0000 11.2825 0.0000 0.1952
# 5 -2.4496 -1.8273 4.1025 0.0000 24.4325 0.0000
# 6 0.0000 0.0000 0.0000 0.1952 0.0000 22.0968
#
#
#
# Elastic Compliance Matrix: (Units=1/GPa)
#
#
# Indices 1 2 3 4 5 6 
#
# 1 0.011660 -0.001374 -0.001012 0.000000 0.001236 0.000000
# 2 -0.001374 0.017298 -0.003511 0.000000 0.001745 0.000000
# 3 -0.001012 -0.003511 0.012284 0.000000 -0.002427 0.000000
# 4 0.000000 0.000000 0.000000 0.088646 0.000000 -0.000783
# 5 0.001236 0.001745 -0.002427 0.000000 0.041591 0.000000
# 6 0.000000 0.000000 0.000000 -0.000783 0.000000 0.045262
#
#
# Mechanical properties :
#
#
# Convention : Reuss Voigt Hill
#
# Bulk Modulus (GPa) = 33.95768 34.66596 34.31182
# Shear Modulus (GPa) = 20.97742 25.01569 22.99656
#
# Velocity S-wave (km/s) = 3.36783 3.67774 3.52619
# Velocity P-wave (km/s) = 5.78651 6.06448 5.92713
#
# Compressibility (1/GPa) = 0.02944842
#
# Stress axis : x y z
#
# Youngs Moduli (GPa) = 85.76379 57.81008 81.40622
#
# Poissons Ratio (x) = 0.07944 0.08239
# Poissons Ratio (y) = 0.11785 0.28579
# Poissons Ratio (z) = 0.08680 0.20295
#
# Static dielectric constant tensor:
#      x y z
#    x 1.789180 0.000000 0.009370 
#    y 0.000000 1.652750 0.000000 
#    z 0.009370 0.000000 1.635110 
# 
# From -- ./inp_files/265563.got.cif
#   From: 2010.05.17/outbox.cif.g08.bks.cpg/sg12_133_cif.got.tgz:265563.got - 2010.06.03 13:09:07.
