data_PCOD9184052
_publ_section_title
;
Structure prediction by ZEFSAII (Michael W. Deem and Ramdas Pophale) SiO2 
 PCOD9184052
Probable space group: C 2/M
;
_chemical_formula_sum "Si O2"
_cell_formula_units_Z 48
_cell_length_a 13.467082
_cell_length_b 23.442081
_cell_length_c 13.376687
_cell_angle_alpha 90.000000
_cell_angle_beta 135.811507
_cell_angle_gamma 90.000000
_cell_volume 2943.500826
_symmetry_space_group_name_H-M "C 2/M"
_symmetry_group_IT_number 12
_symmetry_cell_setting 'monoclinic'
loop_
_space_group_symop_operation_xyz
x,y,z
-x,y,-z
-x,-y,-z
x,-y,z
1/2+x,1/2+y,z
1/2-x,1/2+y,-z
1/2-x,1/2-y,-z
1/2+x,1/2-y,z
loop_
_atom_site_type_symbol
_atom_site_label
_atom_site_fract_x
_atom_site_fract_y
_atom_site_fract_z
Si Si1 0.835711 0.267161 0.910858
Si Si2 0.347741 0.275942 0.421651
Si Si3 0.875293 0.330392 0.589212
Si Si4 0.339566 0.064668 0.425472
Si Si5 0.665944 0.568126 0.102474
Si Si6 0.688403 0.162715 0.915557
O O1 0.741700 0.268354 0.743633
O O2 0.784636 0.211809 0.934675
O O3 0.815593 0.321302 0.970234
O O4 0.000000 0.262787 0.000000
O O5 0.500000 0.301302 0.500000
O O6 0.248963 0.311917 0.424915
O O7 0.379732 0.216834 0.503857
O O8 0.837311 0.390634 0.512746
O O9 0.028360 0.332719 0.754878
O O10 0.500000 0.063629 0.500000
O O11 0.244024 0.083174 0.262696
O O12 0.299403 0.000000 0.425251
O O13 0.681728 0.500000 0.098107
O O14 0.739752 0.603803 0.067513
O O15 0.500000 0.581060 0.000000
#
# Coordination Sequence:
#
# PCOD9184052 Si02
#       6
#     8   8   8   8   8   8
#     4  11  22  35  51  78 111 142 178 219 266 314
#     4  11  22  36  53  77 109 142 177 222 268 314
#     4  11  21  34  57  80 107 142 181 220 266 321
#     4  10  19  33  57  83 106 135 176 222 266 315
#     4  10  21  36  55  83 113 139 172 222 274 316
#     4  11  21  34  56  80 107 145 179 218 266 323
#
# _framework density 16.307113000000001
#
# number of rings (size 3 to 8) (size 9 to 14) (size 15 to 20)
#    0.000    1.333    5.000    2.000    0.000    1.333 
#    0.000    0.000    0.000    2.000    0.000    0.000 
#    0.000    0.000    0.000    0.000    0.000    0.000 
#
# Total GULP energy -133928.054370 kJ/mol
# GULP energy per Si atom -5580.335599 kJ/mol
# Density = 1.627000 g / cm^3
# Si number density = 16.307113 Si / 1000 Ang^3
#
#
#
# Elastic Constant Matrix: (Units=GPa)
#
#
# Indices 1 2 3 4 5 6 
#
# 1 110.0433 25.9076 34.3983 0.0000 9.0450 0.0000
# 2 25.9076 46.9634 2.7117 0.0000 -6.8345 0.0000
# 3 34.3983 2.7117 88.9860 0.0000 7.1925 0.0000
# 4 0.0000 0.0000 0.0000 22.0348 0.0000 1.0722
# 5 9.0450 -6.8345 7.1925 0.0000 32.3726 0.0000
# 6 0.0000 0.0000 0.0000 1.0722 0.0000 31.7166
#
#
#
# Elastic Compliance Matrix: (Units=1/GPa)
#
#
# Indices 1 2 3 4 5 6 
#
# 1 0.012452 -0.007213 -0.004266 0.000000 -0.004054 0.000000
# 2 -0.007213 0.026246 0.001403 0.000000 0.007245 0.000000
# 3 -0.004266 0.001403 0.012956 0.000000 -0.001391 0.000000
# 4 0.000000 0.000000 0.000000 0.045458 0.000000 -0.001537
# 5 -0.004054 0.007245 -0.001391 0.000000 0.033862 0.000000
# 6 0.000000 0.000000 0.000000 -0.001537 0.000000 0.031581
#
#
# Mechanical properties :
#
#
# Convention : Reuss Voigt Hill
#
# Bulk Modulus (GPa) = 31.74405 41.33642 36.54024
# Shear Modulus (GPa) = 25.87892 29.42313 27.65103
#
# Velocity S-wave (km/s) = 3.98800 4.25233 4.12228
# Velocity P-wave (km/s) = 6.38077 7.03658 6.71668
#
# Compressibility (1/GPa) = 0.03150197
#
# Stress axis : x y z
#
# Youngs Moduli (GPa) = 80.30675 38.10168 77.18170
#
# Poissons Ratio (x) = 0.27483 0.32926
# Poissons Ratio (y) = 0.57925 -0.10828
# Poissons Ratio (z) = 0.34259 -0.05345
#
# Static dielectric constant tensor:
#      x y z
#    x 1.536380 0.000000 -0.002240 
#    y 0.000000 1.554520 0.000000 
#    z -0.002240 0.000000 1.536330 
# 
# From -- ./inp_files/50639.got.cif
#   From: 2010.05.17/outbox.cif.g08.bks.cpg/sg12_26_cif.got.tgz:50639.got - 2010.06.03 13:09:07.
