data_PCOD9184163
_publ_section_title
;
Structure prediction by ZEFSAII (Michael W. Deem and Ramdas Pophale) SiO2 
 PCOD9184163
Probable space group: C 2/M
;
_chemical_formula_sum "Si O2"
_cell_formula_units_Z 56
_cell_length_a 14.781202
_cell_length_b 15.424637
_cell_length_c 20.043371
_cell_angle_alpha 90.000000
_cell_angle_beta 141.657621
_cell_angle_gamma 90.000000
_cell_volume 2834.906789
_symmetry_space_group_name_H-M "C 2/M"
_symmetry_group_IT_number 12
_symmetry_cell_setting 'monoclinic'
loop_
_space_group_symop_operation_xyz
x,y,z
-x,y,-z
-x,-y,-z
x,-y,z
1/2+x,1/2+y,z
1/2-x,1/2+y,-z
1/2-x,1/2-y,-z
1/2+x,1/2-y,z
loop_
_atom_site_type_symbol
_atom_site_label
_atom_site_fract_x
_atom_site_fract_y
_atom_site_fract_z
Si Si1 0.187877 0.593443 0.974556
Si Si2 0.249757 0.256841 0.395584
Si Si3 0.067853 0.844930 0.975862
Si Si4 0.231179 0.321422 0.135520
Si Si5 0.850947 0.598676 0.372056
Si Si6 0.502067 0.765542 0.639717
Si Si7 0.085320 0.697830 0.179941
O O1 0.117913 0.500000 0.929331
O O2 0.238103 0.613324 0.078641
O O3 0.326854 0.600625 0.008372
O O4 0.068556 0.663481 0.883275
O O5 0.254761 0.158909 0.366948
O O6 0.404757 0.269640 0.521478
O O7 0.122449 0.278738 0.375398
O O8 0.210067 0.310643 0.306627
O O9 0.161655 0.765436 0.062282
O O10 0.000000 0.891633 0.000000
O O11 0.945776 0.796980 0.860518
O O12 0.381547 0.297229 0.258278
O O13 0.125189 0.349490 0.134245
O O14 0.796811 0.500000 0.326767
O O15 0.000000 0.589412 0.500000
O O16 0.903490 0.654182 0.336923
#
# Coordination Sequence:
#
# PCOD9184163 Si02
#       7
#     8   8   8   8   8   8   8
#     4  11  22  36  57  83 108 140 187 244 290 334
#     4  10  19  33  57  87 117 154 196 232 279 350
#     4   9  19  35  57  79 106 145 180 224 286 346
#     4  10  19  35  59  80 107 147 189 231 276 342
#     4   9  18  34  56  85 117 146 188 245 290 328
#     4  10  19  33  57  87 117 154 196 232 279 350
#     4  10  19  35  59  80 107 147 189 231 276 342
#
# _framework density 19.753734999999999
#
# number of rings (size 3 to 8) (size 9 to 14) (size 15 to 20)
#    0.000    2.143    1.429    4.714    0.000    1.429 
#    0.000    5.714    0.000    2.571    0.000    2.000 
#    0.000    0.000    0.000    0.000    0.000    0.000 
#
# Total GULP energy -155879.859826 kJ/mol
# GULP energy per Si atom -5567.137851 kJ/mol
# Density = 1.970877 g / cm^3
# Si number density = 19.753735 Si / 1000 Ang^3
#
#
#
# Elastic Constant Matrix: (Units=GPa)
#
#
# Indices 1 2 3 4 5 6 
#
# 1 100.6776 19.9243 13.2827 0.0001 -9.2652 0.0000
# 2 19.9243 35.9207 -1.8029 0.0001 -8.1999 0.0000
# 3 13.2827 -1.8029 114.8577 0.0004 -11.7277 0.0001
# 4 0.0001 0.0001 0.0004 -2.9043 0.0002 -15.5134
# 5 -9.2652 -8.1999 -11.7277 0.0002 25.2705 0.0000
# 6 0.0000 0.0000 0.0001 -15.5134 0.0000 -18.2795
#
#
#
# Elastic Compliance Matrix: (Units=1/GPa)
#
#
# Indices 1 2 3 4 5 6 
#
# 1 0.011444 -0.006032 -0.001249 0.000000 0.001659 0.000000
# 2 -0.006032 0.033507 0.002213 0.000000 0.009688 0.000000
# 3 -0.001249 0.002213 0.009355 0.000000 0.004602 0.000000
# 4 0.000000 0.000000 0.000000 0.097450 -0.000001 -0.082704
# 5 0.001659 0.009688 0.004602 -0.000001 0.045459 0.000001
# 6 0.000000 0.000000 0.000000 -0.082704 0.000001 0.015483
#
#
# Mechanical properties :
#
#
# Convention : Reuss Voigt Hill
#
# Bulk Modulus (GPa) = 22.63904 34.91823 28.77864
# Shear Modulus (GPa) = 21.04748 15.48746 18.26747
#
# Velocity S-wave (km/s) = 3.26773 2.80309 3.04429
# Velocity P-wave (km/s) = 5.07178 5.30957 5.19204
#
# Compressibility (1/GPa) = 0.04417149
#
# Stress axis : x y z
#
# Youngs Moduli (GPa) = 87.38375 29.84425 106.88960
#
# Poissons Ratio (x) = 0.18001 0.13347
# Poissons Ratio (y) = 0.52706 -0.23651
# Poissons Ratio (z) = 0.10911 -0.06604
#
# Static dielectric constant tensor:
#      x y z
#    x 1.755700 0.000000 0.010600 
#    y 0.000000 1.681010 0.000000 
#    z 0.010600 0.000000 1.715980 
# 
# From -- ./inp_files/310838.got.cif
#   From: 2010.05.17/outbox.cif.g08.bks.cpg/sg12_156_cif.got.tgz:310838.got - 2010.06.03 13:09:07.
