data_PCOD9184274
_publ_section_title
;
Structure prediction by ZEFSAII (Michael W. Deem and Ramdas Pophale) SiO2 
 PCOD9184274
Probable space group: C 2/M
;
_chemical_formula_sum "Si O2"
_cell_formula_units_Z 64
_cell_length_a 14.001362
_cell_length_b 12.197188
_cell_length_c 27.268234
_cell_angle_alpha 90.000000
_cell_angle_beta 137.617700
_cell_angle_gamma 90.000000
_cell_volume 3139.024737
_symmetry_space_group_name_H-M "C 2/M"
_symmetry_group_IT_number 12
_symmetry_cell_setting 'monoclinic'
loop_
_space_group_symop_operation_xyz
x,y,z
-x,y,-z
-x,-y,-z
x,-y,z
1/2+x,1/2+y,z
1/2-x,1/2+y,-z
1/2-x,1/2-y,-z
1/2+x,1/2-y,z
loop_
_atom_site_type_symbol
_atom_site_label
_atom_site_fract_x
_atom_site_fract_y
_atom_site_fract_z
Si Si1 0.342888 0.128394 0.959916
Si Si2 0.351674 0.614159 0.729537
Si Si3 0.655376 0.807746 0.581676
Si Si4 0.198296 0.871262 0.459755
Si Si5 0.234782 0.774195 0.214594
Si Si6 0.363615 0.374822 0.351152
Si Si7 0.527336 0.123587 0.891945
Si Si8 0.397763 0.223499 0.179985
O O1 0.217910 0.195185 0.887694
O O2 0.322928 0.000000 0.941658
O O3 0.500000 0.158797 0.000000
O O4 0.350225 0.142454 0.021605
O O5 0.420733 0.500000 0.742007
O O6 0.199099 0.623667 0.645945
O O7 0.325109 0.625460 0.776914
O O8 0.455646 0.712396 0.754996
O O9 0.500000 0.822689 0.500000
O O10 0.765519 0.850796 0.583312
O O11 0.668604 0.685139 0.609102
O O12 0.250000 0.750000 0.500000
O O13 0.033159 0.874398 0.409872
O O14 0.250004 0.000000 0.491270
O O15 0.305260 0.694287 0.282618
O O16 0.335229 0.809613 0.208618
O O17 0.099494 0.706501 0.144980
O O18 0.311522 0.500000 0.330307
O O19 0.572406 0.138646 0.852530
O O20 0.476172 0.000000 0.880611
#
# Coordination Sequence:
#
# PCOD9184274 Si02
#       8
#     8   8   8   8   8   8   8   8
#     4  10  19  33  58  88 113 146 192 236 282 336
#     4  10  23  39  57  84 114 149 192 239 291 348
#     4  11  22  40  63  88 118 152 201 246 302 357
#     4  11  23  40  60  89 119 154 200 249 302 367
#     4  10  21  37  57  84 114 151 195 238 285 346
#     4  10  22  40  62  86 120 158 198 247 301 360
#     4  10  21  36  56  86 118 148 190 236 286 341
#     4  11  21  37  61  83 115 153 190 237 285 341
#
# _framework density 20.388497999999998
#
# number of rings (size 3 to 8) (size 9 to 14) (size 15 to 20)
#    0.000    1.625    2.500    2.250    0.000    4.750 
#    0.000    0.000    0.000    4.875    0.000    0.000 
#    0.000    0.000    0.000    0.000    0.000    0.000 
#
# Total GULP energy -178194.894093 kJ/mol
# GULP energy per Si atom -5568.590440 kJ/mol
# Density = 2.034209 g / cm^3
# Si number density = 20.388498 Si / 1000 Ang^3
#
#
#
# Elastic Constant Matrix: (Units=GPa)
#
#
# Indices 1 2 3 4 5 6 
#
# 1 77.3615 -0.3212 -6.9785 0.0000 -10.7175 0.0000
# 2 -0.3212 74.2881 12.3247 0.0000 0.4244 0.0000
# 3 -6.9785 12.3247 74.3299 0.0000 3.0510 0.0000
# 4 0.0000 0.0000 0.0000 9.0086 0.0000 0.0665
# 5 -10.7175 0.4244 3.0510 0.0000 24.5725 0.0000
# 6 0.0000 0.0000 0.0000 0.0665 0.0000 18.5032
#
#
#
# Elastic Compliance Matrix: (Units=1/GPa)
#
#
# Indices 1 2 3 4 5 6 
#
# 1 0.013841 -0.000153 0.001083 0.000000 0.005905 0.000000
# 2 -0.000153 0.013844 -0.002309 0.000000 -0.000019 0.000000
# 3 0.001083 -0.002309 0.013988 0.000000 -0.001225 0.000000
# 4 0.000000 0.000000 0.000000 0.111008 0.000000 -0.000399
# 5 0.005905 -0.000019 -0.001225 0.000000 0.043424 0.000000
# 6 0.000000 0.000000 0.000000 -0.000399 0.000000 0.054046
#
#
# Mechanical properties :
#
#
# Convention : Reuss Voigt Hill
#
# Bulk Modulus (GPa) = 25.69802 26.22548 25.96175
# Shear Modulus (GPa) = 18.80530 25.14717 21.97623
#
# Velocity S-wave (km/s) = 3.04031 3.51579 3.28666
# Velocity P-wave (km/s) = 4.99562 5.41958 5.21191
#
# Compressibility (1/GPa) = 0.03891350
#
# Stress axis : x y z
#
# Youngs Moduli (GPa) = 72.24672 72.23541 71.48828
#
# Poissons Ratio (x) = 0.01109 -0.07739
# Poissons Ratio (y) = 0.01109 0.16507
# Poissons Ratio (z) = -0.07821 0.16679
#
# Static dielectric constant tensor:
#      x y z
#    x 1.804130 0.000000 -0.032100 
#    y 0.000000 1.752880 0.000000 
#    z -0.032100 0.000000 1.750680 
# 
# From -- ./inp_files/361068.got.cif
#   From: 2010.05.17/outbox.cif.g08.bks.cpg/sg12_181_cif.got.tgz:361068.got - 2010.06.03 13:09:07.
