data_PCOD9184966
_publ_section_title
;
Structure prediction by ZEFSAII (Michael W. Deem and Ramdas Pophale) SiO2 
 PCOD9184966
Probable space group: C 2/M
;
_chemical_formula_sum "Si O2"
_cell_formula_units_Z 64
_cell_length_a 20.333733
_cell_length_b 7.614828
_cell_length_c 31.041634
_cell_angle_alpha 90.000000
_cell_angle_beta 142.487904
_cell_angle_gamma 90.000000
_cell_volume 2926.768540
_symmetry_space_group_name_H-M "C 2/M"
_symmetry_group_IT_number 12
_symmetry_cell_setting 'monoclinic'
loop_
_space_group_symop_operation_xyz
x,y,z
-x,y,-z
-x,-y,-z
x,-y,z
1/2+x,1/2+y,z
1/2-x,1/2+y,-z
1/2-x,1/2-y,-z
1/2+x,1/2-y,z
loop_
_atom_site_type_symbol
_atom_site_label
_atom_site_fract_x
_atom_site_fract_y
_atom_site_fract_z
Si Si1 0.838497 0.789155 0.509894
Si Si2 0.911737 0.795232 0.754492
Si Si3 0.078450 0.787644 0.628417
Si Si4 0.733556 0.791518 0.786910
Si Si5 0.036747 0.784635 0.121721
Si Si6 0.799914 0.789634 0.979365
Si Si7 0.815068 0.202270 0.401228
Si Si8 0.371761 0.786378 0.180713
O O1 0.750000 0.750000 0.500000
O O2 0.812648 0.721930 0.448118
O O3 0.960660 0.728149 0.582974
O O4 0.841040 0.000000 0.509416
O O5 0.950042 0.730825 0.821399
O O6 0.804755 0.705605 0.680951
O O7 0.011626 0.775733 0.774116
O O8 0.883885 0.000000 0.744879
O O9 0.171165 0.736564 0.709961
O O10 0.107289 0.721305 0.595439
O O11 0.078283 0.000000 0.626680
O O12 0.855767 0.724113 0.846851
O O13 0.664128 0.723894 0.790843
O O14 0.743222 0.000000 0.798630
O O15 0.923058 0.723973 0.043355
O O16 0.034822 0.000000 0.120409
O O17 0.804812 0.000000 0.976949
O O18 0.750000 0.750000 0.000000
O O19 0.718867 0.725436 0.900507
O O20 0.850263 0.000000 0.424620
O O21 0.375344 0.000000 0.181961
#
# Coordination Sequence:
#
# PCOD9184966 Si02
#       8
#     8   8   8   8   8   8   8   8
#     4  10  23  41  60  86 118 150 186 230 280 332
#     4  11  21  35  58  85 114 147 189 238 281 332
#     4  10  21  39  62  85 111 149 192 231 276 333
#     4  10  21  38  57  82 116 149 186 234 285 335
#     4   9  18  34  56  81 109 144 186 233 281 327
#     4  10  19  34  55  80 109 146 190 234 283 335
#     4  10  21  39  62  85 113 150 191 233 277 331
#     4  10  22  36  55  83 114 150 190 234 285 340
#
# _framework density 21.86712
#
# number of rings (size 3 to 8) (size 9 to 14) (size 15 to 20)
#    0.000    2.000    2.500    0.750    1.750    3.500 
#    0.000    3.125    0.000    2.250    0.000    2.625 
#    0.000    0.000    0.000    0.000    0.000    0.000 
#
# Total GULP energy -178767.168046 kJ/mol
# GULP energy per Si atom -5586.474001 kJ/mol
# Density = 2.181735 g / cm^3
# Si number density = 21.867120 Si / 1000 Ang^3
#
#
#
# Elastic Constant Matrix: (Units=GPa)
#
#
# Indices 1 2 3 4 5 6 
#
# 1 142.4505 -6.0364 18.0948 0.0007 18.4695 0.0016
# 2 -6.0364 43.9846 -8.9520 -0.0002 0.3148 0.0004
# 3 18.0948 -8.9520 57.8670 0.0007 20.6011 0.0011
# 4 0.0007 -0.0002 0.0007 36.2230 -0.0003 15.3924
# 5 18.4695 0.3148 20.6011 -0.0003 42.4551 -0.0004
# 6 0.0016 0.0004 0.0011 15.3924 -0.0004 33.4366
#
#
#
# Elastic Compliance Matrix: (Units=1/GPa)
#
#
# Indices 1 2 3 4 5 6 
#
# 1 0.007564 0.000794 -0.001292 0.000000 -0.002670 0.000000
# 2 0.000794 0.023752 0.004366 0.000000 -0.002640 -0.000001
# 3 -0.001292 0.004366 0.021967 0.000000 -0.010129 -0.000001
# 4 0.000000 0.000000 0.000000 0.034320 0.000000 -0.015799
# 5 -0.002670 -0.002640 -0.010129 0.000000 0.029650 0.000001
# 6 0.000000 -0.000001 -0.000001 -0.015799 0.000001 0.037180
#
#
# Mechanical properties :
#
#
# Convention : Reuss Voigt Hill
#
# Bulk Modulus (GPa) = 16.38845 27.83498 22.11172
# Shear Modulus (GPa) = 29.93356 38.50267 34.21811
#
# Velocity S-wave (km/s) = 3.70386 4.20069 3.96007
# Velocity P-wave (km/s) = 5.07959 6.02366 5.57166
#
# Compressibility (1/GPa) = 0.06101860
#
# Stress axis : x y z
#
# Youngs Moduli (GPa) = 132.20753 42.10222 45.52370
#
# Poissons Ratio (x) = -0.03344 0.05881
# Poissons Ratio (y) = -0.10500 -0.19875
# Poissons Ratio (z) = 0.17081 -0.18382
#
# Static dielectric constant tensor:
#      x y z
#    x 1.782550 0.000000 0.009850 
#    y 0.000000 1.846130 0.000000 
#    z 0.009850 0.000000 1.746180 
# 
# From -- ./inp_files/346162.got.cif
#   From: 2010.05.17/outbox.cif.g08.bks.cpg/sg12_174_cif.got.tgz:346162.got - 2010.06.03 13:09:07.
