data_PCOD9184041
_publ_section_title
;
Structure prediction by ZEFSAII (Michael W. Deem and Ramdas Pophale) SiO2 
 PCOD9184041
Probable space group: C 2/M
;
_chemical_formula_sum "Si O2"
_cell_formula_units_Z 64
_cell_length_a 17.840938
_cell_length_b 11.333619
_cell_length_c 15.838324
_cell_angle_alpha 90.000000
_cell_angle_beta 97.720765
_cell_angle_gamma 90.000000
_cell_volume 3173.514580
_symmetry_space_group_name_H-M "C 2/M"
_symmetry_group_IT_number 12
_symmetry_cell_setting 'monoclinic'
loop_
_space_group_symop_operation_xyz
x,y,z
-x,y,-z
-x,-y,-z
x,-y,z
1/2+x,1/2+y,z
1/2-x,1/2+y,-z
1/2-x,1/2-y,-z
1/2+x,1/2-y,z
loop_
_atom_site_type_symbol
_atom_site_label
_atom_site_fract_x
_atom_site_fract_y
_atom_site_fract_z
Si Si1 0.870762 0.753133 0.172600
Si Si2 0.938979 0.371600 0.913912
Si Si3 0.502158 0.628454 0.898799
Si Si4 0.421438 0.726111 0.456281
Si Si5 0.293338 0.637260 0.314365
Si Si6 0.852494 0.360324 0.602431
Si Si7 0.517343 0.133245 0.685002
Si Si8 0.297891 0.869715 0.013411
O O1 0.807244 0.799467 0.227011
O O2 0.937451 0.712918 0.244135
O O3 0.843000 0.649180 0.107838
O O4 0.911946 0.848870 0.119282
O O5 0.946517 0.500000 0.870366
O O6 0.955076 0.247485 0.870780
O O7 0.857895 0.367777 0.946348
O O8 0.000000 0.374590 0.000000
O O9 0.476055 0.500000 0.862397
O O10 0.500000 0.623118 0.000000
O O11 0.500000 0.666009 0.500000
O O12 0.366614 0.653563 0.386036
O O13 0.371880 0.779352 0.524870
O O14 0.453852 0.832548 0.403975
O O15 0.282175 0.500000 0.294734
O O16 0.220827 0.678882 0.356602
O O17 0.843560 0.500000 0.577640
O O18 0.927511 0.352653 0.670962
O O19 0.537795 0.000000 0.705814
O O20 0.260764 0.000000 0.007521
O O21 0.250000 0.750000 0.000000
#
# Coordination Sequence:
#
# PCOD9184041 Si02
#       8
#     8   8   8   8   8   8   8   8
#     4  11  21  38  56  79 112 152 191 237 291 357
#     4   9  17  35  59  84 107 132 180 237 286 338
#     4  10  19  33  57  82 105 141 189 240 290 344
#     4   9  17  31  55  82 110 149 193 234 272 331
#     4  10  21  34  51  80 118 156 188 230 288 344
#     4   9  17  33  54  81 113 143 184 237 287 338
#     4   9  18  32  56  85 109 140 184 234 292 343
#     4  11  24  41  62  87 116 151 190 242 302 363
#
# _framework density 20.166914999999999
#
# number of rings (size 3 to 8) (size 9 to 14) (size 15 to 20)
#    0.000    2.250    2.500    1.500    0.000    3.750 
#    2.250    0.000    0.000    0.750    0.000    0.000 
#    0.000    0.000    0.000    0.000    0.000    0.000 
#
# Total GULP energy -178329.486231 kJ/mol
# GULP energy per Si atom -5572.796445 kJ/mol
# Density = 2.012101 g / cm^3
# Si number density = 20.166915 Si / 1000 Ang^3
#
#
#
# Elastic Constant Matrix: (Units=GPa)
#
#
# Indices 1 2 3 4 5 6 
#
# 1 84.2166 28.9105 22.6365 0.0000 -28.9545 0.0000
# 2 28.9105 124.5007 15.2587 0.0000 -13.8010 0.0000
# 3 22.6365 15.2587 64.0150 0.0000 -22.2559 0.0000
# 4 0.0000 0.0000 0.0000 -11.1262 0.0000 -4.1576
# 5 -28.9545 -13.8010 -22.2559 0.0000 27.7831 0.0000
# 6 0.0000 0.0000 0.0000 -4.1576 0.0000 23.4294
#
#
#
# Elastic Compliance Matrix: (Units=1/GPa)
#
#
# Indices 1 2 3 4 5 6 
#
# 1 0.019149 -0.002381 0.000448 0.000000 0.019133 0.000000
# 2 -0.002381 0.008824 -0.000832 0.000000 0.001236 0.000000
# 3 0.000448 -0.000832 0.021732 0.000000 0.017463 0.000000
# 4 0.000000 0.000000 0.000000 -0.084289 0.000000 -0.014957
# 5 0.019133 0.001236 0.017463 0.000000 0.070535 0.000000
# 6 0.000000 0.000000 0.000000 -0.014957 0.000000 0.040027
#
#
# Mechanical properties :
#
#
# Convention : Reuss Voigt Hill
#
# Bulk Modulus (GPa) = 22.63663 45.14930 33.89297
# Shear Modulus (GPa) = 51.95727 21.74570 36.85148
#
# Velocity S-wave (km/s) = 5.08129 3.28729 4.27936
# Velocity P-wave (km/s) = 6.75833 6.06999 6.42339
#
# Compressibility (1/GPa) = 0.04417618
#
# Stress axis : x y z
#
# Youngs Moduli (GPa) = 52.22206 113.32947 46.01427
#
# Poissons Ratio (x) = 0.26980 -0.02061
# Poissons Ratio (y) = 0.12432 0.03827
# Poissons Ratio (z) = -0.02339 0.09426
#
# Static dielectric constant tensor:
#      x y z
#    x 1.745360 0.000000 -0.000130 
#    y 0.000000 1.735950 0.000000 
#    z -0.000130 0.000000 1.746970 
# 
# From -- ./inp_files/223813.got.cif
#   From: 2010.05.17/outbox.cif.g08.bks.cpg/sg12_112_cif.got.tgz:223813.got - 2010.06.03 13:09:07.
