data_PCOD9184051
_publ_section_title
;
Structure prediction by ZEFSAII (Michael W. Deem and Ramdas Pophale) SiO2 
 PCOD9184051
Probable space group: C 2/M
;
_chemical_formula_sum "Si O2"
_cell_formula_units_Z 60
_cell_length_a 18.506459
_cell_length_b 16.265023
_cell_length_c 20.941405
_cell_angle_alpha 90.000000
_cell_angle_beta 26.732663
_cell_angle_gamma 90.000000
_cell_volume 2835.505674
_symmetry_space_group_name_H-M "C 2/M"
_symmetry_group_IT_number 12
_symmetry_cell_setting 'monoclinic'
loop_
_space_group_symop_operation_xyz
x,y,z
-x,y,-z
-x,-y,-z
x,-y,z
1/2+x,1/2+y,z
1/2-x,1/2+y,-z
1/2-x,1/2-y,-z
1/2+x,1/2-y,z
loop_
_atom_site_type_symbol
_atom_site_label
_atom_site_fract_x
_atom_site_fract_y
_atom_site_fract_z
Si Si1 0.037570 0.273964 0.220937
Si Si2 0.157001 0.143042 0.698918
Si Si3 0.312434 0.717310 0.642503
Si Si4 0.812337 0.355880 0.011697
Si Si5 0.754537 0.094449 0.803091
Si Si6 0.129548 0.910010 0.514279
Si Si7 0.395541 0.910229 0.414128
Si Si8 0.596041 0.500000 0.117692
O O1 0.202084 0.225654 0.103725
O O2 0.908710 0.204691 0.304799
O O3 0.997658 0.332927 0.310979
O O4 0.053555 0.331041 0.145325
O O5 0.201564 0.203459 0.721177
O O6 0.318706 0.103145 0.543554
O O7 0.026233 0.072976 0.812041
O O8 0.500000 0.741871 0.500000
O O9 0.256226 0.659081 0.744502
O O10 0.318028 0.660835 0.574635
O O11 0.854522 0.382550 0.050133
O O12 0.711047 0.428452 0.059256
O O13 0.941655 0.097973 0.680515
O O14 0.725481 0.000000 0.806312
O O15 0.243858 0.911731 0.485090
O O16 0.143414 0.000000 0.470982
O O17 0.476013 0.000000 0.345000
#
# Coordination Sequence:
#
# PCOD9184051 Si02
#       8
#     8   8   8   8   8   8   8   4
#     4  10  22  35  58  88 122 151 193 254 298 360
#     4  11  21  38  57  88 118 160 198 244 310 351
#     4  10  21  33  53  84 119 163 197 240 285 355
#     4  10  21  37  58  90 116 159 197 241 306 354
#     4  10  19  33  57  82 120 157 194 235 290 368
#     4   9  17  30  50  82 115 147 188 237 301 354
#     4  11  21  32  58  90 118 148 187 257 312 355
#     4  10  20  38  65  82 121 152 203 249 300 364
#
# _framework density 21.160247999999999
#
# number of rings (size 3 to 8) (size 9 to 14) (size 15 to 20)
#    0.000    1.867    2.667    2.400    6.533    1.600 
#    0.000    1.000    0.000    0.800    0.000    8.400 
#    0.000    0.000    0.000    0.000    0.000    0.000 
#
# Total GULP energy -167013.202809 kJ/mol
# GULP energy per Si atom -5567.106760 kJ/mol
# Density = 2.111209 g / cm^3
# Si number density = 21.160248 Si / 1000 Ang^3
#
#
#
# Elastic Constant Matrix: (Units=GPa)
#
#
# Indices 1 2 3 4 5 6 
#
# 1 28.6865 30.5092 6.5744 0.0007 2.8176 0.0015
# 2 30.5092 128.5170 16.2676 -0.0100 -2.0090 -0.0026
# 3 6.5744 16.2676 35.7197 -0.0141 1.9797 -0.0018
# 4 0.0007 -0.0100 -0.0141 7.4123 0.0064 0.2744
# 5 2.8176 -2.0090 1.9797 0.0064 18.5616 0.0016
# 6 0.0015 -0.0026 -0.0018 0.2744 0.0016 33.5960
#
#
#
# Elastic Compliance Matrix: (Units=1/GPa)
#
#
# Indices 1 2 3 4 5 6 
#
# 1 0.048315 -0.011174 -0.003350 -0.000019 -0.008186 -0.000003
# 2 -0.011174 0.010873 -0.003072 0.000007 0.003201 0.000001
# 3 -0.003350 -0.003072 0.030180 0.000056 -0.003043 0.000001
# 4 -0.000019 0.000007 0.000056 0.134951 -0.000049 -0.001102
# 5 -0.008186 0.003201 -0.003043 -0.000049 0.055788 -0.000002
# 6 -0.000003 0.000001 0.000001 -0.001102 -0.000002 0.029774
#
#
# Mechanical properties :
#
#
# Convention : Reuss Voigt Hill
#
# Bulk Modulus (GPa) = 18.45859 33.29174 25.87516
# Shear Modulus (GPa) = 13.76907 21.21878 17.49393
#
# Velocity S-wave (km/s) = 2.55366 3.17008 2.87842
# Velocity P-wave (km/s) = 4.17577 5.40061 4.82719
#
# Compressibility (1/GPa) = 0.05417533
#
# Stress axis : x y z
#
# Youngs Moduli (GPa) = 20.69750 91.97465 33.13421
#
# Poissons Ratio (x) = 1.02769 0.11101
# Poissons Ratio (y) = 0.23127 0.10180
# Poissons Ratio (z) = 0.06934 0.28259
#
# Static dielectric constant tensor:
#      x y z
#    x 1.792230 0.000000 -0.009150 
#    y 0.000000 1.774520 0.000020 
#    z -0.009150 0.000020 1.812050 
# 
# From -- ./inp_files/166731.got.cif
#   From: 2010.05.17/outbox.cif.g08.bks.cpg/sg12_84_cif.got.tgz:166731.got - 2010.06.03 13:09:07.
