data_PCOD9184705
_publ_section_title
;
Structure prediction by ZEFSAII (Michael W. Deem and Ramdas Pophale) SiO2 
 PCOD9184705
Probable space group: C 2/M
;
_chemical_formula_sum "Si O2"
_cell_formula_units_Z 60
_cell_length_a 17.038034
_cell_length_b 15.722514
_cell_length_c 26.916048
_cell_angle_alpha 90.000000
_cell_angle_beta 156.320804
_cell_angle_gamma 90.000000
_cell_volume 2895.762814
_symmetry_space_group_name_H-M "C 2/M"
_symmetry_group_IT_number 12
_symmetry_cell_setting 'monoclinic'
loop_
_space_group_symop_operation_xyz
x,y,z
-x,y,-z
-x,-y,-z
x,-y,z
1/2+x,1/2+y,z
1/2-x,1/2+y,-z
1/2-x,1/2-y,-z
1/2+x,1/2-y,z
loop_
_atom_site_type_symbol
_atom_site_label
_atom_site_fract_x
_atom_site_fract_y
_atom_site_fract_z
Si Si1 0.667644 0.703351 0.333328
Si Si2 0.026715 0.256139 0.680505
Si Si3 0.457425 0.902470 0.568865
Si Si4 0.580799 0.598905 0.190658
Si Si5 0.515661 0.279788 0.066529
Si Si6 0.000000 0.837381 0.500000
Si Si7 0.492210 0.907271 0.055818
Si Si8 0.936424 0.092468 0.355161
O O1 0.527649 0.742715 0.294120
O O2 0.812364 0.636307 0.444025
O O3 0.553093 0.653906 0.224125
O O4 0.810577 0.776651 0.395758
O O5 0.254165 0.260355 0.799679
O O6 0.964696 0.171477 0.615135
O O7 0.945845 0.341579 0.609663
O O8 0.683021 0.898299 0.681119
O O9 0.413135 0.000000 0.553180
O O10 0.525576 0.500000 0.162517
O O11 0.479434 0.647094 0.085697
O O12 0.414691 0.188768 0.020783
O O13 0.500000 0.307094 0.000000
O O14 0.034816 0.891138 0.569863
O O15 0.708112 0.909254 0.205922
O O16 0.399678 0.000000 0.015872
O O17 0.500000 0.907767 0.000000
O O18 0.016410 0.000000 0.387600
#
# Coordination Sequence:
#
# PCOD9184705 Si02
#       8
#     8   8   8   8   8   4   8   8
#     4  12  20  34  53  76 111 145 177 221 266 315
#     4  10  21  36  53  82 109 137 178 232 264 315
#     4  10  19  34  54  76 107 146 182 216 265 318
#     4  10  20  34  54  82 110 142 185 222 263 323
#     4   9  18  36  58  80 106 141 180 223 279 325
#     4  12  21  34  51  72 110 152 183 216 267 332
#     4   8  14  27  50  75  98 127 169 220 265 311
#     4  10  20  34  51  76 108 142 181 222 273 328
#
# _framework density 20.719927999999999
#
# number of rings (size 3 to 8) (size 9 to 14) (size 15 to 20)
#    0.000    2.000    2.667    2.600    0.000    2.400 
#    0.000    1.333    0.000    0.800    0.000    7.467 
#    0.000    0.000    0.000    0.000    0.000    0.000 
#
# Total GULP energy -167288.926423 kJ/mol
# GULP energy per Si atom -5576.297547 kJ/mol
# Density = 2.067277 g / cm^3
# Si number density = 20.719928 Si / 1000 Ang^3
#
#
#
# Elastic Constant Matrix: (Units=GPa)
#
#
# Indices 1 2 3 4 5 6 
#
# 1 43.7064 -0.5295 -5.7220 0.0006 0.3642 -0.0127
# 2 -0.5295 77.9803 9.5341 0.0035 -0.2982 -0.0139
# 3 -5.7220 9.5341 59.2950 0.0053 -17.8320 -0.0432
# 4 0.0006 0.0035 0.0053 16.4771 0.0008 -24.2271
# 5 0.3642 -0.2982 -17.8320 0.0008 26.0735 0.0000
# 6 -0.0127 -0.0139 -0.0432 -24.2271 0.0000 -133.8680
#
#
#
# Elastic Compliance Matrix: (Units=1/GPa)
#
#
# Indices 1 2 3 4 5 6 
#
# 1 0.023223 -0.000170 0.002732 -0.000005 0.001542 -0.000002
# 2 -0.000170 0.013137 -0.002622 -0.000002 -0.001641 0.000000
# 3 0.002732 -0.002622 0.022069 -0.000014 0.015025 -0.000005
# 4 -0.000005 -0.000002 -0.000014 0.047935 -0.000011 -0.008675
# 5 0.001542 -0.001641 0.015025 -0.000011 0.048588 -0.000003
# 6 -0.000002 0.000000 -0.000005 -0.008675 -0.000003 -0.005900
#
#
# Mechanical properties :
#
#
# Convention : Reuss Voigt Hill
#
# Bulk Modulus (GPa) = 17.15050 20.83855 18.99452
# Shear Modulus (GPa) = 29.65458 -6.41688 11.61885
#
# Velocity S-wave (km/s) = 3.78724 -1.76173 2.37060
# Velocity P-wave (km/s) = 5.23636 2.43738 4.08414
#
# Compressibility (1/GPa) = 0.05830734
#
# Stress axis : x y z
#
# Youngs Moduli (GPa) = 43.06124 76.12136 45.31342
#
# Poissons Ratio (x) = 0.01298 -0.12380
# Poissons Ratio (y) = 0.00734 0.11882
# Poissons Ratio (z) = -0.11765 0.19960
#
# Static dielectric constant tensor:
#      x y z
#    x 1.879620 0.000000 0.028820 
#    y 0.000000 1.762730 0.000000 
#    z 0.028820 0.000000 1.988530 
# 
# From -- ./inp_files/311056.got.cif
#   From: 2010.05.17/outbox.cif.g08.bks.cpg/sg12_156_cif.got.tgz:311056.got - 2010.06.03 13:09:07.
