data_PCOD9184691
_publ_section_title
;
Structure prediction by ZEFSAII (Michael W. Deem and Ramdas Pophale) SiO2 
 PCOD9184691
Probable space group: C 2/M
;
_chemical_formula_sum "Si O2"
_cell_formula_units_Z 64
_cell_length_a 34.451115
_cell_length_b 8.609489
_cell_length_c 26.662871
_cell_angle_alpha 90.000000
_cell_angle_beta 153.743907
_cell_angle_gamma 90.000000
_cell_volume 3498.541606
_symmetry_space_group_name_H-M "C 2/M"
_symmetry_group_IT_number 12
_symmetry_cell_setting 'monoclinic'
loop_
_space_group_symop_operation_xyz
x,y,z
-x,y,-z
-x,-y,-z
x,-y,z
1/2+x,1/2+y,z
1/2-x,1/2+y,-z
1/2-x,1/2-y,-z
1/2+x,1/2-y,z
loop_
_atom_site_type_symbol
_atom_site_label
_atom_site_fract_x
_atom_site_fract_y
_atom_site_fract_z
Si Si1 0.465792 0.317081 0.015033
Si Si2 0.292280 0.687688 0.340115
Si Si3 0.925385 0.683001 0.576503
Si Si4 0.277026 0.685987 0.953168
Si Si5 0.211350 0.315211 0.145463
Si Si6 0.886876 0.186013 0.174363
Si Si7 0.860588 0.318531 0.763113
Si Si8 0.734508 0.184851 0.536803
O O1 0.445939 0.500000 0.989814
O O2 0.553295 0.281436 0.147370
O O3 0.500000 0.263420 0.000000
O O4 0.383291 0.227774 0.941225
O O5 0.296082 0.500000 0.346574
O O6 0.371900 0.751261 0.466228
O O7 0.282073 0.735940 0.270109
O O8 0.200211 0.734152 0.260415
O O9 0.936674 0.500000 0.581499
O O10 0.861958 0.705336 0.551130
O O11 0.018999 0.756601 0.697618
O O12 0.274398 0.500000 0.950008
O O13 0.282039 0.743038 0.901934
O O14 0.189306 0.749975 0.877740
O O15 0.357310 0.734046 0.083431
O O16 0.219026 0.500000 0.149739
O O17 0.885741 0.000000 0.174691
O O18 0.882863 0.500000 0.795263
O O19 0.796488 0.288797 0.643108
O O20 0.750000 0.250000 0.500000
O O21 0.754609 0.000000 0.563534
#
# Coordination Sequence:
#
# PCOD9184691 Si02
#       8
#     8   8   8   8   8   8   8   8
#     4  11  22  34  52  79 112 150 191 235 281 332
#     4   9  19  35  55  80 112 150 189 229 278 336
#     4  10  21  36  59  86 112 147 190 235 284 339
#     4  10  22  40  62  89 118 149 185 234 291 343
#     4  11  22  37  58  85 118 154 194 238 286 344
#     4  10  21  40  65  88 114 148 188 233 287 348
#     4  10  19  34  54  75 105 146 191 234 281 334
#     4  10  21  36  53  78 112 149 190 234 284 335
#
# _framework density 18.293337000000001
#
# number of rings (size 3 to 8) (size 9 to 14) (size 15 to 20)
#    0.000    1.875    1.250    2.625    0.000    6.000 
#    0.000    3.125    0.000    3.750    0.000    0.000 
#    0.000    0.000    0.000    0.000    0.000    0.000 
#
# Total GULP energy -178454.639320 kJ/mol
# GULP energy per Si atom -5576.707479 kJ/mol
# Density = 1.825170 g / cm^3
# Si number density = 18.293337 Si / 1000 Ang^3
#
#
#
# Elastic Constant Matrix: (Units=GPa)
#
#
# Indices 1 2 3 4 5 6 
#
# 1 106.2784 29.3373 69.6015 0.0000 -27.7338 0.0000
# 2 29.3373 47.2921 39.7083 0.0000 -3.7084 0.0000
# 3 69.6015 39.7083 132.9050 0.0000 -9.4280 0.0000
# 4 0.0000 0.0000 0.0000 28.7548 0.0000 -0.6063
# 5 -27.7338 -3.7084 -9.4280 0.0000 21.3024 0.0000
# 6 0.0000 0.0000 0.0000 -0.6063 0.0000 31.4425
#
#
#
# Elastic Compliance Matrix: (Units=1/GPa)
#
#
# Indices 1 2 3 4 5 6 
#
# 1 0.023240 -0.004963 -0.008882 0.000000 0.025462 0.000000
# 2 -0.004963 0.029316 -0.006459 0.000000 -0.004216 0.000000
# 3 -0.008882 -0.006459 0.013633 0.000000 -0.006654 0.000000
# 4 0.000000 0.000000 0.000000 0.034791 0.000000 0.000671
# 5 0.025462 -0.004216 -0.006654 0.000000 0.076413 0.000000
# 6 0.000000 0.000000 0.000000 0.000671 0.000000 0.031817
#
#
# Mechanical properties :
#
#
# Convention : Reuss Voigt Hill
#
# Bulk Modulus (GPa) = 39.08895 62.64109 50.86502
# Shear Modulus (GPa) = 19.35389 26.15518 22.75453
#
# Velocity S-wave (km/s) = 3.25618 3.78533 3.53068
# Velocity P-wave (km/s) = 5.96248 7.30902 6.66982
#
# Compressibility (1/GPa) = 0.02558268
#
# Stress axis : x y z
#
# Youngs Moduli (GPa) = 43.02880 34.11054 73.34987
#
# Poissons Ratio (x) = 0.16928 0.65148
# Poissons Ratio (y) = 0.21354 0.47377
# Poissons Ratio (z) = 0.38217 0.22032
#
# Static dielectric constant tensor:
#      x y z
#    x 1.515390 0.000000 0.317320 
#    y 0.000000 1.620160 0.000000 
#    z 0.317320 0.000000 0.599680 
# 
# From -- ./inp_files/353583.got.cif
#   From: 2010.05.17/outbox.cif.g08.bks.cpg/sg12_177_cif.got.tgz:353583.got - 2010.06.03 13:09:07.
