data_PCOD9184998
_publ_section_title
;
Structure prediction by ZEFSAII (Michael W. Deem and Ramdas Pophale) SiO2 
 PCOD9184998
Probable space group: C 2/M
;
_chemical_formula_sum "Si O2"
_cell_formula_units_Z 48
_cell_length_a 20.897287
_cell_length_b 8.650031
_cell_length_c 15.319119
_cell_angle_alpha 90.000000
_cell_angle_beta 99.492700
_cell_angle_gamma 90.000000
_cell_volume 2731.198781
_symmetry_space_group_name_H-M "C 2/M"
_symmetry_group_IT_number 12
_symmetry_cell_setting 'monoclinic'
loop_
_space_group_symop_operation_xyz
x,y,z
-x,y,-z
-x,-y,-z
x,-y,z
1/2+x,1/2+y,z
1/2-x,1/2+y,-z
1/2-x,1/2-y,-z
1/2+x,1/2-y,z
loop_
_atom_site_type_symbol
_atom_site_label
_atom_site_fract_x
_atom_site_fract_y
_atom_site_fract_z
Si Si1 0.291843 0.685477 0.929736
Si Si2 0.697743 0.814564 0.556324
Si Si3 0.941953 0.311288 0.548620
Si Si4 0.234064 0.684394 0.263895
Si Si5 0.060727 0.813677 0.071481
Si Si6 0.083671 0.314643 0.264221
O O1 0.290839 0.500000 0.931556
O O2 0.262710 0.744184 0.831573
O O3 0.367912 0.736454 0.947004
O O4 0.250000 0.750000 0.000000
O O5 0.750000 0.750000 0.500000
O O6 0.626752 0.765714 0.508063
O O7 0.715917 0.753744 0.655966
O O8 0.700513 0.000000 0.556073
O O9 0.943044 0.500000 0.550571
O O10 0.945563 0.261026 0.650313
O O11 0.000000 0.258316 0.500000
O O12 0.241212 0.500000 0.260824
O O13 0.160987 0.718022 0.281975
O O14 0.055535 0.759408 0.170337
O O15 0.060539 0.000000 0.070019
O O16 0.000000 0.758680 0.000000
O O17 0.076421 0.500000 0.256289
#
# Coordination Sequence:
#
# PCOD9184998 Si02
#       6
#     8   8   8   8   8   8
#     4  10  20  36  57  81 109 142 174 216 269 318
#     4  11  20  33  55  81 107 139 179 221 263 315
#     4   9  18  34  53  75 108 141 172 216 266 311
#     4  10  19  34  55  81 108 138 179 223 263 312
#     4   9  19  36  56  77 104 138 174 216 267 315
#     4   9  17  32  54  78 102 136 178 216 258 309
#
# _framework density 17.574701000000001
#
# number of rings (size 3 to 8) (size 9 to 14) (size 15 to 20)
#    0.000    2.333    1.667    1.500    0.000    1.667 
#    3.000    0.000    0.000    3.500    0.000    0.000 
#    0.000    0.000    0.000    0.000    0.000    0.000 
#
# Total GULP energy -133887.293910 kJ/mol
# GULP energy per Si atom -5578.637246 kJ/mol
# Density = 1.753470 g / cm^3
# Si number density = 17.574701 Si / 1000 Ang^3
#
#
#
# Elastic Constant Matrix: (Units=GPa)
#
#
# Indices 1 2 3 4 5 6 
#
# 1 122.2020 28.0175 105.5730 0.0000 -0.6647 0.0000
# 2 28.0175 25.6519 35.3891 0.0000 -0.9472 0.0000
# 3 105.5730 35.3891 181.7238 0.0000 -4.2190 0.0000
# 4 0.0000 0.0000 0.0000 33.5721 0.0000 1.0352
# 5 -0.6647 -0.9472 -4.2190 0.0000 37.3056 0.0000
# 6 0.0000 0.0000 0.0000 1.0352 0.0000 17.4023
#
#
#
# Elastic Compliance Matrix: (Units=1/GPa)
#
#
# Indices 1 2 3 4 5 6 
#
# 1 0.017297 -0.006882 -0.008728 0.000000 -0.000854 0.000000
# 2 -0.006882 0.056044 -0.006904 0.000000 0.000520 0.000000
# 3 -0.008728 -0.006904 0.011942 0.000000 0.001020 0.000000
# 4 0.000000 0.000000 0.000000 0.029841 0.000000 -0.001775
# 5 -0.000854 0.000520 0.001020 0.000000 0.026919 0.000000
# 6 0.000000 0.000000 0.000000 -0.001775 0.000000 0.057569
#
#
# Mechanical properties :
#
#
# Convention : Reuss Voigt Hill
#
# Bulk Modulus (GPa) = 24.84217 74.17076 49.50646
# Shear Modulus (GPa) = 19.37545 28.36257 23.86901
#
# Velocity S-wave (km/s) = 3.32394 4.02161 3.68930
# Velocity P-wave (km/s) = 5.37562 7.99119 6.81016
#
# Compressibility (1/GPa) = 0.04025414
#
# Stress axis : x y z
#
# Youngs Moduli (GPa) = 57.81352 17.84315 83.73991
#
# Poissons Ratio (x) = 0.12280 0.73091
# Poissons Ratio (y) = 0.39788 0.57813
# Poissons Ratio (z) = 0.50462 0.12319
#
# Static dielectric constant tensor:
#      x y z
#    x 1.596290 0.000000 0.013200 
#    y 0.000000 1.596480 0.000000 
#    z 0.013200 0.000000 1.623130 
# 
# From -- ./inp_files/221572.got.cif
#   From: 2010.05.17/outbox.cif.g08.bks.cpg/sg12_111_cif.got.tgz:221572.got - 2010.06.03 13:09:07.
