data_PCOD9184967
_publ_section_title
;
Structure prediction by ZEFSAII (Michael W. Deem and Ramdas Pophale) SiO2 
 PCOD9184967
Probable space group: C 2/M
;
_chemical_formula_sum "Si O2"
_cell_formula_units_Z 64
_cell_length_a 14.912542
_cell_length_b 8.192527
_cell_length_c 26.173803
_cell_angle_alpha 90.000000
_cell_angle_beta 90.863874
_cell_angle_gamma 90.000000
_cell_volume 3197.326776
_symmetry_space_group_name_H-M "C 2/M"
_symmetry_group_IT_number 12
_symmetry_cell_setting 'monoclinic'
loop_
_space_group_symop_operation_xyz
x,y,z
-x,y,-z
-x,-y,-z
x,-y,z
1/2+x,1/2+y,z
1/2-x,1/2+y,-z
1/2-x,1/2-y,-z
1/2+x,1/2-y,z
loop_
_atom_site_type_symbol
_atom_site_label
_atom_site_fract_x
_atom_site_fract_y
_atom_site_fract_z
Si Si1 0.461717 0.696624 0.304189
Si Si2 0.503016 0.300537 0.581045
Si Si3 0.049243 0.191873 0.104067
Si Si4 0.363565 0.808930 0.128139
Si Si5 0.399285 0.300681 0.780874
Si Si6 0.284254 0.810170 0.945850
Si Si7 0.647099 0.696599 0.498361
Si Si8 0.804353 0.302881 0.237618
O O1 0.467175 0.500000 0.304858
O O2 0.487244 0.756083 0.360798
O O3 0.529940 0.756291 0.260886
O O4 0.362361 0.744988 0.285733
O O5 0.502615 0.500000 0.581473
O O6 0.411937 0.249328 0.551214
O O7 0.588028 0.250602 0.546958
O O8 0.075900 0.251635 0.161480
O O9 0.111067 0.279405 0.063283
O O10 0.943628 0.221883 0.099150
O O11 0.068030 0.000000 0.101057
O O12 0.270364 0.785071 0.098230
O O13 0.351865 0.744351 0.185651
O O14 0.385052 0.000000 0.130705
O O15 0.401415 0.500000 0.781452
O O16 0.298833 0.249758 0.765231
O O17 0.264172 0.000000 0.940119
O O18 0.250000 0.750000 0.000000
O O19 0.646454 0.500000 0.498212
O O20 0.750000 0.750000 0.500000
O O21 0.804574 0.500000 0.236405
#
# Coordination Sequence:
#
# PCOD9184967 Si02
#       8
#     8   8   8   8   8   8   8   8
#     4  10  19  34  55  80 109 148 192 230 273 339
#     4   8  17  33  52  75 110 148 184 228 283 342
#     4  11  21  39  63  89 118 152 192 238 286 342
#     4  11  22  39  62  89 120 154 192 237 286 342
#     4   9  18  33  54  79 109 146 185 224 275 335
#     4  12  26  44  65  91 119 153 193 241 294 346
#     4   9  17  33  55  78 104 143 189 234 283 336
#     4  10  20  35  54  81 115 149 182 229 283 330
#
# _framework density 20.016721
#
# number of rings (size 3 to 8) (size 9 to 14) (size 15 to 20)
#    0.000    2.000    2.500    2.625    0.000    2.000 
#    0.000    6.875    0.000    0.000    0.000    0.000 
#    0.000    0.000    0.000    0.000    0.000    0.000 
#
# Total GULP energy -178689.718966 kJ/mol
# GULP energy per Si atom -5584.053718 kJ/mol
# Density = 1.997116 g / cm^3
# Si number density = 20.016721 Si / 1000 Ang^3
#
#
#
# Elastic Constant Matrix: (Units=GPa)
#
#
# Indices 1 2 3 4 5 6 
#
# 1 79.6844 -0.0965 -20.7384 0.0000 -6.0099 0.0000
# 2 -0.0965 18.4969 4.7681 0.0000 -2.7686 0.0000
# 3 -20.7384 4.7681 36.7400 0.0000 -3.5198 0.0000
# 4 0.0000 0.0000 0.0000 14.8282 0.0000 4.1567
# 5 -6.0099 -2.7686 -3.5198 0.0000 19.0186 0.0000
# 6 0.0000 0.0000 0.0000 4.1567 0.0000 31.7430
#
#
#
# Elastic Compliance Matrix: (Units=1/GPa)
#
#
# Indices 1 2 3 4 5 6 
#
# 1 0.015526 -0.001417 0.009568 0.000000 0.006471 0.000000
# 2 -0.001417 0.056973 -0.007576 0.000000 0.006444 0.000000
# 3 0.009568 -0.007576 0.034396 0.000000 0.008286 0.000000
# 4 0.000000 0.000000 0.000000 0.070009 0.000000 -0.009168
# 5 0.006471 0.006444 0.008286 0.000000 0.057096 0.000000
# 6 0.000000 0.000000 0.000000 -0.009168 0.000000 0.032703
#
#
# Mechanical properties :
#
#
# Convention : Reuss Voigt Hill
#
# Bulk Modulus (GPa) = 9.25548 11.42084 10.33816
# Shear Modulus (GPa) = 16.57992 23.18383 19.88188
#
# Velocity S-wave (km/s) = 2.88115 3.40696 3.15503
# Velocity P-wave (km/s) = 3.96257 4.60375 4.29514
#
# Compressibility (1/GPa) = 0.10804407
#
# Stress axis : x y z
#
# Youngs Moduli (GPa) = 64.40885 17.55208 29.07327
#
# Poissons Ratio (x) = 0.02487 -0.27816
# Poissons Ratio (y) = 0.09125 0.22027
# Poissons Ratio (z) = -0.61623 0.13298
#
# Static dielectric constant tensor:
#      x y z
#    x 1.679350 0.000000 -0.005950 
#    y 0.000000 1.700760 0.000000 
#    z -0.005950 0.000000 1.696380 
# 
# From -- ./inp_files/338923.got.cif
#   From: 2010.05.17/outbox.cif.g08.bks.cpg/sg12_170_cif.got.tgz:338923.got - 2010.06.03 13:09:07.
