data_PCOD9184804
_publ_section_title
;
Structure prediction by ZEFSAII (Michael W. Deem and Ramdas Pophale) SiO2 
 PCOD9184804
Probable space group: C 2/M
;
_chemical_formula_sum "Si O2"
_cell_formula_units_Z 44
_cell_length_a 25.101288
_cell_length_b 12.844907
_cell_length_c 18.752312
_cell_angle_alpha 90.000000
_cell_angle_beta 159.953022
_cell_angle_gamma 90.000000
_cell_volume 2072.576506
_symmetry_space_group_name_H-M "C 2/M"
_symmetry_group_IT_number 12
_symmetry_cell_setting 'monoclinic'
loop_
_space_group_symop_operation_xyz
x,y,z
-x,y,-z
-x,-y,-z
x,-y,z
1/2+x,1/2+y,z
1/2-x,1/2+y,-z
1/2-x,1/2-y,-z
1/2+x,1/2-y,z
loop_
_atom_site_type_symbol
_atom_site_label
_atom_site_fract_x
_atom_site_fract_y
_atom_site_fract_z
Si Si1 0.663327 0.888205 0.943488
Si Si2 0.786750 0.614879 0.689308
Si Si3 0.674633 0.341874 0.707755
Si Si4 0.500000 0.290926 0.000000
Si Si5 0.791076 0.116790 0.856651
Si Si6 0.544716 0.335717 0.789052
O O1 0.716132 0.881287 0.091778
O O2 0.822215 0.876827 0.097581
O O3 0.591544 0.000000 0.837028
O O4 0.555847 0.789214 0.794138
O O5 0.853835 0.500000 0.759526
O O6 0.736635 0.623963 0.709211
O O7 0.627185 0.627571 0.445412
O O8 0.904338 0.711117 0.828541
O O9 0.500000 0.378503 0.500000
O O10 0.677447 0.215850 0.716545
O O11 0.609992 0.361070 0.089960
O O12 0.725594 0.000000 0.774627
O O13 0.900428 0.130354 0.063666
#
# Coordination Sequence:
#
# PCOD9184804 Si02
#       6
#     8   8   8   4   8   8
#     4  10  19  34  54  82 121 151 174 217 272 334
#     4  11  21  37  59  84 113 146 182 232 283 320
#     4  10  20  33  55  88 116 143 184 220 268 345
#     4  10  24  40  58  78 106 144 202 240 264 330
#     4  10  21  39  57  76 109 151 187 232 279 319
#     4  10  21  34  55  85 112 143 187 221 274 339
#
# _framework density 21.229614000000002
#
# number of rings (size 3 to 8) (size 9 to 14) (size 15 to 20)
#    0.000    1.818    1.818    2.727    0.000    1.818 
#    0.000    5.455    0.000    0.000    0.000    0.000 
#    0.000    0.000    0.000    0.000    0.000    0.000 
#
# Total GULP energy -122928.449897 kJ/mol
# GULP energy per Si atom -5587.656813 kJ/mol
# Density = 2.118129 g / cm^3
# Si number density = 21.229614 Si / 1000 Ang^3
#
#
#
# Elastic Constant Matrix: (Units=GPa)
#
#
# Indices 1 2 3 4 5 6 
#
# 1 29.6717 -5.8131 -2.0614 0.0000 -10.5575 0.0000
# 2 -5.8131 173.2204 -2.3453 0.0000 0.2125 0.0000
# 3 -2.0614 -2.3453 45.1798 0.0000 -0.0532 0.0000
# 4 0.0000 0.0000 0.0000 1.9700 0.0000 -0.7713
# 5 -10.5575 0.2125 -0.0532 0.0000 18.0284 0.0000
# 6 0.0000 0.0000 0.0000 -0.7713 0.0000 15.2078
#
#
#
# Elastic Compliance Matrix: (Units=1/GPa)
#
#
# Indices 1 2 3 4 5 6 
#
# 1 0.043107 0.001444 0.002072 0.000000 0.025233 0.000000
# 2 0.001444 0.005825 0.000369 0.000000 0.000778 0.000000
# 3 0.002072 0.000369 0.022249 0.000000 0.001274 0.000000
# 4 0.000000 0.000000 0.000000 0.517907 0.000000 0.026267
# 5 0.025233 0.000778 0.001274 0.000000 0.070239 0.000000
# 6 0.000000 0.000000 0.000000 0.026267 0.000000 0.067088
#
#
# Mechanical properties :
#
#
# Convention : Reuss Voigt Hill
#
# Bulk Modulus (GPa) = 12.66617 25.29246 18.97932
# Shear Modulus (GPa) = 6.71173 24.26068 15.48620
#
# Velocity S-wave (km/s) = 1.77999 3.38416 2.70379
# Velocity P-wave (km/s) = 3.19432 5.21629 4.32513
#
# Compressibility (1/GPa) = 0.07895046
#
# Stress axis : x y z
#
# Youngs Moduli (GPa) = 23.19800 171.65950 44.94593
#
# Poissons Ratio (x) = -0.24783 -0.09311
# Poissons Ratio (y) = -0.03349 -0.01659
# Poissons Ratio (z) = -0.04805 -0.06338
#
# Static dielectric constant tensor:
#      x y z
#    x 1.735760 0.000000 -0.005580 
#    y 0.000000 1.803750 0.000000 
#    z -0.005580 0.000000 1.715630 
# 
# From -- ./inp_files/152823.got.cif
#   From: 2010.05.17/outbox.cif.g08.bks.cpg/sg12_77_cif.got.tgz:152823.got - 2010.06.03 13:09:07.
