data_PCOD9184928
_publ_section_title
;
Structure prediction by ZEFSAII (Michael W. Deem and Ramdas Pophale) SiO2 
 PCOD9184928
Probable space group: C 2/M
;
_chemical_formula_sum "Si O2"
_cell_formula_units_Z 56
_cell_length_a 22.829339
_cell_length_b 7.807321
_cell_length_c 32.962845
_cell_angle_alpha 90.000000
_cell_angle_beta 155.204563
_cell_angle_gamma 90.000000
_cell_volume 2463.925404
_symmetry_space_group_name_H-M "C 2/M"
_symmetry_group_IT_number 12
_symmetry_cell_setting 'monoclinic'
loop_
_space_group_symop_operation_xyz
x,y,z
-x,y,-z
-x,-y,-z
x,-y,z
1/2+x,1/2+y,z
1/2-x,1/2+y,-z
1/2-x,1/2-y,-z
1/2+x,1/2-y,z
loop_
_atom_site_type_symbol
_atom_site_label
_atom_site_fract_x
_atom_site_fract_y
_atom_site_fract_z
Si Si1 0.708410 0.796972 0.385463
Si Si2 0.503272 0.304175 0.815144
Si Si3 0.988584 0.292160 0.311615
Si Si4 0.481859 0.792055 0.400132
Si Si5 0.976017 0.696548 0.940031
Si Si6 0.687404 0.698925 0.236508
Si Si7 0.227187 0.300165 0.893279
O O1 0.623187 0.702787 0.296838
O O2 0.634207 0.745629 0.381220
O O3 0.871502 0.760468 0.488713
O O4 0.683630 0.000000 0.364406
O O5 0.545983 0.500000 0.850266
O O6 0.432965 0.223518 0.810810
O O7 0.632805 0.217870 0.873972
O O8 0.982281 0.500000 0.308757
O O9 0.977613 0.230813 0.350640
O O10 0.866326 0.237077 0.203726
O O11 0.343381 0.728743 0.336111
O O12 0.476116 0.000000 0.395998
O O13 0.929805 0.500000 0.915088
O O14 0.864402 0.791431 0.842241
O O15 0.126618 0.705349 0.013463
O O16 0.000000 0.769273 0.000000
O O17 0.695773 0.500000 0.254187
O O18 0.257909 0.500000 0.906379
#
# Coordination Sequence:
#
# PCOD9184928 Si02
#       7
#     8   8   8   8   8   8   8
#     4  10  20  34  53  81 113 147 187 229 283 344
#     4  10  21  39  59  82 112 146 190 239 284 331
#     4   8  16  31  53  81 110 140 180 228 276 332
#     4  10  19  34  55  79 108 145 188 233 282 332
#     4  11  24  40  60  89 120 148 181 224 278 337
#     4  10  23  40  59  82 110 149 194 237 281 333
#     4  10  20  37  62  87 113 149 189 231 281 335
#
# _framework density 22.727961000000001
#
# number of rings (size 3 to 8) (size 9 to 14) (size 15 to 20)
#    0.000    2.143    0.000    3.857    0.000    5.143 
#    0.000    6.429    0.000    0.000    0.000    0.000 
#    0.000    0.000    0.000    0.000    0.000    0.000 
#
# Total GULP energy -156460.830605 kJ/mol
# GULP energy per Si atom -5587.886807 kJ/mol
# Density = 2.267623 g / cm^3
# Si number density = 22.727961 Si / 1000 Ang^3
#
#
#
# Elastic Constant Matrix: (Units=GPa)
#
#
# Indices 1 2 3 4 5 6 
#
# 1 76.3635 0.9589 10.1418 -0.0003 6.4330 0.0009
# 2 0.9589 41.9055 -10.2428 0.0008 2.1357 0.0002
# 3 10.1418 -10.2428 57.5333 0.0005 26.5522 0.0002
# 4 -0.0003 0.0008 0.0005 11.6724 -0.0005 -5.4427
# 5 6.4330 2.1357 26.5522 -0.0005 27.2219 -0.0003
# 6 0.0009 0.0002 0.0002 -5.4427 -0.0003 11.4344
#
#
#
# Elastic Compliance Matrix: (Units=1/GPa)
#
#
# Indices 1 2 3 4 5 6 
#
# 1 0.013465 -0.000715 -0.001925 0.000000 -0.001249 -0.000001
# 2 -0.000715 0.027112 0.010651 -0.000004 -0.012348 -0.000003
# 3 -0.001925 0.010651 0.035997 -0.000006 -0.035492 -0.000004
# 4 0.000000 -0.000004 -0.000006 0.110112 0.000008 0.052413
# 5 -0.001249 -0.012348 -0.035492 0.000008 0.072618 0.000007
# 6 -0.000001 -0.000003 -0.000004 0.052413 0.000007 0.112404
#
#
# Mechanical properties :
#
#
# Convention : Reuss Voigt Hill
#
# Bulk Modulus (GPa) = 10.79933 19.72424 15.26178
# Shear Modulus (GPa) = 12.93494 21.72869 17.33181
#
# Velocity S-wave (km/s) = 2.38821 3.09533 2.76447
# Velocity P-wave (km/s) = 3.51662 4.63379 4.11331
#
# Compressibility (1/GPa) = 0.09259835
#
# Stress axis : x y z
#
# Youngs Moduli (GPa) = 74.26646 36.88354 27.78019
#
# Poissons Ratio (x) = 0.02637 0.05346
# Poissons Ratio (y) = 0.05309 -0.29590
# Poissons Ratio (z) = 0.14293 -0.39286
#
# Static dielectric constant tensor:
#      x y z
#    x 1.887050 0.000000 0.004180 
#    y 0.000000 1.819870 0.000000 
#    z 0.004180 0.000000 1.805790 
# 
# From -- ./inp_files/380751.got.cif
#   From: 2010.05.17/outbox.cif.g08.bks.cpg/sg12_191_cif.got.tgz:380751.got - 2010.06.03 13:09:07.
