data_PCOD9184043
_publ_section_title
;
Structure prediction by ZEFSAII (Michael W. Deem and Ramdas Pophale) SiO2 
 PCOD9184043
Probable space group: C 2/M
;
_chemical_formula_sum "Si O2"
_cell_formula_units_Z 60
_cell_length_a 9.687400
_cell_length_b 25.841407
_cell_length_c 22.263894
_cell_angle_alpha 90.000000
_cell_angle_beta 143.102434
_cell_angle_gamma 90.000000
_cell_volume 3346.225882
_symmetry_space_group_name_H-M "C 2/M"
_symmetry_group_IT_number 12
_symmetry_cell_setting 'monoclinic'
loop_
_space_group_symop_operation_xyz
x,y,z
-x,y,-z
-x,-y,-z
x,-y,z
1/2+x,1/2+y,z
1/2-x,1/2+y,-z
1/2-x,1/2-y,-z
1/2+x,1/2-y,z
loop_
_atom_site_type_symbol
_atom_site_label
_atom_site_fract_x
_atom_site_fract_y
_atom_site_fract_z
Si Si1 0.908382 0.330035 0.810546
Si Si2 0.666987 0.708256 0.242200
Si Si3 0.918911 0.866785 0.687269
Si Si4 0.804533 0.302048 0.982359
Si Si5 0.491282 0.860148 0.708096
Si Si6 0.758722 0.942144 0.530306
Si Si7 0.500000 0.398901 0.500000
Si Si8 0.222544 0.441553 0.707447
O O1 0.867337 0.269662 0.777090
O O2 0.667054 0.351639 0.749467
O O3 0.994397 0.356777 0.780327
O O4 0.086322 0.336485 0.927220
O O5 0.687055 0.683726 0.315962
O O6 0.882925 0.688758 0.278645
O O7 0.432883 0.683823 0.132565
O O8 0.791491 0.894963 0.587630
O O9 0.913537 0.910143 0.737529
O O10 0.750000 0.250000 0.000000
O O11 0.000000 0.293560 0.000000
O O12 0.633980 0.909029 0.733185
O O13 0.227237 0.866081 0.594989
O O14 0.929177 0.932646 0.533322
O O15 0.502525 0.941604 0.414236
O O16 0.799090 0.000000 0.570371
O O17 0.285298 0.500000 0.743138
#
# Coordination Sequence:
#
# PCOD9184043 Si02
#       8
#     8   8   8   8   8   8   4   8
#     4  11  21  36  57  82 118 144 188 233 278 333
#     4  10  22  37  57  79 117 151 185 230 285 328
#     4  11  19  33  55  83 110 144 183 229 279 343
#     4  10  21  35  57  86 111 142 188 242 289 322
#     4  10  21  36  56  80 113 155 184 230 278 340
#     4  10  19  33  57  82 108 142 188 245 291 325
#     4  10  19  36  52  80 122 140 188 238 287 320
#     4   9  20  37  57  81 112 144 189 243 288 325
#
# _framework density 17.930648000000001
#
# number of rings (size 3 to 8) (size 9 to 14) (size 15 to 20)
#    0.000    1.867    2.667    1.800    5.600    1.600 
#    0.000    0.667    8.800    0.000    0.000   26.133 
#    0.000    0.000    0.000    0.000    0.000    0.000 
#
# Total GULP energy -167208.213059 kJ/mol
# GULP energy per Si atom -5573.607102 kJ/mol
# Density = 1.788984 g / cm^3
# Si number density = 17.930648 Si / 1000 Ang^3
#
#
#
# Elastic Constant Matrix: (Units=GPa)
#
#
# Indices 1 2 3 4 5 6 
#
# 1 138.6162 38.7753 34.8810 -0.0002 -14.4434 0.0001
# 2 38.7753 87.4171 32.0125 0.0003 -7.7377 0.0000
# 3 34.8810 32.0125 53.9733 -0.0039 -8.2713 0.0001
# 4 -0.0002 0.0003 -0.0039 -11.5195 -0.0010 8.7416
# 5 -14.4434 -7.7377 -8.2713 -0.0010 25.2450 0.0001
# 6 0.0001 0.0000 0.0001 8.7416 0.0001 15.8095
#
#
#
# Elastic Compliance Matrix: (Units=1/GPa)
#
#
# Indices 1 2 3 4 5 6 
#
# 1 0.009228 -0.002305 -0.004101 0.000001 0.003229 0.000000
# 2 -0.002305 0.015261 -0.007420 0.000002 0.000928 -0.000001
# 3 -0.004101 -0.007420 0.026186 -0.000007 0.003959 0.000003
# 4 0.000001 0.000002 -0.000007 -0.061151 -0.000004 0.033812
# 5 0.003229 0.000928 0.003959 -0.000004 0.043041 0.000002
# 6 0.000000 -0.000001 0.000003 0.033812 0.000002 0.044557
#
#
# Mechanical properties :
#
#
# Convention : Reuss Voigt Hill
#
# Bulk Modulus (GPa) = 43.43702 54.59380 49.01541
# Shear Modulus (GPa) = 44.46512 17.52953 30.99733
#
# Velocity S-wave (km/s) = 4.98520 3.13010 4.16232
# Velocity P-wave (km/s) = 7.57720 6.60126 7.10600
#
# Compressibility (1/GPa) = 0.02302184
#
# Stress axis : x y z
#
# Youngs Moduli (GPa) = 108.37165 65.52567 38.18892
#
# Poissons Ratio (x) = 0.15106 0.15662
# Poissons Ratio (y) = 0.24983 0.28335
# Poissons Ratio (z) = 0.44446 0.48618
#
# Static dielectric constant tensor:
#      x y z
#    x 1.626910 0.000000 -0.017810 
#    y 0.000000 1.626240 0.000000 
#    z -0.017810 0.000000 1.631550 
# 
# From -- ./inp_files/302784.got.cif
#   From: 2010.05.17/outbox.cif.g08.bks.cpg/sg12_152_cif.got.tgz:302784.got - 2010.06.03 13:09:07.
