data_PCOD9184413
_publ_section_title
;
Structure prediction by ZEFSAII (Michael W. Deem and Ramdas Pophale) SiO2 
 PCOD9184413
Probable space group: C 2/M
;
_chemical_formula_sum "Si O2"
_cell_formula_units_Z 52
_cell_length_a 27.582961
_cell_length_b 15.629346
_cell_length_c 9.112564
_cell_angle_alpha 90.000000
_cell_angle_beta 143.724920
_cell_angle_gamma 90.000000
_cell_volume 2324.322557
_symmetry_space_group_name_H-M "C 2/M"
_symmetry_group_IT_number 12
_symmetry_cell_setting 'monoclinic'
loop_
_space_group_symop_operation_xyz
x,y,z
-x,y,-z
-x,-y,-z
x,-y,z
1/2+x,1/2+y,z
1/2-x,1/2+y,-z
1/2-x,1/2-y,-z
1/2+x,1/2-y,z
loop_
_atom_site_type_symbol
_atom_site_label
_atom_site_fract_x
_atom_site_fract_y
_atom_site_fract_z
Si Si1 0.645951 0.267733 0.039450
Si Si2 0.431700 0.902026 0.207020
Si Si3 0.081914 0.402405 0.366654
Si Si4 0.262039 0.157398 0.102525
Si Si5 0.627987 0.591661 0.572302
Si Si6 0.405165 0.726281 0.756614
Si Si7 0.000000 0.852067 0.500000
O O1 0.641045 0.166396 0.989745
O O2 0.565862 0.298779 0.754030
O O3 0.720128 0.323617 0.157487
O O4 0.636863 0.283704 0.189241
O O5 0.500000 0.884365 0.500000
O O6 0.490261 0.896564 0.206552
O O7 0.403779 0.000000 0.157569
O O8 0.096002 0.500000 0.351705
O O9 0.147760 0.378983 0.654637
O O10 0.095280 0.325953 0.286872
O O11 0.250000 0.250000 0.000000
O O12 0.206758 0.096840 0.868861
O O13 0.622815 0.500000 0.483234
O O14 0.629689 0.669201 0.461032
O O15 0.552490 0.600631 0.502787
O O16 0.500000 0.699537 0.000000
#
# Coordination Sequence:
#
# PCOD9184413 Si02
#       7
#     8   8   8   8   8   8   4
#     4  11  22  38  66  90 128 169 215 260 322 389
#     4  10  19  33  60  96 127 159 211 269 316 371
#     4  11  23  41  66  95 132 171 215 264 321 389
#     4  11  23  43  69  91 125 172 216 266 325 381
#     4  11  23  41  65  94 126 165 216 265 317 383
#     4  12  23  41  64  98 131 170 209 266 332 380
#     4  10  19  38  63  92 120 162 211 266 304 374
#
# _framework density 22.372109999999999
#
# number of rings (size 3 to 8) (size 9 to 14) (size 15 to 20)
#    0.000    1.077    5.385    1.615    0.000    1.846 
#    0.000    2.308    0.000    0.000    0.000    0.000 
#    0.000    0.000    0.000    0.000    0.000    0.000 
#
# Total GULP energy -145337.632294 kJ/mol
# GULP energy per Si atom -5589.908934 kJ/mol
# Density = 2.232119 g / cm^3
# Si number density = 22.372110 Si / 1000 Ang^3
#
#
#
# Elastic Constant Matrix: (Units=GPa)
#
#
# Indices 1 2 3 4 5 6 
#
# 1 83.5403 31.0879 23.4194 0.0000 -27.2211 0.0000
# 2 31.0879 134.5681 25.0762 0.0000 -16.4420 0.0000
# 3 23.4194 25.0762 69.1169 0.0000 -5.7953 0.0000
# 4 0.0000 0.0000 0.0000 6.1908 0.0000 1.5379
# 5 -27.2211 -16.4420 -5.7953 0.0000 43.3595 0.0000
# 6 0.0000 0.0000 0.0000 1.5379 0.0000 9.4071
#
#
#
# Elastic Compliance Matrix: (Units=1/GPa)
#
#
# Indices 1 2 3 4 5 6 
#
# 1 0.016930 -0.001984 -0.004236 0.000000 0.009310 0.000000
# 2 -0.001984 0.008519 -0.002278 0.000000 0.001680 0.000000
# 3 -0.004236 -0.002278 0.016621 0.000000 -0.001302 0.000000
# 4 0.000000 0.000000 0.000000 0.168367 0.000000 -0.027524
# 5 0.009310 0.001680 -0.001302 0.000000 0.029371 0.000000
# 6 0.000000 0.000000 0.000000 -0.027524 0.000000 0.110803
#
#
# Mechanical properties :
#
#
# Convention : Reuss Voigt Hill
#
# Bulk Modulus (GPa) = 39.88163 49.59915 44.74039
# Shear Modulus (GPa) = 13.29913 25.63425 19.46669
#
# Velocity S-wave (km/s) = 2.44078 3.38866 2.95300
# Velocity P-wave (km/s) = 5.08020 6.12608 5.62749
#
# Compressibility (1/GPa) = 0.02507420
#
# Stress axis : x y z
#
# Youngs Moduli (GPa) = 59.06765 117.38006 60.16571
#
# Poissons Ratio (x) = 0.23291 0.25486
# Poissons Ratio (y) = 0.11720 0.13704
# Poissons Ratio (z) = 0.25021 0.26735
#
# Static dielectric constant tensor:
#      x y z
#    x 1.866530 0.000000 -0.013570 
#    y 0.000000 1.821750 0.000000 
#    z -0.013570 0.000000 1.844810 
# 
# From -- ./inp_files/112083.got.cif
#   From: 2010.05.17/outbox.cif.g08.bks.cpg/sg12_57_cif.got.tgz:112083.got - 2010.06.03 13:09:07.
