data_PCOD9184045
_publ_section_title
;
Structure prediction by ZEFSAII (Michael W. Deem and Ramdas Pophale) SiO2 
 PCOD9184045
Probable space group: C 2/M
;
_chemical_formula_sum "Si O2"
_cell_formula_units_Z 48
_cell_length_a 27.391962
_cell_length_b 19.010133
_cell_length_c 8.530999
_cell_angle_alpha 90.000000
_cell_angle_beta 29.182484
_cell_angle_gamma 90.000000
_cell_volume 2166.034888
_symmetry_space_group_name_H-M "C 2/M"
_symmetry_group_IT_number 12
_symmetry_cell_setting 'monoclinic'
loop_
_space_group_symop_operation_xyz
x,y,z
-x,y,-z
-x,-y,-z
x,-y,z
1/2+x,1/2+y,z
1/2-x,1/2+y,-z
1/2-x,1/2-y,-z
1/2+x,1/2-y,z
loop_
_atom_site_type_symbol
_atom_site_label
_atom_site_fract_x
_atom_site_fract_y
_atom_site_fract_z
Si Si1 0.874218 0.689948 0.735276
Si Si2 0.845718 0.842818 0.793747
Si Si3 0.248074 0.077877 0.687524
Si Si4 0.269781 0.823222 0.353243
Si Si5 0.549723 0.921132 0.698567
Si Si6 0.887446 0.078928 0.375162
O O1 0.905923 0.770128 0.615069
O O2 0.947458 0.632815 0.452879
O O3 0.766624 0.677532 0.950845
O O4 0.847880 0.684402 0.992558
O O5 0.884370 0.901196 0.566458
O O6 0.835561 0.873870 0.996354
O O7 0.296760 0.118732 0.406583
O O8 0.334731 0.070384 0.573461
O O9 0.212085 0.000000 0.745709
O O10 0.250000 0.750000 0.500000
O O11 0.172599 0.859186 0.544805
O O12 0.509796 0.000000 0.775253
O O13 0.500000 0.895153 0.000000
O O14 0.843996 0.000000 0.474666
O O15 0.000000 0.078364 0.000000
#
# Coordination Sequence:
#
# PCOD9184045 Si02
#       6
#     8   8   8   8   8   8
#     4   9  18  32  55  80 110 147 190 237 287 345
#     4   9  17  33  55  82 107 145 191 240 283 348
#     4  10  19  33  57  82 108 148 192 237 291 348
#     4  11  21  37  58  84 118 150 188 243 292 350
#     4   9  19  35  55  81 112 149 195 241 287 345
#     4  10  22  39  60  86 116 153 197 244 292 348
#
# _framework density 22.160309000000002
#
# number of rings (size 3 to 8) (size 9 to 14) (size 15 to 20)
#    0.000    2.333    1.667    1.000    2.333    5.333 
#    0.000    1.667    0.000    6.000    0.000    0.000 
#    0.000    0.000    0.000    0.000    0.000    0.000 
#
# Total GULP energy -133854.933057 kJ/mol
# GULP energy per Si atom -5577.288877 kJ/mol
# Density = 2.210987 g / cm^3
# Si number density = 22.160309 Si / 1000 Ang^3
#
#
#
# Elastic Constant Matrix: (Units=GPa)
#
#
# Indices 1 2 3 4 5 6 
#
# 1 56.6562 47.1544 20.3798 0.0000 25.7421 0.0000
# 2 47.1544 160.6556 62.4102 0.0000 42.1108 0.0000
# 3 20.3798 62.4102 76.3497 0.0000 33.2509 0.0000
# 4 0.0000 0.0000 0.0000 26.4695 0.0000 4.9988
# 5 25.7421 42.1108 33.2509 0.0000 38.0690 0.0000
# 6 0.0000 0.0000 0.0000 4.9988 0.0000 -0.7331
#
#
#
# Elastic Compliance Matrix: (Units=1/GPa)
#
#
# Indices 1 2 3 4 5 6 
#
# 1 0.028381 -0.005614 0.004304 0.000000 -0.016740 0.000000
# 2 -0.005614 0.011092 -0.006259 0.000000 -0.003006 0.000000
# 3 0.004304 -0.006259 0.024721 0.000000 -0.017579 0.000000
# 4 0.000000 0.000000 0.000000 0.016514 0.000000 0.112605
# 5 -0.016740 -0.003006 -0.017579 0.000000 0.056267 0.000000
# 6 0.000000 0.000000 0.000000 0.112605 0.000000 -0.596263
#
#
# Mechanical properties :
#
#
# Convention : Reuss Voigt Hill
#
# Bulk Modulus (GPa) = 20.38524 61.50561 40.94543
# Shear Modulus (GPa) = -11.68773 23.67553 5.99390
#
# Velocity S-wave (km/s) = -2.29905 3.27215 1.64641
# Velocity P-wave (km/s) = 1.47359 6.48776 4.70439
#
# Compressibility (1/GPa) = 0.04905509
#
# Stress axis : x y z
#
# Youngs Moduli (GPa) = 35.23523 90.15731 40.45193
#
# Poissons Ratio (x) = 0.50616 -0.17411
# Poissons Ratio (y) = 0.19782 0.25318
# Poissons Ratio (z) = -0.15165 0.56427
#
# Static dielectric constant tensor:
#      x y z
#    x 1.883200 0.000000 -0.027240 
#    y 0.000000 1.844570 0.000000 
#    z -0.027240 0.000000 1.798360 
# 
# From -- ./inp_files/74629.got.cif
#   From: 2010.05.17/outbox.cif.g08.bks.cpg/sg12_38_cif.got.tgz:74629.got - 2010.06.03 13:09:07.
