data_PCOD9184802
_publ_section_title
;
Structure prediction by ZEFSAII (Michael W. Deem and Ramdas Pophale) SiO2 
 PCOD9184802
Probable space group: C 2/M
;
_chemical_formula_sum "Si O2"
_cell_formula_units_Z 60
_cell_length_a 17.921214
_cell_length_b 20.187834
_cell_length_c 29.840342
_cell_angle_alpha 90.000000
_cell_angle_beta 161.900403
_cell_angle_gamma 90.000000
_cell_volume 3353.975660
_symmetry_space_group_name_H-M "C 2/M"
_symmetry_group_IT_number 12
_symmetry_cell_setting 'monoclinic'
loop_
_space_group_symop_operation_xyz
x,y,z
-x,y,-z
-x,-y,-z
x,-y,z
1/2+x,1/2+y,z
1/2-x,1/2+y,-z
1/2-x,1/2-y,-z
1/2+x,1/2-y,z
loop_
_atom_site_type_symbol
_atom_site_label
_atom_site_fract_x
_atom_site_fract_y
_atom_site_fract_z
Si Si1 0.965888 0.427605 0.590322
Si Si2 0.104151 0.281857 0.456803
Si Si3 0.989967 0.426498 0.276838
Si Si4 0.259683 0.575527 0.671964
Si Si5 0.457130 0.274563 0.886973
Si Si6 0.245128 0.304161 0.374482
Si Si7 0.589942 0.301461 0.864610
Si Si8 0.000000 0.136532 0.000000
O O1 0.856571 0.500000 0.517715
O O2 0.003183 0.424403 0.664941
O O3 0.197978 0.423289 0.690209
O O4 0.835150 0.359456 0.505386
O O5 0.250000 0.250000 0.500000
O O6 0.184963 0.248850 0.548277
O O7 0.821902 0.267949 0.286412
O O8 0.066139 0.500000 0.306263
O O9 0.131272 0.367303 0.333939
O O10 0.716495 0.410534 0.109937
O O11 0.332931 0.500000 0.702586
O O12 0.448942 0.632679 0.768261
O O13 0.000000 0.587639 0.500000
O O14 0.580923 0.306459 0.913553
O O15 0.451798 0.317073 0.929408
O O16 0.637196 0.211637 0.996274
O O17 0.500000 0.324920 0.500000
O O18 0.064709 0.263723 0.238843
#
# Coordination Sequence:
#
# PCOD9184802 Si02
#       8
#     8   8   8   8   8   8   8   4
#     4  10  19  34  54  82 118 147 186 243 294 337
#     4  12  21  37  58  89 114 154 199 245 285 349
#     4  11  23  37  56  84 117 156 195 238 287 343
#     4  10  19  34  60  90 117 149 191 245 303 351
#     4  11  23  35  59  84 120 150 193 231 295 339
#     4  12  22  38  63  83 117 158 197 239 293 342
#     4  11  21  38  57  85 120 152 188 241 289 353
#     4  12  19  40  58  86 111 156 190 240 289 348
#
# _framework density 17.889216999999999
#
# number of rings (size 3 to 8) (size 9 to 14) (size 15 to 20)
#    0.000    0.933    6.667    1.400    0.000    0.267 
#    0.000    0.667    0.000    1.600    0.000    0.467 
#    0.000    0.000    0.000    0.000    0.000    0.000 
#
# Total GULP energy -167118.340659 kJ/mol
# GULP energy per Si atom -5570.611355 kJ/mol
# Density = 1.784850 g / cm^3
# Si number density = 17.889217 Si / 1000 Ang^3
#
#
#
# Elastic Constant Matrix: (Units=GPa)
#
#
# Indices 1 2 3 4 5 6 
#
# 1 58.7094 25.2085 21.6926 0.0021 -4.9291 0.0044
# 2 25.2085 155.0407 44.2973 -0.0154 4.8982 0.0010
# 3 21.6926 44.2973 66.5868 -0.0995 1.9559 -0.0328
# 4 0.0021 -0.0154 -0.0995 24.4831 -0.0191 6.4098
# 5 -4.9291 4.8982 1.9559 -0.0191 28.0099 0.0044
# 6 0.0044 0.0010 -0.0328 6.4098 0.0044 30.0677
#
#
#
# Elastic Compliance Matrix: (Units=1/GPa)
#
#
# Indices 1 2 3 4 5 6 
#
# 1 0.020211 -0.001857 -0.005474 -0.000020 0.004264 -0.000005
# 2 -0.001857 0.008164 -0.004784 -0.000015 -0.001420 -0.000002
# 3 -0.005474 -0.004784 0.020029 0.000076 -0.001525 0.000007
# 4 -0.000020 -0.000015 0.000076 0.043259 0.000025 -0.009222
# 5 0.004264 -0.001420 -0.001525 0.000025 0.036807 -0.000013
# 6 -0.000005 -0.000002 0.000007 -0.009222 -0.000013 0.035224
#
#
# Mechanical properties :
#
#
# Convention : Reuss Voigt Hill
#
# Bulk Modulus (GPa) = 41.36869 51.41485 46.39177
# Shear Modulus (GPa) = 25.51248 29.12137 27.31692
#
# Velocity S-wave (km/s) = 3.78052 4.03907 3.91193
# Velocity P-wave (km/s) = 6.49858 7.11022 6.81127
#
# Compressibility (1/GPa) = 0.02417287
#
# Stress axis : x y z
#
# Youngs Moduli (GPa) = 49.47797 122.49447 49.92723
#
# Poissons Ratio (x) = 0.22744 0.27332
# Poissons Ratio (y) = 0.09187 0.23887
# Poissons Ratio (z) = 0.27086 0.58605
#
# Static dielectric constant tensor:
#      x y z
#    x 1.638850 0.000000 -0.027760 
#    y 0.000000 1.641840 -0.000010 
#    z -0.027760 -0.000010 1.640400 
# 
# From -- ./inp_files/379754.got.cif
#   From: 2010.05.17/outbox.cif.g08.bks.cpg/sg12_190_cif.got.tgz:379754.got - 2010.06.03 13:09:07.
