data_PCOD9184658
_publ_section_title
;
Structure prediction by ZEFSAII (Michael W. Deem and Ramdas Pophale) SiO2 
 PCOD9184658
Probable space group: C 2/M
;
_chemical_formula_sum "Si O2"
_cell_formula_units_Z 36
_cell_length_a 15.058170
_cell_length_b 14.591343
_cell_length_c 23.148265
_cell_angle_alpha 90.000000
_cell_angle_beta 156.041497
_cell_angle_gamma 90.000000
_cell_volume 2065.342330
_symmetry_space_group_name_H-M "C 2/M"
_symmetry_group_IT_number 12
_symmetry_cell_setting 'monoclinic'
loop_
_space_group_symop_operation_xyz
x,y,z
-x,y,-z
-x,-y,-z
x,-y,z
1/2+x,1/2+y,z
1/2-x,1/2+y,-z
1/2-x,1/2-y,-z
1/2+x,1/2-y,z
loop_
_atom_site_type_symbol
_atom_site_label
_atom_site_fract_x
_atom_site_fract_y
_atom_site_fract_z
Si Si1 0.351469 0.391576 0.855884
Si Si2 0.996923 0.236699 0.626765
Si Si3 0.055282 0.109237 0.217620
Si Si4 0.500000 0.780612 0.500000
Si Si5 0.748671 0.110118 0.138086
O O1 0.293311 0.500000 0.822091
O O2 0.140257 0.326644 0.728012
O O3 0.476255 0.373532 0.869371
O O4 0.500000 0.373122 0.000000
O O5 0.006339 0.225404 0.563376
O O6 0.104056 0.153104 0.724487
O O7 0.750000 0.250000 0.500000
O O8 0.280543 0.157791 0.370195
O O9 0.857013 0.138184 0.141370
O O10 0.082964 0.000000 0.241113
O O11 0.750925 0.000000 0.142038
O O12 0.500000 0.141237 0.000000
#
# Coordination Sequence:
#
# PCOD9184658 Si02
#       5
#     8   8   8   4   8
#     4   9  19  36  57  83 108 134 176 229 278 313
#     4  11  21  36  55  81 111 142 179 221 271 318
#     4   9  17  32  57  81 104 138 181 227 267 308
#     4  10  19  34  53  82 108 136 180 226 270 316
#     4  10  21  38  57  79 109 146 184 218 261 323
#
# _framework density 17.430523999999998
#
# number of rings (size 3 to 8) (size 9 to 14) (size 15 to 20)
#    0.000    2.222    2.222    1.000    0.000    1.778 
#    4.000    3.889    0.000    0.000    0.000    0.000 
#    0.000    0.000    0.000    0.000    0.000    0.000 
#
# Total GULP energy -100378.111560 kJ/mol
# GULP energy per Si atom -5576.561753 kJ/mol
# Density = 1.739085 g / cm^3
# Si number density = 17.430524 Si / 1000 Ang^3
#
#
#
# Elastic Constant Matrix: (Units=GPa)
#
#
# Indices 1 2 3 4 5 6 
#
# 1 154.5475 33.6731 79.0535 0.0019 5.0808 0.0005
# 2 33.6731 26.0836 19.9086 0.0028 2.2362 0.0005
# 3 79.0535 19.9086 106.2758 0.0070 10.0819 -0.0007
# 4 0.0019 0.0028 0.0070 21.9291 0.0002 -6.9776
# 5 5.0808 2.2362 10.0819 0.0002 39.9900 -0.0019
# 6 0.0005 0.0005 -0.0007 -6.9776 -0.0019 22.3843
#
#
#
# Elastic Compliance Matrix: (Units=1/GPa)
#
#
# Indices 1 2 3 4 5 6 
#
# 1 0.012557 -0.010610 -0.007436 0.000003 0.000873 0.000001
# 2 -0.010610 0.053706 -0.002061 -0.000006 -0.001136 -0.000003
# 3 -0.007436 -0.002061 0.015599 -0.000004 -0.002873 -0.000001
# 4 0.000003 -0.000006 -0.000004 0.050623 0.000002 0.015780
# 5 0.000873 -0.001136 -0.002873 0.000002 0.025683 0.000003
# 6 0.000001 -0.000003 -0.000001 0.015780 0.000003 0.049593
#
#
# Mechanical properties :
#
#
# Convention : Reuss Voigt Hill
#
# Bulk Modulus (GPa) = 24.01017 61.35303 42.68160
# Shear Modulus (GPa) = 19.09439 27.14544 23.11991
#
# Velocity S-wave (km/s) = 3.31336 3.95061 3.64593
# Velocity P-wave (km/s) = 5.33315 7.48898 6.50105
#
# Compressibility (1/GPa) = 0.04164902
#
# Stress axis : x y z
#
# Youngs Moduli (GPa) = 79.63609 18.61995 64.10604
#
# Poissons Ratio (x) = 0.19756 0.47668
# Poissons Ratio (y) = 0.84495 0.13209
# Poissons Ratio (z) = 0.59216 0.03837
#
# Static dielectric constant tensor:
#      x y z
#    x 1.617100 0.000000 0.012330 
#    y 0.000000 1.580750 0.000000 
#    z 0.012330 0.000000 1.573100 
# 
# From -- ./inp_files/141722.got.cif
#   From: 2010.05.17/outbox.cif.g08.bks.cpg/sg12_71_cif.got.tgz:141722.got - 2010.06.03 13:09:07.
