data_PCOD9184707
_publ_section_title
;
Structure prediction by ZEFSAII (Michael W. Deem and Ramdas Pophale) SiO2 
 PCOD9184707
Probable space group: C 2/M
;
_chemical_formula_sum "Si O2"
_cell_formula_units_Z 56
_cell_length_a 11.270579
_cell_length_b 13.797688
_cell_length_c 18.330010
_cell_angle_alpha 90.000000
_cell_angle_beta 91.496839
_cell_angle_gamma 90.000000
_cell_volume 2849.489290
_symmetry_space_group_name_H-M "C 2/M"
_symmetry_group_IT_number 12
_symmetry_cell_setting 'monoclinic'
loop_
_space_group_symop_operation_xyz
x,y,z
-x,y,-z
-x,-y,-z
x,-y,z
1/2+x,1/2+y,z
1/2-x,1/2+y,-z
1/2-x,1/2-y,-z
1/2+x,1/2-y,z
loop_
_atom_site_type_symbol
_atom_site_label
_atom_site_fract_x
_atom_site_fract_y
_atom_site_fract_z
Si Si1 0.616067 0.116527 0.593633
Si Si2 0.765947 0.760969 0.887396
Si Si3 0.318307 0.390499 0.301246
Si Si4 0.361483 0.387954 0.017241
Si Si5 0.843747 0.617615 0.566438
Si Si6 0.902176 0.607549 0.815270
Si Si7 0.872662 0.306086 0.255886
O O1 0.477127 0.149158 0.591078
O O2 0.673364 0.147938 0.517841
O O3 0.674168 0.151572 0.668990
O O4 0.615110 0.000000 0.593604
O O5 0.791726 0.842585 0.947352
O O6 0.879329 0.692672 0.872736
O O7 0.720601 0.805532 0.811341
O O8 0.670340 0.684022 0.917197
O O9 0.366038 0.500000 0.308013
O O10 0.257144 0.359180 0.376559
O O11 0.210908 0.393148 0.240745
O O12 0.403766 0.306121 0.274355
O O13 0.329118 0.500000 0.031871
O O14 0.500000 0.385047 0.000000
O O15 0.847901 0.500000 0.567224
O O16 0.913649 0.500000 0.847672
O O17 0.015613 0.632937 0.768937
#
# Coordination Sequence:
#
# PCOD9184707 Si02
#       7
#     8   8   8   8   8   8   8
#     4   9  16  27  48  76 105 137 175 223 269 307
#     4  10  22  37  55  84 111 134 175 218 259 313
#     4   9  18  32  49  72 103 140 183 222 260 312
#     4  10  21  40  62  80 105 142 176 210 256 315
#     4   8  14  28  48  71 101 139 182 221 259 311
#     4  10  19  34  54  76 109 144 171 211 263 312
#     4  11  20  30  52  82 108 134 175 224 266 306
#
# _framework density 19.652643000000001
#
# number of rings (size 3 to 8) (size 9 to 14) (size 15 to 20)
#    0.000    2.429    1.429    2.571    0.000    2.286 
#    0.000    0.714    0.000    6.429    0.000    2.000 
#    0.000    0.000    0.000    0.000    0.000    0.000 
#
# Total GULP energy -156089.242625 kJ/mol
# GULP energy per Si atom -5574.615808 kJ/mol
# Density = 1.960791 g / cm^3
# Si number density = 19.652643 Si / 1000 Ang^3
#
#
#
# Elastic Constant Matrix: (Units=GPa)
#
#
# Indices 1 2 3 4 5 6 
#
# 1 15.4286 18.0806 7.0215 0.0000 -1.3244 0.0000
# 2 18.0806 55.8454 5.0925 0.0000 8.7359 0.0000
# 3 7.0215 5.0925 73.9168 0.0000 14.4609 0.0000
# 4 0.0000 0.0000 0.0000 19.2658 0.0000 2.7713
# 5 -1.3244 8.7359 14.4609 0.0000 15.1176 0.0000
# 6 0.0000 0.0000 0.0000 2.7713 0.0000 8.8915
#
#
#
# Elastic Compliance Matrix: (Units=1/GPa)
#
#
# Indices 1 2 3 4 5 6 
#
# 1 0.146767 -0.055947 -0.023285 0.000000 0.067461 0.000000
# 2 -0.055947 0.041082 0.009949 0.000000 -0.038158 0.000000
# 3 -0.023285 0.009949 0.020396 0.000000 -0.027299 0.000000
# 4 0.000000 0.000000 0.000000 0.054342 0.000000 -0.016937
# 5 0.067461 -0.038158 -0.027299 0.000000 0.120222 0.000000
# 6 0.000000 0.000000 0.000000 -0.016937 0.000000 0.117746
#
#
# Mechanical properties :
#
#
# Convention : Reuss Voigt Hill
#
# Bulk Modulus (GPa) = 14.35154 22.84222 18.59688
# Shear Modulus (GPa) = 7.54892 16.32138 11.93515
#
# Velocity S-wave (km/s) = 1.96202 2.88495 2.46703
# Velocity P-wave (km/s) = 3.52862 4.76922 4.19503
#
# Compressibility (1/GPa) = 0.06967895
#
# Stress axis : x y z
#
# Youngs Moduli (GPa) = 6.81353 24.34161 49.02938
#
# Poissons Ratio (x) = 1.36184 1.14166
# Poissons Ratio (y) = 0.38120 -0.48781
# Poissons Ratio (z) = 0.15865 -0.24218
#
# Static dielectric constant tensor:
#      x y z
#    x 1.676590 0.000000 -0.017280 
#    y 0.000000 1.714310 0.000000 
#    z -0.017280 0.000000 1.720970 
# 
# From -- ./inp_files/304234.got.cif
#   From: 2010.05.17/outbox.cif.g08.bks.cpg/sg12_153_cif.got.tgz:304234.got - 2010.06.03 13:09:07.
