data_PCOD9184877
_publ_section_title
;
Structure prediction by ZEFSAII (Michael W. Deem and Ramdas Pophale) SiO2 
 PCOD9184877
Probable space group: C 2/M
;
_chemical_formula_sum "Si O2"
_cell_formula_units_Z 64
_cell_length_a 26.927201
_cell_length_b 7.564197
_cell_length_c 17.274972
_cell_angle_alpha 90.000000
_cell_angle_beta 49.832455
_cell_angle_gamma 90.000000
_cell_volume 2688.788004
_symmetry_space_group_name_H-M "C 2/M"
_symmetry_group_IT_number 12
_symmetry_cell_setting 'monoclinic'
loop_
_space_group_symop_operation_xyz
x,y,z
-x,y,-z
-x,-y,-z
x,-y,z
1/2+x,1/2+y,z
1/2-x,1/2+y,-z
1/2-x,1/2-y,-z
1/2+x,1/2-y,z
loop_
_atom_site_type_symbol
_atom_site_label
_atom_site_fract_x
_atom_site_fract_y
_atom_site_fract_z
Si Si1 0.095261 0.796350 0.744772
Si Si2 0.220451 0.796520 0.209524
Si Si3 0.102794 0.783700 0.228930
Si Si4 0.852140 0.294181 0.472180
Si Si5 0.725480 0.706924 0.680331
Si Si6 0.157069 0.785371 0.007387
Si Si7 0.530456 0.284944 0.051041
Si Si8 0.024869 0.213836 0.559269
O O1 0.117142 0.792223 0.634296
O O2 0.154585 0.715403 0.734315
O O3 0.023255 0.725631 0.832202
O O4 0.089549 0.000000 0.776575
O O5 0.152806 0.723540 0.245173
O O6 0.251917 0.713844 0.253917
O O7 0.208877 0.000000 0.241790
O O8 0.273055 0.784583 0.087844
O O9 0.130694 0.730051 0.117841
O O10 0.029789 0.730411 0.323523
O O11 0.103359 0.000000 0.228477
O O12 0.843819 0.500000 0.461419
O O13 0.783282 0.218106 0.569093
O O14 0.904321 0.279020 0.488459
O O15 0.721041 0.500000 0.663703
O O16 0.102418 0.725527 0.000698
O O17 0.161314 0.000000 0.002569
O O18 0.536082 0.500000 0.044901
O O19 0.500000 0.231119 0.000000
O O20 0.000000 0.269365 0.500000
O O21 0.027864 0.000000 0.556407
#
# Coordination Sequence:
#
# PCOD9184877 Si02
#       8
#     8   8   8   8   8   8   8   8
#     4  10  20  37  61  83 106 145 193 229 261 317
#     4  11  22  36  56  82 110 140 181 232 280 326
#     4   9  19  35  55  80 108 144 190 230 267 321
#     4  11  23  37  55  84 119 147 176 224 283 333
#     4  10  22  39  58  81 110 146 185 223 271 331
#     4  10  19  34  55  77 108 145 180 224 274 328
#     4   9  17  31  55  83 106 136 183 230 268 315
#     4  10  20  37  61  84 108 145 192 233 268 317
#
# _framework density 23.802547000000001
#
# number of rings (size 3 to 8) (size 9 to 14) (size 15 to 20)
#    0.000    2.000    0.000    3.750    0.000    6.750 
#    0.000    4.375    0.000    1.500    0.000    0.000 
#    0.000    0.000    0.000    0.000    0.000    0.000 
#
# Total GULP energy -178925.773987 kJ/mol
# GULP energy per Si atom -5591.430437 kJ/mol
# Density = 2.374837 g / cm^3
# Si number density = 23.802547 Si / 1000 Ang^3
#
#
#
# Elastic Constant Matrix: (Units=GPa)
#
#
# Indices 1 2 3 4 5 6 
#
# 1 68.6086 -0.8834 -27.0719 -0.0012 -5.8001 0.0015
# 2 -0.8834 51.6725 -5.8738 0.0234 -5.9780 -0.0103
# 3 -27.0719 -5.8738 57.5191 -0.0027 -4.1562 0.0025
# 4 -0.0012 0.0234 -0.0027 -11.9893 0.0012 21.0206
# 5 -5.8001 -5.9780 -4.1562 0.0012 41.9402 -0.0008
# 6 0.0015 -0.0103 0.0025 21.0206 -0.0008 -0.8086
#
#
#
# Elastic Compliance Matrix: (Units=1/GPa)
#
#
# Indices 1 2 3 4 5 6 
#
# 1 0.018534 0.001791 0.009176 -0.000001 0.003728 -0.000001
# 2 0.001791 0.020138 0.003147 0.000009 0.003430 -0.000017
# 3 0.009176 0.003147 0.022309 -0.000002 0.003928 -0.000001
# 4 -0.000001 0.000009 -0.000002 0.001871 0.000002 0.048639
# 5 0.003728 0.003430 0.003928 0.000002 0.025237 -0.000004
# 6 -0.000001 -0.000017 -0.000001 0.048639 -0.000004 0.027742
#
#
# Mechanical properties :
#
#
# Convention : Reuss Voigt Hill
#
# Bulk Modulus (GPa) = 11.20958 12.23800 11.72379
# Shear Modulus (GPa) = 42.61127 19.93709 31.27418
#
# Velocity S-wave (km/s) = 4.23566 2.89728 3.62871
# Velocity P-wave (km/s) = 5.35171 4.04288 4.74266
#
# Compressibility (1/GPa) = 0.08920938
#
# Stress axis : x y z
#
# Youngs Moduli (GPa) = 53.95442 49.65776 44.82430
#
# Poissons Ratio (x) = -0.08894 -0.41129
# Poissons Ratio (y) = -0.09664 -0.14108
# Poissons Ratio (z) = -0.49506 -0.15629
#
# Static dielectric constant tensor:
#      x y z
#    x 1.882190 0.000000 -0.000710 
#    y 0.000000 1.930960 0.000000 
#    z -0.000710 0.000000 1.889210 
# 
# From -- ./inp_files/295469.got.cif
#   From: 2010.05.17/outbox.cif.g08.bks.cpg/sg12_148_cif.got.tgz:295469.got - 2010.06.03 13:09:07.
