data_PCOD9184220
_publ_section_title
;
Structure prediction by ZEFSAII (Michael W. Deem and Ramdas Pophale) SiO2 
 PCOD9184220
Probable space group: C 2/M
;
_chemical_formula_sum "Si O2"
_cell_formula_units_Z 40
_cell_length_a 17.617767
_cell_length_b 11.798777
_cell_length_c 9.595800
_cell_angle_alpha 90.000000
_cell_angle_beta 66.397364
_cell_angle_gamma 90.000000
_cell_volume 1827.796031
_symmetry_space_group_name_H-M "C 2/M"
_symmetry_group_IT_number 12
_symmetry_cell_setting 'monoclinic'
loop_
_space_group_symop_operation_xyz
x,y,z
-x,y,-z
-x,-y,-z
x,-y,z
1/2+x,1/2+y,z
1/2-x,1/2+y,-z
1/2-x,1/2-y,-z
1/2+x,1/2-y,z
loop_
_atom_site_type_symbol
_atom_site_label
_atom_site_fract_x
_atom_site_fract_y
_atom_site_fract_z
Si Si1 0.100841 0.500000 0.272212
Si Si2 0.921098 0.871164 0.640767
Si Si3 0.600661 0.000000 0.596854
Si Si4 0.698003 0.368310 0.528887
Si Si5 0.098761 0.713816 0.095777
Si Si6 0.400319 0.782042 0.218578
O O1 0.125502 0.500000 0.415889
O O2 0.129231 0.608915 0.165651
O O3 0.000227 0.500000 0.338625
O O4 0.845514 0.866958 0.589263
O O5 0.893367 0.818427 0.806217
O O6 0.000000 0.814240 0.500000
O O7 0.946349 0.000000 0.649238
O O8 0.625726 0.110323 0.667498
O O9 0.725608 0.500000 0.532360
O O10 0.750000 0.250000 0.500000
O O11 0.626741 0.336053 0.693261
O O12 0.999427 0.706603 0.147093
O O13 0.133395 0.712966 0.914193
#
# Coordination Sequence:
#
# PCOD9184220 Si02
#       6
#     4   8   4   8   8   8
#     4   9  17  27  47  87 127 162 201 243 307 385
#     4  10  20  38  63  90 121 157 207 265 318 375
#     4   9  17  29  53  81 124 169 205 247 305 373
#     4  11  25  44  64  91 127 173 219 257 310 384
#     4  10  19  33  57  95 127 157 200 267 332 371
#     4  10  20  34  58  90 129 162 204 266 322 377
#
# _framework density 21.88428
#
# number of rings (size 3 to 8) (size 9 to 14) (size 15 to 20)
#    0.000    2.000    2.000    1.800    4.200    3.200 
#    1.800    3.000    0.000    0.000    0.000    0.000 
#    0.000    0.000    0.000    0.000    0.000    0.000 
#
# Total GULP energy -111481.280786 kJ/mol
# GULP energy per Si atom -5574.064039 kJ/mol
# Density = 2.183447 g / cm^3
# Si number density = 21.884280 Si / 1000 Ang^3
#
#
#
# Elastic Constant Matrix: (Units=GPa)
#
#
# Indices 1 2 3 4 5 6 
#
# 1 41.2314 37.0594 24.2473 0.0000 17.4533 0.0000
# 2 37.0594 139.8211 74.8898 0.0000 18.6929 0.0000
# 3 24.2473 74.8898 169.0852 0.0000 60.4692 0.0000
# 4 0.0000 0.0000 0.0000 -22.7617 0.0000 12.4872
# 5 17.4533 18.6929 60.4692 0.0000 33.8058 0.0000
# 6 0.0000 0.0000 0.0000 12.4872 0.0000 24.8573
#
#
#
# Elastic Compliance Matrix: (Units=1/GPa)
#
#
# Indices 1 2 3 4 5 6 
#
# 1 0.047135 -0.014964 0.015576 0.000000 -0.043921 0.000000
# 2 -0.014964 0.014624 -0.011663 0.000000 0.020501 0.000000
# 3 0.015576 -0.011663 0.026132 0.000000 -0.048336 0.000000
# 4 0.000000 0.000000 0.000000 -0.034442 0.000000 0.017302
# 5 -0.043921 0.020501 -0.048336 0.000000 0.127380 0.000000
# 6 0.000000 0.000000 0.000000 0.017302 0.000000 0.031538
#
#
# Mechanical properties :
#
#
# Convention : Reuss Voigt Hill
#
# Bulk Modulus (GPa) = 15.19994 69.17008 42.18501
# Shear Modulus (GPa) = 19.50074 21.44304 20.47189
#
# Velocity S-wave (km/s) = 2.98834 3.13363 3.06185
# Velocity P-wave (km/s) = 4.34368 6.69094 5.64076
#
# Compressibility (1/GPa) = 0.06578975
#
# Stress axis : x y z
#
# Youngs Moduli (GPa) = 21.21557 68.38001 38.26653
#
# Poissons Ratio (x) = 1.02322 -0.59603
# Poissons Ratio (y) = 0.31746 0.44630
# Poissons Ratio (z) = -0.33045 0.79752
#
# Static dielectric constant tensor:
#      x y z
#    x 1.934530 0.000000 -0.071870 
#    y 0.000000 1.947390 0.000000 
#    z -0.071870 0.000000 1.820070 
# 
# From -- ./inp_files/83408.got.cif
#   From: 2010.05.17/outbox.cif.g08.bks.cpg/sg12_42_cif.got.tgz:83408.got - 2010.06.03 13:09:07.
