data_PCOD9184929
_publ_section_title
;
Structure prediction by ZEFSAII (Michael W. Deem and Ramdas Pophale) SiO2 
 PCOD9184929
Probable space group: C 2/M
;
_chemical_formula_sum "Si O2"
_cell_formula_units_Z 52
_cell_length_a 17.511887
_cell_length_b 11.026542
_cell_length_c 26.432925
_cell_angle_alpha 90.000000
_cell_angle_beta 32.794343
_cell_angle_gamma 90.000000
_cell_volume 2764.498642
_symmetry_space_group_name_H-M "C 2/M"
_symmetry_group_IT_number 12
_symmetry_cell_setting 'monoclinic'
loop_
_space_group_symop_operation_xyz
x,y,z
-x,y,-z
-x,-y,-z
x,-y,z
1/2+x,1/2+y,z
1/2-x,1/2+y,-z
1/2-x,1/2-y,-z
1/2+x,1/2-y,z
loop_
_atom_site_type_symbol
_atom_site_label
_atom_site_fract_x
_atom_site_fract_y
_atom_site_fract_z
Si Si1 0.654259 0.360504 0.657784
Si Si2 0.500000 0.214984 0.000000
Si Si3 0.032859 0.210949 0.148672
Si Si4 0.708551 0.362998 0.955370
Si Si5 0.365698 0.639378 0.537761
Si Si6 0.328386 0.138691 0.190742
Si Si7 0.985060 0.856027 0.652478
O O1 0.708101 0.500000 0.619547
O O2 0.548343 0.364050 0.763979
O O3 0.765844 0.253025 0.605935
O O4 0.568304 0.317198 0.655944
O O5 0.386073 0.295079 0.033284
O O6 0.415279 0.142147 0.089912
O O7 0.918336 0.288746 0.181548
O O8 0.146338 0.294771 0.114024
O O9 0.120801 0.140461 0.056871
O O10 0.734312 0.500000 0.925366
O O11 0.500000 0.641293 0.500000
O O12 0.306459 0.500000 0.573847
O O13 0.422717 0.659583 0.449096
O O14 0.172784 0.193213 0.267987
O O15 0.313606 0.000000 0.216451
O O16 0.964432 0.000000 0.671534
#
# Coordination Sequence:
#
# PCOD9184929 Si02
#       7
#     8   4   8   8   8   8   8
#     4  11  22  37  58  83 113 145 180 227 281 332
#     4  10  20  32  52  80 108 144 182 226 280 332
#     4  10  21  34  53  79 105 143 187 227 274 328
#     4  10  20  35  52  74 108 145 185 229 277 332
#     4  10  21  38  60  84 111 145 186 229 273 326
#     4  10  19  34  55  79 109 142 183 230 274 324
#     4   9  19  35  55  79 109 145 182 226 279 330
#
# _framework density 18.809920000000002
#
# number of rings (size 3 to 8) (size 9 to 14) (size 15 to 20)
#    0.000    2.000    0.000    3.692    0.000    2.769 
#    0.000    4.615    0.000    3.692    0.000    0.000 
#    0.000    0.000    0.000    0.000    0.000    0.000 
#
# Total GULP energy -145011.328898 kJ/mol
# GULP energy per Si atom -5577.358804 kJ/mol
# Density = 1.876711 g / cm^3
# Si number density = 18.809920 Si / 1000 Ang^3
#
#
#
# Elastic Constant Matrix: (Units=GPa)
#
#
# Indices 1 2 3 4 5 6 
#
# 1 99.3083 38.1246 28.5670 0.0000 -2.8922 0.0000
# 2 38.1246 100.3049 32.4586 0.0000 -19.5229 0.0000
# 3 28.5670 32.4586 57.3379 0.0000 -8.7487 0.0000
# 4 0.0000 0.0000 0.0000 13.2121 0.0000 -1.3709
# 5 -2.8922 -19.5229 -8.7487 0.0000 33.1062 0.0000
# 6 0.0000 0.0000 0.0000 -1.3709 0.0000 12.2529
#
#
#
# Elastic Compliance Matrix: (Units=1/GPa)
#
#
# Indices 1 2 3 4 5 6 
#
# 1 0.012787 -0.003845 -0.004553 0.000000 -0.002353 0.000000
# 2 -0.003845 0.014445 -0.005224 0.000000 0.006802 0.000000
# 3 -0.004553 -0.005224 0.023066 0.000000 0.002617 0.000000
# 4 0.000000 0.000000 0.000000 0.076577 0.000000 0.008568
# 5 -0.002353 0.006802 0.002617 0.000000 0.034703 0.000000
# 6 0.000000 0.000000 0.000000 0.008568 0.000000 0.082572
#
#
# Mechanical properties :
#
#
# Convention : Reuss Voigt Hill
#
# Bulk Modulus (GPa) = 43.37692 50.58349 46.98021
# Shear Modulus (GPa) = 17.91610 22.23431 20.07521
#
# Velocity S-wave (km/s) = 3.08958 3.44183 3.27045
# Velocity P-wave (km/s) = 5.98649 6.53798 6.26830
#
# Compressibility (1/GPa) = 0.02305373
#
# Stress axis : x y z
#
# Youngs Moduli (GPa) = 78.20485 69.22631 43.35458
#
# Poissons Ratio (x) = 0.26616 0.19741
# Poissons Ratio (y) = 0.30068 0.22648
# Poissons Ratio (z) = 0.35609 0.36164
#
# Static dielectric constant tensor:
#      x y z
#    x 1.639890 0.000000 0.002400 
#    y 0.000000 1.638510 0.000000 
#    z 0.002400 0.000000 1.659410 
# 
# From -- ./inp_files/363623.got.cif
#   From: 2010.05.17/outbox.cif.g08.bks.cpg/sg12_182_cif.got.tgz:363623.got - 2010.06.03 13:09:07.
