data_PCOD9184811
_publ_section_title
;
Structure prediction by ZEFSAII (Michael W. Deem and Ramdas Pophale) SiO2 
 PCOD9184811
Probable space group: C 2/M
;
_chemical_formula_sum "Si O2"
_cell_formula_units_Z 58
_cell_length_a 30.941628
_cell_length_b 7.911853
_cell_length_c 12.922243
_cell_angle_alpha 90.000000
_cell_angle_beta 76.409329
_cell_angle_gamma 90.000000
_cell_volume 3074.859060
_symmetry_space_group_name_H-M "C 2/M"
_symmetry_group_IT_number 12
_symmetry_cell_setting 'monoclinic'
loop_
_space_group_symop_operation_xyz
x,y,z
-x,y,-z
-x,-y,-z
x,-y,z
1/2+x,1/2+y,z
1/2-x,1/2+y,-z
1/2-x,1/2-y,-z
1/2+x,1/2-y,z
loop_
_atom_site_type_symbol
_atom_site_label
_atom_site_fract_x
_atom_site_fract_y
_atom_site_fract_z
Si Si1 0.941573 0.300575 0.313213
Si Si2 0.400068 0.298458 0.555453
Si Si3 0.622295 0.206705 0.834071
Si Si4 0.500000 0.000000 0.000000
Si Si5 0.794115 0.701190 0.343072
Si Si6 0.197641 0.701195 0.426132
Si Si7 0.543594 0.700136 0.285396
Si Si8 0.934522 0.802690 0.954246
O O1 0.939163 0.500000 0.302768
O O2 0.916649 0.253873 0.432637
O O3 0.915878 0.234770 0.226445
O O4 0.993173 0.256227 0.293400
O O5 0.401898 0.500000 0.558090
O O6 0.349057 0.246301 0.598392
O O7 0.432555 0.227486 0.626307
O O8 0.669145 0.261903 0.758551
O O9 0.621482 0.000000 0.841004
O O10 0.609271 0.281768 0.951480
O O11 0.533365 0.847664 0.024261
O O12 0.800704 0.500000 0.345448
O O13 0.802552 0.769506 0.454875
O O14 0.742689 0.735003 0.347911
O O15 0.200970 0.500000 0.429835
O O16 0.540423 0.500000 0.303779
O O17 0.570905 0.728342 0.165073
O O18 0.950532 0.000000 0.955781
#
# Coordination Sequence:
#
# PCOD9184811 Si02
#       8
#     8   8   8   2   8   8   8   8
#     4  11  22  35  55  84 114 148 191 237 285 337
#     4  11  22  38  57  78 114 155 194 235 286 344
#     4  10  20  37  58  85 120 151 189 241 291 349
#     4  12  22  40  60  86 114 152 202 248 292 348
#     4   9  18  34  56  81 117 148 177 231 294 348
#     4  10  19  34  54  84 113 142 187 231 284 351
#     4  10  24  41  55  78 112 155 200 241 280 339
#     4  11  24  40  60  85 116 155 201 248 295 343
#
# _framework density 18.862653999999999
#
# number of rings (size 3 to 8) (size 9 to 14) (size 15 to 20)
#    0.000    1.655    2.069    2.690    2.897    6.069 
#    0.000    0.000    0.000    0.828    0.000    0.000 
#    0.000    0.000    0.000    0.000    0.000    0.000 
#
# Total GULP energy -161545.782500 kJ/mol
# GULP energy per Si atom -5570.544224 kJ/mol
# Density = 1.881972 g / cm^3
# Si number density = 18.862654 Si / 1000 Ang^3
#
#
#
# Elastic Constant Matrix: (Units=GPa)
#
#
# Indices 1 2 3 4 5 6 
#
# 1 78.1408 -21.3872 16.4649 0.0000 11.3632 0.0000
# 2 -21.3872 31.9445 -16.5882 0.0000 23.5993 0.0000
# 3 16.4649 -16.5882 33.2452 0.0000 28.1767 0.0000
# 4 0.0000 0.0000 0.0000 25.9689 0.0000 -7.2189
# 5 11.3632 23.5993 28.1767 0.0000 -43.4993 0.0000
# 6 0.0000 0.0000 0.0000 -7.2189 0.0000 26.3764
#
#
#
# Elastic Compliance Matrix: (Units=1/GPa)
#
#
# Indices 1 2 3 4 5 6 
#
# 1 0.015313 0.005007 -0.006958 0.000000 0.002209 0.000000
# 2 0.005007 0.024001 -0.001710 0.000000 0.013221 0.000000
# 3 -0.006958 -0.001710 0.022595 0.000000 0.011891 0.000000
# 4 0.000000 0.000000 0.000000 0.041679 0.000000 0.011407
# 5 0.002209 0.013221 0.011891 0.000000 -0.007537 0.000000
# 6 0.000000 0.000000 0.000000 0.011407 0.000000 0.041035
#
#
# Mechanical properties :
#
#
# Convention : Reuss Voigt Hill
#
# Bulk Modulus (GPa) = 18.31960 11.14551 14.73256
# Shear Modulus (GPa) = 30.74991 12.75859 21.75425
#
# Velocity S-wave (km/s) = 4.04195 2.60358 3.39971
# Velocity P-wave (km/s) = 5.61395 3.86779 4.82059
#
# Compressibility (1/GPa) = 0.05458633
#
# Stress axis : x y z
#
# Youngs Moduli (GPa) = 65.30587 41.66487 44.25829
#
# Poissons Ratio (x) = -0.20860 0.30795
# Poissons Ratio (y) = -0.32697 0.07567
# Poissons Ratio (z) = 0.45439 0.07123
#
# Static dielectric constant tensor:
#      x y z
#    x 1.669070 0.000000 0.002100 
#    y 0.000000 1.677570 0.000000 
#    z 0.002100 0.000000 1.678970 
# 
# From -- ./inp_files/186597.got.cif
#   From: 2010.05.17/outbox.cif.g08.bks.cpg/sg12_94_cif.got.tgz:186597.got - 2010.06.03 13:09:07.
