data_PCOD9184507
_publ_section_title
;
Structure prediction by ZEFSAII (Michael W. Deem and Ramdas Pophale) SiO2 
 PCOD9184507
Probable space group: C 2/M
;
_chemical_formula_sum "Si O2"
_cell_formula_units_Z 60
_cell_length_a 13.651417
_cell_length_b 30.067008
_cell_length_c 14.110749
_cell_angle_alpha 90.000000
_cell_angle_beta 30.738846
_cell_angle_gamma 90.000000
_cell_volume 2960.368624
_symmetry_space_group_name_H-M "C 2/M"
_symmetry_group_IT_number 12
_symmetry_cell_setting 'monoclinic'
loop_
_space_group_symop_operation_xyz
x,y,z
-x,y,-z
-x,-y,-z
x,-y,z
1/2+x,1/2+y,z
1/2-x,1/2+y,-z
1/2-x,1/2-y,-z
1/2+x,1/2-y,z
loop_
_atom_site_type_symbol
_atom_site_label
_atom_site_fract_x
_atom_site_fract_y
_atom_site_fract_z
Si Si1 0.883025 0.861131 0.458133
Si Si2 0.500000 0.711344 0.500000
Si Si3 0.992032 0.597893 0.393539
Si Si4 0.101755 0.068384 0.006458
Si Si5 0.022759 0.666277 0.211868
Si Si6 0.541499 0.338547 0.133034
Si Si7 0.389512 0.449914 0.369764
Si Si8 0.579856 0.243950 0.833052
O O1 0.663050 0.858822 0.677866
O O2 0.948409 0.912223 0.397307
O O3 0.005779 0.824270 0.409874
O O4 0.893878 0.843687 0.341283
O O5 0.309353 0.740401 0.648996
O O6 0.013352 0.646758 0.326778
O O7 0.804660 0.571028 0.514548
O O8 0.000000 0.600642 0.500000
O O9 0.174500 0.571209 0.201171
O O10 0.023170 0.118886 0.082053
O O11 0.000000 0.048017 0.000000
O O12 0.042597 0.048936 0.156799
O O13 0.982519 0.715932 0.208322
O O14 0.243659 0.657946 0.002249
O O15 0.504659 0.292855 0.110702
O O16 0.359931 0.500000 0.429345
O O17 0.500000 0.225668 0.000000
#
# Coordination Sequence:
#
# PCOD9184507 Si02
#       8
#     8   4   8   8   8   8   8   8
#     4   9  20  39  58  78 112 149 182 230 285 336
#     4  10  22  38  59  82 110 148 189 232 286 328
#     4  10  19  35  55  78 109 150 184 220 277 338
#     4  10  19  34  51  77 109 146 178 216 267 330
#     4   9  20  35  55  77 108 143 186 230 274 325
#     4  10  20  34  56  76 111 146 182 226 276 326
#     4  10  21  36  56  82 110 143 184 231 279 332
#     4  11  22  36  55  83 109 144 191 237 274 324
#
# _framework density 20.267745999999999
#
# number of rings (size 3 to 8) (size 9 to 14) (size 15 to 20)
#    0.000    2.133    1.333    1.600    0.000    4.267 
#    0.000    3.000    1.467    0.000    0.000    0.000 
#    0.000   17.067    0.000    0.000    0.000    0.000 
#
# Total GULP energy -167018.525914 kJ/mol
# GULP energy per Si atom -5567.284197 kJ/mol
# Density = 2.022162 g / cm^3
# Si number density = 20.267746 Si / 1000 Ang^3
#
#
#
# Elastic Constant Matrix: (Units=GPa)
#
#
# Indices 1 2 3 4 5 6 
#
# 1 20.1292 2.7423 13.0712 0.0001 -6.6025 0.0000
# 2 2.7423 93.1411 10.0951 0.0000 3.1273 0.0000
# 3 13.0712 10.0951 107.8607 0.0001 -13.6680 0.0001
# 4 0.0001 0.0000 0.0001 -16.3054 0.0000 -19.9258
# 5 -6.6025 3.1273 -13.6680 0.0000 19.7163 0.0000
# 6 0.0000 0.0000 0.0001 -19.9258 0.0000 4.3423
#
#
#
# Elastic Compliance Matrix: (Units=1/GPa)
#
#
# Indices 1 2 3 4 5 6 
#
# 1 0.058469 -0.001752 -0.004829 0.000000 0.016510 0.000000
# 2 -0.001752 0.011027 -0.001223 0.000000 -0.003184 0.000000
# 3 -0.004829 -0.001223 0.010734 0.000000 0.006018 0.000000
# 4 0.000000 0.000000 0.000000 -0.009282 0.000000 -0.042591
# 5 0.016510 -0.003184 0.006018 0.000000 0.060925 0.000000
# 6 0.000000 0.000000 0.000000 -0.042591 0.000000 0.034853
#
#
# Mechanical properties :
#
#
# Convention : Reuss Voigt Hill
#
# Bulk Modulus (GPa) = 15.47512 30.32759 22.90135
# Shear Modulus (GPa) = 24.52473 14.56547 19.54510
#
# Velocity S-wave (km/s) = 3.48233 2.68368 3.10876
# Velocity P-wave (km/s) = 4.88065 4.95972 4.92034
#
# Compressibility (1/GPa) = 0.06461986
#
# Stress axis : x y z
#
# Youngs Moduli (GPa) = 17.10307 90.68259 93.16620
#
# Poissons Ratio (x) = 0.15891 0.44995
# Poissons Ratio (y) = 0.02997 0.11396
# Poissons Ratio (z) = 0.08260 0.11092
#
# Static dielectric constant tensor:
#      x y z
#    x 1.832050 0.000000 -0.010290 
#    y 0.000000 1.747070 0.000000 
#    z -0.010290 0.000000 1.731600 
# 
# From -- ./inp_files/219222.got.cif
#   From: 2010.05.17/outbox.cif.g08.bks.cpg/sg12_110_cif.got.tgz:219222.got - 2010.06.03 13:09:07.
