data_PCOD9184505
_publ_section_title
;
Structure prediction by ZEFSAII (Michael W. Deem and Ramdas Pophale) SiO2 
 PCOD9184505
Probable space group: C 2/M
;
_chemical_formula_sum "Si O2"
_cell_formula_units_Z 64
_cell_length_a 25.335774
_cell_length_b 19.663909
_cell_length_c 6.196491
_cell_angle_alpha 90.000000
_cell_angle_beta 115.773470
_cell_angle_gamma 90.000000
_cell_volume 2779.990525
_symmetry_space_group_name_H-M "C 2/M"
_symmetry_group_IT_number 12
_symmetry_cell_setting 'monoclinic'
loop_
_space_group_symop_operation_xyz
x,y,z
-x,y,-z
-x,-y,-z
x,-y,z
1/2+x,1/2+y,z
1/2-x,1/2+y,-z
1/2-x,1/2-y,-z
1/2+x,1/2-y,z
loop_
_atom_site_type_symbol
_atom_site_label
_atom_site_fract_x
_atom_site_fract_y
_atom_site_fract_z
Si Si1 0.453011 0.921827 0.095937
Si Si2 0.187588 0.260088 0.179014
Si Si3 0.238668 0.892503 0.627143
Si Si4 0.894934 0.202787 0.592139
Si Si5 0.885596 0.076352 0.815610
Si Si6 0.597761 0.821989 0.667766
Si Si7 0.850906 0.572864 0.572361
Si Si8 0.318629 0.369494 0.084223
O O1 0.392809 0.921588 0.854650
O O2 0.466350 0.000000 0.184084
O O3 0.500000 0.900253 0.000000
O O4 0.445630 0.870288 0.277659
O O5 0.238315 0.313846 0.321517
O O6 0.146826 0.240575 0.309100
O O7 0.209577 0.189063 0.115433
O O8 0.143710 0.292314 0.924050
O O9 0.177520 0.914971 0.413186
O O10 0.287189 0.924886 0.562196
O O11 0.229885 0.910161 0.865544
O O12 0.921710 0.139217 0.774525
O O13 0.929743 0.260970 0.524860
O O14 0.855581 0.169297 0.334150
O O15 0.865928 0.090044 0.026720
O O16 0.908365 0.000000 0.825298
O O17 0.633840 0.868797 0.566879
O O18 0.862468 0.500000 0.486337
#
# Coordination Sequence:
#
# PCOD9184505 Si02
#       8
#     8   8   8   8   8   8   8   8
#     4  10  22  39  57  78 106 139 174 216 267 320
#     4  10  19  34  51  76  99 131 176 226 265 307
#     4  11  20  33  48  70 100 135 180 225 264 301
#     4   9  19  36  55  74  98 132 176 223 262 309
#     4  10  22  35  46  70 105 141 179 220 264 310
#     4  11  19  36  57  77  99 133 176 219 268 314
#     4  11  23  36  51  75 105 136 177 223 264 310
#     4   9  21  31  51  70  97 137 176 219 266 309
#
# _framework density 23.021663
#
# number of rings (size 3 to 8) (size 9 to 14) (size 15 to 20)
#    0.000    1.875    2.500    1.125    1.750    7.500 
#    0.000    1.875    0.000    0.000    0.000    0.000 
#    0.000    0.500    0.000   16.750    0.000   19.500 
#
# Total GULP energy -178618.002328 kJ/mol
# GULP energy per Si atom -5581.812573 kJ/mol
# Density = 2.296926 g / cm^3
# Si number density = 23.021663 Si / 1000 Ang^3
#
#
#
# Elastic Constant Matrix: (Units=GPa)
#
#
# Indices 1 2 3 4 5 6 
#
# 1 35.9372 18.8637 21.4712 0.0000 -22.3996 0.0000
# 2 18.8637 148.4920 55.6258 0.0000 -37.0462 0.0000
# 3 21.4712 55.6258 107.1207 0.0000 -33.1189 0.0000
# 4 0.0000 0.0000 0.0000 2.7048 0.0000 -16.4939
# 5 -22.3996 -37.0462 -33.1189 0.0000 39.4144 0.0000
# 6 0.0000 0.0000 0.0000 -16.4939 0.0000 21.4041
#
#
#
# Elastic Compliance Matrix: (Units=1/GPa)
#
#
# Indices 1 2 3 4 5 6 
#
# 1 0.043415 0.001231 -0.001831 0.000000 0.024292 0.000000
# 2 0.001231 0.009460 -0.002964 0.000000 0.007101 0.000000
# 3 -0.001831 -0.002964 0.013588 0.000000 0.007592 0.000000
# 4 0.000000 0.000000 0.000000 -0.099947 0.000000 -0.077019
# 5 0.024292 0.007101 0.007592 0.000000 0.052230 0.000000
# 6 0.000000 0.000000 0.000000 -0.077019 0.000000 -0.012630
#
#
# Mechanical properties :
#
#
# Convention : Reuss Voigt Hill
#
# Bulk Modulus (GPa) = 16.85317 53.71904 35.28610
# Shear Modulus (GPa) = 151.41418 25.74393 88.57905
#
# Velocity S-wave (km/s) = 8.11869 3.34765 6.20966
# Velocity P-wave (km/s) = 9.75810 6.19089 8.17153
#
# Compressibility (1/GPa) = 0.05933602
#
# Stress axis : x y z
#
# Youngs Moduli (GPa) = 23.03345 105.71196 73.59189
#
# Poissons Ratio (x) = -0.13013 0.13475
# Poissons Ratio (y) = -0.02835 0.21810
# Poissons Ratio (z) = 0.04217 0.31329
#
# Static dielectric constant tensor:
#      x y z
#    x 1.954340 0.000000 -0.038950 
#    y 0.000000 1.962750 0.000000 
#    z -0.038950 0.000000 1.898590 
# 
# From -- ./inp_files/29190.got.cif
#   From: 2010.05.17/outbox.cif.g08.bks.cpg/sg12_15_cif.got.tgz:29190.got - 2010.06.03 13:09:07.
