data_PCOD9184016
_publ_section_title
;
Structure prediction by ZEFSAII (Michael W. Deem and Ramdas Pophale) SiO2 
 PCOD9184016
Probable space group: C 2/M
;
_chemical_formula_sum "Si O2"
_cell_formula_units_Z 56
_cell_length_a 15.362713
_cell_length_b 16.664330
_cell_length_c 13.065927
_cell_angle_alpha 90.000000
_cell_angle_beta 50.231016
_cell_angle_gamma 90.000000
_cell_volume 2571.066380
_symmetry_space_group_name_H-M "C 2/M"
_symmetry_group_IT_number 12
_symmetry_cell_setting 'monoclinic'
loop_
_space_group_symop_operation_xyz
x,y,z
-x,y,-z
-x,-y,-z
x,-y,z
1/2+x,1/2+y,z
1/2-x,1/2+y,-z
1/2-x,1/2-y,-z
1/2+x,1/2-y,z
loop_
_atom_site_type_symbol
_atom_site_label
_atom_site_fract_x
_atom_site_fract_y
_atom_site_fract_z
Si Si1 0.281312 0.739673 0.092670
Si Si2 0.970546 0.117961 0.635494
Si Si3 0.037196 0.303088 0.360348
Si Si4 0.332284 0.408291 0.361482
Si Si5 0.700606 0.092692 0.832696
Si Si6 0.368676 0.412081 0.107339
Si Si7 0.624169 0.095259 0.653593
O O1 0.170406 0.713026 0.242149
O O2 0.337944 0.823488 0.085853
O O3 0.350496 0.658206 0.041907
O O4 0.250000 0.750000 0.000000
O O5 0.005164 0.211712 0.610326
O O6 0.837168 0.100292 0.746016
O O7 0.000000 0.087480 0.500000
O O8 0.049948 0.087421 0.666213
O O9 0.000000 0.336731 0.500000
O O10 0.981682 0.355152 0.311431
O O11 0.297601 0.500000 0.369916
O O12 0.342764 0.375980 0.239446
O O13 0.232952 0.373919 0.506674
O O14 0.660177 0.101476 0.745324
O O15 0.668805 0.000000 0.888494
O O16 0.311920 0.500000 0.133380
O O17 0.500000 0.425988 0.000000
O O18 0.604594 0.000000 0.650946
#
# Coordination Sequence:
#
# PCOD9184016 Si02
#       7
#     8   8   8   8   8   8   8
#     4  11  26  44  65  93 126 168 210 258 319 373
#     4  10  19  33  56  91 127 159 200 254 312 369
#     4  10  23  40  60  93 123 165 212 253 313 370
#     4  10  20  34  59  91 123 163 204 255 318 369
#     4  10  22  39  61  92 126 161 205 256 311 374
#     4  10  24  43  64  92 123 162 213 263 314 372
#     4  10  21  37  61  92 125 164 207 255 313 373
#
# _framework density 21.780847999999999
#
# number of rings (size 3 to 8) (size 9 to 14) (size 15 to 20)
#    0.000    1.857    1.429    1.286    6.000    2.571 
#    0.000    0.000    0.000    2.143    0.000    0.000 
#    0.000    0.000    0.000    0.000    0.000    0.000 
#
# Total GULP energy -155902.644918 kJ/mol
# GULP energy per Si atom -5567.951604 kJ/mol
# Density = 2.173127 g / cm^3
# Si number density = 21.780848 Si / 1000 Ang^3
#
#
#
# Elastic Constant Matrix: (Units=GPa)
#
#
# Indices 1 2 3 4 5 6 
#
# 1 69.8814 59.5623 5.2265 0.0000 23.4922 0.0000
# 2 59.5623 147.7103 24.5941 0.0000 28.5553 0.0000
# 3 5.2265 24.5941 34.2898 0.0000 19.7714 0.0000
# 4 0.0000 0.0000 0.0000 38.0593 0.0000 3.6565
# 5 23.4922 28.5553 19.7714 0.0000 30.6240 0.0000
# 6 0.0000 0.0000 0.0000 3.6565 0.0000 36.4009
#
#
#
# Elastic Compliance Matrix: (Units=1/GPa)
#
#
# Indices 1 2 3 4 5 6 
#
# 1 0.029831 -0.010125 0.016673 0.000000 -0.024207 0.000000
# 2 -0.010125 0.011817 -0.008057 0.000000 0.001950 0.000000
# 3 0.016673 -0.008057 0.056462 0.000000 -0.041730 0.000000
# 4 0.000000 0.000000 0.000000 0.026531 0.000000 -0.002665
# 5 -0.024207 0.001950 -0.041730 0.000000 0.076347 0.000000
# 6 0.000000 0.000000 0.000000 -0.002665 0.000000 0.027740
#
#
# Mechanical properties :
#
#
# Convention : Reuss Voigt Hill
#
# Bulk Modulus (GPa) = 10.51616 47.84971 29.18293
# Shear Modulus (GPa) = 18.97936 31.85006 25.41471
#
# Velocity S-wave (km/s) = 2.95511 3.82815 3.41961
# Velocity P-wave (km/s) = 4.05983 6.44640 5.38694
#
# Compressibility (1/GPa) = 0.09509175
#
# Stress axis : x y z
#
# Youngs Moduli (GPa) = 33.52250 84.62043 17.71095
#
# Poissons Ratio (x) = 0.85681 -0.29529
# Poissons Ratio (y) = 0.33943 0.14270
# Poissons Ratio (z) = -0.55892 0.68178
#
# Static dielectric constant tensor:
#      x y z
#    x 1.786370 0.000000 -0.026270 
#    y 0.000000 2.176830 0.000000 
#    z -0.026270 0.000000 1.851970 
# 
# From -- ./inp_files/145479.got.cif
#   From: 2010.05.17/outbox.cif.g08.bks.cpg/sg12_73_cif.got.tgz:145479.got - 2010.06.03 13:09:07.
