data_PCOD9184920
_publ_section_title
;
Structure prediction by ZEFSAII (Michael W. Deem and Ramdas Pophale) SiO2 
 PCOD9184920
Probable space group: C 2/M
;
_chemical_formula_sum "Si O2"
_cell_formula_units_Z 64
_cell_length_a 30.514452
_cell_length_b 9.599941
_cell_length_c 24.133410
_cell_angle_alpha 90.000000
_cell_angle_beta 150.097384
_cell_angle_gamma 90.000000
_cell_volume 3524.372413
_symmetry_space_group_name_H-M "C 2/M"
_symmetry_group_IT_number 12
_symmetry_cell_setting 'monoclinic'
loop_
_space_group_symop_operation_xyz
x,y,z
-x,y,-z
-x,-y,-z
x,-y,z
1/2+x,1/2+y,z
1/2-x,1/2+y,-z
1/2-x,1/2-y,-z
1/2+x,1/2-y,z
loop_
_atom_site_type_symbol
_atom_site_label
_atom_site_fract_x
_atom_site_fract_y
_atom_site_fract_z
Si Si1 0.008352 0.669117 0.654873
Si Si2 0.131750 0.832238 0.008700
Si Si3 0.488691 0.333769 0.226521
Si Si4 0.166091 0.668628 0.746928
Si Si5 0.323241 0.657397 0.736484
Si Si6 0.355142 0.169058 0.400991
Si Si7 0.006000 0.342585 0.072522
Si Si8 0.318807 0.654034 0.604528
O O1 0.004774 0.500000 0.658143
O O2 0.008526 0.745528 0.714130
O O3 0.096760 0.706872 0.718152
O O4 0.927520 0.711695 0.525711
O O5 0.091599 0.802960 0.903598
O O6 0.071705 0.748165 0.986019
O O7 0.122894 0.000000 0.007955
O O8 0.233646 0.792702 0.128758
O O9 0.485555 0.500000 0.235009
O O10 0.579502 0.305039 0.292667
O O11 0.165154 0.500000 0.743434
O O12 0.135254 0.717501 0.652008
O O13 0.350725 0.500000 0.784084
O O14 0.242932 0.704827 0.686417
O O15 0.403413 0.761554 0.820588
O O16 0.292254 0.647488 0.639366
O O17 0.359959 0.000000 0.405547
O O18 0.006038 0.500000 0.095532
O O19 0.000000 0.351335 0.000000
O O20 0.311748 0.500000 0.572328
O O21 0.250000 0.750000 0.500000
#
# Coordination Sequence:
#
# PCOD9184920 Si02
#       8
#     8   8   8   8   8   8   8   8
#     4  10  20  35  57  84 112 143 184 232 281 331
#     4  10  20  38  60  80 108 148 190 230 271 329
#     4  10  21  37  54  77 113 149 185 229 274 324
#     4   9  18  33  57  86 109 139 185 236 284 323
#     4  10  19  34  55  79 106 145 189 218 260 328
#     4   9  17  31  55  86 115 139 178 235 281 326
#     4  11  23  36  52  80 115 145 177 225 281 330
#     4  10  20  34  52  78 110 143 181 225 270 322
#
# _framework density 18.159261000000001
#
# number of rings (size 3 to 8) (size 9 to 14) (size 15 to 20)
#    0.000    2.125    1.250    2.250    0.000    6.500 
#    0.000    1.250    0.000    3.000    0.000    0.000 
#    0.000    0.000    0.000    0.000    0.000    0.000 
#
# Total GULP energy -178379.618016 kJ/mol
# GULP energy per Si atom -5574.363063 kJ/mol
# Density = 1.811793 g / cm^3
# Si number density = 18.159261 Si / 1000 Ang^3
#
#
#
# Elastic Constant Matrix: (Units=GPa)
#
#
# Indices 1 2 3 4 5 6 
#
# 1 81.7346 15.1737 3.9505 0.0000 -6.8705 0.0000
# 2 15.1737 34.2957 21.9331 0.0000 0.1624 0.0000
# 3 3.9505 21.9331 65.3158 0.0000 -2.6559 0.0000
# 4 0.0000 0.0000 0.0000 17.9278 0.0000 -7.9475
# 5 -6.8705 0.1624 -2.6559 0.0000 28.2766 0.0000
# 6 0.0000 0.0000 0.0000 -7.9475 0.0000 20.0302
#
#
#
# Elastic Compliance Matrix: (Units=1/GPa)
#
#
# Indices 1 2 3 4 5 6 
#
# 1 0.013792 -0.007231 0.001739 0.000000 0.003556 0.000000
# 2 -0.007231 0.040978 -0.013456 0.000000 -0.003256 0.000000
# 3 0.001739 -0.013456 0.019819 0.000000 0.002361 0.000000
# 4 0.000000 0.000000 0.000000 0.067684 0.000000 0.026856
# 5 0.003556 -0.003256 0.002361 0.000000 0.036469 0.000000
# 6 0.000000 0.000000 0.000000 0.026856 0.000000 0.060580
#
#
# Mechanical properties :
#
#
# Convention : Reuss Voigt Hill
#
# Bulk Modulus (GPa) = 27.25249 29.27342 28.26295
# Shear Modulus (GPa) = 17.27411 22.59949 19.93680
#
# Velocity S-wave (km/s) = 3.08759 3.53160 3.31703
# Velocity P-wave (km/s) = 5.26792 5.72581 5.50163
#
# Compressibility (1/GPa) = 0.03669390
#
# Stress axis : x y z
#
# Youngs Moduli (GPa) = 72.50600 24.40334 50.45542
#
# Poissons Ratio (x) = 0.17645 -0.08772
# Poissons Ratio (y) = 0.52427 0.67890
# Poissons Ratio (z) = -0.12605 0.32836
#
# Static dielectric constant tensor:
#      x y z
#    x 1.571150 0.000000 0.042280 
#    y 0.000000 1.641010 0.000000 
#    z 0.042280 0.000000 1.580980 
# 
# From -- ./inp_files/353487.got.cif
#   From: 2010.05.17/outbox.cif.g08.bks.cpg/sg12_177_cif.got.tgz:353487.got - 2010.06.03 13:09:07.
