data_PCOD9184370
_publ_section_title
;
Structure prediction by ZEFSAII (Michael W. Deem and Ramdas Pophale) SiO2 
 PCOD9184370
Probable space group: C 2/M
;
_chemical_formula_sum "Si O2"
_cell_formula_units_Z 64
_cell_length_a 19.168779
_cell_length_b 25.015654
_cell_length_c 14.858046
_cell_angle_alpha 90.000000
_cell_angle_beta 26.235579
_cell_angle_gamma 90.000000
_cell_volume 3149.576177
_symmetry_space_group_name_H-M "C 2/M"
_symmetry_group_IT_number 12
_symmetry_cell_setting 'monoclinic'
loop_
_space_group_symop_operation_xyz
x,y,z
-x,y,-z
-x,-y,-z
x,-y,z
1/2+x,1/2+y,z
1/2-x,1/2+y,-z
1/2-x,1/2-y,-z
1/2+x,1/2-y,z
loop_
_atom_site_type_symbol
_atom_site_label
_atom_site_fract_x
_atom_site_fract_y
_atom_site_fract_z
Si Si1 0.088119 0.303338 0.602863
Si Si2 0.711097 0.876461 0.998290
Si Si3 0.517701 0.938630 0.086788
Si Si4 0.489871 0.694453 0.405662
Si Si5 0.106197 0.057829 0.716800
Si Si6 0.758077 0.857320 0.557607
Si Si7 0.241068 0.440644 0.145313
Si Si8 0.192785 0.875177 0.771915
O O1 0.184530 0.308859 0.585412
O O2 0.210189 0.328296 0.389077
O O3 0.934307 0.339721 0.799657
O O4 0.029136 0.247057 0.633690
O O5 0.664865 0.908678 0.961383
O O6 0.731294 0.919256 0.055143
O O7 0.860754 0.839682 0.801753
O O8 0.371380 0.903468 0.288401
O O9 0.515396 0.000000 0.119416
O O10 0.500000 0.937981 0.000000
O O11 0.500000 0.705974 0.500000
O O12 0.331313 0.661122 0.566005
O O13 0.110096 0.110464 0.650515
O O14 0.204744 0.074100 0.690261
O O15 0.154022 0.000000 0.622754
O O16 0.926014 0.052601 0.953299
O O17 0.167313 0.500000 0.240368
O O18 0.210652 0.392876 0.250999
O O19 0.000000 0.863235 0.000000
#
# Coordination Sequence:
#
# PCOD9184370 Si02
#       8
#     8   8   8   8   8   8   8   8
#     4  10  24  42  64  87 123 168 212 258 314 379
#     4  11  23  41  62  90 128 162 207 262 319 375
#     4  10  21  39  62  88 121 159 201 251 317 383
#     4  12  25  42  63  90 120 163 218 272 320 360
#     4   9  16  31  57  87 120 157 197 240 299 368
#     4  10  20  40  61  87 117 158 210 257 306 372
#     4  10  19  33  59  90 129 161 195 247 311 381
#     4   9  19  36  59  93 126 161 203 253 303 379
#
# _framework density 20.320194000000001
#
# number of rings (size 3 to 8) (size 9 to 14) (size 15 to 20)
#    0.000    1.875    1.250    2.625    1.750    1.500 
#    0.000    4.375    0.000    3.000    0.000    0.000 
#    0.000    0.000    0.000    0.000    0.000    0.000 
#
# Total GULP energy -178166.887519 kJ/mol
# GULP energy per Si atom -5567.715235 kJ/mol
# Density = 2.027394 g / cm^3
# Si number density = 20.320194 Si / 1000 Ang^3
#
#
#
# Elastic Constant Matrix: (Units=GPa)
#
#
# Indices 1 2 3 4 5 6 
#
# 1 116.0430 46.6222 16.9762 -0.0059 -3.9450 0.0055
# 2 46.6222 113.1698 33.7795 -0.0174 -17.0342 0.0126
# 3 16.9762 33.7795 58.0952 -0.0227 -9.7649 0.0092
# 4 -0.0059 -0.0174 -0.0227 13.6461 0.0094 -3.4664
# 5 -3.9450 -17.0342 -9.7649 0.0094 19.1601 -0.0129
# 6 0.0055 0.0126 0.0092 -3.4664 -0.0129 33.2995
#
#
#
# Elastic Compliance Matrix: (Units=1/GPa)
#
#
# Indices 1 2 3 4 5 6 
#
# 1 0.010423 -0.004360 -0.000877 -0.000001 -0.002177 -0.000001
# 2 -0.004360 0.013429 -0.005117 0.000001 0.008434 0.000000
# 3 -0.000877 -0.005117 0.021490 0.000025 0.006223 0.000001
# 4 -0.000001 0.000001 0.000025 0.075271 -0.000018 0.007836
# 5 -0.002177 0.008434 0.006223 -0.000018 0.062413 0.000018
# 6 -0.000001 0.000000 0.000001 0.007836 0.000018 0.030846
#
#
# Mechanical properties :
#
#
# Convention : Reuss Voigt Hill
#
# Bulk Modulus (GPa) = 40.59080 53.56265 47.07672
# Shear Modulus (GPa) = 20.59370 25.88315 23.23843
#
# Velocity S-wave (km/s) = 3.18694 3.57286 3.38540
# Velocity P-wave (km/s) = 5.79319 6.59067 6.20476
#
# Compressibility (1/GPa) = 0.02463613
#
# Stress axis : x y z
#
# Youngs Moduli (GPa) = 95.93707 74.46442 46.53239
#
# Poissons Ratio (x) = 0.32468 0.04079
# Poissons Ratio (y) = 0.41830 0.23809
# Poissons Ratio (z) = 0.08410 0.38102
#
# Static dielectric constant tensor:
#      x y z
#    x 1.765410 -0.000010 0.038370 
#    y -0.000010 1.772420 0.000010 
#    z 0.038370 0.000010 1.835730 
# 
# From -- ./inp_files/228132.got.cif
#   From: 2010.05.17/outbox.cif.g08.bks.cpg/sg12_115_cif.got.tgz:228132.got - 2010.06.03 13:09:07.
