data_PCOD9184008
_publ_section_title
;
Structure prediction by ZEFSAII (Michael W. Deem and Ramdas Pophale) SiO2 
 PCOD9184008
Probable space group: C 2/M
;
_chemical_formula_sum "Si O2"
_cell_formula_units_Z 64
_cell_length_a 22.595970
_cell_length_b 16.043901
_cell_length_c 13.685701
_cell_angle_alpha 90.000000
_cell_angle_beta 138.348876
_cell_angle_gamma 90.000000
_cell_volume 3297.341287
_symmetry_space_group_name_H-M "C 2/M"
_symmetry_group_IT_number 12
_symmetry_cell_setting 'monoclinic'
loop_
_space_group_symop_operation_xyz
x,y,z
-x,y,-z
-x,-y,-z
x,-y,z
1/2+x,1/2+y,z
1/2-x,1/2+y,-z
1/2-x,1/2-y,-z
1/2+x,1/2-y,z
loop_
_atom_site_type_symbol
_atom_site_label
_atom_site_fract_x
_atom_site_fract_y
_atom_site_fract_z
Si Si1 0.392688 0.593417 0.367249
Si Si2 0.397399 0.905556 0.651994
Si Si3 0.279025 0.670111 0.602142
Si Si4 0.327444 0.260949 0.866868
Si Si5 0.820255 0.749424 0.173721
Si Si6 0.907832 0.904798 0.605412
Si Si7 0.106489 0.406685 0.127447
Si Si8 0.532541 0.753943 0.789262
O O1 0.500000 0.605120 0.500000
O O2 0.374702 0.500000 0.312010
O O3 0.347232 0.659121 0.242133
O O4 0.363208 0.602217 0.443554
O O5 0.311999 0.877720 0.484605
O O6 0.364969 0.907054 0.724591
O O7 0.469743 0.832066 0.736543
O O8 0.428323 0.000000 0.667718
O O9 0.250000 0.750000 0.500000
O O10 0.330661 0.698476 0.763556
O O11 0.340367 0.612723 0.609986
O O12 0.234010 0.286747 0.801517
O O13 0.338493 0.161971 0.861921
O O14 0.405532 0.273816 0.042796
O O15 0.908862 0.716142 0.231299
O O16 0.750000 0.750000 0.000000
O O17 0.977376 0.828878 0.695336
O O18 0.943583 0.000000 0.654894
O O19 0.115162 0.500000 0.097218
O O20 0.000000 0.386979 0.000000
#
# Coordination Sequence:
#
# PCOD9184008 Si02
#       8
#     8   8   8   8   8   8   8   8
#     4  10  20  37  64  93 118 153 205 262 316 366
#     4  11  23  39  62  90 124 161 203 252 308 367
#     4  12  22  38  60  90 128 165 197 252 318 377
#     4  11  23  38  59  89 125 170 211 247 317 378
#     4  10  23  39  58  91 126 165 204 254 316 370
#     4  11  23  39  63  97 126 156 205 261 318 374
#     4  10  19  33  56  89 122 151 195 256 313 368
#     4  11  22  41  64  88 123 168 210 262 308 369
#
# _framework density 19.409576999999999
#
# number of rings (size 3 to 8) (size 9 to 14) (size 15 to 20)
#    0.000    1.250    5.000    1.125    0.000    0.500 
#    0.000    3.750    0.000    4.500    0.000    0.000 
#    0.000    0.000    0.000    0.000    0.000    0.000 
#
# Total GULP energy -178463.861915 kJ/mol
# GULP energy per Si atom -5576.995685 kJ/mol
# Density = 1.936540 g / cm^3
# Si number density = 19.409577 Si / 1000 Ang^3
#
#
#
# Elastic Constant Matrix: (Units=GPa)
#
#
# Indices 1 2 3 4 5 6 
#
# 1 80.3285 14.1810 10.6086 0.0000 -5.5858 0.0000
# 2 14.1810 85.3067 32.9354 0.0000 -4.2522 0.0000
# 3 10.6086 32.9354 61.8374 0.0000 -4.0338 0.0000
# 4 0.0000 0.0000 0.0000 19.2138 0.0000 -7.3415
# 5 -5.5858 -4.2522 -4.0338 0.0000 25.9579 0.0000
# 6 0.0000 0.0000 0.0000 -7.3415 0.0000 15.2542
#
#
#
# Elastic Compliance Matrix: (Units=1/GPa)
#
#
# Indices 1 2 3 4 5 6 
#
# 1 0.013055 -0.001570 -0.001250 0.000000 0.002358 0.000000
# 2 -0.001570 0.014983 -0.007650 0.000000 0.000928 0.000000
# 3 -0.001250 -0.007650 0.020570 0.000000 0.001674 0.000000
# 4 0.000000 0.000000 0.000000 0.063773 0.000000 0.030692
# 5 0.002358 0.000928 0.001674 0.000000 0.039443 0.000000
# 6 0.000000 0.000000 0.000000 0.030692 0.000000 0.080327
#
#
# Mechanical properties :
#
#
# Convention : Reuss Voigt Hill
#
# Bulk Modulus (GPa) = 36.14316 38.10251 37.12284
# Shear Modulus (GPa) = 19.06104 23.40169 21.23136
#
# Velocity S-wave (km/s) = 3.13716 3.47605 3.31094
# Velocity P-wave (km/s) = 5.63774 5.98197 5.81240
#
# Compressibility (1/GPa) = 0.02766775
#
# Stress axis : x y z
#
# Youngs Moduli (GPa) = 76.59858 66.74054 48.61504
#
# Poissons Ratio (x) = 0.10480 0.06075
# Poissons Ratio (y) = 0.12028 0.37193
# Poissons Ratio (z) = 0.09571 0.51060
#
# Static dielectric constant tensor:
#      x y z
#    x 1.741310 0.000000 0.034350 
#    y 0.000000 1.665120 0.000000 
#    z 0.034350 0.000000 1.703690 
# 
# From -- ./inp_files/240712.got.cif
#   From: 2010.05.17/outbox.cif.g08.bks.cpg/sg12_121_cif.got.tgz:240712.got - 2010.06.03 13:09:07.
