data_PCOD9184787
_publ_section_title
;
Structure prediction by ZEFSAII (Michael W. Deem and Ramdas Pophale) SiO2 
 PCOD9184787
Probable space group: C 2/M
;
_chemical_formula_sum "Si O2"
_cell_formula_units_Z 64
_cell_length_a 24.856396
_cell_length_b 19.013036
_cell_length_c 20.469942
_cell_angle_alpha 90.000000
_cell_angle_beta 17.338936
_cell_angle_gamma 90.000000
_cell_volume 2883.081593
_symmetry_space_group_name_H-M "C 2/M"
_symmetry_group_IT_number 12
_symmetry_cell_setting 'monoclinic'
loop_
_space_group_symop_operation_xyz
x,y,z
-x,y,-z
-x,-y,-z
x,-y,z
1/2+x,1/2+y,z
1/2-x,1/2+y,-z
1/2-x,1/2-y,-z
1/2+x,1/2-y,z
loop_
_atom_site_type_symbol
_atom_site_label
_atom_site_fract_x
_atom_site_fract_y
_atom_site_fract_z
Si Si1 0.743709 0.391339 0.847429
Si Si2 0.672372 0.576723 0.647506
Si Si3 0.004382 0.185690 0.674491
Si Si4 0.447333 0.178373 0.289767
Si Si5 0.238261 0.723417 0.862637
Si Si6 0.282598 0.622506 0.262831
Si Si7 0.713136 0.080979 0.061700
Si Si8 0.784440 0.711660 0.254310
O O1 0.541902 0.419191 0.094411
O O2 0.847259 0.412692 0.792666
O O3 0.735271 0.306977 0.857366
O O4 0.798560 0.409089 0.709769
O O5 0.720357 0.500000 0.564747
O O6 0.749625 0.584977 0.631540
O O7 0.751297 0.642991 0.516510
O O8 0.188596 0.168862 0.422824
O O9 0.034762 0.252896 0.685660
O O10 0.869959 0.206661 0.770142
O O11 0.897822 0.125093 0.836438
O O12 0.539580 0.198519 0.114932
O O13 0.570204 0.118343 0.180613
O O14 0.286284 0.693168 0.736177
O O15 0.236883 0.705523 0.321945
O O16 0.500000 0.620448 0.000000
O O17 0.738862 0.000000 0.015617
O O18 0.000000 0.706412 0.000000
#
# Coordination Sequence:
#
# PCOD9184787 Si02
#       8
#     8   8   8   8   8   8   8   8
#     4  10  19  34  54  81 109 149 193 227 281 333
#     4  11  22  34  51  78 117 159 190 230 281 328
#     4  11  20  38  61  84 110 151 190 231 288 334
#     4  11  21  38  57  82 111 153 193 232 277 336
#     4  10  20  36  58  83 112 144 189 237 284 324
#     4   8  17  31  49  73 108 148 185 217 268 327
#     4  11  22  38  58  83 116 148 188 237 283 339
#     4  10  20  35  58  89 115 141 186 243 283 327
#
# _framework density 22.198468999999999
#
# number of rings (size 3 to 8) (size 9 to 14) (size 15 to 20)
#    0.000    1.750    3.750    2.625    0.000    4.250 
#    0.000    0.625    0.000    8.625    0.000    0.000 
#    0.000    0.000    0.000    0.000    0.000    0.000 
#
# Total GULP energy -178944.011245 kJ/mol
# GULP energy per Si atom -5592.000351 kJ/mol
# Density = 2.214794 g / cm^3
# Si number density = 22.198469 Si / 1000 Ang^3
#
#
#
# Elastic Constant Matrix: (Units=GPa)
#
#
# Indices 1 2 3 4 5 6 
#
# 1 77.9226 13.2582 6.3132 0.0276 7.4882 -0.0087
# 2 13.2582 87.0135 14.7347 0.0216 5.6810 0.0016
# 3 6.3132 14.7347 82.1106 0.0985 9.9428 -0.0926
# 4 0.0276 0.0216 0.0985 -10.6982 -0.0063 47.2958
# 5 7.4882 5.6810 9.9428 -0.0063 38.6813 0.0007
# 6 -0.0087 0.0016 -0.0926 47.2958 0.0007 -74.8881
#
#
#
# Elastic Compliance Matrix: (Units=1/GPa)
#
#
# Indices 1 2 3 4 5 6 
#
# 1 0.013391 -0.001822 -0.000435 -0.000013 -0.002213 -0.000009
# 2 -0.001822 0.012158 -0.001928 -0.000009 -0.000937 -0.000003
# 3 -0.000435 -0.001928 0.012916 -0.000025 -0.002953 -0.000032
# 4 -0.000013 -0.000009 -0.000025 0.052161 0.000018 0.032942
# 5 -0.002213 -0.000937 -0.002953 0.000018 0.027177 0.000016
# 6 -0.000009 -0.000003 -0.000032 0.032942 0.000016 0.007452
#
#
# Mechanical properties :
#
#
# Convention : Reuss Voigt Hill
#
# Bulk Modulus (GPa) = 33.22859 35.07321 34.15090
# Shear Modulus (GPa) = 34.80537 4.80170 19.80353
#
# Velocity S-wave (km/s) = 3.96399 1.47234 2.99007
# Velocity P-wave (km/s) = 5.99602 4.32718 5.22861
#
# Compressibility (1/GPa) = 0.03009457
#
# Stress axis : x y z
#
# Youngs Moduli (GPa) = 74.67598 82.25154 77.42556
#
# Poissons Ratio (x) = 0.14989 0.03365
# Poissons Ratio (y) = 0.13608 0.14928
# Poissons Ratio (z) = 0.03246 0.15859
#
# Static dielectric constant tensor:
#      x y z
#    x 1.874560 -0.000020 -0.049320 
#    y -0.000020 1.770020 0.000020 
#    z -0.049320 0.000020 1.901190 
# 
# From -- ./inp_files/328608.got.cif
#   From: 2010.05.17/outbox.cif.g08.bks.cpg/sg12_165_cif.got.tgz:328608.got - 2010.06.03 13:09:07.
