data_PCOD9184715
_publ_section_title
;
Structure prediction by ZEFSAII (Michael W. Deem and Ramdas Pophale) SiO2 
 PCOD9184715
Probable space group: C 2/M
;
_chemical_formula_sum "Si O2"
_cell_formula_units_Z 48
_cell_length_a 14.852300
_cell_length_b 7.592907
_cell_length_c 24.574060
_cell_angle_alpha 90.000000
_cell_angle_beta 40.097415
_cell_angle_gamma 90.000000
_cell_volume 1784.944306
_symmetry_space_group_name_H-M "C 2/M"
_symmetry_group_IT_number 12
_symmetry_cell_setting 'monoclinic'
loop_
_space_group_symop_operation_xyz
x,y,z
-x,y,-z
-x,-y,-z
x,-y,z
1/2+x,1/2+y,z
1/2-x,1/2+y,-z
1/2-x,1/2-y,-z
1/2+x,1/2-y,z
loop_
_atom_site_type_symbol
_atom_site_label
_atom_site_fract_x
_atom_site_fract_y
_atom_site_fract_z
Si Si1 0.038910 0.715887 0.679725
Si Si2 0.928572 0.297828 0.454547
Si Si3 0.024141 0.202260 0.133754
Si Si4 0.223157 0.211222 0.816682
Si Si5 0.698105 0.788833 0.947683
Si Si6 0.211294 0.199751 0.370303
O O1 0.039136 0.500000 0.680901
O O2 0.101020 0.768423 0.592230
O O3 0.135749 0.773797 0.685188
O O4 0.880202 0.779965 0.750186
O O5 0.885229 0.500000 0.479613
O O6 0.860562 0.197952 0.536212
O O7 0.097533 0.294925 0.385639
O O8 0.141699 0.281077 0.118857
O O9 0.873958 0.281002 0.187244
O O10 0.003715 0.000000 0.158920
O O11 0.106211 0.206227 0.037706
O O12 0.154079 0.250914 0.906843
O O13 0.230176 0.000000 0.807038
O O14 0.697368 0.000000 0.956513
O O15 0.221685 0.000000 0.346860
#
# Coordination Sequence:
#
# PCOD9184715 Si02
#       6
#     8   8   8   8   8   8
#     4   9  20  35  52  74 103 137 170 206 250 302
#     4  10  19  34  55  78 101 132 173 211 248 295
#     4   9  19  35  55  75  99 135 172 205 249 304
#     4  10  20  36  54  73 101 138 173 203 247 307
#     4  10  20  34  53  79 105 129 166 215 256 292
#     4  10  19  34  54  77 103 132 167 210 258 299
#
# _framework density 26.891594000000001
#
# number of rings (size 3 to 8) (size 9 to 14) (size 15 to 20)
#    0.000    2.333    0.000    3.500    0.000    4.667 
#    0.000    7.500    0.000    0.000    0.000    0.000 
#    0.000    0.000    0.000    0.000    0.000    0.000 
#
# Total GULP energy -134334.582788 kJ/mol
# GULP energy per Si atom -5597.274283 kJ/mol
# Density = 2.683039 g / cm^3
# Si number density = 26.891594 Si / 1000 Ang^3
#
#
#
# Elastic Constant Matrix: (Units=GPa)
#
#
# Indices 1 2 3 4 5 6 
#
# 1 173.9387 16.6621 11.6757 0.0000 -14.0521 0.0003
# 2 16.6621 105.0611 17.3586 -0.0002 -1.9459 0.0011
# 3 11.6757 17.3586 80.6529 0.0000 -12.7608 0.0000
# 4 0.0000 -0.0002 0.0000 25.6638 0.0000 4.5101
# 5 -14.0521 -1.9459 -12.7608 0.0000 58.7232 -0.0001
# 6 0.0003 0.0011 0.0000 4.5101 -0.0001 20.2083
#
#
#
# Elastic Compliance Matrix: (Units=1/GPa)
#
#
# Indices 1 2 3 4 5 6 
#
# 1 0.005967 -0.000843 -0.000477 0.000000 0.001296 0.000000
# 2 -0.000843 0.009990 -0.002079 0.000000 -0.000323 -0.000001
# 3 -0.000477 -0.002079 0.013345 0.000000 0.002717 0.000000
# 4 0.000000 0.000000 0.000000 0.040556 0.000000 -0.009051
# 5 0.001296 -0.000323 0.002717 0.000000 0.017919 0.000000
# 6 0.000000 -0.000001 0.000000 -0.009051 0.000000 0.051505
#
#
# Mechanical properties :
#
#
# Convention : Reuss Voigt Hill
#
# Bulk Modulus (GPa) = 44.43983 50.11618 47.27800
# Shear Modulus (GPa) = 32.55612 41.84946 37.20279
#
# Velocity S-wave (km/s) = 3.48320 3.94919 3.72349
# Velocity P-wave (km/s) = 5.72175 6.28264 6.00874
#
# Compressibility (1/GPa) = 0.02250234
#
# Stress axis : x y z
#
# Youngs Moduli (GPa) = 167.59707 100.10460 74.93330
#
# Poissons Ratio (x) = 0.08443 0.03576
# Poissons Ratio (y) = 0.14136 0.15578
# Poissons Ratio (z) = 0.07997 0.20811
#
# Static dielectric constant tensor:
#      x y z
#    x 2.085300 0.000000 -0.084580 
#    y 0.000000 1.941520 0.000000 
#    z -0.084580 0.000000 2.221120 
# 
# From -- ./inp_files/360211.got.cif
#   From: 2010.05.17/outbox.cif.g08.bks.cpg/sg12_181_cif.got.tgz:360211.got - 2010.06.03 13:09:07.
