data_PCOD9184308
_publ_section_title
;
Structure prediction by ZEFSAII (Michael W. Deem and Ramdas Pophale) SiO2 
 PCOD9184308
Probable space group: C 2/M
;
_chemical_formula_sum "Si O2"
_cell_formula_units_Z 64
_cell_length_a 14.435077
_cell_length_b 9.589475
_cell_length_c 27.413405
_cell_angle_alpha 90.000000
_cell_angle_beta 51.672840
_cell_angle_gamma 90.000000
_cell_volume 2976.872071
_symmetry_space_group_name_H-M "C 2/M"
_symmetry_group_IT_number 12
_symmetry_cell_setting 'monoclinic'
loop_
_space_group_symop_operation_xyz
x,y,z
-x,y,-z
-x,-y,-z
x,-y,z
1/2+x,1/2+y,z
1/2-x,1/2+y,-z
1/2-x,1/2-y,-z
1/2+x,1/2-y,z
loop_
_atom_site_type_symbol
_atom_site_label
_atom_site_fract_x
_atom_site_fract_y
_atom_site_fract_z
Si Si1 0.261272 0.163833 0.204014
Si Si2 0.486149 0.841213 0.596104
Si Si3 0.788177 0.160708 0.293720
Si Si4 0.655751 0.835137 0.155479
Si Si5 0.529459 0.162221 0.103877
Si Si6 0.124615 0.660296 0.650358
Si Si7 0.376886 0.658968 0.011235
Si Si8 0.667849 0.661471 0.490387
O O1 0.274703 0.245870 0.250017
O O2 0.170788 0.241920 0.198070
O O3 0.391567 0.175252 0.137238
O O4 0.235230 0.000000 0.219512
O O5 0.345742 0.841901 0.641762
O O6 0.535498 0.806783 0.634650
O O7 0.543151 0.736359 0.538817
O O8 0.528654 0.000000 0.572507
O O9 0.872231 0.234087 0.305899
O O10 0.821938 0.000000 0.272207
O O11 0.550962 0.795013 0.152930
O O12 0.770577 0.814692 0.083240
O O13 0.649070 0.000000 0.170437
O O14 0.561710 0.000000 0.091229
O O15 0.609553 0.243293 0.039714
O O16 0.100928 0.500000 0.673615
O O17 0.256554 0.664026 0.583769
O O18 0.365112 0.500000 0.997820
O O19 0.500000 0.670969 0.000000
O O20 0.657624 0.500000 0.508231
O O21 0.750000 0.750000 0.500000
#
# Coordination Sequence:
#
# PCOD9184308 Si02
#       8
#     8   8   8   8   8   8   8   8
#     4  11  24  41  58  80 110 146 190 237 281 329
#     4   9  20  38  58  82 114 150 186 228 282 339
#     4  11  24  40  59  82 109 147 192 237 284 334
#     4  10  21  39  60  84 115 150 186 226 279 336
#     4  10  22  38  59  85 114 150 187 226 277 336
#     4   9  19  37  58  82 114 148 182 225 277 334
#     4  10  19  33  58  89 119 149 181 226 278 328
#     4   9  17  31  55  85 117 151 185 226 279 335
#
# _framework density 21.499077
#
# number of rings (size 3 to 8) (size 9 to 14) (size 15 to 20)
#    0.000    2.125    1.250    2.250    0.000    6.750 
#    0.000    7.500    0.000    0.000    0.000    0.000 
#    0.000    0.000    0.000    0.000    0.000    0.000 
#
# Total GULP energy -178747.290435 kJ/mol
# GULP energy per Si atom -5585.852826 kJ/mol
# Density = 2.145014 g / cm^3
# Si number density = 21.499077 Si / 1000 Ang^3
#
#
#
# Elastic Constant Matrix: (Units=GPa)
#
#
# Indices 1 2 3 4 5 6 
#
# 1 88.7349 43.1541 6.7663 0.0000 18.8682 0.0000
# 2 43.1541 122.7082 42.9557 0.0000 35.6307 0.0000
# 3 6.7663 42.9557 47.8551 0.0000 8.0784 0.0000
# 4 0.0000 0.0000 0.0000 32.9778 0.0000 9.4018
# 5 18.8682 35.6307 8.0784 0.0000 36.8818 0.0000
# 6 0.0000 0.0000 0.0000 9.4018 0.0000 22.0426
#
#
#
# Elastic Compliance Matrix: (Units=1/GPa)
#
#
# Indices 1 2 3 4 5 6 
#
# 1 0.014207 -0.005296 0.003228 0.000000 -0.002858 0.000000
# 2 -0.005296 0.018241 -0.013611 0.000000 -0.011932 0.000000
# 3 0.003228 -0.013611 0.031896 0.000000 0.004511 0.000000
# 4 0.000000 0.000000 0.000000 0.034521 0.000000 -0.014724
# 5 -0.002858 -0.011932 0.004511 0.000000 0.039115 0.000000
# 6 0.000000 0.000000 0.000000 -0.014724 0.000000 0.051647
#
#
# Mechanical properties :
#
#
# Convention : Reuss Voigt Hill
#
# Bulk Modulus (GPa) = 30.31624 49.45004 39.88314
# Shear Modulus (GPa) = 21.55359 29.47526 25.51443
#
# Velocity S-wave (km/s) = 3.16972 3.70672 3.44869
# Velocity P-wave (km/s) = 5.24671 6.43200 5.86935
#
# Compressibility (1/GPa) = 0.03298562
#
# Stress axis : x y z
#
# Youngs Moduli (GPa) = 70.38843 54.82103 31.35225
#
# Poissons Ratio (x) = 0.29034 -0.10120
# Poissons Ratio (y) = 0.37279 0.42672
# Poissons Ratio (z) = -0.22720 0.74615
#
# Static dielectric constant tensor:
#      x y z
#    x 1.813760 0.000000 -0.025230 
#    y 0.000000 1.742340 0.000000 
#    z -0.025230 0.000000 1.794670 
# 
# From -- ./inp_files/374991.got.cif
#   From: 2010.05.17/outbox.cif.g08.bks.cpg/sg12_188_cif.got.tgz:374991.got - 2010.06.03 13:09:07.
