data_PCOD9184826
_publ_section_title
;
Structure prediction by ZEFSAII (Michael W. Deem and Ramdas Pophale) SiO2 
 PCOD9184826
Probable space group: C 2/M
;
_chemical_formula_sum "Si O2"
_cell_formula_units_Z 64
_cell_length_a 21.049071
_cell_length_b 7.443364
_cell_length_c 22.204149
_cell_angle_alpha 90.000000
_cell_angle_beta 61.806715
_cell_angle_gamma 90.000000
_cell_volume 3066.119539
_symmetry_space_group_name_H-M "C 2/M"
_symmetry_group_IT_number 12
_symmetry_cell_setting 'monoclinic'
loop_
_space_group_symop_operation_xyz
x,y,z
-x,y,-z
-x,-y,-z
x,-y,z
1/2+x,1/2+y,z
1/2-x,1/2+y,-z
1/2-x,1/2-y,-z
1/2+x,1/2-y,z
loop_
_atom_site_type_symbol
_atom_site_label
_atom_site_fract_x
_atom_site_fract_y
_atom_site_fract_z
Si Si1 0.024539 0.780412 0.554927
Si Si2 0.902704 0.218417 0.291773
Si Si3 0.168691 0.214447 0.555583
Si Si4 0.826489 0.706100 0.070166
Si Si5 0.433328 0.294262 0.919580
Si Si6 0.449903 0.281941 0.709889
Si Si7 0.335647 0.720580 0.853828
Si Si8 0.904513 0.781906 0.155610
O O1 0.104954 0.722340 0.539345
O O2 0.000000 0.719977 0.500000
O O3 0.970864 0.724489 0.633118
O O4 0.024309 0.000000 0.554044
O O5 0.850109 0.280055 0.368686
O O6 0.885770 0.275873 0.231839
O O7 0.983236 0.269951 0.276818
O O8 0.901815 0.000000 0.291122
O O9 0.250000 0.250000 0.500000
O O10 0.160349 0.000000 0.561186
O O11 0.823647 0.500000 0.051042
O O12 0.746116 0.782716 0.101810
O O13 0.852639 0.713662 0.126979
O O14 0.886140 0.793698 0.000875
O O15 0.446709 0.500000 0.894598
O O16 0.385134 0.217924 0.887259
O O17 0.513160 0.219578 0.893007
O O18 0.449324 0.500000 0.709057
O O19 0.375917 0.224530 0.774335
O O20 0.333066 0.500000 0.855135
O O21 0.901532 0.000000 0.153598
#
# Coordination Sequence:
#
# PCOD9184826 Si02
#       8
#     8   8   8   8   8   8   8   8
#     4   8  14  25  44  72 100 124 156 198 240 278
#     4   8  14  28  51  73  91 122 168 209 234 265
#     4   9  17  30  49  74 102 129 160 196 239 286
#     4  11  23  34  45  72 110 132 145 187 259 310
#     4  10  19  34  57  74  86 120 175 211 230 274
#     4   8  12  24  47  69  90 120 162 206 235 266
#     4   9  17  31  49  70  94 124 162 201 241 284
#     4  10  19  34  55  73  90 122 172 212 234 270
#
# _framework density 20.873287999999999
#
# number of rings (size 3 to 8) (size 9 to 14) (size 15 to 20)
#    0.000    2.875    1.250    2.625    0.000    2.000 
#    2.250    1.250    0.000    0.375    0.000    1.750 
#    0.000    0.000    0.000    0.000    0.000    0.000 
#
# Total GULP energy -178542.059063 kJ/mol
# GULP energy per Si atom -5579.439346 kJ/mol
# Density = 2.082578 g / cm^3
# Si number density = 20.873288 Si / 1000 Ang^3
#
#
#
# Elastic Constant Matrix: (Units=GPa)
#
#
# Indices 1 2 3 4 5 6 
#
# 1 41.6683 -2.2832 10.5066 -0.0002 3.1173 0.0004
# 2 -2.2832 60.8285 -6.3503 -0.0021 -2.1954 -0.0005
# 3 10.5066 -6.3503 91.2410 0.0000 6.0530 0.0005
# 4 -0.0002 -0.0021 0.0000 -4.6683 0.0003 -5.4369
# 5 3.1173 -2.1954 6.0530 0.0003 37.5844 -0.0003
# 6 0.0004 -0.0005 0.0005 -5.4369 -0.0003 8.9859
#
#
#
# Elastic Compliance Matrix: (Units=1/GPa)
#
#
# Indices 1 2 3 4 5 6 
#
# 1 0.024834 0.000592 -0.002713 0.000000 -0.001588 -0.000001
# 2 0.000592 0.016597 0.001037 -0.000005 0.000753 -0.000002
# 3 -0.002713 0.001037 0.011448 0.000000 -0.001558 0.000000
# 4 0.000000 -0.000005 0.000000 -0.125662 0.000000 -0.076031
# 5 -0.001588 0.000753 -0.001558 0.000000 0.027033 0.000001
# 6 -0.000001 -0.000002 0.000000 -0.076031 0.000001 0.065283
#
#
# Mechanical properties :
#
#
# Convention : Reuss Voigt Hill
#
# Bulk Modulus (GPa) = 19.71975 21.94267 20.83121
# Shear Modulus (GPa) = 129.51071 21.17138 75.34104
#
# Velocity S-wave (km/s) = 7.88548 3.18823 6.01439
# Velocity P-wave (km/s) = 9.61123 4.90798 7.63099
#
# Compressibility (1/GPa) = 0.05071059
#
# Stress axis : x y z
#
# Youngs Moduli (GPa) = 40.26670 60.25069 87.35185
#
# Poissons Ratio (x) = -0.03564 0.23700
# Poissons Ratio (y) = -0.02382 -0.09059
# Poissons Ratio (z) = 0.10925 -0.06248
#
# Static dielectric constant tensor:
#      x y z
#    x 1.714080 0.000000 -0.007530 
#    y 0.000000 1.826100 0.000000 
#    z -0.007530 0.000000 1.743430 
# 
# From -- ./inp_files/319825.got.cif
#   From: 2010.05.17/outbox.cif.g08.bks.cpg/sg12_160_cif.got.tgz:319825.got - 2010.06.03 13:09:07.
