data_PCOD9184435
_publ_section_title
;
Structure prediction by ZEFSAII (Michael W. Deem and Ramdas Pophale) SiO2 
 PCOD9184435
Probable space group: C 2/M
;
_chemical_formula_sum "Si O2"
_cell_formula_units_Z 36
_cell_length_a 22.793128
_cell_length_b 10.467521
_cell_length_c 7.899399
_cell_angle_alpha 90.000000
_cell_angle_beta 77.512760
_cell_angle_gamma 90.000000
_cell_volume 1840.114150
_symmetry_space_group_name_H-M "C 2/M"
_symmetry_group_IT_number 12
_symmetry_cell_setting 'monoclinic'
loop_
_space_group_symop_operation_xyz
x,y,z
-x,y,-z
-x,-y,-z
x,-y,z
1/2+x,1/2+y,z
1/2-x,1/2+y,-z
1/2-x,1/2-y,-z
1/2+x,1/2-y,z
loop_
_atom_site_type_symbol
_atom_site_label
_atom_site_fract_x
_atom_site_fract_y
_atom_site_fract_z
Si Si1 0.218856 0.500000 0.597337
Si Si2 0.820406 0.000000 0.809344
Si Si3 0.646106 0.751770 0.748378
Si Si4 0.082629 0.143496 0.081266
Si Si5 0.722874 0.500000 0.782488
Si Si6 0.964654 0.849116 0.361533
O O1 0.282227 0.500000 0.662399
O O2 0.184082 0.374722 0.681402
O O3 0.223725 0.500000 0.389548
O O4 0.867451 0.118067 0.802927
O O5 0.778286 0.000000 0.008367
O O6 0.688292 0.629278 0.752283
O O7 0.596605 0.720721 0.639040
O O8 0.607139 0.752467 0.945245
O O9 0.015408 0.161448 0.185255
O O10 0.083901 0.000000 0.994247
O O11 0.000000 0.798052 0.500000
O O12 0.952294 0.000000 0.395045
#
# Coordination Sequence:
#
# PCOD9184435 Si02
#       6
#     4   4   8   8   4   8
#     4  12  26  38  58  89 127 164 191 239 288 377
#     4   8  20  39  59  89 115 155 202 238 298 339
#     4  11  21  39  58  88 121 154 198 239 306 344
#     4   8  17  35  60  86 110 149 194 259 285 336
#     4  10  22  41  61  85 115 162 202 255 274 338
#     4  10  19  33  62  93 113 147 203 256 293 342
#
# _framework density 19.564004000000001
#
# number of rings (size 3 to 8) (size 9 to 14) (size 15 to 20)
#    0.667    1.556    2.222    1.333    3.111    5.333 
#    4.000    2.778    0.000    0.000    0.000    0.000 
#    0.000    0.000    0.000    0.000    0.000    0.000 
#
# Total GULP energy -100225.748640 kJ/mol
# GULP energy per Si atom -5568.097147 kJ/mol
# Density = 1.951948 g / cm^3
# Si number density = 19.564004 Si / 1000 Ang^3
#
#
#
# Elastic Constant Matrix: (Units=GPa)
#
#
# Indices 1 2 3 4 5 6 
#
# 1 56.2565 7.8574 -10.5352 0.0000 12.5396 0.0000
# 2 7.8574 58.0707 2.9348 0.0000 -15.4222 0.0000
# 3 -10.5352 2.9348 45.5041 0.0000 -2.4296 0.0000
# 4 0.0000 0.0000 0.0000 -37.9969 0.0000 15.6205
# 5 12.5396 -15.4222 -2.4296 0.0000 26.0864 0.0000
# 6 0.0000 0.0000 0.0000 15.6205 0.0000 -1.5034
#
#
#
# Elastic Compliance Matrix: (Units=1/GPa)
#
#
# Indices 1 2 3 4 5 6 
#
# 1 0.023080 -0.007354 0.005018 0.000000 -0.014975 0.000000
# 2 -0.007354 0.022791 -0.002276 0.000000 0.016797 0.000000
# 3 0.005018 -0.002276 0.023199 0.000000 -0.001597 0.000000
# 4 0.000000 0.000000 0.000000 0.008045 0.000000 0.083587
# 5 -0.014975 0.016797 -0.001597 0.000000 0.055314 0.000000
# 6 0.000000 0.000000 0.000000 0.083587 0.000000 0.203326
#
#
# Mechanical properties :
#
#
# Convention : Reuss Voigt Hill
#
# Bulk Modulus (GPa) = 16.70854 17.81615 17.26235
# Shear Modulus (GPa) = 13.70136 7.95550 10.82843
#
# Velocity S-wave (km/s) = 2.64926 2.01872 2.35518
# Velocity P-wave (km/s) = 4.23285 3.81576 4.02971
#
# Compressibility (1/GPa) = 0.05984964
#
# Stress axis : x y z
#
# Youngs Moduli (GPa) = 43.32666 43.87636 43.10456
#
# Poissons Ratio (x) = 0.32265 -0.21631
# Poissons Ratio (y) = 0.31860 0.09809
# Poissons Ratio (z) = -0.21743 0.09985
#
# Static dielectric constant tensor:
#      x y z
#    x 1.710810 0.000000 0.024940 
#    y 0.000000 1.640510 0.000000 
#    z 0.024940 0.000000 1.834850 
# 
# From -- ./inp_files/92682.got.cif
#   From: 2010.05.17/outbox.cif.g08.bks.cpg/sg12_47_cif.got.tgz:92682.got - 2010.06.03 13:09:07.
