data_PCOD9184083
_publ_section_title
;
Structure prediction by ZEFSAII (Michael W. Deem and Ramdas Pophale) SiO2 
 PCOD9184083
Probable space group: C 2/M
;
_chemical_formula_sum "Si O2"
_cell_formula_units_Z 40
_cell_length_a 15.615585
_cell_length_b 14.116821
_cell_length_c 14.502228
_cell_angle_alpha 90.000000
_cell_angle_beta 34.763908
_cell_angle_gamma 90.000000
_cell_volume 1822.863750
_symmetry_space_group_name_H-M "C 2/M"
_symmetry_group_IT_number 12
_symmetry_cell_setting 'monoclinic'
loop_
_space_group_symop_operation_xyz
x,y,z
-x,y,-z
-x,-y,-z
x,-y,z
1/2+x,1/2+y,z
1/2-x,1/2+y,-z
1/2-x,1/2-y,-z
1/2+x,1/2-y,z
loop_
_atom_site_type_symbol
_atom_site_label
_atom_site_fract_x
_atom_site_fract_y
_atom_site_fract_z
Si Si1 0.800222 0.604747 0.127754
Si Si2 0.992185 0.892845 0.283401
Si Si3 0.179217 0.605813 0.329386
Si Si4 0.604596 0.310756 0.993048
Si Si5 0.342963 0.699949 0.579725
O O1 0.866510 0.500000 0.058419
O O2 0.642984 0.603489 0.212249
O O3 0.761222 0.629913 0.268553
O O4 0.885809 0.696888 0.014681
O O5 0.044214 0.849384 0.141479
O O6 0.876796 0.834207 0.447759
O O7 0.937315 0.000000 0.319186
O O8 0.240501 0.500000 0.290750
O O9 0.221554 0.693657 0.357990
O O10 0.000000 0.598530 0.500000
O O11 0.234652 0.644526 0.180355
O O12 0.500000 0.340105 0.000000
O O13 0.500000 0.701824 0.500000
#
# Coordination Sequence:
#
# PCOD9184083 Si02
#       5
#     8   8   8   8   8
#     4   9  18  34  56  80 108 146 189 229 272 327
#     4  10  19  33  57  84 110 145 189 232 273 325
#     4   9  18  34  55  77 107 148 186 221 267 327
#     4  11  23  37  55  83 118 149 181 228 282 332
#     4   8  15  30  53  80 105 133 180 233 272 314
#
# _framework density 21.943494000000001
#
# number of rings (size 3 to 8) (size 9 to 14) (size 15 to 20)
#    0.000    2.600    0.000    3.000    0.000    4.400 
#    0.000    7.000    0.000    2.400    0.000    0.000 
#    0.000    0.000    0.000    0.000    0.000    0.000 
#
# Total GULP energy -111606.481154 kJ/mol
# GULP energy per Si atom -5580.324058 kJ/mol
# Density = 2.189355 g / cm^3
# Si number density = 21.943494 Si / 1000 Ang^3
#
#
#
# Elastic Constant Matrix: (Units=GPa)
#
#
# Indices 1 2 3 4 5 6 
#
# 1 46.4708 32.8142 41.4467 0.0000 19.9155 0.0000
# 2 32.8142 211.1971 91.1844 0.0000 49.0454 0.0000
# 3 41.4467 91.1844 133.5300 0.0000 56.5939 0.0000
# 4 0.0000 0.0000 0.0000 17.6593 0.0000 5.3764
# 5 19.9155 49.0454 56.5939 0.0000 49.6371 0.0000
# 6 0.0000 0.0000 0.0000 5.3764 0.0000 -6.0277
#
#
#
# Elastic Compliance Matrix: (Units=1/GPa)
#
#
# Indices 1 2 3 4 5 6 
#
# 1 0.030027 -0.000738 -0.007777 0.000000 -0.002451 0.000000
# 2 -0.000738 0.006928 -0.003340 0.000000 -0.002741 0.000000
# 3 -0.007777 -0.003340 0.018311 0.000000 -0.014457 0.000000
# 4 0.000000 0.000000 0.000000 0.044534 0.000000 0.039722
# 5 -0.002451 -0.002741 -0.014457 0.000000 0.040321 0.000000
# 6 0.000000 0.000000 0.000000 0.039722 0.000000 -0.130470
#
#
# Mechanical properties :
#
#
# Convention : Reuss Voigt Hill
#
# Bulk Modulus (GPa) = 31.69121 80.23205 55.96163
# Shear Modulus (GPa) = 113.94532 27.30390 70.62461
#
# Velocity S-wave (km/s) = 7.21384 3.53127 5.67932
# Velocity P-wave (km/s) = 9.15748 7.29855 8.28035
#
# Compressibility (1/GPa) = 0.03155449
#
# Stress axis : x y z
#
# Youngs Moduli (GPa) = 33.30342 144.33458 54.61196
#
# Poissons Ratio (x) = 0.10658 0.42473
# Poissons Ratio (y) = 0.02459 0.18242
# Poissons Ratio (z) = 0.25901 0.48211
#
# Static dielectric constant tensor:
#      x y z
#    x 1.809090 0.000000 -0.060210 
#    y 0.000000 1.819830 0.000000 
#    z -0.060210 0.000000 1.822500 
# 
# From -- ./inp_files/155103.got.cif
#   From: 2010.05.17/outbox.cif.g08.bks.cpg/sg12_78_cif.got.tgz:155103.got - 2010.06.03 13:09:07.
