data_PCOD9184774
_publ_section_title
;
Structure prediction by ZEFSAII (Michael W. Deem and Ramdas Pophale) SiO2 
 PCOD9184774
Probable space group: C 2/M
;
_chemical_formula_sum "Si O2"
_cell_formula_units_Z 48
_cell_length_a 16.958172
_cell_length_b 18.002639
_cell_length_c 12.387587
_cell_angle_alpha 90.000000
_cell_angle_beta 131.834875
_cell_angle_gamma 90.000000
_cell_volume 2817.728166
_symmetry_space_group_name_H-M "C 2/M"
_symmetry_group_IT_number 12
_symmetry_cell_setting 'monoclinic'
loop_
_space_group_symop_operation_xyz
x,y,z
-x,y,-z
-x,-y,-z
x,-y,z
1/2+x,1/2+y,z
1/2-x,1/2+y,-z
1/2-x,1/2-y,-z
1/2+x,1/2-y,z
loop_
_atom_site_type_symbol
_atom_site_label
_atom_site_fract_x
_atom_site_fract_y
_atom_site_fract_z
Si Si1 0.118759 0.695638 0.152073
Si Si2 0.555852 0.681718 0.657317
Si Si3 0.252196 0.088048 0.884240
Si Si4 0.886117 0.587013 0.224593
Si Si5 0.791499 0.309002 0.303354
Si Si6 0.083338 0.304422 0.371018
O O1 0.185580 0.631268 0.153753
O O2 0.176998 0.773607 0.180995
O O3 0.118142 0.686642 0.280137
O O4 0.000000 0.694136 0.000000
O O5 0.500000 0.648101 0.500000
O O6 0.635921 0.624517 0.785220
O O7 0.628059 0.748193 0.674505
O O8 0.472270 0.724197 0.657362
O O9 0.247020 0.000000 0.860220
O O10 0.318176 0.101085 0.054155
O O11 0.908280 0.500000 0.253223
O O12 0.818221 0.616690 0.263463
O O13 0.993871 0.634041 0.315345
O O14 0.822857 0.313660 0.457146
#
# Coordination Sequence:
#
# PCOD9184774 Si02
#       6
#     8   8   8   8   8   8
#     4  11  21  33  53  77 104 136 166 204 257 304
#     4   8  17  33  54  76  99 131 173 213 248 291
#     4  10  21  34  50  76 107 135 167 207 252 302
#     4  10  20  34  54  78 103 133 169 209 251 298
#     4   9  20  34  53  76 103 132 170 212 247 293
#     4  10  19  34  54  80 103 128 166 213 253 299
#
# _framework density 17.034998999999999
#
# number of rings (size 3 to 8) (size 9 to 14) (size 15 to 20)
#    0.000    2.333    1.667    2.000    2.333    4.667 
#    0.000    0.000    0.000    1.500    0.000    0.000 
#    0.000    0.000    0.000    0.000    0.000    0.000 
#
# Total GULP energy -133808.312937 kJ/mol
# GULP energy per Si atom -5575.346372 kJ/mol
# Density = 1.699623 g / cm^3
# Si number density = 17.034999 Si / 1000 Ang^3
#
#
#
# Elastic Constant Matrix: (Units=GPa)
#
#
# Indices 1 2 3 4 5 6 
#
# 1 53.5469 17.8647 17.4537 0.0000 -13.6541 0.0000
# 2 17.8647 61.1990 36.6027 0.0000 5.5961 0.0000
# 3 17.4537 36.6027 63.2327 0.0000 -5.7874 0.0000
# 4 0.0000 0.0000 0.0000 17.7573 0.0000 1.5993
# 5 -13.6541 5.5961 -5.7874 0.0000 30.1456 0.0000
# 6 0.0000 0.0000 0.0000 1.5993 0.0000 15.6508
#
#
#
# Elastic Compliance Matrix: (Units=1/GPa)
#
#
# Indices 1 2 3 4 5 6 
#
# 1 0.024792 -0.007578 -0.001324 0.000000 0.012382 0.000000
# 2 -0.007578 0.029119 -0.015852 0.000000 -0.011881 0.000000
# 3 -0.001324 -0.015852 0.026028 0.000000 0.007340 0.000000
# 4 0.000000 0.000000 0.000000 0.056838 0.000000 -0.005808
# 5 0.012382 -0.011881 0.007340 0.000000 0.042395 0.000000
# 6 0.000000 0.000000 0.000000 -0.005808 0.000000 0.064488
#
#
# Mechanical properties :
#
#
# Convention : Reuss Voigt Hill
#
# Bulk Modulus (GPa) = 32.85896 35.75786 34.30841
# Shear Modulus (GPa) = 16.48477 19.78126 18.13302
#
# Velocity S-wave (km/s) = 3.11416 3.41135 3.26614
# Velocity P-wave (km/s) = 5.67993 6.04589 5.86577
#
# Compressibility (1/GPa) = 0.03043310
#
# Stress axis : x y z
#
# Youngs Moduli (GPa) = 40.33550 34.34145 38.42076
#
# Poissons Ratio (x) = 0.26023 0.05085
# Poissons Ratio (y) = 0.30565 0.60903
# Poissons Ratio (z) = 0.05339 0.54437
#
# Static dielectric constant tensor:
#      x y z
#    x 1.579940 0.000000 0.005680 
#    y 0.000000 1.554560 0.000000 
#    z 0.005680 0.000000 1.588690 
# 
# From -- ./inp_files/157640.got.cif
#   From: 2010.05.17/outbox.cif.g08.bks.cpg/sg12_79_cif.got.tgz:157640.got - 2010.06.03 13:09:07.
