data_PCOD9184818
_publ_section_title
;
Structure prediction by ZEFSAII (Michael W. Deem and Ramdas Pophale) SiO2 
 PCOD9184818
Probable space group: C 2/M
;
_chemical_formula_sum "Si O2"
_cell_formula_units_Z 56
_cell_length_a 18.414469
_cell_length_b 17.384485
_cell_length_c 9.017880
_cell_angle_alpha 90.000000
_cell_angle_beta 109.631906
_cell_angle_gamma 90.000000
_cell_volume 2719.046776
_symmetry_space_group_name_H-M "C 2/M"
_symmetry_group_IT_number 12
_symmetry_cell_setting 'monoclinic'
loop_
_space_group_symop_operation_xyz
x,y,z
-x,y,-z
-x,-y,-z
x,-y,z
1/2+x,1/2+y,z
1/2-x,1/2+y,-z
1/2-x,1/2-y,-z
1/2+x,1/2-y,z
loop_
_atom_site_type_symbol
_atom_site_label
_atom_site_fract_x
_atom_site_fract_y
_atom_site_fract_z
Si Si1 0.459211 0.417984 0.627519
Si Si2 0.643252 0.826428 0.801566
Si Si3 0.303087 0.363958 0.574098
Si Si4 0.554973 0.311414 0.901083
Si Si5 0.855358 0.692067 0.557325
Si Si6 0.299976 0.589264 0.909895
Si Si7 0.505334 0.915141 0.324813
O O1 0.500000 0.419552 0.500000
O O2 0.470144 0.500000 0.714390
O O3 0.369449 0.406518 0.532675
O O4 0.495991 0.349189 0.744603
O O5 0.606761 0.755739 0.865967
O O6 0.644054 0.805635 0.624283
O O7 0.727350 0.856928 0.906530
O O8 0.580562 0.893682 0.782220
O O9 0.217756 0.360690 0.451271
O O10 0.333987 0.275800 0.604854
O O11 0.299011 0.403049 0.731082
O O12 0.500000 0.287543 0.000000
O O13 0.617858 0.376250 0.986742
O O14 0.933539 0.652451 0.666008
O O15 0.290692 0.500000 0.946595
O O16 0.500000 0.917479 0.500000
O O17 0.529393 0.000000 0.289477
#
# Coordination Sequence:
#
# PCOD9184818 Si02
#       7
#     8   8   8   8   8   8   8
#     4  11  23  38  59  86 122 162 200 250 311 365
#     4  10  21  38  60  87 119 162 205 249 299 361
#     4  10  19  34  54  85 120 158 197 253 302 359
#     4  12  24  39  62  93 123 162 203 252 297 370
#     4   9  19  33  56  87 120 158 203 253 300 357
#     4  11  23  39  62  89 119 156 204 259 304 358
#     4   9  17  31  55  86 116 150 197 248 297 350
#
# _framework density 20.595452000000002
#
# number of rings (size 3 to 8) (size 9 to 14) (size 15 to 20)
#    0.000    1.714    1.429    3.429    0.000    5.714 
#    0.000    0.000    0.000    1.714    0.000    0.000 
#    0.000    0.000    0.000    0.000    0.000    0.000 
#
# Total GULP energy -156207.846105 kJ/mol
# GULP energy per Si atom -5578.851647 kJ/mol
# Density = 2.054858 g / cm^3
# Si number density = 20.595452 Si / 1000 Ang^3
#
#
#
# Elastic Constant Matrix: (Units=GPa)
#
#
# Indices 1 2 3 4 5 6 
#
# 1 148.1770 28.4022 16.2494 0.0000 4.4311 0.0000
# 2 28.4022 82.6079 4.4552 0.0000 -10.4970 0.0000
# 3 16.2494 4.4552 14.9867 0.0000 3.9985 0.0000
# 4 0.0000 0.0000 0.0000 32.0768 0.0000 -6.4147
# 5 4.4311 -10.4970 3.9985 0.0000 26.1382 0.0000
# 6 0.0000 0.0000 0.0000 -6.4147 0.0000 -29.1664
#
#
#
# Elastic Compliance Matrix: (Units=1/GPa)
#
#
# Indices 1 2 3 4 5 6 
#
# 1 0.008117 -0.002528 -0.007727 0.000000 -0.001209 0.000000
# 2 -0.002528 0.013973 -0.003154 0.000000 0.006523 0.000000
# 3 -0.007727 -0.003154 0.079265 0.000000 -0.012082 0.000000
# 4 0.000000 0.000000 0.000000 0.029862 0.000000 -0.006568
# 5 -0.001209 0.006523 -0.012082 0.000000 0.042931 0.000000
# 6 0.000000 0.000000 0.000000 -0.006568 0.000000 -0.032842
#
#
# Mechanical properties :
#
#
# Convention : Reuss Voigt Hill
#
# Bulk Modulus (GPa) = 13.41579 38.22056 25.81818
# Shear Modulus (GPa) = 25.91109 18.92070 22.41589
#
# Velocity S-wave (km/s) = 3.55081 3.03427 3.30266
# Velocity P-wave (km/s) = 4.83106 5.55642 5.20639
#
# Compressibility (1/GPa) = 0.07453902
#
# Stress axis : x y z
#
# Youngs Moduli (GPa) = 123.20393 71.56495 12.61597
#
# Poissons Ratio (x) = 0.18089 0.09748
# Poissons Ratio (y) = 0.31141 0.03979
# Poissons Ratio (z) = 0.95194 0.22569
#
# Static dielectric constant tensor:
#      x y z
#    x 1.744890 0.000000 0.015630 
#    y 0.000000 1.764060 0.000000 
#    z 0.015630 0.000000 1.721470 
# 
# From -- ./inp_files/76021.got.cif
#   From: 2010.05.17/outbox.cif.g08.bks.cpg/sg12_39_cif.got.tgz:76021.got - 2010.06.03 13:09:07.
