data_PCOD9184411
_publ_section_title
;
Structure prediction by ZEFSAII (Michael W. Deem and Ramdas Pophale) SiO2 
 PCOD9184411
Probable space group: C 2/M
;
_chemical_formula_sum "Si O2"
_cell_formula_units_Z 64
_cell_length_a 11.444366
_cell_length_b 29.252240
_cell_length_c 17.299858
_cell_angle_alpha 90.000000
_cell_angle_beta 150.104889
_cell_angle_gamma 90.000000
_cell_volume 2886.578908
_symmetry_space_group_name_H-M "C 2/M"
_symmetry_group_IT_number 12
_symmetry_cell_setting 'monoclinic'
loop_
_space_group_symop_operation_xyz
x,y,z
-x,y,-z
-x,-y,-z
x,-y,z
1/2+x,1/2+y,z
1/2-x,1/2+y,-z
1/2-x,1/2-y,-z
1/2+x,1/2-y,z
loop_
_atom_site_type_symbol
_atom_site_label
_atom_site_fract_x
_atom_site_fract_y
_atom_site_fract_z
Si Si1 0.749492 0.779375 0.184343
Si Si2 0.370648 0.652324 0.677202
Si Si3 0.742487 0.049090 0.965645
Si Si4 0.535867 0.449332 0.743580
Si Si5 0.782031 0.069372 0.319927
Si Si6 0.095719 0.295508 0.404228
Si Si7 0.378271 0.169759 0.744462
Si Si8 0.917023 0.852448 0.037212
O O1 0.715573 0.790464 0.255232
O O2 0.919784 0.817399 0.242580
O O3 0.853859 0.728583 0.242377
O O4 0.500000 0.782346 0.000000
O O5 0.391127 0.598153 0.668976
O O6 0.141885 0.674107 0.505847
O O7 0.410789 0.657229 0.792132
O O8 0.465923 0.051331 0.791250
O O9 0.836661 0.000000 0.994347
O O10 0.781262 0.052575 0.080532
O O11 0.872477 0.092926 0.007670
O O12 0.417960 0.500000 0.682166
O O13 0.661986 0.447378 0.733595
O O14 0.738742 0.123631 0.292481
O O15 0.000000 0.058602 0.500000
O O16 0.250000 0.250000 0.500000
O O17 0.178845 0.324101 0.377945
O O18 0.660142 0.166753 0.912248
O O19 0.000000 0.838797 0.000000
#
# Coordination Sequence:
#
# PCOD9184411 Si02
#       8
#     8   8   8   8   8   8   8   8
#     4  11  22  42  71  96 130 176 221 273 336 413
#     4  10  20  42  65  95 133 176 217 271 344 389
#     4   9  20  36  57  90 129 170 224 271 318 386
#     4  10  19  33  60  95 131 172 218 267 325 401
#     4  11  21  32  57  90 136 174 208 261 336 396
#     4  10  25  43  62  95 127 171 220 271 327 402
#     4  11  23  42  65  92 129 174 215 267 338 395
#     4  10  22  41  66  90 126 175 223 269 329 399
#
# _framework density 22.171575000000001
#
# number of rings (size 3 to 8) (size 9 to 14) (size 15 to 20)
#    0.000    1.750    2.500    1.500    1.750    3.250 
#    6.750    0.000    0.000    0.000    0.000    0.000 
#    0.000   14.500    0.000    0.000    0.000    0.000 
#
# Total GULP energy -178733.623205 kJ/mol
# GULP energy per Si atom -5585.425725 kJ/mol
# Density = 2.212111 g / cm^3
# Si number density = 22.171575 Si / 1000 Ang^3
#
#
#
# Elastic Constant Matrix: (Units=GPa)
#
#
# Indices 1 2 3 4 5 6 
#
# 1 102.4932 26.4821 30.7669 -0.0001 -22.0818 -0.0001
# 2 26.4821 130.7023 36.2999 0.0000 -0.3192 0.0000
# 3 30.7669 36.2999 85.0411 -0.0007 -8.1217 -0.0001
# 4 -0.0001 0.0000 -0.0007 10.6884 -0.0003 -10.3106
# 5 -22.0818 -0.3192 -8.1217 -0.0003 22.9353 -0.0001
# 6 -0.0001 0.0000 -0.0001 -10.3106 -0.0001 17.7364
#
#
#
# Elastic Compliance Matrix: (Units=1/GPa)
#
#
# Indices 1 2 3 4 5 6 
#
# 1 0.013779 -0.001929 -0.002999 0.000001 0.012178 0.000001
# 2 -0.001929 0.008984 -0.003418 -0.000001 -0.002943 -0.000001
# 3 -0.002999 -0.003418 0.014513 0.000003 0.002205 0.000002
# 4 0.000001 -0.000001 0.000003 0.213014 0.000005 0.123831
# 5 0.012178 -0.002943 0.002205 0.000005 0.056065 0.000003
# 6 0.000001 -0.000001 0.000002 0.123831 0.000003 0.128367
#
#
# Mechanical properties :
#
#
# Convention : Reuss Voigt Hill
#
# Bulk Modulus (GPa) = 48.57942 56.14828 52.36385
# Shear Modulus (GPa) = 10.91045 25.25119 18.08082
#
# Velocity S-wave (km/s) = 2.22072 3.37842 2.85879
# Velocity P-wave (km/s) = 5.34170 6.37163 5.87926
#
# Compressibility (1/GPa) = 0.02058485
#
# Stress axis : x y z
#
# Youngs Moduli (GPa) = 72.57433 111.30993 68.90204
#
# Poissons Ratio (x) = 0.21475 0.20661
# Poissons Ratio (y) = 0.14002 0.23550
# Poissons Ratio (z) = 0.21762 0.38044
#
# Static dielectric constant tensor:
#      x y z
#    x 1.788210 0.000000 0.039790 
#    y 0.000000 1.831500 0.000000 
#    z 0.039790 0.000000 1.843590 
# 
# From -- ./inp_files/266295.got.cif
#   From: 2010.05.17/outbox.cif.g08.bks.cpg/sg12_134_cif.got.tgz:266295.got - 2010.06.03 13:09:07.
