data_PCOD9184237
_publ_section_title
;
Structure prediction by ZEFSAII (Michael W. Deem and Ramdas Pophale) SiO2 
 PCOD9184237
Probable space group: C 2/M
;
_chemical_formula_sum "Si O2"
_cell_formula_units_Z 58
_cell_length_a 24.697090
_cell_length_b 9.213809
_cell_length_c 14.248676
_cell_angle_alpha 90.000000
_cell_angle_beta 86.099859
_cell_angle_gamma 90.000000
_cell_volume 3234.838153
_symmetry_space_group_name_H-M "C 2/M"
_symmetry_group_IT_number 12
_symmetry_cell_setting 'monoclinic'
loop_
_space_group_symop_operation_xyz
x,y,z
-x,y,-z
-x,-y,-z
x,-y,z
1/2+x,1/2+y,z
1/2-x,1/2+y,-z
1/2-x,1/2-y,-z
1/2+x,1/2-y,z
loop_
_atom_site_type_symbol
_atom_site_label
_atom_site_fract_x
_atom_site_fract_y
_atom_site_fract_z
Si Si1 0.602450 0.161069 0.912883
Si Si2 0.000000 0.500000 0.000000
Si Si3 0.071130 0.674305 0.706608
Si Si4 0.257333 0.827108 0.724890
Si Si5 0.166659 0.173835 0.586057
Si Si6 0.031521 0.673326 0.398854
Si Si7 0.147028 0.826949 0.375852
Si Si8 0.207872 0.172349 0.936239
O O1 0.584827 0.214849 0.811703
O O2 0.647367 0.263356 0.952509
O O3 0.628724 0.000000 0.896693
O O4 0.547502 0.124446 0.975375
O O5 0.076718 0.500000 0.698097
O O6 0.113317 0.750117 0.632803
O O7 0.010333 0.707639 0.680007
O O8 0.216700 0.782318 0.645886
O O9 0.313495 0.743359 0.705277
O O10 0.227874 0.800054 0.827079
O O11 0.267070 0.000000 0.716088
O O12 0.171756 0.208611 0.475922
O O13 0.160623 0.000000 0.595339
O O14 0.042607 0.500000 0.397587
O O15 0.087078 0.759648 0.382384
O O16 0.000000 0.706132 0.500000
O O17 0.144723 0.000000 0.366235
O O18 0.208051 0.000000 0.951751
O O19 0.250000 0.250000 0.000000
#
# Coordination Sequence:
#
# PCOD9184237 Si02
#       8
#     8   2   8   8   8   8   8   8
#     4   9  19  39  63  89 119 152 198 249 305 370
#     4   8  20  40  66  92 122 156 194 258 314 368
#     4  10  19  33  58  85 108 152 200 241 285 346
#     4  10  22  40  59  83 116 157 198 241 300 362
#     4  10  20  35  57  84 118 153 195 245 295 345
#     4  10  20  35  53  77 113 156 203 243 285 352
#     4  11  23  36  54  85 122 159 197 252 301 346
#     4  11  23  41  66  94 122 160 202 254 313 376
#
# _framework density 17.9298
#
# number of rings (size 3 to 8) (size 9 to 14) (size 15 to 20)
#    0.414    1.517    2.759    1.241    0.000    3.034 
#    2.483    0.345    0.000    0.000    0.000    0.000 
#    0.000    0.000    0.000    0.000    0.000    0.000 
#
# Total GULP energy -161474.890409 kJ/mol
# GULP energy per Si atom -5568.099669 kJ/mol
# Density = 1.788899 g / cm^3
# Si number density = 17.929800 Si / 1000 Ang^3
#
#
#
# Elastic Constant Matrix: (Units=GPa)
#
#
# Indices 1 2 3 4 5 6 
#
# 1 131.4237 56.7921 48.0996 0.0000 -7.0555 0.0000
# 2 56.7921 39.0532 31.1347 0.0000 -1.4406 0.0000
# 3 48.0996 31.1347 40.4266 0.0000 7.5228 0.0000
# 4 0.0000 0.0000 0.0000 23.4356 0.0000 -1.4359
# 5 -7.0555 -1.4406 7.5228 0.0000 31.4980 0.0000
# 6 0.0000 0.0000 0.0000 -1.4359 0.0000 34.7386
#
#
#
# Elastic Compliance Matrix: (Units=1/GPa)
#
#
# Indices 1 2 3 4 5 6 
#
# 1 0.021402 -0.025519 -0.006788 0.000000 0.005248 0.000000
# 2 -0.025519 0.105412 -0.053011 0.000000 0.011766 0.000000
# 3 -0.006788 -0.053011 0.077832 0.000000 -0.022534 0.000000
# 4 0.000000 0.000000 0.000000 0.042779 0.000000 0.001768
# 5 0.005248 0.011766 -0.022534 0.000000 0.038844 0.000000
# 6 0.000000 0.000000 0.000000 0.001768 0.000000 0.028860
#
#
# Mechanical properties :
#
#
# Convention : Reuss Voigt Hill
#
# Bulk Modulus (GPa) = 29.40150 53.66180 41.53165
# Shear Modulus (GPa) = 10.05833 22.92625 16.49229
#
# Velocity S-wave (km/s) = 2.37108 3.57973 3.03615
# Velocity P-wave (km/s) = 4.89180 6.86147 5.95858
#
# Compressibility (1/GPa) = 0.03401187
#
# Stress axis : x y z
#
# Youngs Moduli (GPa) = 46.72374 9.48657 12.84819
#
# Poissons Ratio (x) = 0.24209 0.08721
# Poissons Ratio (y) = 1.19233 0.68109
# Poissons Ratio (z) = 0.31715 0.50289
#
# Static dielectric constant tensor:
#      x y z
#    x 1.595030 0.000000 0.016270 
#    y 0.000000 1.596960 0.000000 
#    z 0.016270 0.000000 1.623620 
# 
# From -- ./inp_files/237633.got.cif
#   From: 2010.05.17/outbox.cif.g08.bks.cpg/sg12_119_cif.got.tgz:237633.got - 2010.06.03 13:09:07.
