data_PCOD9184679
_publ_section_title
;
Structure prediction by ZEFSAII (Michael W. Deem and Ramdas Pophale) SiO2 
 PCOD9184679
Probable space group: C 2/M
;
_chemical_formula_sum "Si O2"
_cell_formula_units_Z 40
_cell_length_a 24.401374
_cell_length_b 11.451457
_cell_length_c 22.940266
_cell_angle_alpha 90.000000
_cell_angle_beta 162.927610
_cell_angle_gamma 90.000000
_cell_volume 1881.912870
_symmetry_space_group_name_H-M "C 2/M"
_symmetry_group_IT_number 12
_symmetry_cell_setting 'monoclinic'
loop_
_space_group_symop_operation_xyz
x,y,z
-x,y,-z
-x,-y,-z
x,-y,z
1/2+x,1/2+y,z
1/2-x,1/2+y,-z
1/2-x,1/2-y,-z
1/2+x,1/2-y,z
loop_
_atom_site_type_symbol
_atom_site_label
_atom_site_fract_x
_atom_site_fract_y
_atom_site_fract_z
Si Si1 0.781475 0.871085 0.847793
Si Si2 0.233571 0.630461 0.369884
Si Si3 0.266603 0.367974 0.697869
Si Si4 0.485990 0.373757 0.244305
Si Si5 0.333521 0.805285 0.995182
O O1 0.718194 0.855574 0.716954
O O2 0.722365 0.000000 0.807487
O O3 0.730829 0.770799 0.841367
O O4 0.007536 0.870049 0.076163
O O5 0.293557 0.500000 0.409325
O O6 0.287925 0.748925 0.390740
O O7 0.326285 0.643581 0.527977
O O8 0.008426 0.628648 0.145033
O O9 0.206878 0.500000 0.617829
O O10 0.494785 0.500000 0.224073
O O11 0.434689 0.280916 0.143799
O O12 0.320522 0.371629 0.124002
#
# Coordination Sequence:
#
# PCOD9184679 Si02
#       5
#     8   8   8   8   8
#     4   8  14  28  52  77 101 132 172 216 258 299
#     4  10  20  35  54  78 107 137 169 209 257 306
#     4   8  15  30  52  78 104 133 172 213 254 305
#     4  10  21  35  51  75 106 136 171 214 256 303
#     4  10  19  34  54  75 100 136 175 210 255 305
#
# _framework density 21.254971000000001
#
# number of rings (size 3 to 8) (size 9 to 14) (size 15 to 20)
#    0.000    2.800    0.000    3.000    0.000    0.800 
#    0.000   16.000    0.000    4.800    0.000    0.000 
#    0.000    0.000    0.000    0.000    0.000    0.000 
#
# Total GULP energy -111488.575575 kJ/mol
# GULP energy per Si atom -5574.428779 kJ/mol
# Density = 2.120659 g / cm^3
# Si number density = 21.254971 Si / 1000 Ang^3
#
#
#
# Elastic Constant Matrix: (Units=GPa)
#
#
# Indices 1 2 3 4 5 6 
#
# 1 39.9646 45.5113 29.4707 0.0033 -15.0152 -0.0004
# 2 45.5113 163.6128 1.5545 0.0010 -12.1100 0.0088
# 3 29.4707 1.5545 -8.7546 0.0009 52.4562 0.0056
# 4 0.0033 0.0010 0.0009 13.2691 0.0025 6.5499
# 5 -15.0152 -12.1100 52.4562 0.0025 7.9784 0.0031
# 6 -0.0004 0.0088 0.0056 6.5499 0.0031 -70.4682
#
#
#
# Elastic Compliance Matrix: (Units=1/GPa)
#
#
# Indices 1 2 3 4 5 6 
#
# 1 0.024050 -0.007653 0.006961 -0.000003 -0.012123 -0.000001
# 2 -0.007653 0.008538 -0.000814 0.000000 0.003911 0.000001
# 3 0.006961 -0.000814 -0.000491 -0.000005 0.015095 0.000000
# 4 -0.000003 0.000000 -0.000005 0.072057 -0.000001 0.006698
# 5 -0.012123 0.003911 0.015095 -0.000001 0.009214 0.000002
# 6 -0.000001 0.000001 0.000000 0.006698 0.000002 -0.013568
#
#
# Mechanical properties :
#
#
# Convention : Reuss Voigt Hill
#
# Bulk Modulus (GPa) = 34.38406 38.65508 36.51957
# Shear Modulus (GPa) = 44.44194 -1.95837 21.24179
#
# Velocity S-wave (km/s) = 4.57759 -0.96092 3.16473
# Velocity P-wave (km/s) = 6.64464 4.12246 5.52928
#
# Compressibility (1/GPa) = 0.02908324
#
# Stress axis : x y z
#
# Youngs Moduli (GPa) = 41.58078 117.12303 -2035.25529
#
# Poissons Ratio (x) = 0.89636 14.16750
# Poissons Ratio (y) = 0.31822 -1.65748
# Poissons Ratio (z) = -0.28945 0.09538
#
# Static dielectric constant tensor:
#      x y z
#    x 1.753840 0.000000 0.029190 
#    y 0.000000 1.805030 0.000000 
#    z 0.029190 0.000000 1.763310 
# 
# From -- ./inp_files/93716.got.cif
#   From: 2010.05.17/outbox.cif.g08.bks.cpg/sg12_47_cif.got.tgz:93716.got - 2010.06.03 13:09:07.
