data_PCOD9184651
_publ_section_title
;
Structure prediction by ZEFSAII (Michael W. Deem and Ramdas Pophale) SiO2 
 PCOD9184651
Probable space group: C 2/M
;
_chemical_formula_sum "Si O2"
_cell_formula_units_Z 48
_cell_length_a 18.259602
_cell_length_b 15.650397
_cell_length_c 16.283450
_cell_angle_alpha 90.000000
_cell_angle_beta 151.370843
_cell_angle_gamma 90.000000
_cell_volume 2229.586059
_symmetry_space_group_name_H-M "C 2/M"
_symmetry_group_IT_number 12
_symmetry_cell_setting 'monoclinic'
loop_
_space_group_symop_operation_xyz
x,y,z
-x,y,-z
-x,-y,-z
x,-y,z
1/2+x,1/2+y,z
1/2-x,1/2+y,-z
1/2-x,1/2-y,-z
1/2+x,1/2-y,z
loop_
_atom_site_type_symbol
_atom_site_label
_atom_site_fract_x
_atom_site_fract_y
_atom_site_fract_z
Si Si1 0.155793 0.819650 0.008823
Si Si2 0.624282 0.332702 0.550780
Si Si3 0.335558 0.500000 0.624399
Si Si4 0.350878 0.000000 0.011823
Si Si5 0.666696 0.338561 0.826019
Si Si6 0.309778 0.500000 0.974230
Si Si7 0.200027 0.803915 0.367831
Si Si8 0.203686 0.500000 0.312552
O O1 0.194490 0.832108 0.950452
O O2 0.978865 0.792872 0.831922
O O3 0.189802 0.913153 0.077551
O O4 0.266141 0.746213 0.149020
O O5 0.500000 0.330364 0.500000
O O6 0.511715 0.350397 0.362743
O O7 0.706168 0.244057 0.610996
O O8 0.738658 0.412347 0.672156
O O9 0.520576 0.500000 0.816447
O O10 0.278514 0.406973 0.602754
O O11 0.282844 0.500000 0.479305
O O12 0.524305 0.000000 0.154549
O O13 0.263579 0.081906 0.892262
O O14 0.318483 0.000000 0.079500
O O15 0.250000 0.750000 0.500000
#
# Coordination Sequence:
#
# PCOD9184651 Si02
#       8
#     8   8   4   4   8   4   8   4
#     4   9  17  31  57  84 111 141 190 251 287 330
#     4  12  25  40  57  82 123 166 194 236 302 366
#     4  10  20  33  64  91 119 149 198 256 285 338
#     4  10  20  30  53  82 112 145 186 241 288 349
#     4  10  19  34  53  80 113 147 191 241 295 341
#     4   8  16  32  50  87 117 139 175 240 311 334
#     4  11  19  36  60  89 116 151 204 245 287 343
#     4  12  21  37  59  88 116 155 203 239 296 358
#
# _framework density 21.528661
#
# number of rings (size 3 to 8) (size 9 to 14) (size 15 to 20)
#    0.000    1.667    3.333    3.750    0.000    1.333 
#    0.000    4.583    0.000    0.000    0.000    3.500 
#    0.000    0.000    0.000    0.000    0.000    0.000 
#
# Total GULP energy -133845.825017 kJ/mol
# GULP energy per Si atom -5576.909376 kJ/mol
# Density = 2.147966 g / cm^3
# Si number density = 21.528661 Si / 1000 Ang^3
#
#
#
# Elastic Constant Matrix: (Units=GPa)
#
#
# Indices 1 2 3 4 5 6 
#
# 1 74.3215 52.6989 17.3145 0.0002 33.7118 0.0001
# 2 52.6989 189.1473 57.9786 0.0002 45.1079 0.0001
# 3 17.3145 57.9786 73.1399 0.0003 37.4806 0.0001
# 4 0.0002 0.0002 0.0003 32.4886 0.0002 21.2995
# 5 33.7118 45.1079 37.4806 0.0002 36.9960 0.0000
# 6 0.0001 0.0001 0.0001 21.2995 0.0000 16.8830
#
#
#
# Elastic Compliance Matrix: (Units=1/GPa)
#
#
# Indices 1 2 3 4 5 6 
#
# 1 0.030131 -0.004055 0.015843 0.000000 -0.038563 0.000000
# 2 -0.004055 0.008246 -0.004821 0.000000 -0.001476 0.000000
# 3 0.015843 -0.004821 0.037704 -0.000001 -0.046756 0.000001
# 4 0.000000 0.000000 -0.000001 0.178024 0.000000 -0.224594
# 5 -0.038563 -0.001476 -0.046756 0.000000 0.111337 0.000000
# 6 0.000000 0.000000 0.000001 -0.224594 0.000000 0.342577
#
#
# Mechanical properties :
#
#
# Convention : Reuss Voigt Hill
#
# Bulk Modulus (GPa) = 11.10915 65.84364 38.47640
# Shear Modulus (GPa) = 6.90522 31.18130 19.04326
#
# Velocity S-wave (km/s) = 1.79288 3.80986 2.97737
# Velocity P-wave (km/s) = 3.07527 7.07135 5.45258
#
# Compressibility (1/GPa) = 0.09001587
#
# Stress axis : x y z
#
# Youngs Moduli (GPa) = 33.18820 121.26864 26.52265
#
# Poissons Ratio (x) = 0.49170 -0.42019
# Poissons Ratio (y) = 0.13457 0.12786
# Poissons Ratio (z) = -0.52579 0.58460
#
# Static dielectric constant tensor:
#      x y z
#    x 1.842920 0.000000 -0.050040 
#    y 0.000000 1.833540 0.000000 
#    z -0.050040 0.000000 1.767100 
# 
# From -- ./inp_files/278104.got.cif
#   From: 2010.05.17/outbox.cif.g08.bks.cpg/sg12_140_cif.got.tgz:278104.got - 2010.06.03 13:09:07.
