data_PCOD9184914
_publ_section_title
;
Structure prediction by ZEFSAII (Michael W. Deem and Ramdas Pophale) SiO2 
 PCOD9184914
Probable space group: C 2/M
;
_chemical_formula_sum "Si O2"
_cell_formula_units_Z 64
_cell_length_a 31.928773
_cell_length_b 7.512533
_cell_length_c 16.875393
_cell_angle_alpha 90.000000
_cell_angle_beta 134.691593
_cell_angle_gamma 90.000000
_cell_volume 2877.614851
_symmetry_space_group_name_H-M "C 2/M"
_symmetry_group_IT_number 12
_symmetry_cell_setting 'monoclinic'
loop_
_space_group_symop_operation_xyz
x,y,z
-x,y,-z
-x,-y,-z
x,-y,z
1/2+x,1/2+y,z
1/2-x,1/2+y,-z
1/2-x,1/2-y,-z
1/2+x,1/2-y,z
loop_
_atom_site_type_symbol
_atom_site_label
_atom_site_fract_x
_atom_site_fract_y
_atom_site_fract_z
Si Si1 0.812649 0.717856 0.309141
Si Si2 0.817675 0.794183 0.854040
Si Si3 0.514421 0.218901 0.196909
Si Si4 0.188454 0.286225 0.874539
Si Si5 0.404928 0.799290 0.831650
Si Si6 0.817447 0.212016 0.576673
Si Si7 0.397669 0.201061 0.548559
Si Si8 0.891363 0.297393 0.096495
O O1 0.816018 0.500000 0.317739
O O2 0.747893 0.769292 0.257395
O O3 0.812531 0.774540 0.217361
O O4 0.870752 0.783516 0.433082
O O5 0.869057 0.782303 0.856860
O O6 0.810646 0.000000 0.866706
O O7 0.840411 0.699869 0.962987
O O8 0.539833 0.278283 0.144979
O O9 0.554903 0.276973 0.325734
O O10 0.448958 0.279625 0.130669
O O11 0.517972 0.000000 0.197545
O O12 0.182424 0.500000 0.863878
O O13 0.136045 0.215385 0.860894
O O14 0.250000 0.250000 0.000000
O O15 0.355999 0.797070 0.697347
O O16 0.420313 0.000000 0.877436
O O17 0.750000 0.250000 0.500000
O O18 0.839267 0.298158 0.524881
O O19 0.828070 0.000000 0.589801
O O20 0.418173 0.000000 0.558659
O O21 0.908551 0.500000 0.139017
#
# Coordination Sequence:
#
# PCOD9184914 Si02
#       8
#     8   8   8   8   8   8   8   8
#     4   9  18  32  52  78 107 134 167 216 271 314
#     4  11  21  33  51  78 111 140 176 223 271 318
#     4   8  17  34  54  75 102 139 180 219 262 315
#     4  10  19  34  55  79 106 136 171 215 268 324
#     4  10  20  35  53  74 104 141 181 221 266 317
#     4  11  20  31  48  73 105 140 181 223 266 314
#     4   9  17  33  54  73 100 140 176 215 268 319
#     4  10  20  35  55  77 103 139 180 219 264 326
#
# _framework density 22.240642000000001
#
# number of rings (size 3 to 8) (size 9 to 14) (size 15 to 20)
#    0.000    2.250    1.250    3.375    0.000    1.500 
#    0.000    7.500    0.000    3.750    0.000    0.000 
#    0.000    6.000    0.000    0.000    0.000    0.000 
#
# Total GULP energy -178428.295952 kJ/mol
# GULP energy per Si atom -5575.884249 kJ/mol
# Density = 2.219002 g / cm^3
# Si number density = 22.240642 Si / 1000 Ang^3
#
#
#
# Elastic Constant Matrix: (Units=GPa)
#
#
# Indices 1 2 3 4 5 6 
#
# 1 112.9051 -0.9790 13.9647 0.0000 -3.7083 0.0000
# 2 -0.9790 75.4154 -6.9473 0.0000 0.8790 0.0000
# 3 13.9647 -6.9473 72.8543 0.0000 -15.4315 0.0000
# 4 0.0000 0.0000 0.0000 10.4351 0.0000 9.9169
# 5 -3.7083 0.8790 -15.4315 0.0000 34.8582 0.0000
# 6 0.0000 0.0000 0.0000 9.9169 0.0000 -36.8008
#
#
#
# Elastic Compliance Matrix: (Units=1/GPa)
#
#
# Indices 1 2 3 4 5 6 
#
# 1 0.009074 -0.000041 -0.001698 0.000000 0.000215 0.000000
# 2 -0.000041 0.013380 0.001337 0.000000 0.000250 0.000000
# 3 -0.001698 0.001337 0.015596 0.000000 0.006690 0.000000
# 4 0.000000 0.000000 0.000000 0.076292 0.000000 0.020559
# 5 0.000215 0.000250 0.006690 0.000000 0.031666 0.000000
# 6 0.000000 0.000000 0.000000 0.020559 0.000000 -0.021633
#
#
# Mechanical properties :
#
#
# Convention : Reuss Voigt Hill
#
# Bulk Modulus (GPa) = 26.84924 30.36129 28.60526
# Shear Modulus (GPa) = 36.33897 18.70759 27.52328
#
# Velocity S-wave (km/s) = 4.04654 2.90340 3.52166
# Velocity P-wave (km/s) = 5.82503 4.99204 5.42455
#
# Compressibility (1/GPa) = 0.03724501
#
# Stress axis : x y z
#
# Youngs Moduli (GPa) = 110.20899 74.74074 64.11933
#
# Poissons Ratio (x) = 0.00307 0.10885
# Poissons Ratio (y) = 0.00453 -0.08571
# Poissons Ratio (z) = 0.18710 -0.09991
#
# Static dielectric constant tensor:
#      x y z
#    x 1.849240 0.000000 -0.010300 
#    y 0.000000 1.890940 0.000000 
#    z -0.010300 0.000000 1.819380 
# 
# From -- ./inp_files/249930.got.cif
#   From: 2010.05.17/outbox.cif.g08.bks.cpg/sg12_125_cif.got.tgz:249930.got - 2010.06.03 13:09:07.
