data_PCOD9184783
_publ_section_title
;
Structure prediction by ZEFSAII (Michael W. Deem and Ramdas Pophale) SiO2 
 PCOD9184783
Probable space group: C 2/M
;
_chemical_formula_sum "Si O2"
_cell_formula_units_Z 32
_cell_length_a 15.037990
_cell_length_b 11.064492
_cell_length_c 18.671715
_cell_angle_alpha 90.000000
_cell_angle_beta 154.272270
_cell_angle_gamma 90.000000
_cell_volume 1348.622500
_symmetry_space_group_name_H-M "C 2/M"
_symmetry_group_IT_number 12
_symmetry_cell_setting 'monoclinic'
loop_
_space_group_symop_operation_xyz
x,y,z
-x,y,-z
-x,-y,-z
x,-y,z
1/2+x,1/2+y,z
1/2-x,1/2+y,-z
1/2-x,1/2-y,-z
1/2+x,1/2-y,z
loop_
_atom_site_type_symbol
_atom_site_label
_atom_site_fract_x
_atom_site_fract_y
_atom_site_fract_z
Si Si1 0.220491 0.000000 0.121010
Si Si2 0.264792 0.000000 0.621759
Si Si3 0.093782 0.243583 0.987825
Si Si4 0.595756 0.000000 0.989191
Si Si5 0.199447 0.730848 0.600005
Si Si6 0.867555 0.500000 0.534655
O O1 0.389697 0.000000 0.305319
O O2 0.228464 0.876333 0.082027
O O3 0.000000 0.000000 0.000000
O O4 0.154212 0.869356 0.542802
O O5 0.412563 0.000000 0.798137
O O6 0.373121 0.000000 0.624160
O O7 0.206642 0.371823 0.059493
O O8 0.903596 0.234061 0.796094
O O9 0.000000 0.247696 0.000000
O O10 0.500000 0.000000 0.000000
O O11 0.226124 0.624617 0.561565
O O12 0.000000 0.694834 0.500000
#
# Coordination Sequence:
#
# PCOD9184783 Si02
#       6
#     4   4   8   4   8   4
#     4  10  19  34  54  80 114 155 196 238 285 350
#     4  10  23  40  60  90 127 156 193 255 312 352
#     4   9  17  32  55  82 110 143 193 249 284 330
#     4   8  16  33  57  79 107 151 194 233 286 352
#     4  11  21  38  64  91 117 161 208 244 292 365
#     4  12  24  39  59  91 127 160 196 250 308 354
#
# _framework density 23.727913999999998
#
# number of rings (size 3 to 8) (size 9 to 14) (size 15 to 20)
#    0.000    2.000    0.000    5.250    0.000    0.000 
#    0.000    8.750    0.000   18.000    0.000    0.000 
#    0.000    0.000    0.000    0.000    0.000    0.000 
#
# Total GULP energy -89310.783803 kJ/mol
# GULP energy per Si atom -5581.923988 kJ/mol
# Density = 2.367391 g / cm^3
# Si number density = 23.727914 Si / 1000 Ang^3
#
#
#
# Elastic Constant Matrix: (Units=GPa)
#
#
# Indices 1 2 3 4 5 6 
#
# 1 67.1598 18.1258 22.4192 0.0013 -22.1186 0.0018
# 2 18.1258 267.9537 60.9887 0.0004 -17.2251 0.0014
# 3 22.4192 60.9887 83.3734 0.0062 -19.0002 0.0096
# 4 0.0013 0.0004 0.0062 -23.1854 0.0033 39.4465
# 5 -22.1186 -17.2251 -19.0002 0.0033 21.3387 0.0011
# 6 0.0018 0.0014 0.0096 39.4465 0.0011 -21.3824
#
#
#
# Elastic Compliance Matrix: (Units=1/GPa)
#
#
# Indices 1 2 3 4 5 6 
#
# 1 0.022671 0.000163 -0.001041 -0.000004 0.022704 -0.000005
# 2 0.000163 0.004492 -0.003092 0.000001 0.001041 0.000001
# 3 -0.001041 -0.003092 0.017215 -0.000009 0.011752 -0.000009
# 4 -0.000004 0.000001 -0.000009 0.020167 -0.000017 0.037204
# 5 0.022704 0.001041 0.011752 -0.000017 0.081702 -0.000019
# 6 -0.000005 0.000001 -0.000009 0.037204 -0.000019 0.021867
#
#
# Mechanical properties :
#
#
# Convention : Reuss Voigt Hill
#
# Bulk Modulus (GPa) = 27.44557 69.06159 48.25358
# Shear Modulus (GPa) = 26.56746 16.48440 21.52593
#
# Velocity S-wave (km/s) = 3.34978 2.63863 3.01524
# Velocity P-wave (km/s) = 5.15298 6.20096 5.70110
#
# Compressibility (1/GPa) = 0.03643576
#
# Stress axis : x y z
#
# Youngs Moduli (GPa) = 44.10954 222.63118 58.09026
#
# Poissons Ratio (x) = -0.03627 0.06049
# Poissons Ratio (y) = -0.00719 0.17963
# Poissons Ratio (z) = 0.04593 0.68843
#
# Static dielectric constant tensor:
#      x y z
#    x 1.915780 0.000000 0.058240 
#    y 0.000000 2.004400 -0.000010 
#    z 0.058240 -0.000010 1.752620 
# 
# From -- ./inp_files/269444.got.cif
#   From: 2010.05.17/outbox.cif.g08.bks.cpg/sg12_135_cif.got.tgz:269444.got - 2010.06.03 13:09:07.
