data_PCOD9184834
_publ_section_title
;
Structure prediction by ZEFSAII (Michael W. Deem and Ramdas Pophale) SiO2 
 PCOD9184834
Probable space group: C 2/M
;
_chemical_formula_sum "Si O2"
_cell_formula_units_Z 64
_cell_length_a 19.609754
_cell_length_b 7.679984
_cell_length_c 21.689142
_cell_angle_alpha 90.000000
_cell_angle_beta 70.789305
_cell_angle_gamma 90.000000
_cell_volume 3084.549229
_symmetry_space_group_name_H-M "C 2/M"
_symmetry_group_IT_number 12
_symmetry_cell_setting 'monoclinic'
loop_
_space_group_symop_operation_xyz
x,y,z
-x,y,-z
-x,-y,-z
x,-y,z
1/2+x,1/2+y,z
1/2-x,1/2+y,-z
1/2-x,1/2-y,-z
1/2+x,1/2-y,z
loop_
_atom_site_type_symbol
_atom_site_label
_atom_site_fract_x
_atom_site_fract_y
_atom_site_fract_z
Si Si1 0.390753 0.707587 0.810900
Si Si2 0.551400 0.713792 0.781442
Si Si3 0.877280 0.209352 0.368377
Si Si4 0.196356 0.709697 0.276286
Si Si5 0.834242 0.208059 0.157846
Si Si6 0.753753 0.205605 0.927434
Si Si7 0.068429 0.291644 0.519257
Si Si8 0.214076 0.713049 0.411906
O O1 0.392826 0.500000 0.819931
O O2 0.469420 0.776401 0.803563
O O3 0.371149 0.738369 0.745370
O O4 0.324865 0.780827 0.871797
O O5 0.550491 0.500000 0.780772
O O6 0.594191 0.767947 0.706911
O O7 0.593790 0.770686 0.830028
O O8 0.930682 0.257203 0.408077
O O9 0.795015 0.272595 0.404972
O O10 0.873793 0.000000 0.366798
O O11 0.199369 0.500000 0.276349
O O12 0.266636 0.775349 0.218401
O O13 0.198641 0.766148 0.345955
O O14 0.815826 0.244970 0.092606
O O15 0.834102 0.000000 0.164052
O O16 0.759482 0.000000 0.921228
O O17 0.750000 0.250000 0.000000
O O18 0.068973 0.500000 0.510443
O O19 0.146092 0.224727 0.471908
O O20 0.000000 0.225113 0.500000
O O21 0.214916 0.500000 0.414268
#
# Coordination Sequence:
#
# PCOD9184834 Si02
#       8
#     8   8   8   8   8   8   8   8
#     4   9  19  33  50  76 107 131 159 206 254 290
#     4   9  17  32  54  78 103 130 164 210 259 302
#     4  10  19  34  55  74  95 130 174 214 252 302
#     4   9  16  29  51  75  96 128 170 206 245 301
#     4   9  16  31  55  79 101 130 168 205 246 296
#     4  10  20  35  55  78 106 138 169 201 239 289
#     4  10  22  36  48  68 102 137 169 211 261 309
#     4   9  17  32  52  71  96 131 171 209 252 305
#
# _framework density 20.748574999999999
#
# number of rings (size 3 to 8) (size 9 to 14) (size 15 to 20)
#    0.000    2.625    1.250    0.750    1.750    0.750 
#    0.000    3.125    0.000    3.750    0.000    0.000 
#    0.000    0.000    0.000    0.000    0.000    0.000 
#
# Total GULP energy -178524.406528 kJ/mol
# GULP energy per Si atom -5578.887704 kJ/mol
# Density = 2.070135 g / cm^3
# Si number density = 20.748575 Si / 1000 Ang^3
#
#
#
# Elastic Constant Matrix: (Units=GPa)
#
#
# Indices 1 2 3 4 5 6 
#
# 1 156.6393 9.3925 61.1707 0.0000 40.1356 -0.0001
# 2 9.3925 32.6177 -4.9494 -0.0001 -2.2508 -0.0006
# 3 61.1707 -4.9494 108.1115 0.0000 35.5935 0.0000
# 4 0.0000 -0.0001 0.0000 18.5558 0.0000 9.4653
# 5 40.1356 -2.2508 35.5935 0.0000 32.8698 -0.0001
# 6 -0.0001 -0.0006 0.0000 9.4653 -0.0001 9.2491
#
#
#
# Elastic Compliance Matrix: (Units=1/GPa)
#
#
# Indices 1 2 3 4 5 6 
#
# 1 0.010196 -0.004025 -0.002741 0.000000 -0.009757 -0.000001
# 2 -0.004025 0.032479 0.002197 -0.000002 0.004759 0.000004
# 3 -0.002741 0.002197 0.015151 0.000000 -0.012910 0.000000
# 4 0.000000 -0.000002 0.000000 0.112749 -0.000001 -0.115384
# 5 -0.009757 0.004759 -0.012910 -0.000001 0.056643 0.000002
# 6 -0.000001 0.000004 0.000000 -0.115384 0.000002 0.226199
#
#
# Mechanical properties :
#
#
# Convention : Reuss Voigt Hill
#
# Bulk Modulus (GPa) = 20.53834 47.62179 34.08007
# Shear Modulus (GPa) = 10.44312 27.58525 19.01419
#
# Velocity S-wave (km/s) = 2.24591 3.65019 3.03051
# Velocity P-wave (km/s) = 4.07991 6.38489 5.35782
#
# Compressibility (1/GPa) = 0.04868942
#
# Stress axis : x y z
#
# Youngs Moduli (GPa) = 98.07824 30.78895 66.00067
#
# Poissons Ratio (x) = 0.12393 0.18090
# Poissons Ratio (y) = 0.39478 -0.14504
# Poissons Ratio (z) = 0.26881 -0.06766
#
# Static dielectric constant tensor:
#      x y z
#    x 1.759760 0.000000 -0.005720 
#    y 0.000000 1.775800 0.000000 
#    z -0.005720 0.000000 1.684030 
# 
# From -- ./inp_files/313998.got.cif
#   From: 2010.05.17/outbox.cif.g08.bks.cpg/sg12_157_cif.got.tgz:313998.got - 2010.06.03 13:09:07.
