data_PCOD9184865
_publ_section_title
;
Structure prediction by ZEFSAII (Michael W. Deem and Ramdas Pophale) SiO2 
 PCOD9184865
Probable space group: C 2/M
;
_chemical_formula_sum "Si O2"
_cell_formula_units_Z 64
_cell_length_a 14.643072
_cell_length_b 8.702005
_cell_length_c 22.681865
_cell_angle_alpha 90.000000
_cell_angle_beta 93.980377
_cell_angle_gamma 90.000000
_cell_volume 2883.244370
_symmetry_space_group_name_H-M "C 2/M"
_symmetry_group_IT_number 12
_symmetry_cell_setting 'monoclinic'
loop_
_space_group_symop_operation_xyz
x,y,z
-x,y,-z
-x,-y,-z
x,-y,z
1/2+x,1/2+y,z
1/2-x,1/2+y,-z
1/2-x,1/2-y,-z
1/2+x,1/2-y,z
loop_
_atom_site_type_symbol
_atom_site_label
_atom_site_fract_x
_atom_site_fract_y
_atom_site_fract_z
Si Si1 0.885349 0.822591 0.537939
Si Si2 0.676807 0.175118 0.579381
Si Si3 0.298249 0.822730 0.913153
Si Si4 0.472826 0.318728 0.872183
Si Si5 0.062628 0.814676 0.335695
Si Si6 0.913336 0.812634 0.235587
Si Si7 0.747502 0.682013 0.697716
Si Si8 0.119986 0.324120 0.951207
O O1 0.779914 0.823782 0.556461
O O2 0.886562 0.734209 0.476502
O O3 0.938569 0.756971 0.596982
O O4 0.910323 0.000000 0.528960
O O5 0.685819 0.282226 0.636913
O O6 0.655889 0.000000 0.595349
O O7 0.375522 0.763953 0.872368
O O8 0.206303 0.724418 0.914805
O O9 0.273738 0.000000 0.900543
O O10 0.345121 0.812712 0.980147
O O11 0.457553 0.500000 0.865720
O O12 0.536592 0.262177 0.821428
O O13 0.534778 0.282579 0.931898
O O14 0.156953 0.765625 0.308816
O O15 0.979365 0.763855 0.291766
O O16 0.061941 0.000000 0.339208
O O17 0.810835 0.765143 0.248169
O O18 0.911716 0.000000 0.233987
O O19 0.763177 0.500000 0.701899
O O20 0.092511 0.500000 0.939272
#
# Coordination Sequence:
#
# PCOD9184865 Si02
#       8
#     8   8   8   8   8   8   8   8
#     4   8  14  25  46  73  97 127 169 214 261 317
#     4   9  16  27  46  73 103 133 167 210 264 324
#     4  10  21  38  60  87 118 150 187 230 276 329
#     4  11  22  37  58  84 116 152 189 231 279 328
#     4   9  18  36  57  75 101 138 178 219 266 319
#     4   9  21  39  56  77 107 144 185 225 264 316
#     4  10  19  34  55  77 103 136 176 221 268 317
#     4  10  21  38  60  87 118 151 187 228 276 329
#
# _framework density 22.197216999999998
#
# number of rings (size 3 to 8) (size 9 to 14) (size 15 to 20)
#    0.000    2.500    0.000    3.000    0.000    7.000 
#    0.000    8.125    0.000    3.750    0.000    0.000 
#    0.000    0.000    0.000    0.000    0.000    0.000 
#
# Total GULP energy -178785.277077 kJ/mol
# GULP energy per Si atom -5587.039909 kJ/mol
# Density = 2.214670 g / cm^3
# Si number density = 22.197217 Si / 1000 Ang^3
#
#
#
# Elastic Constant Matrix: (Units=GPa)
#
#
# Indices 1 2 3 4 5 6 
#
# 1 75.9455 -3.0471 28.0066 0.0000 -24.8775 0.0000
# 2 -3.0471 21.4061 0.3159 0.0000 -3.9674 0.0000
# 3 28.0066 0.3159 31.4177 0.0000 -17.8741 0.0000
# 4 0.0000 0.0000 0.0000 19.5995 0.0000 -4.2709
# 5 -24.8775 -3.9674 -17.8741 0.0000 38.5520 0.0000
# 6 0.0000 0.0000 0.0000 -4.2709 0.0000 14.8681
#
#
#
# Elastic Compliance Matrix: (Units=1/GPa)
#
#
# Indices 1 2 3 4 5 6 
#
# 1 0.021194 0.004587 -0.014791 0.000000 0.007291 0.000000
# 2 0.004587 0.048845 -0.000049 0.000000 0.007964 0.000000
# 3 -0.014791 -0.000049 0.053763 0.000000 0.015377 0.000000
# 4 0.000000 0.000000 0.000000 0.054429 0.000000 0.015635
# 5 0.007291 0.007964 0.015377 0.000000 0.038593 0.000000
# 6 0.000000 0.000000 0.000000 0.015635 0.000000 0.071749
#
#
# Mechanical properties :
#
#
# Convention : Reuss Voigt Hill
#
# Bulk Modulus (GPa) = 9.68099 19.92444 14.80272
# Shear Modulus (GPa) = 14.55551 21.50350 18.02950
#
# Velocity S-wave (km/s) = 2.56351 3.11585 2.85308
# Velocity P-wave (km/s) = 3.62394 4.68404 4.18767
#
# Compressibility (1/GPa) = 0.10329520
#
# Stress axis : x y z
#
# Youngs Moduli (GPa) = 47.18256 20.47281 18.60009
#
# Poissons Ratio (x) = -0.09390 0.27512
# Poissons Ratio (y) = -0.21640 0.00091
# Poissons Ratio (z) = 0.69789 0.00100
#
# Static dielectric constant tensor:
#      x y z
#    x 1.844990 0.000000 -0.000600 
#    y 0.000000 1.749370 0.000000 
#    z -0.000600 0.000000 1.862140 
# 
# From -- ./inp_files/338891.got.cif
#   From: 2010.05.17/outbox.cif.g08.bks.cpg/sg12_170_cif.got.tgz:338891.got - 2010.06.03 13:09:07.
