data_PCOD9184641
_publ_section_title
;
Structure prediction by ZEFSAII (Michael W. Deem and Ramdas Pophale) SiO2 
 PCOD9184641
Probable space group: C 2/M
;
_chemical_formula_sum "Si O2"
_cell_formula_units_Z 64
_cell_length_a 33.561592
_cell_length_b 7.474739
_cell_length_c 25.448963
_cell_angle_alpha 90.000000
_cell_angle_beta 26.656336
_cell_angle_gamma 90.000000
_cell_volume 2864.209482
_symmetry_space_group_name_H-M "C 2/M"
_symmetry_group_IT_number 12
_symmetry_cell_setting 'monoclinic'
loop_
_space_group_symop_operation_xyz
x,y,z
-x,y,-z
-x,-y,-z
x,-y,z
1/2+x,1/2+y,z
1/2-x,1/2+y,-z
1/2-x,1/2-y,-z
1/2+x,1/2-y,z
loop_
_atom_site_type_symbol
_atom_site_label
_atom_site_fract_x
_atom_site_fract_y
_atom_site_fract_z
Si Si1 0.136019 0.720198 0.489230
Si Si2 0.435627 0.790615 0.730203
Si Si3 0.076996 0.708577 0.946896
Si Si4 0.385667 0.284295 0.904953
Si Si5 0.979022 0.783435 0.169485
Si Si6 0.787774 0.720076 0.825608
Si Si7 0.278513 0.286095 0.406833
Si Si8 0.777648 0.704894 0.718997
O O1 0.137787 0.500000 0.488254
O O2 0.205342 0.781076 0.451979
O O3 0.169346 0.781274 0.392733
O O4 0.035383 0.781483 0.617373
O O5 0.386998 0.774537 0.843372
O O6 0.373297 0.718640 0.757534
O O7 0.445960 0.000000 0.706132
O O8 0.088649 0.500000 0.920134
O O9 0.173219 0.794277 0.828289
O O10 0.000000 0.783097 0.000000
O O11 0.041149 0.727401 0.048147
O O12 0.384898 0.500000 0.905637
O O13 0.474333 0.225271 0.831411
O O14 0.300407 0.224703 0.038803
O O15 0.878706 0.717532 0.280423
O O16 0.977453 0.000000 0.171550
O O17 0.785614 0.500000 0.827500
O O18 0.787248 0.783137 0.766019
O O19 0.282727 0.500000 0.394947
O O20 0.250000 0.250000 0.500000
O O21 0.808304 0.500000 0.687375
#
# Coordination Sequence:
#
# PCOD9184641 Si02
#       8
#     8   8   8   8   8   8   8   8
#     4   9  19  34  54  80 108 138 183 225 264 320
#     4  10  20  34  53  80 110 143 179 224 275 323
#     4  11  23  36  52  80 112 138 171 219 271 323
#     4  10  19  34  53  79 109 138 181 229 267 323
#     4  10  20  35  56  78 104 142 185 222 263 318
#     4   9  18  33  55  81 108 137 181 228 270 318
#     4  10  20  34  52  78 108 143 184 223 263 319
#     4  10  19  37  60  78 105 145 181 225 269 315
#
# _framework density 22.344732
#
# number of rings (size 3 to 8) (size 9 to 14) (size 15 to 20)
#    0.000    2.125    1.250    2.250    0.000    3.500 
#    0.000    4.375    0.000    0.000    0.000    1.750 
#    0.000    0.000    0.000    0.000    0.000    0.000 
#
# Total GULP energy -178856.637224 kJ/mol
# GULP energy per Si atom -5589.269913 kJ/mol
# Density = 2.229387 g / cm^3
# Si number density = 22.344732 Si / 1000 Ang^3
#
#
#
# Elastic Constant Matrix: (Units=GPa)
#
#
# Indices 1 2 3 4 5 6 
#
# 1 159.2170 0.9414 47.8835 0.0100 -5.4385 -0.0078
# 2 0.9414 63.3752 -0.3087 -0.0135 -8.3927 0.0086
# 3 47.8835 -0.3087 105.1419 -0.0243 1.7181 0.0021
# 4 0.0100 -0.0135 -0.0243 1.5792 -0.0012 10.5082
# 5 -5.4385 -8.3927 1.7181 -0.0012 41.3938 0.0017
# 6 -0.0078 0.0086 0.0021 10.5082 0.0017 7.6748
#
#
#
# Elastic Compliance Matrix: (Units=1/GPa)
#
#
# Indices 1 2 3 4 5 6 
#
# 1 0.007327 0.000021 -0.003355 0.000019 0.001106 -0.000017
# 2 0.000021 0.016214 -0.000016 -0.000033 0.003291 0.000026
# 3 -0.003355 -0.000016 0.011054 -0.000029 -0.000903 0.000033
# 4 0.000019 -0.000033 -0.000029 -0.078073 -0.000010 0.106897
# 5 0.001106 0.003291 -0.000903 -0.000010 0.025008 0.000005
# 6 -0.000017 0.000026 0.000033 0.106897 0.000005 -0.016064
#
#
# Mechanical properties :
#
#
# Convention : Reuss Voigt Hill
#
# Bulk Modulus (GPa) = 35.84712 47.19628 41.52170
# Shear Modulus (GPa) = -269.74570 28.74408 -120.50081
#
# Velocity S-wave (km/s) = -10.99919 3.59052 -7.35154
# Velocity P-wave (km/s) = 12.05122 6.19329 7.31010
#
# Compressibility (1/GPa) = 0.02789625
#
# Stress axis : x y z
#
# Youngs Moduli (GPa) = 136.47398 61.67337 90.46829
#
# Poissons Ratio (x) = -0.00132 0.30352
# Poissons Ratio (y) = -0.00291 0.00144
# Poissons Ratio (z) = 0.45788 0.00098
#
# Static dielectric constant tensor:
#      x y z
#    x 1.804470 0.000000 -0.018300 
#    y 0.000000 1.864810 0.000020 
#    z -0.018300 0.000020 1.780150 
# 
# From -- ./inp_files/243778.got.cif
#   From: 2010.05.17/outbox.cif.g08.bks.cpg/sg12_122_cif.got.tgz:243778.got - 2010.06.03 13:09:07.
