data_PCOD9184343
_publ_section_title
;
Structure prediction by ZEFSAII (Michael W. Deem and Ramdas Pophale) SiO2 
 PCOD9184343
Probable space group: C 2/M
;
_chemical_formula_sum "Si O2"
_cell_formula_units_Z 48
_cell_length_a 14.678586
_cell_length_b 19.323295
_cell_length_c 9.838715
_cell_angle_alpha 90.000000
_cell_angle_beta 82.074156
_cell_angle_gamma 90.000000
_cell_volume 2763.981856
_symmetry_space_group_name_H-M "C 2/M"
_symmetry_group_IT_number 12
_symmetry_cell_setting 'monoclinic'
loop_
_space_group_symop_operation_xyz
x,y,z
-x,y,-z
-x,-y,-z
x,-y,z
1/2+x,1/2+y,z
1/2-x,1/2+y,-z
1/2-x,1/2-y,-z
1/2+x,1/2-y,z
loop_
_atom_site_type_symbol
_atom_site_label
_atom_site_fract_x
_atom_site_fract_y
_atom_site_fract_z
Si Si1 0.304175 0.582304 0.588179
Si Si2 0.500000 0.884335 0.500000
Si Si3 0.956433 0.270051 0.292952
Si Si4 0.145775 0.691152 0.127227
Si Si5 0.812666 0.423298 0.658921
Si Si6 0.781533 0.687818 0.178135
Si Si7 0.000000 0.848279 0.500000
O O1 0.298595 0.500000 0.616442
O O2 0.252095 0.595208 0.455432
O O3 0.255965 0.627438 0.716510
O O4 0.409403 0.607065 0.549807
O O5 0.454715 0.833485 0.399110
O O6 0.417004 0.925525 0.582125
O O7 0.858270 0.267655 0.241835
O O8 0.039098 0.290763 0.174739
O O9 0.979933 0.202179 0.375756
O O10 0.182571 0.634629 0.226716
O O11 0.199288 0.762038 0.149810
O O12 0.169237 0.665247 0.971642
O O13 0.785961 0.500000 0.713701
#
# Coordination Sequence:
#
# PCOD9184343 Si02
#       7
#     8   4   8   8   8   8   4
#     4  11  23  38  59  85 116 153 193 238 284 339
#     4   9  17  30  54  82 108 140 174 222 280 328
#     4  10  19  33  59  86 112 142 186 238 284 333
#     4  10  22  36  56  85 111 153 188 236 287 335
#     4  10  20  35  55  81 113 149 187 226 279 340
#     4  11  21  38  57  82 118 146 193 236 284 341
#     4  11  21  36  60  88 114 146 194 246 288 330
#
# _framework density 17.366249
#
# number of rings (size 3 to 8) (size 9 to 14) (size 15 to 20)
#    0.000    1.667    3.333    2.000    0.000    2.000 
#    0.000    0.000    0.000    3.000    0.000    5.833 
#    0.000    0.000    0.000    0.000    0.000    0.000 
#
# Total GULP energy -133849.308189 kJ/mol
# GULP energy per Si atom -5577.054508 kJ/mol
# Density = 1.732672 g / cm^3
# Si number density = 17.366249 Si / 1000 Ang^3
#
#
#
# Elastic Constant Matrix: (Units=GPa)
#
#
# Indices 1 2 3 4 5 6 
#
# 1 67.8231 13.6149 21.9727 0.0000 0.0503 0.0000
# 2 13.6149 55.8264 22.7190 0.0000 -5.5078 0.0000
# 3 21.9727 22.7190 75.2919 0.0000 -9.3484 0.0000
# 4 0.0000 0.0000 0.0000 20.5498 0.0000 10.0685
# 5 0.0503 -5.5078 -9.3484 0.0000 25.9284 0.0000
# 6 0.0000 0.0000 0.0000 10.0685 0.0000 12.5811
#
#
#
# Elastic Compliance Matrix: (Units=1/GPa)
#
#
# Indices 1 2 3 4 5 6 
#
# 1 0.016664 -0.002494 -0.004376 0.000000 -0.002140 0.000000
# 2 -0.002494 0.020916 -0.005267 0.000000 0.002549 0.000000
# 3 -0.004376 -0.005267 0.016760 0.000000 0.004933 0.000000
# 4 0.000000 0.000000 0.000000 0.080051 0.000000 -0.064064
# 5 -0.002140 0.002549 0.004933 0.000000 0.040892 0.000000
# 6 0.000000 0.000000 0.000000 -0.064064 0.000000 0.130753
#
#
# Mechanical properties :
#
#
# Convention : Reuss Voigt Hill
#
# Bulk Modulus (GPa) = 33.26036 35.06161 34.16099
# Shear Modulus (GPa) = 14.69148 21.18751 17.93950
#
# Velocity S-wave (km/s) = 2.91173 3.49670 3.21753
# Velocity P-wave (km/s) = 5.52251 6.04449 5.78938
#
# Compressibility (1/GPa) = 0.03006582
#
# Stress axis : x y z
#
# Youngs Moduli (GPa) = 60.00854 47.81063 59.66413
#
# Poissons Ratio (x) = 0.11925 0.26111
# Poissons Ratio (y) = 0.14968 0.31424
# Poissons Ratio (z) = 0.26261 0.25181
#
# Static dielectric constant tensor:
#      x y z
#    x 1.592300 0.000000 -0.000640 
#    y 0.000000 1.573330 0.000000 
#    z -0.000640 0.000000 1.594170 
# 
# From -- ./inp_files/61757.got.cif
#   From: 2010.05.17/outbox.cif.g08.bks.cpg/sg12_31_cif.got.tgz:61757.got - 2010.06.03 13:09:07.
