data_PCOD9184255
_publ_section_title
;
Structure prediction by ZEFSAII (Michael W. Deem and Ramdas Pophale) SiO2 
 PCOD9184255
Probable space group: C 2/M
;
_chemical_formula_sum "Si O2"
_cell_formula_units_Z 56
_cell_length_a 16.062673
_cell_length_b 7.707045
_cell_length_c 27.031620
_cell_angle_alpha 90.000000
_cell_angle_beta 52.346776
_cell_angle_gamma 90.000000
_cell_volume 2649.419835
_symmetry_space_group_name_H-M "C 2/M"
_symmetry_group_IT_number 12
_symmetry_cell_setting 'monoclinic'
loop_
_space_group_symop_operation_xyz
x,y,z
-x,y,-z
-x,-y,-z
x,-y,z
1/2+x,1/2+y,z
1/2-x,1/2+y,-z
1/2-x,1/2-y,-z
1/2+x,1/2-y,z
loop_
_atom_site_type_symbol
_atom_site_label
_atom_site_fract_x
_atom_site_fract_y
_atom_site_fract_z
Si Si1 0.159748 0.289311 0.849960
Si Si2 0.248110 0.709484 0.922311
Si Si3 0.097861 0.789394 0.499321
Si Si4 0.080285 0.293055 0.064338
Si Si5 0.010384 0.296958 0.636070
Si Si6 0.723019 0.795893 0.293397
Si Si7 0.305639 0.204648 0.368384
O O1 0.158529 0.500000 0.850706
O O2 0.221857 0.231346 0.876564
O O3 0.215887 0.231953 0.779620
O O4 0.038625 0.227473 0.895048
O O5 0.244375 0.500000 0.923690
O O6 0.358987 0.759999 0.906348
O O7 0.157032 0.774053 0.993019
O O8 0.076328 0.719860 0.561690
O O9 0.205620 0.726003 0.435322
O O10 0.000000 0.739409 0.500000
O O11 0.099182 0.000000 0.501303
O O12 0.074141 0.500000 0.059693
O O13 0.991618 0.500000 0.654122
O O14 0.083960 0.221425 0.652427
O O15 0.894864 0.220020 0.669053
O O16 0.783121 0.721420 0.318790
O O17 0.714443 0.000000 0.306880
O O18 0.308701 0.000000 0.378830
#
# Coordination Sequence:
#
# PCOD9184255 Si02
#       7
#     8   8   8   8   8   8   8
#     4  10  21  37  57  78 107 149 186 218 266 324
#     4   9  18  34  57  85 113 141 178 222 268 320
#     4  10  19  33  58  87 111 137 174 223 272 323
#     4   9  18  34  57  84 112 142 178 221 269 321
#     4  10  22  38  57  80 108 143 180 222 273 325
#     4  11  24  39  54  78 109 143 185 230 269 313
#     4  10  21  39  59  80 109 144 180 219 272 331
#
# _framework density 21.136704000000002
#
# number of rings (size 3 to 8) (size 9 to 14) (size 15 to 20)
#    0.000    2.143    1.429    1.286    0.000    6.000 
#    0.000    4.286    0.000    4.286    0.000    0.000 
#    0.000    0.000    0.000    0.000    0.000    0.000 
#
# Total GULP energy -156377.076432 kJ/mol
# GULP energy per Si atom -5584.895587 kJ/mol
# Density = 2.108860 g / cm^3
# Si number density = 21.136704 Si / 1000 Ang^3
#
#
#
# Elastic Constant Matrix: (Units=GPa)
#
#
# Indices 1 2 3 4 5 6 
#
# 1 121.4449 -5.4616 24.8833 -0.0002 37.1711 -0.0001
# 2 -5.4616 29.0688 -19.7134 -0.0005 -8.1186 0.0001
# 3 24.8833 -19.7134 58.1066 0.0000 18.1247 0.0000
# 4 -0.0002 -0.0005 0.0000 20.9329 0.0000 1.7820
# 5 37.1711 -8.1186 18.1247 0.0000 5.8409 0.0000
# 6 -0.0001 0.0001 0.0000 1.7820 0.0000 12.5929
#
#
#
# Elastic Compliance Matrix: (Units=1/GPa)
#
#
# Indices 1 2 3 4 5 6 
#
# 1 -0.000016 0.002973 -0.009515 0.000000 0.033762 0.000000
# 2 0.002973 0.042917 0.018137 0.000001 -0.015550 0.000000
# 3 -0.009515 0.018137 0.021372 0.000000 0.019447 0.000000
# 4 0.000000 0.000001 0.000000 0.048354 0.000000 -0.006842
# 5 0.033762 -0.015550 0.019447 0.000000 -0.125609 0.000000
# 6 0.000000 0.000000 0.000000 -0.006842 0.000000 0.080378
#
#
# Mechanical properties :
#
#
# Convention : Reuss Voigt Hill
#
# Bulk Modulus (GPa) = 11.43349 23.11524 17.27436
# Shear Modulus (GPa) = 68.15687 21.80083 44.97885
#
# Velocity S-wave (km/s) = 5.68469 3.21506 4.61803
# Velocity P-wave (km/s) = 6.96482 4.97413 6.05189
#
# Compressibility (1/GPa) = 0.08746239
#
# Stress axis : x y z
#
# Youngs Moduli (GPa) = -62261.92806 23.30090 46.79029
#
# Poissons Ratio (x) = -0.06928 0.44523
# Poissons Ratio (y) = 185.11922 -0.84864
# Poissons Ratio (z) = -592.45113 -0.42261
#
# Static dielectric constant tensor:
#      x y z
#    x 1.785420 0.000000 -0.017270 
#    y 0.000000 1.786220 0.000000 
#    z -0.017270 0.000000 1.712280 
# 
# From -- ./inp_files/308958.got.cif
#   From: 2010.05.17/outbox.cif.g08.bks.cpg/sg12_155_cif.got.tgz:308958.got - 2010.06.03 13:09:07.
