data_PCOD9184258
_publ_section_title
;
Structure prediction by ZEFSAII (Michael W. Deem and Ramdas Pophale) SiO2 
 PCOD9184258
Probable space group: C 2/M
;
_chemical_formula_sum "Si O2"
_cell_formula_units_Z 56
_cell_length_a 15.145475
_cell_length_b 7.500667
_cell_length_c 22.424292
_cell_angle_alpha 90.000000
_cell_angle_beta 122.585558
_cell_angle_gamma 90.000000
_cell_volume 2146.430754
_symmetry_space_group_name_H-M "C 2/M"
_symmetry_group_IT_number 12
_symmetry_cell_setting 'monoclinic'
loop_
_space_group_symop_operation_xyz
x,y,z
-x,y,-z
-x,-y,-z
x,-y,z
1/2+x,1/2+y,z
1/2-x,1/2+y,-z
1/2-x,1/2-y,-z
1/2+x,1/2-y,z
loop_
_atom_site_type_symbol
_atom_site_label
_atom_site_fract_x
_atom_site_fract_y
_atom_site_fract_z
Si Si1 0.381525 0.283179 0.475336
Si Si2 0.421412 0.705601 0.617364
Si Si3 0.168160 0.784445 0.056775
Si Si4 0.391834 0.703641 0.165021
Si Si5 0.484524 0.282675 0.898169
Si Si6 0.151224 0.705637 0.717742
Si Si7 0.196243 0.202672 0.318086
O O1 0.500000 0.238227 0.500000
O O2 0.372604 0.500000 0.470939
O O3 0.369994 0.217456 0.539314
O O4 0.296234 0.207628 0.399296
O O5 0.387780 0.500000 0.608319
O O6 0.545886 0.706851 0.654974
O O7 0.391319 0.786446 0.670553
O O8 0.283129 0.708463 0.088663
O O9 0.118518 0.728741 0.102772
O O10 0.175530 0.000000 0.059256
O O11 0.082035 0.733508 0.976449
O O12 0.417780 0.500000 0.189617
O O13 0.484240 0.777623 0.156803
O O14 0.359507 0.790457 0.215300
O O15 0.481970 0.500000 0.894783
O O16 0.147407 0.500000 0.697823
O O17 0.255928 0.781436 0.725219
O O18 0.162601 0.000000 0.291267
#
# Coordination Sequence:
#
# PCOD9184258 Si02
#       7
#     8   8   8   8   8   8   8
#     4  10  19  33  58  87 113 138 170 220 279 328
#     4  10  21  39  59  81 109 142 178 222 276 327
#     4   9  17  35  60  84 110 142 180 221 263 320
#     4  11  22  36  55  81 112 146 181 222 273 321
#     4   8  17  34  58  84 111 144 179 216 268 325
#     4  11  24  40  55  77 107 146 190 228 264 314
#     4  10  22  38  58  81 108 143 183 223 268 324
#
# _framework density 26.089824
#
# number of rings (size 3 to 8) (size 9 to 14) (size 15 to 20)
#    0.000    2.143    1.429    2.571    0.000    3.143 
#    0.000    9.286    0.000    0.000    0.000    0.000 
#    0.000    0.000    0.000    0.000    0.000    0.000 
#
# Total GULP energy -156579.754499 kJ/mol
# GULP energy per Si atom -5592.134089 kJ/mol
# Density = 2.603044 g / cm^3
# Si number density = 26.089824 Si / 1000 Ang^3
#
#
#
# Elastic Constant Matrix: (Units=GPa)
#
#
# Indices 1 2 3 4 5 6 
#
# 1 184.3057 10.6667 23.3424 0.0000 -33.1215 0.0000
# 2 10.6667 78.2483 -0.9157 0.0000 -5.1474 0.0000
# 3 23.3424 -0.9157 77.9834 0.0000 -21.6783 0.0000
# 4 0.0000 0.0000 0.0000 17.4571 0.0000 2.1160
# 5 -33.1215 -5.1474 -21.6783 0.0000 61.9242 0.0000
# 6 0.0000 0.0000 0.0000 2.1160 0.0000 7.7871
#
#
#
# Elastic Compliance Matrix: (Units=1/GPa)
#
#
# Indices 1 2 3 4 5 6 
#
# 1 0.006108 -0.000658 -0.001045 0.000000 0.002846 0.000000
# 2 -0.000658 0.012938 0.000609 0.000000 0.000937 0.000000
# 3 -0.001045 0.000609 0.014404 0.000000 0.004534 0.000000
# 4 0.000000 0.000000 0.000000 0.059234 0.000000 -0.016096
# 5 0.002846 0.000937 0.004534 0.000000 0.019336 0.000000
# 6 0.000000 0.000000 0.000000 -0.016096 0.000000 0.132791
#
#
# Mechanical properties :
#
#
# Convention : Reuss Voigt Hill
#
# Bulk Modulus (GPa) = 31.98617 45.19159 38.58888
# Shear Modulus (GPa) = 19.42365 37.92997 28.67681
#
# Velocity S-wave (km/s) = 2.73150 3.81704 3.31895
# Velocity P-wave (km/s) = 4.71537 6.06511 5.43232
#
# Compressibility (1/GPa) = 0.03126351
#
# Stress axis : x y z
#
# Youngs Moduli (GPa) = 163.72878 77.29029 69.42742
#
# Poissons Ratio (x) = 0.05082 0.07253
# Poissons Ratio (y) = 0.10766 -0.04230
# Poissons Ratio (z) = 0.17104 -0.04709
#
# Static dielectric constant tensor:
#      x y z
#    x 2.075860 0.000000 -0.058380 
#    y 0.000000 2.010170 0.000000 
#    z -0.058380 0.000000 2.077590 
# 
# From -- ./inp_files/339069.got.cif
#   From: 2010.05.17/outbox.cif.g08.bks.cpg/sg12_170_cif.got.tgz:339069.got - 2010.06.03 13:09:07.
