data_PCOD9184399
_publ_section_title
;
Structure prediction by ZEFSAII (Michael W. Deem and Ramdas Pophale) SiO2 
 PCOD9184399
Probable space group: C 2/M
;
_chemical_formula_sum "Si O2"
_cell_formula_units_Z 56
_cell_length_a 12.258854
_cell_length_b 32.782370
_cell_length_c 9.173058
_cell_angle_alpha 90.000000
_cell_angle_beta 128.411307
_cell_angle_gamma 90.000000
_cell_volume 2888.568280
_symmetry_space_group_name_H-M "C 2/M"
_symmetry_group_IT_number 12
_symmetry_cell_setting 'monoclinic'
loop_
_space_group_symop_operation_xyz
x,y,z
-x,y,-z
-x,-y,-z
x,-y,z
1/2+x,1/2+y,z
1/2-x,1/2+y,-z
1/2-x,1/2-y,-z
1/2+x,1/2-y,z
loop_
_atom_site_type_symbol
_atom_site_label
_atom_site_fract_x
_atom_site_fract_y
_atom_site_fract_z
Si Si1 0.350274 0.865910 0.454970
Si Si2 0.933460 0.871298 0.233117
Si Si3 0.286323 0.656942 0.378087
Si Si4 0.331792 0.045263 0.356052
Si Si5 0.148861 0.282350 0.075203
Si Si6 0.790749 0.810839 0.902475
Si Si7 0.599404 0.544861 0.940844
O O1 0.500000 0.867118 0.500000
O O2 0.336955 0.852854 0.611844
O O3 0.292123 0.912350 0.400439
O O4 0.267728 0.833380 0.287668
O O5 0.811486 0.869664 0.253681
O O6 0.945259 0.917727 0.194826
O O7 0.072447 0.851395 0.415114
O O8 0.892320 0.843149 0.063152
O O9 0.262197 0.701032 0.285151
O O10 0.500000 0.044235 0.500000
O O11 0.285919 0.000000 0.372944
O O12 0.256372 0.049377 0.136033
O O13 0.148349 0.233560 0.079030
O O14 0.181862 0.299284 0.941502
O O15 0.000000 0.298381 0.000000
O O16 0.587476 0.500000 0.863006
O O17 0.500000 0.545689 0.000000
#
# Coordination Sequence:
#
# PCOD9184399 Si02
#       7
#     8   8   8   8   8   8   8
#     4  11  21  36  59  88 112 153 196 240 288 351
#     4  10  21  40  59  85 120 156 191 241 296 357
#     4  10  23  39  57  83 119 153 192 242 301 344
#     4   9  18  33  56  87 120 149 191 242 287 339
#     4  10  22  41  57  81 114 152 189 244 298 350
#     4  10  22  38  59  85 110 150 197 236 293 352
#     4  10  19  33  60  92 122 158 202 247 290 352
#
# _framework density 19.386769000000001
#
# number of rings (size 3 to 8) (size 9 to 14) (size 15 to 20)
#    0.000    2.000    1.429    1.714    2.000    0.571 
#    7.714    2.143    0.000    0.000    0.000    5.000 
#    0.000    0.000    0.000    0.000    0.000    0.000 
#
# Total GULP energy -155919.324149 kJ/mol
# GULP energy per Si atom -5568.547291 kJ/mol
# Density = 1.934264 g / cm^3
# Si number density = 19.386769 Si / 1000 Ang^3
#
#
#
# Elastic Constant Matrix: (Units=GPa)
#
#
# Indices 1 2 3 4 5 6 
#
# 1 89.9235 30.4049 27.2616 0.0000 -9.4771 0.0000
# 2 30.4049 119.1131 34.7180 0.0000 -21.2275 0.0000
# 3 27.2616 34.7180 60.8570 0.0000 -2.1759 0.0000
# 4 0.0000 0.0000 0.0000 24.6298 0.0000 -3.1352
# 5 -9.4771 -21.2275 -2.1759 0.0000 28.4905 0.0000
# 6 0.0000 0.0000 0.0000 -3.1352 0.0000 8.0537
#
#
#
# Elastic Compliance Matrix: (Units=1/GPa)
#
#
# Indices 1 2 3 4 5 6 
#
# 1 0.013469 -0.001402 -0.005125 0.000000 0.003045 0.000000
# 2 -0.001402 0.011876 -0.005864 0.000000 0.007935 0.000000
# 3 -0.005125 -0.005864 0.021916 0.000000 -0.004400 0.000000
# 4 0.000000 0.000000 0.000000 0.042718 0.000000 0.016630
# 5 0.003045 0.007935 -0.004400 0.000000 0.041688 0.000000
# 6 0.000000 0.000000 0.000000 0.016630 0.000000 0.130641
#
#
# Mechanical properties :
#
#
# Convention : Reuss Voigt Hill
#
# Bulk Modulus (GPa) = 44.48384 50.51806 47.50095
# Shear Modulus (GPa) = 16.97320 24.06875 20.52098
#
# Velocity S-wave (km/s) = 2.96210 3.52732 3.25700
# Velocity P-wave (km/s) = 5.89016 6.53482 6.22085
#
# Compressibility (1/GPa) = 0.02248007
#
# Stress axis : x y z
#
# Youngs Moduli (GPa) = 74.24376 84.20117 45.62957
#
# Poissons Ratio (x) = 0.11803 0.23386
# Poissons Ratio (y) = 0.10407 0.26756
# Poissons Ratio (z) = 0.38051 0.49372
#
# Static dielectric constant tensor:
#      x y z
#    x 1.735040 0.000000 0.035090 
#    y 0.000000 1.680030 0.000000 
#    z 0.035090 0.000000 1.678930 
# 
# From -- ./inp_files/54816.got.cif
#   From: 2010.05.17/outbox.cif.g08.bks.cpg/sg12_28_cif.got.tgz:54816.got - 2010.06.03 13:09:07.
