data_PCOD9184559
_publ_section_title
;
Structure prediction by ZEFSAII (Michael W. Deem and Ramdas Pophale) SiO2 
 PCOD9184559
Probable space group: C 2/M
;
_chemical_formula_sum "Si O2"
_cell_formula_units_Z 48
_cell_length_a 12.921680
_cell_length_b 12.939989
_cell_length_c 30.335257
_cell_angle_alpha 90.000000
_cell_angle_beta 156.444987
_cell_angle_gamma 90.000000
_cell_volume 2027.019873
_symmetry_space_group_name_H-M "C 2/M"
_symmetry_group_IT_number 12
_symmetry_cell_setting 'monoclinic'
loop_
_space_group_symop_operation_xyz
x,y,z
-x,y,-z
-x,-y,-z
x,-y,z
1/2+x,1/2+y,z
1/2-x,1/2+y,-z
1/2-x,1/2-y,-z
1/2+x,1/2-y,z
loop_
_atom_site_type_symbol
_atom_site_label
_atom_site_fract_x
_atom_site_fract_y
_atom_site_fract_z
Si Si1 0.567485 0.876931 0.791518
Si Si2 0.446186 0.684770 0.621707
Si Si3 0.145151 0.623223 0.013812
Si Si4 0.261104 0.616829 0.773376
Si Si5 0.512493 0.883829 0.141482
Si Si6 0.467003 0.304305 0.441865
O O1 0.769087 0.872761 0.830045
O O2 0.606233 0.848233 0.857916
O O3 0.338867 0.801091 0.685660
O O4 0.486032 0.000000 0.761114
O O5 0.573736 0.798764 0.678746
O O6 0.673980 0.617958 0.732208
O O7 0.437811 0.651904 0.567467
O O8 0.150618 0.703623 0.520313
O O9 0.082218 0.500000 0.988528
O O10 0.454399 0.630424 0.135294
O O11 0.000000 0.665893 0.000000
O O12 0.052436 0.666630 0.930507
O O13 0.170941 0.500000 0.729399
O O14 0.412415 0.000000 0.099245
O O15 0.500000 0.366375 0.500000
#
# Coordination Sequence:
#
# PCOD9184559 Si02
#       6
#     8   8   8   8   8   8
#     4   9  18  33  56  85 111 143 182 229 284 333
#     4  10  21  34  55  82 110 146 183 225 278 328
#     4   9  19  36  56  80 113 151 186 224 269 326
#     4  10  20  35  57  86 113 141 185 228 277 335
#     4   9  19  37  58  80 109 146 188 232 277 325
#     4  10  19  34  52  77 110 147 179 226 274 325
#
# _framework density 23.680084000000001
#
# number of rings (size 3 to 8) (size 9 to 14) (size 15 to 20)
#    0.000    2.500    1.667    0.000    0.000    3.667 
#    0.000    5.833    0.000    1.000    0.000    0.000 
#    0.000    0.000    0.000    0.000    0.000    0.000 
#
# Total GULP energy -133648.622369 kJ/mol
# GULP energy per Si atom -5568.692599 kJ/mol
# Density = 2.362619 g / cm^3
# Si number density = 23.680084 Si / 1000 Ang^3
#
#
#
# Elastic Constant Matrix: (Units=GPa)
#
#
# Indices 1 2 3 4 5 6 
#
# 1 177.1884 28.6312 65.2043 -0.0005 -11.5397 0.0015
# 2 28.6312 89.8313 4.4191 0.0002 -6.1521 -0.0005
# 3 65.2043 4.4191 65.4433 0.0016 -26.4200 -0.0029
# 4 -0.0005 0.0002 0.0016 21.0570 -0.0001 7.0676
# 5 -11.5397 -6.1521 -26.4200 -0.0001 45.2207 -0.0009
# 6 0.0015 -0.0005 -0.0029 7.0676 -0.0009 -29.4675
#
#
#
# Elastic Compliance Matrix: (Units=1/GPa)
#
#
# Indices 1 2 3 4 5 6 
#
# 1 0.010179 -0.002985 -0.011851 0.000000 -0.004732 0.000002
# 2 -0.002985 0.012114 0.003290 0.000000 0.002809 -0.000001
# 3 -0.011851 0.003290 0.033797 -0.000001 0.017169 -0.000005
# 4 0.000000 0.000000 -0.000001 0.043952 0.000000 0.010542
# 5 -0.004732 0.002809 0.017169 0.000000 0.031319 -0.000003
# 6 0.000002 -0.000001 -0.000005 0.010542 -0.000003 -0.031407
#
#
# Mechanical properties :
#
#
# Convention : Reuss Voigt Hill
#
# Bulk Modulus (GPa) = 30.30440 58.77467 44.53953
# Shear Modulus (GPa) = 37.30105 22.97592 30.13848
#
# Velocity S-wave (km/s) = 3.97319 3.11828 3.57141
# Velocity P-wave (km/s) = 5.82010 6.15135 5.98802
#
# Compressibility (1/GPa) = 0.03299851
#
# Stress axis : x y z
#
# Youngs Moduli (GPa) = 98.24304 82.54936 29.58850
#
# Poissons Ratio (x) = 0.24644 0.35064
# Poissons Ratio (y) = 0.29329 -0.09736
# Poissons Ratio (z) = 1.16424 -0.27161
#
# Static dielectric constant tensor:
#      x y z
#    x 1.963820 0.000000 0.010090 
#    y 0.000000 1.930840 0.000000 
#    z 0.010090 0.000000 1.913560 
# 
# From -- ./inp_files/358499.got.cif
#   From: 2010.05.17/outbox.cif.g08.bks.cpg/sg12_180_cif.got.tgz:358499.got - 2010.06.03 13:09:07.
