data_PCOD9184024
_publ_section_title
;
Structure prediction by ZEFSAII (Michael W. Deem and Ramdas Pophale) SiO2 
 PCOD9184024
Probable space group: C 2/M
;
_chemical_formula_sum "Si O2"
_cell_formula_units_Z 40
_cell_length_a 17.459481
_cell_length_b 27.433432
_cell_length_c 10.003455
_cell_angle_alpha 90.000000
_cell_angle_beta 21.265837
_cell_angle_gamma 90.000000
_cell_volume 1737.816148
_symmetry_space_group_name_H-M "C 2/M"
_symmetry_group_IT_number 12
_symmetry_cell_setting 'monoclinic'
loop_
_space_group_symop_operation_xyz
x,y,z
-x,y,-z
-x,-y,-z
x,-y,z
1/2+x,1/2+y,z
1/2-x,1/2+y,-z
1/2-x,1/2-y,-z
1/2+x,1/2-y,z
loop_
_atom_site_type_symbol
_atom_site_label
_atom_site_fract_x
_atom_site_fract_y
_atom_site_fract_z
Si Si1 0.794037 0.703982 0.735277
Si Si2 0.435811 0.801108 0.950728
Si Si3 0.686162 0.602115 0.947221
Si Si4 0.371497 0.500000 0.075718
Si Si5 0.559010 0.000000 0.059859
Si Si6 0.361468 0.901262 0.948525
O O1 0.629875 0.659567 0.025101
O O2 0.000000 0.698089 0.500000
O O3 0.857814 0.699555 0.477084
O O4 0.700759 0.757902 0.893819
O O5 0.336270 0.853772 0.080890
O O6 0.500000 0.794451 0.000000
O O7 0.581048 0.551532 0.072462
O O8 0.716251 0.596972 0.055758
O O9 0.905686 0.601122 0.502379
O O10 0.131497 0.500000 0.520747
O O11 0.500000 0.500000 0.000000
O O12 0.668381 0.050647 0.916450
O O13 0.500000 0.000000 0.000000
#
# Coordination Sequence:
#
# PCOD9184024 Si02
#       6
#     8   8   8   4   4   8
#     4  11  21  38  59  82 115 152 196 232 278 342
#     4  11  22  36  57  86 117 146 191 241 285 329
#     4   9  17  34  57  80 105 143 188 225 268 334
#     4  10  21  35  57  85 113 138 180 236 284 325
#     4  10  19  33  57  79 109 144 176 224 278 333
#     4   9  17  33  57  81 103 142 194 225 263 336
#
# _framework density 23.017393999999999
#
# number of rings (size 3 to 8) (size 9 to 14) (size 15 to 20)
#    0.000    2.000    4.000    2.400    0.000    3.200 
#    0.000    4.000    0.000    1.200    0.000    0.000 
#    0.000    0.000    0.000    0.000    0.000    0.000 
#
# Total GULP energy -111474.913549 kJ/mol
# GULP energy per Si atom -5573.745677 kJ/mol
# Density = 2.296501 g / cm^3
# Si number density = 23.017394 Si / 1000 Ang^3
#
#
#
# Elastic Constant Matrix: (Units=GPa)
#
#
# Indices 1 2 3 4 5 6 
#
# 1 118.9270 80.2107 6.9019 -0.0267 17.0434 0.0154
# 2 80.2107 274.1064 13.3687 0.0081 -6.4550 -0.0047
# 3 6.9019 13.3687 55.2389 -0.0890 16.8942 0.0334
# 4 -0.0267 0.0081 -0.0890 -20.3432 0.0346 24.1298
# 5 17.0434 -6.4550 16.8942 0.0346 22.3784 -0.0151
# 6 0.0154 -0.0047 0.0334 24.1298 -0.0151 31.1382
#
#
#
# Elastic Compliance Matrix: (Units=1/GPa)
#
#
# Indices 1 2 3 4 5 6 
#
# 1 0.013153 -0.004362 0.003719 -0.000042 -0.014083 0.000015
# 2 -0.004362 0.005229 -0.002857 0.000023 0.006987 -0.000008
# 3 0.003719 -0.002857 0.025286 -0.000106 -0.022746 0.000042
# 4 -0.000042 0.000023 -0.000106 -0.025613 0.000171 0.019848
# 5 -0.014083 0.006987 -0.022746 0.000171 0.074599 -0.000064
# 6 0.000015 -0.000008 0.000042 0.019848 -0.000064 0.016734
#
#
# Mechanical properties :
#
#
# Convention : Reuss Voigt Hill
#
# Bulk Modulus (GPa) = 27.27166 72.13722 49.70444
# Shear Modulus (GPa) = 38.87725 29.82075 34.34900
#
# Velocity S-wave (km/s) = 4.11425 3.60331 3.86723
# Velocity P-wave (km/s) = 5.86885 6.97998 6.44839
#
# Compressibility (1/GPa) = 0.03666811
#
# Stress axis : x y z
#
# Youngs Moduli (GPa) = 76.02948 191.25872 39.54679
#
# Poissons Ratio (x) = 0.83425 -0.14709
# Poissons Ratio (y) = 0.33163 0.11300
# Poissons Ratio (z) = -0.28278 0.54648
#
# Static dielectric constant tensor:
#      x y z
#    x 1.768200 0.000010 -0.051740 
#    y 0.000010 2.052380 -0.000010 
#    z -0.051740 -0.000010 2.023340 
# 
# From -- ./inp_files/68483.got.cif
#   From: 2010.05.17/outbox.cif.g08.bks.cpg/sg12_35_cif.got.tgz:68483.got - 2010.06.03 13:09:07.
