data_PCOD9184471
_publ_section_title
;
Structure prediction by ZEFSAII (Michael W. Deem and Ramdas Pophale) SiO2 
 PCOD9184471
Probable space group: C 2/M
;
_chemical_formula_sum "Si O2"
_cell_formula_units_Z 56
_cell_length_a 22.157594
_cell_length_b 13.648586
_cell_length_c 17.718404
_cell_angle_alpha 90.000000
_cell_angle_beta 37.431286
_cell_angle_gamma 90.000000
_cell_volume 3256.884589
_symmetry_space_group_name_H-M "C 2/M"
_symmetry_group_IT_number 12
_symmetry_cell_setting 'monoclinic'
loop_
_space_group_symop_operation_xyz
x,y,z
-x,y,-z
-x,-y,-z
x,-y,z
1/2+x,1/2+y,z
1/2-x,1/2+y,-z
1/2-x,1/2-y,-z
1/2+x,1/2-y,z
loop_
_atom_site_type_symbol
_atom_site_label
_atom_site_fract_x
_atom_site_fract_y
_atom_site_fract_z
Si Si1 0.906354 0.790419 0.696611
Si Si2 0.717306 0.385307 0.731459
Si Si3 0.762325 0.386161 0.858067
Si Si4 0.389008 0.697192 0.297714
Si Si5 0.904204 0.884903 0.854623
Si Si6 0.234436 0.387324 0.571028
Si Si7 0.637069 0.290511 0.430258
O O1 0.855624 0.686024 0.763753
O O2 0.880993 0.860883 0.790934
O O3 0.866982 0.821678 0.653255
O O4 0.025073 0.784030 0.571183
O O5 0.732199 0.500000 0.699484
O O6 0.707103 0.376101 0.831907
O O7 0.628113 0.341866 0.770161
O O8 0.810626 0.316016 0.617775
O O9 0.791882 0.500000 0.835735
O O10 0.687453 0.361091 0.999745
O O11 0.498383 0.675017 0.218016
O O12 0.308329 0.638676 0.428678
O O13 0.355692 0.809986 0.339091
O O14 0.926683 0.000000 0.841280
O O15 0.204826 0.500000 0.597571
O O16 0.298864 0.362499 0.581618
#
# Coordination Sequence:
#
# PCOD9184471 Si02
#       7
#     8   8   8   8   8   8   8
#     4  10  19  34  50  74 103 133 169 212 246 296
#     4   9  17  32  51  75 103 130 163 209 254 302
#     4   9  20  35  52  73 100 136 175 209 249 293
#     4  10  20  32  50  77 102 130 166 203 253 302
#     4  11  21  34  52  74 101 136 172 210 250 296
#     4  10  19  34  52  74 105 133 162 204 252 304
#     4   9  19  31  51  77 102 130 169 203 254 303
#
# _framework density 17.194345999999999
#
# number of rings (size 3 to 8) (size 9 to 14) (size 15 to 20)
#    0.000    2.286    1.429    1.714    0.000    1.714 
#    0.000    7.143    0.000    0.857    0.000    9.000 
#    0.000    0.000    0.000    0.000    0.000    0.000 
#
# Total GULP energy -156143.897963 kJ/mol
# GULP energy per Si atom -5576.567784 kJ/mol
# Density = 1.715521 g / cm^3
# Si number density = 17.194346 Si / 1000 Ang^3
#
#
#
# Elastic Constant Matrix: (Units=GPa)
#
#
# Indices 1 2 3 4 5 6 
#
# 1 45.1448 13.0960 10.9799 0.0000 9.4660 0.0000
# 2 13.0960 81.2699 18.7182 0.0000 5.4052 0.0000
# 3 10.9799 18.7182 58.1783 0.0000 18.6871 0.0000
# 4 0.0000 0.0000 0.0000 16.7267 0.0000 7.3460
# 5 9.4660 5.4052 18.6871 0.0000 18.2714 0.0000
# 6 0.0000 0.0000 0.0000 7.3460 0.0000 21.5557
#
#
#
# Elastic Compliance Matrix: (Units=1/GPa)
#
#
# Indices 1 2 3 4 5 6 
#
# 1 0.025703 -0.003368 0.000283 0.000000 -0.012609 0.000000
# 2 -0.003368 0.013736 -0.004526 0.000000 0.002310 0.000000
# 3 0.000283 -0.004526 0.027116 0.000000 -0.026541 0.000000
# 4 0.000000 0.000000 0.000000 0.070307 0.000000 -0.023960
# 5 -0.012609 0.002310 -0.026541 0.000000 0.087724 0.000000
# 6 0.000000 0.000000 0.000000 -0.023960 0.000000 0.054557
#
#
# Mechanical properties :
#
#
# Convention : Reuss Voigt Hill
#
# Bulk Modulus (GPa) = 19.48063 30.02014 24.75039
# Shear Modulus (GPa) = 16.05252 20.76403 18.40828
#
# Velocity S-wave (km/s) = 3.05879 3.47884 3.27555
# Velocity P-wave (km/s) = 4.88152 5.79945 5.36017
#
# Compressibility (1/GPa) = 0.05133303
#
# Stress axis : x y z
#
# Youngs Moduli (GPa) = 38.90570 72.80029 36.87815
#
# Poissons Ratio (x) = 0.24522 -0.01043
# Poissons Ratio (y) = 0.13105 0.16691
# Poissons Ratio (z) = -0.01101 0.32948
#
# Static dielectric constant tensor:
#      x y z
#    x 1.598420 0.000000 0.032850 
#    y 0.000000 1.566330 0.000000 
#    z 0.032850 0.000000 1.564300 
# 
# From -- ./inp_files/289032.got.cif
#   From: 2010.05.17/outbox.cif.g08.bks.cpg/sg12_145_cif.got.tgz:289032.got - 2010.06.03 13:09:07.
