data_PCOD9184353
_publ_section_title
;
Structure prediction by ZEFSAII (Michael W. Deem and Ramdas Pophale) SiO2 
 PCOD9184353
Probable space group: C 2/M
;
_chemical_formula_sum "Si O2"
_cell_formula_units_Z 40
_cell_length_a 13.749070
_cell_length_b 12.170371
_cell_length_c 11.069067
_cell_angle_alpha 90.000000
_cell_angle_beta 69.844283
_cell_angle_gamma 90.000000
_cell_volume 1738.771673
_symmetry_space_group_name_H-M "C 2/M"
_symmetry_group_IT_number 12
_symmetry_cell_setting 'monoclinic'
loop_
_space_group_symop_operation_xyz
x,y,z
-x,y,-z
-x,-y,-z
x,-y,z
1/2+x,1/2+y,z
1/2-x,1/2+y,-z
1/2-x,1/2-y,-z
1/2+x,1/2-y,z
loop_
_atom_site_type_symbol
_atom_site_label
_atom_site_fract_x
_atom_site_fract_y
_atom_site_fract_z
Si Si1 0.758437 0.773788 0.677487
Si Si2 0.575261 0.168521 0.082709
Si Si3 0.888420 0.131030 0.400561
Si Si4 0.200001 0.881177 0.090196
Si Si5 0.962438 0.325944 0.641419
O O1 0.805433 0.841693 0.543776
O O2 0.657943 0.703659 0.688980
O O3 0.758963 0.848746 0.794318
O O4 0.841146 0.680726 0.674846
O O5 0.614455 0.295150 0.080143
O O6 0.519500 0.131824 0.231301
O O7 0.500000 0.151595 0.000000
O O8 0.690774 0.117263 0.027228
O O9 0.993185 0.199924 0.379472
O O10 0.900024 0.000000 0.381924
O O11 0.151236 0.000000 0.112770
O O12 0.000000 0.377915 0.500000
#
# Coordination Sequence:
#
# PCOD9184353 Si02
#       5
#     8   8   8   8   8
#     4   9  19  35  55  85 121 148 187 240 285 340
#     4  10  21  38  58  85 115 144 192 243 281 333
#     4  10  19  33  59  88 114 151 194 236 285 338
#     4  10  21  38  59  81 112 154 192 232 289 348
#     4   9  19  35  56  81 116 151 182 229 287 337
#
# _framework density 23.004746000000001
#
# number of rings (size 3 to 8) (size 9 to 14) (size 15 to 20)
#    0.000    2.400    0.000    1.800    0.000    7.600 
#    0.000   15.000    0.000   21.600    0.000    0.000 
#    0.000    0.000    0.000    0.000    0.000    0.000 
#
# Total GULP energy -111372.588214 kJ/mol
# GULP energy per Si atom -5568.629411 kJ/mol
# Density = 2.295239 g / cm^3
# Si number density = 23.004746 Si / 1000 Ang^3
#
#
#
# Elastic Constant Matrix: (Units=GPa)
#
#
# Indices 1 2 3 4 5 6 
#
# 1 95.0915 -2.8048 7.3585 0.0000 14.3422 0.0000
# 2 -2.8048 103.0182 5.6075 0.0000 3.8022 0.0000
# 3 7.3585 5.6075 132.4104 0.0000 4.3905 0.0000
# 4 0.0000 0.0000 0.0000 -2.8644 0.0000 -5.9683
# 5 14.3422 3.8022 4.3905 0.0000 24.8819 0.0000
# 6 0.0000 0.0000 0.0000 -5.9683 0.0000 -46.2725
#
#
#
# Elastic Compliance Matrix: (Units=1/GPa)
#
#
# Indices 1 2 3 4 5 6 
#
# 1 0.011576 0.000586 -0.000447 0.000000 -0.006683 0.000000
# 2 0.000586 0.009809 -0.000389 0.000000 -0.001768 0.000000
# 3 -0.000447 -0.000389 0.007628 0.000000 -0.001029 0.000000
# 4 0.000000 0.000000 0.000000 -0.477428 0.000000 0.061580
# 5 -0.006683 -0.001768 -0.001029 0.000000 0.044494 0.000000
# 6 0.000000 0.000000 0.000000 0.061580 0.000000 -0.029554
#
#
# Mechanical properties :
#
#
# Convention : Reuss Voigt Hill
#
# Bulk Modulus (GPa) = 35.07089 38.98250 37.02670
# Shear Modulus (GPa) = -11.80719 16.50627 2.34954
#
# Velocity S-wave (km/s) = -2.26796 2.68155 1.01170
# Velocity P-wave (km/s) = 2.90172 5.15460 4.18269
#
# Compressibility (1/GPa) = 0.02851367
#
# Stress axis : x y z
#
# Youngs Moduli (GPa) = 86.38524 101.94273 131.10110
#
# Poissons Ratio (x) = -0.05975 0.05854
# Poissons Ratio (y) = -0.05063 0.05105
# Poissons Ratio (z) = 0.03857 0.03969
#
# Static dielectric constant tensor:
#      x y z
#    x 1.820790 0.000000 0.027890 
#    y 0.000000 1.841640 0.000000 
#    z 0.027890 0.000000 2.092940 
# 
# From -- ./inp_files/140797.got.cif
#   From: 2010.05.17/outbox.cif.g08.bks.cpg/sg12_71_cif.got.tgz:140797.got - 2010.06.03 13:09:07.
