data_PCOD9184644
_publ_section_title
;
Structure prediction by ZEFSAII (Michael W. Deem and Ramdas Pophale) SiO2 
 PCOD9184644
Probable space group: C 2/M
;
_chemical_formula_sum "Si O2"
_cell_formula_units_Z 60
_cell_length_a 28.993714
_cell_length_b 11.647708
_cell_length_c 12.951330
_cell_angle_alpha 90.000000
_cell_angle_beta 51.427162
_cell_angle_gamma 90.000000
_cell_volume 3419.505678
_symmetry_space_group_name_H-M "C 2/M"
_symmetry_group_IT_number 12
_symmetry_cell_setting 'monoclinic'
loop_
_space_group_symop_operation_xyz
x,y,z
-x,y,-z
-x,-y,-z
x,-y,z
1/2+x,1/2+y,z
1/2-x,1/2+y,-z
1/2-x,1/2-y,-z
1/2+x,1/2-y,z
loop_
_atom_site_type_symbol
_atom_site_label
_atom_site_fract_x
_atom_site_fract_y
_atom_site_fract_z
Si Si1 0.455558 0.860157 0.470308
Si Si2 0.172067 0.362478 0.277677
Si Si3 0.158905 0.362095 0.062722
Si Si4 0.500000 0.265745 0.000000
Si Si5 0.776801 0.129526 0.506720
Si Si6 0.276012 0.229065 0.225725
Si Si7 0.873146 0.869139 0.216437
Si Si8 0.028193 0.361591 0.171972
O O1 0.500000 0.824902 0.500000
O O2 0.389495 0.821509 0.587028
O O3 0.480507 0.825217 0.324428
O O4 0.455628 0.000000 0.471116
O O5 0.169794 0.500000 0.278216
O O6 0.175137 0.320734 0.154733
O O7 0.227599 0.324129 0.266168
O O8 0.158903 0.500000 0.066036
O O9 0.092386 0.326931 0.125350
O O10 0.201605 0.323009 0.912375
O O11 0.441312 0.336140 0.111900
O O12 0.516137 0.190332 0.077306
O O13 0.750000 0.250000 0.500000
O O14 0.757539 0.140226 0.652305
O O15 0.844175 0.135822 0.371821
O O16 0.756394 0.000000 0.499631
O O17 0.332189 0.284606 0.205592
O O18 0.865492 0.000000 0.190354
O O19 0.027186 0.500000 0.166438
#
# Coordination Sequence:
#
# PCOD9184644 Si02
#       8
#     8   8   8   4   8   8   8   8
#     4   9  16  31  53  76 106 143 179 221 280 339
#     4  10  20  32  53  82 112 145 181 225 281 341
#     4  10  19  34  53  79 112 144 176 223 284 342
#     4  12  22  36  56  78 104 142 192 224 290 338
#     4   9  20  38  58  81 111 150 191 236 286 338
#     4  11  20  35  55  81 108 145 186 229 279 337
#     4  10  22  39  55  75 106 142 188 239 280 332
#     4  10  20  34  53  80 113 140 175 231 288 344
#
# _framework density 17.546396000000001
#
# number of rings (size 3 to 8) (size 9 to 14) (size 15 to 20)
#    0.000    2.000    2.667    1.600    1.867    0.533 
#    0.000    0.667    0.000    0.000    0.000    0.000 
#    0.000    5.333    0.000    0.000    0.000    0.000 
#
# Total GULP energy -167049.297589 kJ/mol
# GULP energy per Si atom -5568.309920 kJ/mol
# Density = 1.750646 g / cm^3
# Si number density = 17.546396 Si / 1000 Ang^3
#
#
#
# Elastic Constant Matrix: (Units=GPa)
#
#
# Indices 1 2 3 4 5 6 
#
# 1 61.3787 16.3199 27.1122 0.0000 -18.0453 0.0000
# 2 16.3199 47.4889 29.5652 0.0000 -0.3139 0.0000
# 3 27.1122 29.5652 137.8094 0.0000 -16.1483 0.0000
# 4 0.0000 0.0000 0.0000 24.5575 0.0000 0.8218
# 5 -18.0453 -0.3139 -16.1483 0.0000 27.4149 0.0000
# 6 0.0000 0.0000 0.0000 0.8218 0.0000 11.9416
#
#
#
# Elastic Compliance Matrix: (Units=1/GPa)
#
#
# Indices 1 2 3 4 5 6 
#
# 1 0.022911 -0.006936 -0.001355 0.000000 0.014203 0.000000
# 2 -0.006936 0.026635 -0.005208 0.000000 -0.007328 0.000000
# 3 -0.001355 -0.005208 0.009161 0.000000 0.004445 0.000000
# 4 0.000000 0.000000 0.000000 0.040815 0.000000 -0.002809
# 5 0.014203 -0.007328 0.004445 0.000000 0.048359 0.000000
# 6 0.000000 0.000000 0.000000 -0.002809 0.000000 0.083934
#
#
# Mechanical properties :
#
#
# Convention : Reuss Voigt Hill
#
# Bulk Modulus (GPa) = 31.53747 43.63018 37.58383
# Shear Modulus (GPa) = 18.56089 24.36144 21.46116
#
# Velocity S-wave (km/s) = 3.25594 3.73017 3.50109
# Velocity P-wave (km/s) = 5.66989 6.59331 6.14896
#
# Compressibility (1/GPa) = 0.03170832
#
# Stress axis : x y z
#
# Youngs Moduli (GPa) = 43.64781 37.54418 109.15574
#
# Poissons Ratio (x) = 0.26040 0.14792
# Poissons Ratio (y) = 0.30274 0.56853
# Poissons Ratio (z) = 0.05915 0.19555
#
# Static dielectric constant tensor:
#      x y z
#    x 1.590420 0.000000 0.004870 
#    y 0.000000 1.590760 0.000000 
#    z 0.004870 0.000000 1.624100 
# 
# From -- ./inp_files/188693.got.cif
#   From: 2010.05.17/outbox.cif.g08.bks.cpg/sg12_95_cif.got.tgz:188693.got - 2010.06.03 13:09:07.
