data_PCOD9184315
_publ_section_title
;
Structure prediction by ZEFSAII (Michael W. Deem and Ramdas Pophale) SiO2 
 PCOD9184315
Probable space group: C 2/M
;
_chemical_formula_sum "Si O2"
_cell_formula_units_Z 48
_cell_length_a 20.427029
_cell_length_b 19.702932
_cell_length_c 11.667773
_cell_angle_alpha 90.000000
_cell_angle_beta 149.341734
_cell_angle_gamma 90.000000
_cell_volume 2394.545395
_symmetry_space_group_name_H-M "C 2/M"
_symmetry_group_IT_number 12
_symmetry_cell_setting 'monoclinic'
loop_
_space_group_symop_operation_xyz
x,y,z
-x,y,-z
-x,-y,-z
x,-y,z
1/2+x,1/2+y,z
1/2-x,1/2+y,-z
1/2-x,1/2-y,-z
1/2+x,1/2-y,z
loop_
_atom_site_type_symbol
_atom_site_label
_atom_site_fract_x
_atom_site_fract_y
_atom_site_fract_z
Si Si1 0.560607 0.785156 0.913573
Si Si2 0.706501 0.000000 0.358187
Si Si3 0.490428 0.500000 0.742000
Si Si4 0.676438 0.847173 0.303889
Si Si5 0.347545 0.000000 0.463500
Si Si6 0.551054 0.112327 0.703307
Si Si7 0.029094 0.855699 0.177204
Si Si8 0.248784 0.000000 0.057216
O O1 0.425909 0.811409 0.766842
O O2 0.579142 0.824028 0.823892
O O3 0.549780 0.704832 0.883007
O O4 0.663792 0.808520 0.163987
O O5 0.839351 0.000000 0.487808
O O6 0.643316 0.927267 0.238317
O O7 0.727404 0.000000 0.528982
O O8 0.508729 0.430354 0.839018
O O9 0.598252 0.500000 0.807268
O O10 0.819973 0.845592 0.569364
O O11 0.441280 0.934753 0.597077
O O12 0.268461 0.000000 0.225952
O O13 0.500000 0.129416 0.500000
O O14 0.674993 0.064751 0.874579
O O15 0.000000 0.848796 0.000000
#
# Coordination Sequence:
#
# PCOD9184315 Si02
#       8
#     8   4   4   8   4   8   8   4
#     4  11  21  37  61  89 126 158 193 257 314 363
#     4  10  19  33  58  89 127 157 192 245 306 384
#     4  10  24  37  58  86 118 163 210 241 296 361
#     4  10  22  36  56  96 128 156 191 247 322 367
#     4   9  16  30  53  88 123 147 194 257 297 350
#     4   9  19  36  59  87 116 159 206 251 303 339
#     4  11  23  38  60  90 127 161 196 246 310 375
#     4   9  20  36  56  84 120 160 214 257 278 349
#
# _framework density 20.045559000000001
#
# number of rings (size 3 to 8) (size 9 to 14) (size 15 to 20)
#    0.000    2.000    3.333    1.750    4.667    2.667 
#    0.000    0.833    0.000    7.000    0.000    0.000 
#    0.000    0.000    0.000    0.000    0.000    0.000 
#
# Total GULP energy -133983.235806 kJ/mol
# GULP energy per Si atom -5582.634825 kJ/mol
# Density = 1.999993 g / cm^3
# Si number density = 20.045559 Si / 1000 Ang^3
#
#
#
# Elastic Constant Matrix: (Units=GPa)
#
#
# Indices 1 2 3 4 5 6 
#
# 1 56.9452 26.2984 30.5481 0.0000 1.7862 0.0000
# 2 26.2984 138.8871 45.7335 0.0000 -6.4680 0.0000
# 3 30.5481 45.7335 90.4458 0.0000 1.2402 0.0000
# 4 0.0000 0.0000 0.0000 16.4040 0.0000 3.9625
# 5 1.7862 -6.4680 1.2402 0.0000 20.7449 0.0000
# 6 0.0000 0.0000 0.0000 3.9625 0.0000 11.8844
#
#
#
# Elastic Compliance Matrix: (Units=1/GPa)
#
#
# Indices 1 2 3 4 5 6 
#
# 1 0.022023 -0.002200 -0.006296 0.000000 -0.002206 0.000000
# 2 -0.002200 0.009043 -0.003874 0.000000 0.003241 0.000000
# 3 -0.006296 -0.003874 0.015163 0.000000 -0.001572 0.000000
# 4 0.000000 0.000000 0.000000 0.066301 0.000000 -0.022106
# 5 -0.002206 0.003241 -0.001572 0.000000 0.049499 0.000000
# 6 0.000000 0.000000 0.000000 -0.022106 0.000000 0.091514
#
#
# Mechanical properties :
#
#
# Convention : Reuss Voigt Hill
#
# Bulk Modulus (GPa) = 46.53258 54.60424 50.56841
# Shear Modulus (GPa) = 17.51641 22.05319 19.78480
#
# Velocity S-wave (km/s) = 2.95927 3.32045 3.14505
# Velocity P-wave (km/s) = 5.91102 6.48072 6.20242
#
# Compressibility (1/GPa) = 0.02149032
#
# Stress axis : x y z
#
# Youngs Moduli (GPa) = 45.40676 110.58000 65.94889
#
# Poissons Ratio (x) = 0.24324 0.41520
# Poissons Ratio (y) = 0.09988 0.25550
# Poissons Ratio (z) = 0.28587 0.42840
#
# Static dielectric constant tensor:
#      x y z
#    x 1.680610 0.000000 0.020030 
#    y 0.000000 1.730250 0.000000 
#    z 0.020030 0.000000 1.732200 
# 
# From -- ./inp_files/133053.got.cif
#   From: 2010.05.17/outbox.cif.g08.bks.cpg/sg12_67_cif.got.tgz:133053.got - 2010.06.03 13:09:07.
