data_PCOD9184235
_publ_section_title
;
Structure prediction by ZEFSAII (Michael W. Deem and Ramdas Pophale) SiO2 
 PCOD9184235
Probable space group: C 2/M
;
_chemical_formula_sum "Si O2"
_cell_formula_units_Z 34
_cell_length_a 13.971437
_cell_length_b 15.673542
_cell_length_c 7.914728
_cell_angle_alpha 90.000000
_cell_angle_beta 57.000381
_cell_angle_gamma 90.000000
_cell_volume 1453.575187
_symmetry_space_group_name_H-M "C 2/M"
_symmetry_group_IT_number 12
_symmetry_cell_setting 'monoclinic'
loop_
_space_group_symop_operation_xyz
x,y,z
-x,y,-z
-x,-y,-z
x,-y,z
1/2+x,1/2+y,z
1/2-x,1/2+y,-z
1/2-x,1/2-y,-z
1/2+x,1/2-y,z
loop_
_atom_site_type_symbol
_atom_site_label
_atom_site_fract_x
_atom_site_fract_y
_atom_site_fract_z
Si Si1 0.349021 0.729379 0.540771
Si Si2 0.064219 0.904419 0.765308
Si Si3 0.500000 0.000000 0.000000
Si Si4 0.272129 0.909201 0.120428
Si Si5 0.685013 0.907864 0.319347
O O1 0.250000 0.750000 0.500000
O O2 0.444730 0.670869 0.361070
O O3 0.289455 0.670965 0.739656
O O4 0.381914 0.823232 0.569300
O O5 0.197869 0.909206 0.686546
O O6 0.028176 0.000000 0.747871
O O7 0.000000 0.883179 0.000000
O O8 0.600449 0.073372 0.932099
O O9 0.211016 0.000000 0.221094
O O10 0.281717 0.902945 0.909448
O O11 0.628226 0.000000 0.406616
#
# Coordination Sequence:
#
# PCOD9184235 Si02
#       5
#     8   8   2   8   8
#     4  10  19  33  58  84 115 155 196 233 298 351
#     4   9  18  34  56  82 115 156 200 242 283 345
#     4   8  20  36  64  90 112 148 194 244 308 352
#     4   9  18  36  60  86 114 150 188 240 299 359
#     4   9  18  34  60  84 117 158 189 234 297 355
#
# _framework density 23.390604
#
# number of rings (size 3 to 8) (size 9 to 14) (size 15 to 20)
#    0.706    2.118    0.000    1.412    0.000    0.941 
#    8.471    1.176    5.176   16.235    0.000    0.000 
#    0.000    0.000    0.000    0.000    0.000    0.000 
#
# Total GULP energy -94636.380522 kJ/mol
# GULP energy per Si atom -5566.845913 kJ/mol
# Density = 2.333737 g / cm^3
# Si number density = 23.390604 Si / 1000 Ang^3
#
#
#
# Elastic Constant Matrix: (Units=GPa)
#
#
# Indices 1 2 3 4 5 6 
#
# 1 86.0624 23.7988 5.1655 0.0000 -7.4235 0.0000
# 2 23.7988 256.2337 90.9828 0.0000 2.0532 0.0000
# 3 5.1655 90.9828 51.0441 0.0000 4.6182 0.0000
# 4 0.0000 0.0000 0.0000 47.9187 0.0000 16.8202
# 5 -7.4235 2.0532 4.6182 0.0000 15.4468 0.0000
# 6 0.0000 0.0000 0.0000 16.8202 0.0000 -4.3368
#
#
#
# Elastic Compliance Matrix: (Units=1/GPa)
#
#
# Indices 1 2 3 4 5 6 
#
# 1 0.012502 -0.001550 0.000962 0.000000 0.005927 0.000000
# 2 -0.001550 0.011118 -0.020001 0.000000 0.003757 0.000000
# 3 0.000962 -0.020001 0.056387 0.000000 -0.013738 0.000000
# 4 0.000000 0.000000 0.000000 0.008837 0.000000 0.034276
# 5 0.005927 0.003757 -0.013738 0.000000 0.071195 0.000000
# 6 0.000000 0.000000 0.000000 0.034276 0.000000 -0.097647
#
#
# Mechanical properties :
#
#
# Convention : Reuss Voigt Hill
#
# Bulk Modulus (GPa) = 25.75461 70.35937 48.05699
# Shear Modulus (GPa) = 42.91361 30.03194 36.47278
#
# Velocity S-wave (km/s) = 4.28793 3.58709 3.95307
# Velocity P-wave (km/s) = 5.96236 6.87763 6.43628
#
# Compressibility (1/GPa) = 0.03882800
#
# Stress axis : x y z
#
# Youngs Moduli (GPa) = 79.98959 89.94080 17.73463
#
# Poissons Ratio (x) = 0.13941 -0.01705
# Poissons Ratio (y) = 0.12399 0.35471
# Poissons Ratio (z) = -0.07691 1.79890
#
# Static dielectric constant tensor:
#      x y z
#    x 1.897600 0.000000 0.031110 
#    y 0.000000 1.924720 0.000000 
#    z 0.031110 0.000000 1.861360 
# 
# From -- ./inp_files/84528.got.cif
#   From: 2010.05.17/outbox.cif.g08.bks.cpg/sg12_43_cif.got.tgz:84528.got - 2010.06.03 13:09:07.
