data_PCOD9184054
_publ_section_title
;
Structure prediction by ZEFSAII (Michael W. Deem and Ramdas Pophale) SiO2 
 PCOD9184054
Probable space group: C 2/M
;
_chemical_formula_sum "Si O2"
_cell_formula_units_Z 32
_cell_length_a 24.565375
_cell_length_b 15.325773
_cell_length_c 5.355705
_cell_angle_alpha 90.000000
_cell_angle_beta 137.629516
_cell_angle_gamma 90.000000
_cell_volume 1358.851481
_symmetry_space_group_name_H-M "C 2/M"
_symmetry_group_IT_number 12
_symmetry_cell_setting 'monoclinic'
loop_
_space_group_symop_operation_xyz
x,y,z
-x,y,-z
-x,-y,-z
x,-y,z
1/2+x,1/2+y,z
1/2-x,1/2+y,-z
1/2-x,1/2-y,-z
1/2+x,1/2-y,z
loop_
_atom_site_type_symbol
_atom_site_label
_atom_site_fract_x
_atom_site_fract_y
_atom_site_fract_z
Si Si1 0.629180 0.400478 0.706791
Si Si2 0.091403 0.791109 0.073040
Si Si3 0.532837 0.136298 0.360109
Si Si4 0.297810 0.829662 0.281816
O O1 0.599619 0.500000 0.603678
O O2 0.603412 0.352248 0.359847
O O3 0.600743 0.348700 0.857675
O O4 0.727109 0.399317 0.067832
O O5 0.159442 0.714301 0.332336
O O6 0.011028 0.731869 0.792507
O O7 0.500000 0.095820 0.500000
O O8 0.628238 0.143206 0.645784
O O9 0.500000 0.092827 0.000000
O O10 0.250000 0.750000 0.000000
#
# Coordination Sequence:
#
# PCOD9184054 Si02
#       4
#     8   8   8   8
#     4  11  22  37  59  88 120 150 182 231 292 340
#     4  10  20  37  58  82 111 150 193 228 272 335
#     4  10  19  33  57  83 107 138 188 241 273 314
#     4   9  19  35  60  83 107 146 195 236 271 325
#
# _framework density 23.549299999999999
#
# number of rings (size 3 to 8) (size 9 to 14) (size 15 to 20)
#    0.000    2.000    0.000    6.000    0.000    6.000 
#    0.000    0.000    0.000  112.500    0.000    0.000 
#    0.000    4.000    0.000    0.000    0.000    0.250 
#
# Total GULP energy -89279.788974 kJ/mol
# GULP energy per Si atom -5579.986811 kJ/mol
# Density = 2.349570 g / cm^3
# Si number density = 23.549300 Si / 1000 Ang^3
#
#
#
# Elastic Constant Matrix: (Units=GPa)
#
#
# Indices 1 2 3 4 5 6 
#
# 1 166.4588 54.4903 64.3379 0.0000 -22.6989 0.0000
# 2 54.4903 130.6000 37.0712 0.0000 -17.4689 0.0000
# 3 64.3379 37.0712 83.0883 0.0000 -19.5865 0.0000
# 4 0.0000 0.0000 0.0000 85.3740 0.0000 27.1520
# 5 -22.6989 -17.4689 -19.5865 0.0000 70.7796 0.0000
# 6 0.0000 0.0000 0.0000 27.1520 0.0000 -6.0717
#
#
#
# Elastic Compliance Matrix: (Units=1/GPa)
#
#
# Indices 1 2 3 4 5 6 
#
# 1 0.009063 -0.001990 -0.005949 0.000000 0.000769 0.000000
# 2 -0.001990 0.009294 -0.002370 0.000000 0.001000 0.000000
# 3 -0.005949 -0.002370 0.018305 0.000000 0.002573 0.000000
# 4 0.000000 0.000000 0.000000 0.004836 0.000000 0.021625
# 5 0.000769 0.001000 0.002573 0.000000 0.015334 0.000000
# 6 0.000000 0.000000 0.000000 0.021625 0.000000 -0.067995
#
#
# Mechanical properties :
#
#
# Convention : Reuss Voigt Hill
#
# Bulk Modulus (GPa) = 62.32413 76.88288 69.60350
# Shear Modulus (GPa) = 337.78993 44.96623 191.37808
#
# Velocity S-wave (km/s) = 11.98962 4.37447 9.02460
# Velocity P-wave (km/s) = 14.77128 7.63106 11.75636
#
# Compressibility (1/GPa) = 0.01604515
#
# Stress axis : x y z
#
# Youngs Moduli (GPa) = 110.33909 107.60005 54.62846
#
# Poissons Ratio (x) = 0.21412 0.32496
# Poissons Ratio (y) = 0.21957 0.12947
# Poissons Ratio (z) = 0.65636 0.25501
#
# Static dielectric constant tensor:
#      x y z
#    x 1.931460 0.000000 0.004810 
#    y 0.000000 1.884200 0.000000 
#    z 0.004810 0.000000 1.965880 
# 
# From -- ./inp_files/28419.got.cif
#   From: 2010.05.17/outbox.cif.g08.bks.cpg/sg12_15_cif.got.tgz:28419.got - 2010.06.03 13:09:07.
