data_PCOD9184359
_publ_section_title
;
Structure prediction by ZEFSAII (Michael W. Deem and Ramdas Pophale) SiO2 
 PCOD9184359
Probable space group: C 2/M
;
_chemical_formula_sum "Si O2"
_cell_formula_units_Z 64
_cell_length_a 23.426354
_cell_length_b 12.202492
_cell_length_c 18.645063
_cell_angle_alpha 90.000000
_cell_angle_beta 141.667803
_cell_angle_gamma 90.000000
_cell_volume 3305.695213
_symmetry_space_group_name_H-M "C 2/M"
_symmetry_group_IT_number 12
_symmetry_cell_setting 'monoclinic'
loop_
_space_group_symop_operation_xyz
x,y,z
-x,y,-z
-x,-y,-z
x,-y,z
1/2+x,1/2+y,z
1/2-x,1/2+y,-z
1/2-x,1/2-y,-z
1/2+x,1/2-y,z
loop_
_atom_site_type_symbol
_atom_site_label
_atom_site_fract_x
_atom_site_fract_y
_atom_site_fract_z
Si Si1 0.216914 0.310796 0.678633
Si Si2 0.697897 0.376168 0.866266
Si Si3 0.901199 0.159850 0.929871
Si Si4 0.935312 0.764784 0.371481
Si Si5 0.150651 0.627255 0.187876
Si Si6 0.865995 0.790289 0.046253
Si Si7 0.537000 0.872904 0.222417
Si Si8 0.081374 0.626958 0.425803
O O1 0.138439 0.315511 0.662098
O O2 0.249260 0.183381 0.706308
O O3 0.172853 0.348978 0.561427
O O4 0.311446 0.370169 0.794755
O O5 0.732982 0.500000 0.895072
O O6 0.623642 0.351342 0.731459
O O7 0.653006 0.355714 0.899903
O O8 0.778002 0.285620 0.941079
O O9 0.885061 0.134764 0.996389
O O10 0.101824 0.293760 0.081916
O O11 0.000000 0.123035 0.000000
O O12 0.000000 0.807249 0.500000
O O13 0.000938 0.700541 0.380952
O O14 0.151539 0.500000 0.169762
O O15 0.098737 0.642634 0.212514
O O16 0.952276 0.709728 0.140216
O O17 0.590768 0.854992 0.350160
O O18 0.505664 0.000000 0.190906
O O19 0.056418 0.500000 0.411949
#
# Coordination Sequence:
#
# PCOD9184359 Si02
#       8
#     8   8   8   8   8   8   8   8
#     4   9  20  35  53  83 115 150 182 233 287 325
#     4  11  23  37  57  83 115 156 188 228 290 343
#     4  10  19  34  57  85 112 155 184 228 285 328
#     4  10  20  37  59  84 115 146 188 239 282 335
#     4   9  19  33  54  87 115 144 187 229 283 340
#     4  11  20  37  57  81 122 148 187 236 273 345
#     4  10  19  33  59  89 112 145 188 236 287 333
#     4  10  21  38  60  85 112 147 194 238 282 335
#
# _framework density 19.360527000000001
#
# number of rings (size 3 to 8) (size 9 to 14) (size 15 to 20)
#    0.750    1.250    3.750    0.375    0.000    5.750 
#    0.000    2.500    0.000    3.750    0.000    0.000 
#    0.000    0.000    0.000    0.000    0.000    0.000 
#
# Total GULP energy -178416.957516 kJ/mol
# GULP energy per Si atom -5575.529922 kJ/mol
# Density = 1.931646 g / cm^3
# Si number density = 19.360527 Si / 1000 Ang^3
#
#
#
# Elastic Constant Matrix: (Units=GPa)
#
#
# Indices 1 2 3 4 5 6 
#
# 1 89.6169 8.2903 30.5887 0.0000 -7.5023 0.0000
# 2 8.2903 54.6423 5.1319 0.0000 -9.8617 0.0000
# 3 30.5887 5.1319 103.2527 0.0000 -7.0786 0.0000
# 4 0.0000 0.0000 0.0000 10.3616 0.0000 -1.8364
# 5 -7.5023 -9.8617 -7.0786 0.0000 28.0362 0.0000
# 6 0.0000 0.0000 0.0000 -1.8364 0.0000 23.0207
#
#
#
# Elastic Compliance Matrix: (Units=1/GPa)
#
#
# Indices 1 2 3 4 5 6 
#
# 1 0.012654 -0.001214 -0.003547 0.000000 0.002064 0.000000
# 2 -0.001214 0.019684 -0.000169 0.000000 0.006556 0.000000
# 3 -0.003547 -0.000169 0.010863 0.000000 0.001734 0.000000
# 4 0.000000 0.000000 0.000000 0.097894 0.000000 0.007809
# 5 0.002064 0.006556 0.001734 0.000000 0.038964 0.000000
# 6 0.000000 0.000000 0.000000 0.007809 0.000000 0.044062
#
#
# Mechanical properties :
#
#
# Convention : Reuss Voigt Hill
#
# Bulk Modulus (GPa) = 29.99347 37.28152 33.63750
# Shear Modulus (GPa) = 20.40009 25.85042 23.12526
#
# Velocity S-wave (km/s) = 3.24959 3.65802 3.45984
# Velocity P-wave (km/s) = 5.44109 6.09424 5.77690
#
# Compressibility (1/GPa) = 0.03334059
#
# Stress axis : x y z
#
# Youngs Moduli (GPa) = 79.02386 50.80212 92.05492
#
# Poissons Ratio (x) = 0.06169 0.32652
# Poissons Ratio (y) = 0.09596 0.01557
# Poissons Ratio (z) = 0.28030 0.00859
#
# Static dielectric constant tensor:
#      x y z
#    x 1.675080 0.000000 -0.003690 
#    y 0.000000 1.671190 0.000000 
#    z -0.003690 0.000000 1.677760 
# 
# From -- ./inp_files/327835.got.cif
#   From: 2010.05.17/outbox.cif.g08.bks.cpg/sg12_164_cif.got.tgz:327835.got - 2010.06.03 13:09:07.
