data_PCOD9184441
_publ_section_title
;
Structure prediction by ZEFSAII (Michael W. Deem and Ramdas Pophale) SiO2 
 PCOD9184441
Probable space group: C 2/M
;
_chemical_formula_sum "Si O2"
_cell_formula_units_Z 52
_cell_length_a 8.796368
_cell_length_b 20.173049
_cell_length_c 24.028351
_cell_angle_alpha 90.000000
_cell_angle_beta 146.900857
_cell_angle_gamma 90.000000
_cell_volume 2328.427243
_symmetry_space_group_name_H-M "C 2/M"
_symmetry_group_IT_number 12
_symmetry_cell_setting 'monoclinic'
loop_
_space_group_symop_operation_xyz
x,y,z
-x,y,-z
-x,-y,-z
x,-y,z
1/2+x,1/2+y,z
1/2-x,1/2+y,-z
1/2-x,1/2-y,-z
1/2+x,1/2-y,z
loop_
_atom_site_type_symbol
_atom_site_label
_atom_site_fract_x
_atom_site_fract_y
_atom_site_fract_z
Si Si1 0.678966 0.655749 0.223998
Si Si2 0.851540 0.578400 0.377467
Si Si3 0.327179 0.893178 0.111009
Si Si4 0.342685 0.000000 0.715960
Si Si5 0.422628 0.216756 0.743598
Si Si6 0.229918 0.574111 0.023651
Si Si7 0.064163 0.881313 0.400541
O O1 0.572279 0.706927 0.238120
O O2 0.916378 0.694674 0.262645
O O3 0.455496 0.628717 0.111054
O O4 0.777082 0.593469 0.290888
O O5 0.895431 0.500000 0.399172
O O6 0.134218 0.617536 0.478706
O O7 0.623706 0.600294 0.353786
O O8 0.450531 0.942397 0.194220
O O9 0.416225 0.820879 0.157206
O O10 0.436935 0.911028 0.083935
O O11 0.000000 0.900370 0.000000
O O12 0.119254 0.941123 0.631177
O O13 0.113063 0.185537 0.647592
O O14 0.354185 0.500000 0.057498
O O15 0.000000 0.573225 0.000000
#
# Coordination Sequence:
#
# PCOD9184441 Si02
#       7
#     8   8   8   4   8   8   8
#     4  12  27  46  66  97 139 177 237 283 338 404
#     4  11  22  43  71 104 139 177 220 284 340 412
#     4  11  22  41  65  95 133 174 223 275 333 397
#     4  10  19  33  69  97 137 169 213 266 326 409
#     4  11  27  45  68  98 130 189 230 283 341 403
#     4  11  26  42  65 103 135 176 223 278 341 400
#     4  10  21  42  71 103 132 175 228 268 348 411
#
# _framework density 22.332671999999999
#
# number of rings (size 3 to 8) (size 9 to 14) (size 15 to 20)
#    0.000    1.077    3.846    2.077    6.462    2.462 
#    5.538    0.769    0.000    0.000    0.000    0.000 
#    0.000    0.000    0.000    0.000    0.000    0.000 
#
# Total GULP energy -144819.855691 kJ/mol
# GULP energy per Si atom -5569.994450 kJ/mol
# Density = 2.228184 g / cm^3
# Si number density = 22.332672 Si / 1000 Ang^3
#
#
#
# Elastic Constant Matrix: (Units=GPa)
#
#
# Indices 1 2 3 4 5 6 
#
# 1 66.8607 -6.7875 -7.2189 0.0004 -4.1770 0.0010
# 2 -6.7875 73.6783 2.8627 0.0030 1.5920 0.0012
# 3 -7.2189 2.8627 39.7429 0.0014 6.1921 0.0013
# 4 0.0004 0.0030 0.0014 18.5921 0.0023 -0.4799
# 5 -4.1770 1.5920 6.1921 0.0023 19.9007 0.0003
# 6 0.0010 0.0012 0.0013 -0.4799 0.0003 9.0653
#
#
#
# Elastic Compliance Matrix: (Units=1/GPa)
#
#
# Indices 1 2 3 4 5 6 
#
# 1 0.015491 0.001284 0.002344 -0.000001 0.002419 -0.000002
# 2 0.001284 0.013730 -0.000659 -0.000002 -0.000624 -0.000002
# 3 0.002344 -0.000659 0.026852 -0.000001 -0.007810 -0.000004
# 4 -0.000001 -0.000002 -0.000001 0.053860 -0.000006 0.002851
# 5 0.002419 -0.000624 -0.007810 -0.000006 0.053237 -0.000001
# 6 -0.000002 -0.000002 -0.000004 0.002851 -0.000001 0.110461
#
#
# Mechanical properties :
#
#
# Convention : Reuss Voigt Hill
#
# Bulk Modulus (GPa) = 16.12596 17.55494 16.84045
# Shear Modulus (GPa) = 17.33927 22.27333 19.80630
#
# Velocity S-wave (km/s) = 2.78943 3.16150 2.98128
# Velocity P-wave (km/s) = 4.19655 4.60483 4.40543
#
# Compressibility (1/GPa) = 0.06201182
#
# Stress axis : x y z
#
# Youngs Moduli (GPa) = 64.55339 72.83404 37.24138
#
# Poissons Ratio (x) = -0.09350 -0.08731
# Poissons Ratio (y) = -0.08287 0.02453
# Poissons Ratio (z) = -0.15134 0.04797
#
# Static dielectric constant tensor:
#      x y z
#    x 1.967950 0.000000 0.024870 
#    y 0.000000 1.815760 0.000000 
#    z 0.024870 0.000000 1.819380 
# 
# From -- ./inp_files/357055.got.cif
#   From: 2010.05.17/outbox.cif.g08.bks.cpg/sg12_179_cif.got.tgz:357055.got - 2010.06.03 13:09:07.
