data_PCOD9184597
_publ_section_title
;
Structure prediction by ZEFSAII (Michael W. Deem and Ramdas Pophale) SiO2 
 PCOD9184597
Probable space group: C 2/M
;
_chemical_formula_sum "Si O2"
_cell_formula_units_Z 56
_cell_length_a 23.303111
_cell_length_b 21.668945
_cell_length_c 17.483379
_cell_angle_alpha 90.000000
_cell_angle_beta 158.994411
_cell_angle_gamma 90.000000
_cell_volume 3164.583437
_symmetry_space_group_name_H-M "C 2/M"
_symmetry_group_IT_number 12
_symmetry_cell_setting 'monoclinic'
loop_
_space_group_symop_operation_xyz
x,y,z
-x,y,-z
-x,-y,-z
x,-y,z
1/2+x,1/2+y,z
1/2-x,1/2+y,-z
1/2-x,1/2-y,-z
1/2+x,1/2-y,z
loop_
_atom_site_type_symbol
_atom_site_label
_atom_site_fract_x
_atom_site_fract_y
_atom_site_fract_z
Si Si1 0.408432 0.634100 0.147499
Si Si2 0.950293 0.681032 0.304177
Si Si3 0.061968 0.261851 0.285788
Si Si4 0.529419 0.570482 0.152386
Si Si5 0.130759 0.726488 0.106512
Si Si6 0.483789 0.681619 0.565485
Si Si7 0.780228 0.133187 0.739755
O O1 0.494651 0.695924 0.226167
O O2 0.482547 0.584415 0.181817
O O3 0.452843 0.634641 0.292265
O O4 0.218694 0.646695 0.904577
O O5 0.933859 0.749913 0.321433
O O6 0.022621 0.695378 0.309739
O O7 0.091145 0.640206 0.515749
O O8 0.250000 0.250000 0.500000
O O9 0.947838 0.282049 0.074058
O O10 0.580270 0.500000 0.206636
O O11 0.659002 0.614631 0.270156
O O12 0.367926 0.584669 0.903537
O O13 0.296833 0.696620 0.337236
O O14 0.155015 0.799457 0.154017
O O15 0.000000 0.700430 0.000000
O O16 0.500000 0.658577 0.500000
#
# Coordination Sequence:
#
# PCOD9184597 Si02
#       7
#     8   8   8   8   8   8   8
#     4  11  20  35  49  73 108 136 177 222 260 311
#     4  10  21  30  51  77 107 145 166 209 265 322
#     4  11  19  31  49  77 112 145 178 203 255 319
#     4  11  22  37  56  73  99 139 186 231 269 310
#     4  11  17  28  47  75 105 138 168 204 247 313
#     4  10  20  30  49  74 106 142 169 199 255 319
#     4  10  19  34  53  74 101 136 175 218 265 313
#
# _framework density 17.695851999999999
#
# number of rings (size 3 to 8) (size 9 to 14) (size 15 to 20)
#    0.000    1.429    2.857    7.714    2.000    0.000 
#    0.000    2.143    0.000    0.429    0.000    0.000 
#    0.000   14.286    0.000    0.000    0.000    0.143 
#
# Total GULP energy -156005.417859 kJ/mol
# GULP energy per Si atom -5571.622066 kJ/mol
# Density = 1.765558 g / cm^3
# Si number density = 17.695852 Si / 1000 Ang^3
#
#
#
# Elastic Constant Matrix: (Units=GPa)
#
#
# Indices 1 2 3 4 5 6 
#
# 1 75.3268 6.7440 12.9955 0.0000 -14.3344 0.0000
# 2 6.7440 29.6365 6.8807 0.0000 1.8682 0.0000
# 3 12.9955 6.8807 87.7610 0.0000 4.1020 0.0000
# 4 0.0000 0.0000 0.0000 -11.8318 0.0000 -0.8626
# 5 -14.3344 1.8682 4.1020 0.0000 29.6495 0.0000
# 6 0.0000 0.0000 0.0000 -0.8626 0.0000 14.1428
#
#
#
# Elastic Compliance Matrix: (Units=1/GPa)
#
#
# Indices 1 2 3 4 5 6 
#
# 1 0.015537 -0.003486 -0.002404 0.000000 0.008064 0.000000
# 2 -0.003486 0.035246 -0.002078 0.000000 -0.003619 0.000000
# 3 -0.002404 -0.002078 0.012040 0.000000 -0.002697 0.000000
# 4 0.000000 0.000000 0.000000 -0.084144 0.000000 -0.005132
# 5 0.008064 -0.003619 -0.002697 0.000000 0.038227 0.000000
# 6 0.000000 0.000000 0.000000 -0.005132 0.000000 0.070394
#
#
# Mechanical properties :
#
#
# Convention : Reuss Voigt Hill
#
# Bulk Modulus (GPa) = 21.32819 27.32940 24.32880
# Shear Modulus (GPa) = 42.06468 17.46570 29.76519
#
# Velocity S-wave (km/s) = 4.88083 3.14505 4.10572
# Velocity P-wave (km/s) = 6.62134 5.35406 6.02114
#
# Compressibility (1/GPa) = 0.04688631
#
# Stress axis : x y z
#
# Youngs Moduli (GPa) = 64.36315 28.37209 83.05923
#
# Poissons Ratio (x) = 0.09889 0.19970
# Poissons Ratio (y) = 0.22435 0.17260
# Poissons Ratio (z) = 0.15475 0.05896
#
# Static dielectric constant tensor:
#      x y z
#    x 1.730250 0.000000 -0.043320 
#    y 0.000000 1.637570 0.000000 
#    z -0.043320 0.000000 1.629910 
# 
# From -- ./inp_files/291048.got.cif
#   From: 2010.05.17/outbox.cif.g08.bks.cpg/sg12_146_cif.got.tgz:291048.got - 2010.06.03 13:09:07.
