data_PCOD9184488
_publ_section_title
;
Structure prediction by ZEFSAII (Michael W. Deem and Ramdas Pophale) SiO2 
 PCOD9184488
Probable space group: C 2/M
;
_chemical_formula_sum "Si O2"
_cell_formula_units_Z 56
_cell_length_a 31.973633
_cell_length_b 13.598862
_cell_length_c 9.582354
_cell_angle_alpha 90.000000
_cell_angle_beta 61.678839
_cell_angle_gamma 90.000000
_cell_volume 3667.740070
_symmetry_space_group_name_H-M "C 2/M"
_symmetry_group_IT_number 12
_symmetry_cell_setting 'monoclinic'
loop_
_space_group_symop_operation_xyz
x,y,z
-x,y,-z
-x,-y,-z
x,-y,z
1/2+x,1/2+y,z
1/2-x,1/2+y,-z
1/2-x,1/2-y,-z
1/2+x,1/2-y,z
loop_
_atom_site_type_symbol
_atom_site_label
_atom_site_fract_x
_atom_site_fract_y
_atom_site_fract_z
Si Si1 0.740083 0.785136 0.859642
Si Si2 0.639994 0.198003 0.619462
Si Si3 0.306250 0.613727 0.543604
Si Si4 0.856891 0.618699 0.072935
Si Si5 0.055050 0.381166 0.259766
Si Si6 0.259882 0.887521 0.621259
Si Si7 0.552391 0.119038 0.587079
O O1 0.782489 0.849613 0.724811
O O2 0.691694 0.846470 0.922424
O O3 0.737508 0.689488 0.763769
O O4 0.750000 0.750000 0.000000
O O5 0.652904 0.311272 0.568259
O O6 0.639584 0.169772 0.782289
O O7 0.684685 0.138489 0.483329
O O8 0.591319 0.166004 0.624788
O O9 0.320257 0.500000 0.527947
O O10 0.265195 0.623787 0.489806
O O11 0.856500 0.500000 0.090957
O O12 0.901947 0.648393 0.907381
O O13 0.054446 0.500000 0.260794
O O14 0.062018 0.352894 0.410364
O O15 0.002152 0.351252 0.296097
O O16 0.253966 0.000000 0.675460
O O17 0.555472 0.000000 0.592859
#
# Coordination Sequence:
#
# PCOD9184488 Si02
#       7
#     8   8   8   8   8   8   8
#     4  11  22  33  48  74 105 133 169 203 247 298
#     4  11  19  31  52  77  94 129 172 203 243 295
#     4  10  20  37  53  69 101 136 169 208 248 290
#     4  11  20  32  49  74 106 133 162 207 250 290
#     4   8  18  32  47  70 104 135 159 197 252 300
#     4  10  19  34  51  70  98 135 170 203 241 293
#     4   9  17  32  50  73 101 131 165 200 243 304
#
# _framework density 15.268257999999999
#
# number of rings (size 3 to 8) (size 9 to 14) (size 15 to 20)
#    0.000    2.000    2.857    3.429    4.000    1.714 
#    0.000    2.143    0.000    0.000    0.000    5.000 
#    0.000    0.000    0.000    0.000    0.000    0.000 
#
# Total GULP energy -156143.170665 kJ/mol
# GULP energy per Si atom -5576.541809 kJ/mol
# Density = 1.523351 g / cm^3
# Si number density = 15.268258 Si / 1000 Ang^3
#
#
#
# Elastic Constant Matrix: (Units=GPa)
#
#
# Indices 1 2 3 4 5 6 
#
# 1 93.7903 26.7719 50.3666 0.0000 4.1329 0.0000
# 2 26.7719 89.1595 43.5338 0.0000 0.6706 0.0000
# 3 50.3666 43.5338 106.2483 0.0000 -7.2710 0.0000
# 4 0.0000 0.0000 0.0000 17.5458 0.0000 -0.3895
# 5 4.1329 0.6706 -7.2710 0.0000 21.4803 0.0000
# 6 0.0000 0.0000 0.0000 -0.3895 0.0000 24.2719
#
#
#
# Elastic Compliance Matrix: (Units=1/GPa)
#
#
# Indices 1 2 3 4 5 6 
#
# 1 0.014959 -0.001019 -0.007031 0.000000 -0.005226 0.000000
# 2 -0.001019 0.014216 -0.005486 0.000000 -0.002105 0.000000
# 3 -0.007031 -0.005486 0.015455 0.000000 0.006756 0.000000
# 4 0.000000 0.000000 0.000000 0.057014 0.000000 0.000915
# 5 -0.005226 -0.002105 0.006756 0.000000 0.049912 0.000000
# 6 0.000000 0.000000 0.000000 0.000915 0.000000 0.041215
#
#
# Mechanical properties :
#
#
# Convention : Reuss Voigt Hill
#
# Bulk Modulus (GPa) = 56.95477 58.94917 57.95197
# Shear Modulus (GPa) = 22.15357 23.89465 23.02411
#
# Velocity S-wave (km/s) = 3.81327 3.96029 3.88747
# Velocity P-wave (km/s) = 7.53471 7.72040 7.62812
#
# Compressibility (1/GPa) = 0.01755779
#
# Stress axis : x y z
#
# Youngs Moduli (GPa) = 66.84808 70.34192 64.70336
#
# Poissons Ratio (x) = 0.07170 0.45496
# Poissons Ratio (y) = 0.06814 0.35495
# Poissons Ratio (z) = 0.47004 0.38588
#
# Static dielectric constant tensor:
#      x y z
#    x 1.495200 0.000000 0.000390 
#    y 0.000000 1.505840 0.000000 
#    z 0.000390 0.000000 1.511740 
# 
# From -- ./inp_files/104123.got.cif
#   From: 2010.05.17/outbox.cif.g08.bks.cpg/sg12_53_cif.got.tgz:104123.got - 2010.06.03 13:09:07.
