data_PCOD9184266
_publ_section_title
;
Structure prediction by ZEFSAII (Michael W. Deem and Ramdas Pophale) SiO2 
 PCOD9184266
Probable space group: C 2/M
;
_chemical_formula_sum "Si O2"
_cell_formula_units_Z 64
_cell_length_a 15.145060
_cell_length_b 8.117487
_cell_length_c 23.404361
_cell_angle_alpha 90.000000
_cell_angle_beta 84.792773
_cell_angle_gamma 90.000000
_cell_volume 2865.453256
_symmetry_space_group_name_H-M "C 2/M"
_symmetry_group_IT_number 12
_symmetry_cell_setting 'monoclinic'
loop_
_space_group_symop_operation_xyz
x,y,z
-x,y,-z
-x,-y,-z
x,-y,z
1/2+x,1/2+y,z
1/2-x,1/2+y,-z
1/2-x,1/2-y,-z
1/2+x,1/2-y,z
loop_
_atom_site_type_symbol
_atom_site_label
_atom_site_fract_x
_atom_site_fract_y
_atom_site_fract_z
Si Si1 0.448315 0.697194 0.947724
Si Si2 0.602537 0.300471 0.860807
Si Si3 0.775910 0.309791 0.904011
Si Si4 0.456294 0.806698 0.248842
Si Si5 0.797278 0.699462 0.439188
Si Si6 0.527232 0.803155 0.623215
Si Si7 0.151734 0.192519 0.219706
Si Si8 0.328133 0.696591 0.654818
O O1 0.454729 0.500000 0.949060
O O2 0.507167 0.753043 0.890326
O O3 0.345972 0.735984 0.943823
O O4 0.500000 0.761850 0.000000
O O5 0.606344 0.500000 0.858717
O O6 0.677227 0.241241 0.900781
O O7 0.613669 0.234707 0.796210
O O8 0.767470 0.500000 0.919460
O O9 0.815890 0.288382 0.837770
O O10 0.431889 0.773886 0.315812
O O11 0.545111 0.704714 0.230579
O O12 0.478141 0.000000 0.243870
O O13 0.798766 0.500000 0.436561
O O14 0.750000 0.750000 0.500000
O O15 0.899152 0.755627 0.425918
O O16 0.739114 0.760285 0.388856
O O17 0.429309 0.728385 0.629167
O O18 0.515881 0.000000 0.617441
O O19 0.183404 0.259218 0.279568
O O20 0.176163 0.000000 0.211016
O O21 0.315955 0.500000 0.659857
#
# Coordination Sequence:
#
# PCOD9184266 Si02
#       8
#     8   8   8   8   8   8   8   8
#     4  10  22  42  64  83 112 158 202 239 286 344
#     4  10  22  38  56  84 121 154 187 237 290 337
#     4  11  23  37  56  87 120 152 191 239 289 338
#     4  10  19  33  58  87 116 150 190 234 286 349
#     4  10  22  40  58  81 113 152 193 237 281 337
#     4   9  20  37  57  82 115 148 186 235 286 336
#     4  10  19  34  58  84 116 153 188 233 290 346
#     4   9  20  37  58  82 112 148 189 233 284 341
#
# _framework density 22.335035999999999
#
# number of rings (size 3 to 8) (size 9 to 14) (size 15 to 20)
#    0.000    2.125    1.250    1.125    1.750    4.250 
#    0.000    2.500    0.000    0.000    0.000    0.000 
#    0.000    0.000    0.000    0.000    0.000    0.000 
#
# Total GULP energy -178702.594042 kJ/mol
# GULP energy per Si atom -5584.456064 kJ/mol
# Density = 2.228420 g / cm^3
# Si number density = 22.335036 Si / 1000 Ang^3
#
#
#
# Elastic Constant Matrix: (Units=GPa)
#
#
# Indices 1 2 3 4 5 6 
#
# 1 62.6114 1.0744 -3.5242 0.0000 14.4671 0.0000
# 2 1.0744 12.9237 -2.1726 0.0000 0.8447 0.0000
# 3 -3.5242 -2.1726 34.1507 0.0000 12.4213 0.0000
# 4 0.0000 0.0000 0.0000 22.7819 0.0000 5.9925
# 5 14.4671 0.8447 12.4213 0.0000 30.2148 0.0000
# 6 0.0000 0.0000 0.0000 5.9925 0.0000 21.0734
#
#
#
# Elastic Compliance Matrix: (Units=1/GPa)
#
#
# Indices 1 2 3 4 5 6 
#
# 1 0.019014 0.000228 0.006220 0.000000 -0.011667 0.000000
# 2 0.000228 0.078858 0.006916 0.000000 -0.005157 0.000000
# 3 0.006220 0.006916 0.037059 0.000000 -0.018406 0.000000
# 4 0.000000 0.000000 0.000000 0.047443 0.000000 -0.013491
# 5 -0.011667 -0.005157 -0.018406 0.000000 0.046394 0.000000
# 6 0.000000 0.000000 0.000000 -0.013491 0.000000 0.051289
#
#
# Mechanical properties :
#
#
# Convention : Reuss Voigt Hill
#
# Bulk Modulus (GPa) = 6.18590 11.16011 8.67300
# Shear Modulus (GPa) = 16.27526 22.43458 19.35492
#
# Velocity S-wave (km/s) = 2.70235 3.17275 2.94695
# Velocity P-wave (km/s) = 3.53731 4.29294 3.93331
#
# Compressibility (1/GPa) = 0.16165799
#
# Stress axis : x y z
#
# Youngs Moduli (GPa) = 52.59384 12.68105 26.98427
#
# Poissons Ratio (x) = -0.00289 -0.16785
# Poissons Ratio (y) = -0.01197 -0.18662
# Poissons Ratio (z) = -0.32715 -0.08770
#
# Static dielectric constant tensor:
#      x y z
#    x 1.849170 0.000000 0.013940 
#    y 0.000000 1.786790 0.000000 
#    z 0.013940 0.000000 1.845980 
# 
# From -- ./inp_files/338808.got.cif
#   From: 2010.05.17/outbox.cif.g08.bks.cpg/sg12_170_cif.got.tgz:338808.got - 2010.06.03 13:09:07.
