data_PCOD9184391
_publ_section_title
;
Structure prediction by ZEFSAII (Michael W. Deem and Ramdas Pophale) SiO2 
 PCOD9184391
Probable space group: C 2/M
;
_chemical_formula_sum "Si O2"
_cell_formula_units_Z 56
_cell_length_a 23.729803
_cell_length_b 20.575987
_cell_length_c 12.383949
_cell_angle_alpha 90.000000
_cell_angle_beta 27.744190
_cell_angle_gamma 90.000000
_cell_volume 2814.859777
_symmetry_space_group_name_H-M "C 2/M"
_symmetry_group_IT_number 12
_symmetry_cell_setting 'monoclinic'
loop_
_space_group_symop_operation_xyz
x,y,z
-x,y,-z
-x,-y,-z
x,-y,z
1/2+x,1/2+y,z
1/2-x,1/2+y,-z
1/2-x,1/2-y,-z
1/2+x,1/2-y,z
loop_
_atom_site_type_symbol
_atom_site_label
_atom_site_fract_x
_atom_site_fract_y
_atom_site_fract_z
Si Si1 0.507226 0.798299 0.364826
Si Si2 0.359361 0.075106 0.923789
Si Si3 0.605211 0.074620 0.894218
Si Si4 0.755685 0.306402 0.664473
Si Si5 0.469489 0.322579 0.820811
Si Si6 0.774103 0.825823 0.530503
Si Si7 0.083962 0.073615 0.462651
O O1 0.500000 0.773809 0.500000
O O2 0.582823 0.865461 0.239274
O O3 0.375311 0.809436 0.534655
O O4 0.561366 0.742066 0.195989
O O5 0.368579 0.000000 0.866958
O O6 0.425410 0.077430 0.928141
O O7 0.218864 0.088697 0.190047
O O8 0.731923 0.108813 0.658043
O O9 0.617707 0.000000 0.841288
O O10 0.500000 0.105345 0.000000
O O11 0.720017 0.231401 0.697496
O O12 0.771875 0.330074 0.514036
O O13 0.647269 0.340553 0.911918
O O14 0.583188 0.311282 0.708010
O O15 0.523014 0.375867 0.647957
O O16 0.000000 0.072702 0.500000
O O17 0.089003 0.000000 0.499701
#
# Coordination Sequence:
#
# PCOD9184391 Si02
#       7
#     8   8   8   8   8   8   8
#     4  11  25  39  59  90 121 156 198 249 303 353
#     4  10  21  40  63  86 119 159 201 243 294 360
#     4  10  19  33  60  89 114 150 195 246 292 343
#     4  10  23  38  58  87 116 161 195 239 304 352
#     4  11  22  38  62  88 120 154 200 251 299 349
#     4  10  20  38  58  84 118 154 197 242 289 365
#     4  10  22  40  63  89 116 160 208 245 292 356
#
# _framework density 19.894418999999999
#
# number of rings (size 3 to 8) (size 9 to 14) (size 15 to 20)
#    0.000    1.714    1.429    2.571    4.000    3.143 
#    0.000    1.429    0.000    1.714    0.000    0.000 
#    0.000    0.000    0.000    0.000    0.000    0.000 
#
# Total GULP energy -156125.953340 kJ/mol
# GULP energy per Si atom -5575.926905 kJ/mol
# Density = 1.984914 g / cm^3
# Si number density = 19.894419 Si / 1000 Ang^3
#
#
#
# Elastic Constant Matrix: (Units=GPa)
#
#
# Indices 1 2 3 4 5 6 
#
# 1 82.3505 -8.2987 11.7653 0.0001 3.4318 0.0000
# 2 -8.2987 56.8231 23.5877 0.0000 7.8382 0.0000
# 3 11.7653 23.5877 61.0735 -0.0001 3.1056 0.0000
# 4 0.0001 0.0000 -0.0001 28.1137 0.0000 0.8531
# 5 3.4318 7.8382 3.1056 0.0000 16.1754 0.0000
# 6 0.0000 0.0000 0.0000 0.8531 0.0000 20.7133
#
#
#
# Elastic Compliance Matrix: (Units=1/GPa)
#
#
# Indices 1 2 3 4 5 6 
#
# 1 0.013296 0.004145 -0.003955 0.000000 -0.004070 0.000000
# 2 0.004145 0.023534 -0.009354 0.000000 -0.010487 0.000000
# 3 -0.003955 -0.009354 0.020677 0.000000 0.001402 0.000000
# 4 0.000000 0.000000 0.000000 0.035614 0.000000 -0.001467
# 5 -0.004070 -0.010487 0.001402 0.000000 0.067498 0.000000
# 6 0.000000 0.000000 0.000000 -0.001467 0.000000 0.048339
#
#
# Mechanical properties :
#
#
# Convention : Reuss Voigt Hill
#
# Bulk Modulus (GPa) = 25.52502 28.26176 26.89339
# Shear Modulus (GPa) = 20.80336 24.54665 22.67501
#
# Velocity S-wave (km/s) = 3.23722 3.51643 3.37971
# Velocity P-wave (km/s) = 5.17985 5.54290 5.36445
#
# Compressibility (1/GPa) = 0.03917725
#
# Stress axis : x y z
#
# Youngs Moduli (GPa) = 75.21283 42.49261 48.36253
#
# Poissons Ratio (x) = -0.17613 0.19128
# Poissons Ratio (y) = -0.31176 0.45240
# Poissons Ratio (z) = 0.29748 0.39749
#
# Static dielectric constant tensor:
#      x y z
#    x 1.742910 0.000000 -0.030960 
#    y 0.000000 1.740790 0.000000 
#    z -0.030960 0.000000 1.665800 
# 
# From -- ./inp_files/177875.got.cif
#   From: 2010.05.17/outbox.cif.g08.bks.cpg/sg12_89_cif.got.tgz:177875.got - 2010.06.03 13:09:07.
