data_PCOD9184098
_publ_section_title
;
Structure prediction by ZEFSAII (Michael W. Deem and Ramdas Pophale) SiO2 
 PCOD9184098
Probable space group: C 2/M
;
_chemical_formula_sum "Si O2"
_cell_formula_units_Z 56
_cell_length_a 19.831396
_cell_length_b 8.540663
_cell_length_c 21.456947
_cell_angle_alpha 90.000000
_cell_angle_beta 123.801890
_cell_angle_gamma 90.000000
_cell_volume 3019.924721
_symmetry_space_group_name_H-M "C 2/M"
_symmetry_group_IT_number 12
_symmetry_cell_setting 'monoclinic'
loop_
_space_group_symop_operation_xyz
x,y,z
-x,y,-z
-x,-y,-z
x,-y,z
1/2+x,1/2+y,z
1/2-x,1/2+y,-z
1/2-x,1/2-y,-z
1/2+x,1/2-y,z
loop_
_atom_site_type_symbol
_atom_site_label
_atom_site_fract_x
_atom_site_fract_y
_atom_site_fract_z
Si Si1 0.010781 0.689914 0.797758
Si Si2 0.137341 0.187996 0.197254
Si Si3 0.746925 0.187855 0.361378
Si Si4 0.081539 0.689610 0.505899
Si Si5 0.597683 0.190359 0.371511
Si Si6 0.338956 0.182375 0.052066
Si Si7 0.096306 0.182057 0.039074
O O1 0.010412 0.500000 0.798970
O O2 0.099616 0.747210 0.863644
O O3 0.945468 0.748269 0.814673
O O4 0.974764 0.738680 0.712396
O O5 0.209157 0.253527 0.276974
O O6 0.139026 0.231192 0.125428
O O7 0.136285 0.000000 0.200010
O O8 0.835952 0.253142 0.419597
O O9 0.682382 0.239178 0.382151
O O10 0.748353 0.000000 0.362310
O O11 0.081563 0.500000 0.505843
O O12 0.085198 0.743936 0.435668
O O13 0.000000 0.740758 0.500000
O O14 0.598584 0.000000 0.372942
O O15 0.330712 0.000000 0.060368
O O16 0.250000 0.250000 0.000000
O O17 0.381364 0.213580 0.007865
O O18 0.118076 0.000000 0.036895
O O19 0.000000 0.186886 0.000000
#
# Coordination Sequence:
#
# PCOD9184098 Si02
#       7
#     8   8   8   8   8   8   8
#     4   9  18  34  55  79 107 143 183 226 276 324
#     4  10  19  33  57  85 110 138 178 230 277 324
#     4  10  20  35  56  79 109 142 178 222 267 323
#     4  10  20  35  55  80 109 140 179 221 268 327
#     4   8  16  33  56  79 103 135 177 223 267 315
#     4  11  23  37  55  79 113 153 192 231 275 331
#     4  10  20  36  58  83 111 143 183 231 283 331
#
# _framework density 18.543509
#
# number of rings (size 3 to 8) (size 9 to 14) (size 15 to 20)
#    0.000    2.286    1.429    2.571    0.000    2.286 
#    2.571    2.857    0.000    0.000    0.000    0.000 
#    0.000    0.000    0.000    0.000    0.000    0.000 
#
# Total GULP energy -156184.117161 kJ/mol
# GULP energy per Si atom -5578.004184 kJ/mol
# Density = 1.850130 g / cm^3
# Si number density = 18.543509 Si / 1000 Ang^3
#
#
#
# Elastic Constant Matrix: (Units=GPa)
#
#
# Indices 1 2 3 4 5 6 
#
# 1 76.8395 12.9062 69.6316 0.0000 25.2479 0.0000
# 2 12.9062 12.1075 17.5069 0.0000 7.3381 0.0000
# 3 69.6316 17.5069 148.5676 0.0000 27.2571 0.0000
# 4 0.0000 0.0000 0.0000 23.4753 0.0000 5.0778
# 5 25.2479 7.3381 27.2571 0.0000 29.9309 0.0000
# 6 0.0000 0.0000 0.0000 5.0778 0.0000 22.8050
#
#
#
# Elastic Compliance Matrix: (Units=1/GPa)
#
#
# Indices 1 2 3 4 5 6 
#
# 1 0.026866 -0.007567 -0.009464 0.000000 -0.012189 0.000000
# 2 -0.007567 0.108950 -0.006678 0.000000 -0.014247 0.000000
# 3 -0.009464 -0.006678 0.012232 0.000000 -0.001519 0.000000
# 4 0.000000 0.000000 0.000000 0.044753 0.000000 -0.009965
# 5 -0.012189 -0.014247 -0.001519 0.000000 0.048568 0.000000
# 6 0.000000 0.000000 0.000000 -0.009965 0.000000 0.046069
#
#
# Mechanical properties :
#
#
# Convention : Reuss Voigt Hill
#
# Bulk Modulus (GPa) = 9.93730 48.62265 29.27997
# Shear Modulus (GPa) = 13.57216 24.40689 18.98952
#
# Velocity S-wave (km/s) = 2.70832 3.63188 3.20355
# Velocity P-wave (km/s) = 3.89237 6.62308 5.43211
#
# Compressibility (1/GPa) = 0.10063097
#
# Stress axis : x y z
#
# Youngs Moduli (GPa) = 37.22120 9.17850 81.75144
#
# Poissons Ratio (x) = 0.06945 0.77369
# Poissons Ratio (y) = 0.28164 0.54596
# Poissons Ratio (z) = 0.35226 0.06130
#
# Static dielectric constant tensor:
#      x y z
#    x 1.626850 0.000000 0.002700 
#    y 0.000000 1.636140 0.000000 
#    z 0.002700 0.000000 1.660980 
# 
# From -- ./inp_files/275113.got.cif
#   From: 2010.05.17/outbox.cif.g08.bks.cpg/sg12_138_cif.got.tgz:275113.got - 2010.06.03 13:09:07.
