data_PCOD9184085
_publ_section_title
;
Structure prediction by ZEFSAII (Michael W. Deem and Ramdas Pophale) SiO2 
 PCOD9184085
Probable space group: C 2/M
;
_chemical_formula_sum "Si O2"
_cell_formula_units_Z 56
_cell_length_a 19.910611
_cell_length_b 8.661769
_cell_length_c 25.122119
_cell_angle_alpha 90.000000
_cell_angle_beta 45.304514
_cell_angle_gamma 90.000000
_cell_volume 3079.841789
_symmetry_space_group_name_H-M "C 2/M"
_symmetry_group_IT_number 12
_symmetry_cell_setting 'monoclinic'
loop_
_space_group_symop_operation_xyz
x,y,z
-x,y,-z
-x,-y,-z
x,-y,z
1/2+x,1/2+y,z
1/2-x,1/2+y,-z
1/2-x,1/2-y,-z
1/2+x,1/2-y,z
loop_
_atom_site_type_symbol
_atom_site_label
_atom_site_fract_x
_atom_site_fract_y
_atom_site_fract_z
Si Si1 0.234672 0.818492 0.450843
Si Si2 0.161316 0.686682 0.304139
Si Si3 0.540914 0.686450 0.866171
Si Si4 0.176470 0.187195 0.997772
Si Si5 0.535223 0.820852 0.541076
Si Si6 0.303689 0.312688 0.134638
Si Si7 0.816991 0.685354 0.296824
O O1 0.250000 0.750000 0.500000
O O2 0.127513 0.780589 0.494926
O O3 0.301979 0.759250 0.365684
O O4 0.249437 0.000000 0.445490
O O5 0.166836 0.500000 0.306578
O O6 0.211748 0.729817 0.220671
O O7 0.225685 0.759613 0.314293
O O8 0.052501 0.729114 0.373144
O O9 0.544081 0.500000 0.863769
O O10 0.431982 0.733766 0.930084
O O11 0.604477 0.736239 0.881869
O O12 0.593721 0.748014 0.784500
O O13 0.180311 0.000000 0.996677
O O14 0.250000 0.250000 0.000000
O O15 0.198231 0.239915 0.925125
O O16 0.500000 0.816618 0.500000
O O17 0.558837 0.000000 0.540529
O O18 0.307368 0.500000 0.131012
O O19 0.821187 0.500000 0.293733
#
# Coordination Sequence:
#
# PCOD9184085 Si02
#       7
#     8   8   8   8   8   8   8
#     4  11  24  39  55  77 109 148 186 226 272 323
#     4   9  17  32  56  83 107 139 179 219 265 317
#     4   9  18  34  58  80 100 135 182 221 261 315
#     4  10  20  35  54  78 109 141 173 214 264 319
#     4  10  19  33  57  84 111 142 179 222 267 322
#     4   8  15  31  56  80 101 133 179 220 250 300
#     4  10  20  34  54  81 109 137 176 226 273 315
#
# _framework density 18.182752000000001
#
# number of rings (size 3 to 8) (size 9 to 14) (size 15 to 20)
#    0.000    2.429    1.429    2.143    0.000    4.857 
#    2.571    2.857    0.000    4.286    0.000    0.000 
#    0.000    0.000    0.000    0.000    0.000    0.000 
#
# Total GULP energy -156140.301092 kJ/mol
# GULP energy per Si atom -5576.439325 kJ/mol
# Density = 1.814137 g / cm^3
# Si number density = 18.182752 Si / 1000 Ang^3
#
#
#
# Elastic Constant Matrix: (Units=GPa)
#
#
# Indices 1 2 3 4 5 6 
#
# 1 85.0370 14.3461 80.6500 0.0000 19.0541 0.0000
# 2 14.3461 8.3994 22.4894 0.0001 6.8245 -0.0001
# 3 80.6500 22.4894 167.2218 0.0000 19.3642 0.0000
# 4 0.0000 0.0001 0.0000 19.7235 0.0000 1.6613
# 5 19.0541 6.8245 19.3642 0.0000 27.4133 0.0000
# 6 0.0000 -0.0001 0.0000 1.6613 0.0000 28.5186
#
#
#
# Elastic Compliance Matrix: (Units=1/GPa)
#
#
# Indices 1 2 3 4 5 6 
#
# 1 0.024015 -0.009626 -0.009401 0.000000 -0.007655 0.000000
# 2 -0.009626 0.218120 -0.020888 -0.000001 -0.032856 0.000001
# 3 -0.009401 -0.020888 0.013030 0.000000 0.002530 0.000000
# 4 0.000000 -0.000001 0.000000 0.050951 0.000000 -0.002968
# 5 -0.007655 -0.032856 0.002530 0.000000 0.048192 0.000000
# 6 0.000000 0.000001 0.000000 -0.002968 0.000000 0.035238
#
#
# Mechanical properties :
#
#
# Convention : Reuss Voigt Hill
#
# Bulk Modulus (GPa) = 5.70333 55.06992 30.38662
# Shear Modulus (GPa) = 9.47292 24.67592 17.07442
#
# Velocity S-wave (km/s) = 2.28498 3.68789 3.06771
# Velocity P-wave (km/s) = 3.17884 6.96324 5.41256
#
# Compressibility (1/GPa) = 0.17533623
#
# Stress axis : x y z
#
# Youngs Moduli (GPa) = 41.64067 4.58463 76.74350
#
# Poissons Ratio (x) = 0.04413 0.72149
# Poissons Ratio (y) = 0.40083 1.60298
# Poissons Ratio (z) = 0.39148 0.09576
#
# Static dielectric constant tensor:
#      x y z
#    x 1.605360 0.000000 0.006130 
#    y 0.000000 1.623480 0.000000 
#    z 0.006130 0.000000 1.654390 
# 
# From -- ./inp_files/342284.got.cif
#   From: 2010.05.17/outbox.cif.g08.bks.cpg/sg12_172_cif.got.tgz:342284.got - 2010.06.03 13:09:07.
