data_PCOD9184731
_publ_section_title
;
Structure prediction by ZEFSAII (Michael W. Deem and Ramdas Pophale) SiO2 
 PCOD9184731
Probable space group: C 2/M
;
_chemical_formula_sum "Si O2"
_cell_formula_units_Z 64
_cell_length_a 18.900484
_cell_length_b 24.030500
_cell_length_c 12.137075
_cell_angle_alpha 90.000000
_cell_angle_beta 46.093563
_cell_angle_gamma 90.000000
_cell_volume 3971.619209
_symmetry_space_group_name_H-M "C 2/M"
_symmetry_group_IT_number 12
_symmetry_cell_setting 'monoclinic'
loop_
_space_group_symop_operation_xyz
x,y,z
-x,y,-z
-x,-y,-z
x,-y,z
1/2+x,1/2+y,z
1/2-x,1/2+y,-z
1/2-x,1/2-y,-z
1/2+x,1/2-y,z
loop_
_atom_site_type_symbol
_atom_site_label
_atom_site_fract_x
_atom_site_fract_y
_atom_site_fract_z
Si Si1 0.604835 0.278888 0.167259
Si Si2 0.893401 0.159697 0.065902
Si Si3 0.797727 0.675157 0.061777
Si Si4 0.058685 0.391463 0.551639
Si Si5 0.260603 0.061884 0.758943
Si Si6 0.311711 0.231501 0.272755
Si Si7 0.626097 0.064222 0.129018
Si Si8 0.101938 0.732346 0.582667
O O1 0.684932 0.305973 0.161843
O O2 0.496419 0.267828 0.329378
O O3 0.599527 0.318542 0.066615
O O4 0.643534 0.218604 0.081278
O O5 0.823855 0.107060 0.150210
O O6 0.843971 0.209706 0.187045
O O7 0.000000 0.149010 0.000000
O O8 0.823484 0.688066 0.160595
O O9 0.824891 0.612554 0.997816
O O10 0.157976 0.425194 0.421645
O O11 0.086581 0.328033 0.546580
O O12 0.000000 0.392655 0.500000
O O13 0.985340 0.417316 0.721089
O O14 0.315720 0.065291 0.817356
O O15 0.221594 0.000000 0.787192
O O16 0.198613 0.237389 0.431960
O O17 0.377953 0.222340 0.308917
O O18 0.629180 0.000000 0.085523
#
# Coordination Sequence:
#
# PCOD9184731 Si02
#       8
#     8   8   8   8   8   8   8   8
#     4  10  20  31  53  76 107 132 167 208 261 312
#     4  11  19  33  50  75 106 137 168 213 261 309
#     4  10  20  33  51  80 103 135 171 215 254 307
#     4  10  20  31  53  80 107 135 171 210 256 316
#     4  10  20  34  51  74 106 140 174 213 256 303
#     4  10  23  33  51  77 107 138 172 210 268 313
#     4  10  19  34  54  78 104 137 175 213 257 303
#     4  11  20  35  51  78 105 142 167 206 267 321
#
# _framework density 16.114333999999999
#
# number of rings (size 3 to 8) (size 9 to 14) (size 15 to 20)
#    0.000    1.750    5.000    0.375    1.750    1.750 
#    0.000    0.000    0.000    2.250    0.000    2.625 
#    0.000    0.000    0.000    0.000    0.000    0.000 
#
# Total GULP energy -178501.827962 kJ/mol
# GULP energy per Si atom -5578.182124 kJ/mol
# Density = 1.607766 g / cm^3
# Si number density = 16.114334 Si / 1000 Ang^3
#
#
#
# Elastic Constant Matrix: (Units=GPa)
#
#
# Indices 1 2 3 4 5 6 
#
# 1 26.2339 26.6935 10.8927 0.0000 -9.9041 0.0000
# 2 26.6935 104.7679 37.3082 0.0000 -9.8270 0.0000
# 3 10.8927 37.3082 47.9373 0.0000 -7.9244 0.0000
# 4 0.0000 0.0000 0.0000 14.7422 0.0000 3.7991
# 5 -9.9041 -9.8270 -7.9244 0.0000 24.2932 0.0000
# 6 0.0000 0.0000 0.0000 3.7991 0.0000 10.4454
#
#
#
# Elastic Compliance Matrix: (Units=1/GPa)
#
#
# Indices 1 2 3 4 5 6 
#
# 1 0.058515 -0.013179 0.000024 0.000000 0.018533 0.000000
# 2 -0.013179 0.016275 -0.010012 0.000000 -0.002055 0.000000
# 3 0.000024 -0.010012 0.029574 0.000000 0.005607 0.000000
# 4 0.000000 0.000000 0.000000 0.074848 0.000000 -0.027223
# 5 0.018533 -0.002055 0.005607 0.000000 0.049717 0.000000
# 6 0.000000 0.000000 0.000000 -0.027223 0.000000 0.105638
#
#
# Mechanical properties :
#
#
# Convention : Reuss Voigt Hill
#
# Bulk Modulus (GPa) = 17.23214 36.52532 26.87873
# Shear Modulus (GPa) = 12.49240 16.83247 14.66244
#
# Velocity S-wave (km/s) = 2.78733 3.23548 3.01973
# Velocity P-wave (km/s) = 4.59084 6.05585 5.37351
#
# Compressibility (1/GPa) = 0.05803108
#
# Stress axis : x y z
#
# Youngs Moduli (GPa) = 17.08957 61.44321 33.81384
#
# Poissons Ratio (x) = 0.80977 -0.00082
# Poissons Ratio (y) = 0.22523 0.33853
# Poissons Ratio (z) = -0.00042 0.61514
#
# Static dielectric constant tensor:
#      x y z
#    x 1.534610 0.000000 -0.004480 
#    y 0.000000 1.512090 0.000000 
#    z -0.004480 0.000000 1.548380 
# 
# From -- ./inp_files/159517.got.cif
#   From: 2010.05.17/outbox.cif.g08.bks.cpg/sg12_80_cif.got.tgz:159517.got - 2010.06.03 13:09:07.
