data_PCOD9184398
_publ_section_title
;
Structure prediction by ZEFSAII (Michael W. Deem and Ramdas Pophale) SiO2 
 PCOD9184398
Probable space group: C 2/M
;
_chemical_formula_sum "Si O2"
_cell_formula_units_Z 56
_cell_length_a 13.537276
_cell_length_b 19.324748
_cell_length_c 11.161066
_cell_angle_alpha 90.000000
_cell_angle_beta 69.944389
_cell_angle_gamma 90.000000
_cell_volume 2742.729398
_symmetry_space_group_name_H-M "C 2/M"
_symmetry_group_IT_number 12
_symmetry_cell_setting 'monoclinic'
loop_
_space_group_symop_operation_xyz
x,y,z
-x,y,-z
-x,-y,-z
x,-y,z
1/2+x,1/2+y,z
1/2-x,1/2+y,-z
1/2-x,1/2-y,-z
1/2+x,1/2-y,z
loop_
_atom_site_type_symbol
_atom_site_label
_atom_site_fract_x
_atom_site_fract_y
_atom_site_fract_z
Si Si1 0.698379 0.579344 0.730566
Si Si2 0.849623 0.420210 0.451315
Si Si3 0.504432 0.817923 0.756068
Si Si4 0.734101 0.848654 0.076909
Si Si5 0.332245 0.640600 0.617928
Si Si6 0.527839 0.661525 0.668993
Si Si7 0.310944 0.794131 0.147239
O O1 0.676860 0.500000 0.709417
O O2 0.796191 0.599559 0.601471
O O3 0.724350 0.589745 0.858668
O O4 0.597254 0.624718 0.740013
O O5 0.885897 0.500000 0.442124
O O6 0.938090 0.368019 0.364286
O O7 0.753175 0.413472 0.395678
O O8 0.387421 0.840147 0.835787
O O9 0.498384 0.739090 0.714670
O O10 0.577034 0.814632 0.845206
O O11 0.800263 0.780826 0.091523
O O12 0.731686 0.847798 0.934498
O O13 0.424087 0.619846 0.671766
O O14 0.395057 0.666032 0.476609
O O15 0.265901 0.701457 0.707010
#
# Coordination Sequence:
#
# PCOD9184398 Si02
#       7
#     8   8   8   8   8   8   8
#     4  10  22  39  57  84 122 156 189 233 287 347
#     4   9  21  37  57  85 120 156 189 233 287 341
#     4  11  21  35  61  86 115 144 191 244 284 339
#     4  11  22  36  57  82 115 151 191 232 286 339
#     4   9  19  34  58  85 115 146 188 238 287 334
#     4  10  19  33  60  92 113 143 193 238 297 337
#     4  10  21  37  55  84 112 148 187 237 285 331
#
# _framework density 20.417618000000001
#
# number of rings (size 3 to 8) (size 9 to 14) (size 15 to 20)
#    0.000    2.000    2.857    0.429    2.000    3.429 
#    0.000    7.857    0.000    5.143    0.000    0.000 
#    0.000    0.000    0.000    0.000    0.000    0.000 
#
# Total GULP energy -156155.668320 kJ/mol
# GULP energy per Si atom -5576.988154 kJ/mol
# Density = 2.037115 g / cm^3
# Si number density = 20.417618 Si / 1000 Ang^3
#
#
#
# Elastic Constant Matrix: (Units=GPa)
#
#
# Indices 1 2 3 4 5 6 
#
# 1 62.7636 1.4426 14.3872 0.0000 15.4790 0.0000
# 2 1.4426 30.7921 3.5702 0.0000 1.6403 0.0000
# 3 14.3872 3.5702 13.5631 0.0000 1.5141 0.0000
# 4 0.0000 0.0000 0.0000 19.5384 0.0000 3.5822
# 5 15.4790 1.6403 1.5141 0.0000 26.4539 0.0000
# 6 0.0000 0.0000 0.0000 3.5822 0.0000 6.0937
#
#
#
# Elastic Compliance Matrix: (Units=1/GPa)
#
#
# Indices 1 2 3 4 5 6 
#
# 1 0.025076 0.002525 -0.025774 0.000000 -0.013354 0.000000
# 2 0.002525 0.033818 -0.011253 0.000000 -0.002930 0.000000
# 3 -0.025774 -0.011253 0.102927 0.000000 0.009887 0.000000
# 4 0.000000 0.000000 0.000000 0.057364 0.000000 -0.033722
# 5 -0.013354 -0.002930 0.009887 0.000000 0.045231 0.000000
# 6 0.000000 0.000000 0.000000 -0.033722 0.000000 0.183928
#
#
# Mechanical properties :
#
#
# Convention : Reuss Voigt Hill
#
# Bulk Modulus (GPa) = 10.77372 16.21319 13.49346
# Shear Modulus (GPa) = 9.11929 16.26513 12.69221
#
# Velocity S-wave (km/s) = 2.11567 2.82551 2.49596
# Velocity P-wave (km/s) = 3.35503 4.31309 3.86387
#
# Compressibility (1/GPa) = 0.09281841
#
# Stress axis : x y z
#
# Youngs Moduli (GPa) = 39.87825 29.56973 9.71558
#
# Poissons Ratio (x) = -0.07466 0.25041
# Poissons Ratio (y) = -0.10069 0.10933
# Poissons Ratio (z) = 1.02781 0.33275
#
# Static dielectric constant tensor:
#      x y z
#    x 1.770460 0.000000 0.016130 
#    y 0.000000 1.704290 0.000000 
#    z 0.016130 0.000000 1.745960 
# 
# From -- ./inp_files/147062.got.cif
#   From: 2010.05.17/outbox.cif.g08.bks.cpg/sg12_74_cif.got.tgz:147062.got - 2010.06.03 13:09:07.
