data_PCOD9184817
_publ_section_title
;
Structure prediction by ZEFSAII (Michael W. Deem and Ramdas Pophale) SiO2 
 PCOD9184817
Probable space group: C 2/M
;
_chemical_formula_sum "Si O2"
_cell_formula_units_Z 64
_cell_length_a 13.671428
_cell_length_b 16.557866
_cell_length_c 29.363861
_cell_angle_alpha 90.000000
_cell_angle_beta 27.696388
_cell_angle_gamma 90.000000
_cell_volume 3089.474780
_symmetry_space_group_name_H-M "C 2/M"
_symmetry_group_IT_number 12
_symmetry_cell_setting 'monoclinic'
loop_
_space_group_symop_operation_xyz
x,y,z
-x,y,-z
-x,-y,-z
x,-y,z
1/2+x,1/2+y,z
1/2-x,1/2+y,-z
1/2-x,1/2-y,-z
1/2+x,1/2-y,z
loop_
_atom_site_type_symbol
_atom_site_label
_atom_site_fract_x
_atom_site_fract_y
_atom_site_fract_z
Si Si1 0.312007 0.857633 0.445802
Si Si2 0.115173 0.911524 0.403654
Si Si3 0.238212 0.318511 0.919796
Si Si4 0.064409 0.591211 0.073459
Si Si5 0.612617 0.335884 0.236832
Si Si6 0.315195 0.180568 0.540097
Si Si7 0.757050 0.126352 0.089736
Si Si8 0.511689 0.849676 0.274182
O O1 0.407146 0.859648 0.456472
O O2 0.263186 0.767825 0.446361
O O3 0.451498 0.891327 0.346811
O O4 0.079870 0.894621 0.548233
O O5 0.290767 0.843669 0.337140
O O6 0.000000 0.914226 0.500000
O O7 0.207440 0.000000 0.356393
O O8 0.277314 0.222760 0.904888
O O9 0.381295 0.353856 0.820049
O O10 0.224777 0.358921 0.974802
O O11 0.000000 0.329077 0.000000
O O12 0.155902 0.589104 0.086592
O O13 0.828665 0.629388 0.168938
O O14 0.393533 0.359025 0.351528
O O15 0.616020 0.237582 0.238924
O O16 0.500000 0.189786 0.500000
O O17 0.649542 0.102843 0.181486
O O18 0.548265 0.000000 0.062106
O O19 0.000000 0.112249 0.000000
#
# Coordination Sequence:
#
# PCOD9184817 Si02
#       8
#     8   8   8   8   8   8   8   8
#     4   9  18  33  54  82 120 156 197 248 294 351
#     4   9  17  31  56  86 117 154 196 246 294 350
#     4   8  17  36  59  84 113 153 197 243 290 353
#     4  11  23  38  61  91 118 152 197 246 306 363
#     4   9  19  36  56  85 114 153 199 248 290 349
#     4  10  19  34  54  85 120 154 200 251 295 339
#     4  10  21  38  58  85 122 154 196 246 294 355
#     4   9  18  35  55  85 117 156 202 238 296 354
#
# _framework density 20.715494
#
# number of rings (size 3 to 8) (size 9 to 14) (size 15 to 20)
#    0.000    2.625    0.000    3.000    1.750    3.000 
#   11.250    0.000    0.000    1.500    0.000    0.000 
#    0.000    0.000    0.000    0.000    0.000    0.000 
#
# Total GULP energy -178155.274037 kJ/mol
# GULP energy per Si atom -5567.352314 kJ/mol
# Density = 2.066835 g / cm^3
# Si number density = 20.715494 Si / 1000 Ang^3
#
#
#
# Elastic Constant Matrix: (Units=GPa)
#
#
# Indices 1 2 3 4 5 6 
#
# 1 120.0823 15.5430 59.1763 0.0052 17.0050 0.0272
# 2 15.5430 48.4183 27.8391 0.0047 -3.9631 0.0158
# 3 59.1763 27.8391 128.4837 0.0114 24.1007 0.0775
# 4 0.0052 0.0047 0.0114 9.1065 -0.0088 -10.5347
# 5 17.0050 -3.9631 24.1007 -0.0088 28.7612 -0.0464
# 6 0.0272 0.0158 0.0775 -10.5347 -0.0464 -14.3424
#
#
#
# Elastic Compliance Matrix: (Units=1/GPa)
#
#
# Indices 1 2 3 4 5 6 
#
# 1 0.011018 -0.001404 -0.004167 0.000003 -0.003216 0.000005
# 2 -0.001404 0.025882 -0.006865 -0.000024 0.010149 -0.000026
# 3 -0.004167 -0.006865 0.012939 0.000042 -0.009324 0.000053
# 4 0.000003 -0.000024 0.000042 0.059367 -0.000093 -0.043605
# 5 -0.003216 0.010149 -0.009324 -0.000093 0.045882 -0.000126
# 6 0.000005 -0.000026 0.000053 -0.043605 -0.000126 -0.037694
#
#
# Mechanical properties :
#
#
# Convention : Reuss Voigt Hill
#
# Bulk Modulus (GPa) = 40.05389 55.78903 47.92146
# Shear Modulus (GPa) = 33.20282 17.66680 25.43481
#
# Velocity S-wave (km/s) = 4.00784 2.92349 3.50782
# Velocity P-wave (km/s) = 6.38704 6.19559 6.29204
#
# Compressibility (1/GPa) = 0.02496636
#
# Stress axis : x y z
#
# Youngs Moduli (GPa) = 90.75687 38.63690 77.28669
#
# Poissons Ratio (x) = 0.05426 0.32207
# Poissons Ratio (y) = 0.12745 0.53057
# Poissons Ratio (z) = 0.37821 0.26524
#
# Static dielectric constant tensor:
#      x y z
#    x 1.780150 0.000000 0.034120 
#    y 0.000000 1.772420 0.000000 
#    z 0.034120 0.000000 1.801330 
# 
# From -- ./inp_files/358987.got.cif
#   From: 2010.05.17/outbox.cif.g08.bks.cpg/sg12_180_cif.got.tgz:358987.got - 2010.06.03 13:09:07.
