data_PCOD9184430
_publ_section_title
;
Structure prediction by ZEFSAII (Michael W. Deem and Ramdas Pophale) SiO2 
 PCOD9184430
Probable space group: C 2/M
;
_chemical_formula_sum "Si O2"
_cell_formula_units_Z 64
_cell_length_a 15.962582
_cell_length_b 24.220362
_cell_length_c 18.848681
_cell_angle_alpha 90.000000
_cell_angle_beta 152.027577
_cell_angle_gamma 90.000000
_cell_volume 3418.067774
_symmetry_space_group_name_H-M "C 2/M"
_symmetry_group_IT_number 12
_symmetry_cell_setting 'monoclinic'
loop_
_space_group_symop_operation_xyz
x,y,z
-x,y,-z
-x,-y,-z
x,-y,z
1/2+x,1/2+y,z
1/2-x,1/2+y,-z
1/2-x,1/2-y,-z
1/2+x,1/2-y,z
loop_
_atom_site_type_symbol
_atom_site_label
_atom_site_fract_x
_atom_site_fract_y
_atom_site_fract_z
Si Si1 0.301905 0.118933 0.823881
Si Si2 0.525129 0.287853 0.618969
Si Si3 0.101066 0.437106 0.249673
Si Si4 0.196558 0.935995 0.893471
Si Si5 0.356446 0.773793 0.167151
Si Si6 0.690219 0.845768 0.429372
Si Si7 0.345756 0.818243 0.435688
Si Si8 0.062484 0.169214 0.869926
O O1 0.166530 0.167288 0.698904
O O2 0.323630 0.082406 0.769973
O O3 0.225076 0.085141 0.833895
O O4 0.500000 0.137773 0.000000
O O5 0.642055 0.244605 0.750786
O O6 0.386560 0.321096 0.565066
O O7 0.394314 0.246992 0.478886
O O8 0.150868 0.500000 0.300251
O O9 0.165296 0.399549 0.362777
O O10 0.887960 0.433544 0.076859
O O11 0.079707 0.890608 0.846970
O O12 0.136829 0.000000 0.849251
O O13 0.543647 0.802942 0.290154
O O14 0.363086 0.715916 0.129592
O O15 0.200771 0.817054 0.035745
O O16 0.651858 0.846639 0.484659
O O17 0.500000 0.841482 0.500000
O O18 0.140656 0.821766 0.259068
#
# Coordination Sequence:
#
# PCOD9184430 Si02
#       8
#     8   8   8   8   8   8   8   8
#     4  10  21  35  56  89 127 161 207 244 286 352
#     4  11  21  37  55  86 125 167 197 239 303 365
#     4  10  22  38  61  88 120 164 206 247 294 353
#     4  10  19  36  61  89 120 158 202 253 301 350
#     4  10  19  33  62  83 113 155 205 250 285 352
#     4  11  20  40  58  83 119 161 199 245 302 360
#     4  11  24  38  57  87 124 154 194 251 314 362
#     4  11  19  36  61  89 114 157 209 248 294 361
#
# _framework density 18.724029999999999
#
# number of rings (size 3 to 8) (size 9 to 14) (size 15 to 20)
#    0.000    1.500    5.000    1.125    1.750    2.500 
#    0.000    5.625    0.000    1.500    0.000    1.750 
#    0.000    0.000    0.000    0.000    0.000    0.000 
#
# Total GULP energy -178314.214357 kJ/mol
# GULP energy per Si atom -5572.319199 kJ/mol
# Density = 1.868141 g / cm^3
# Si number density = 18.724030 Si / 1000 Ang^3
#
#
#
# Elastic Constant Matrix: (Units=GPa)
#
#
# Indices 1 2 3 4 5 6 
#
# 1 77.9065 36.5887 27.0902 -0.0004 7.8773 -0.0002
# 2 36.5887 115.1828 36.7854 0.0003 3.8644 0.0000
# 3 27.0902 36.7854 67.2588 0.0009 4.6174 -0.0001
# 4 -0.0004 0.0003 0.0009 19.5770 0.0008 2.3420
# 5 7.8773 3.8644 4.6174 0.0008 16.6429 0.0000
# 6 -0.0002 0.0000 -0.0001 2.3420 0.0000 23.4965
#
#
#
# Elastic Compliance Matrix: (Units=1/GPa)
#
#
# Indices 1 2 3 4 5 6 
#
# 1 0.016664 -0.003734 -0.004269 0.000001 -0.005836 0.000000
# 2 -0.003734 0.011368 -0.004744 0.000000 0.000444 0.000000
# 3 -0.004269 -0.004744 0.019336 -0.000001 -0.002242 0.000000
# 4 0.000001 0.000000 -0.000001 0.051697 -0.000002 -0.005153
# 5 -0.005836 0.000444 -0.002242 -0.000002 0.063367 0.000000
# 6 0.000000 0.000000 0.000000 -0.005153 0.000000 0.043073
#
#
# Mechanical properties :
#
#
# Convention : Reuss Voigt Hill
#
# Bulk Modulus (GPa) = 45.71646 51.25298 48.48472
# Shear Modulus (GPa) = 20.98275 22.60220 21.79248
#
# Velocity S-wave (km/s) = 3.35122 3.47814 3.41527
# Velocity P-wave (km/s) = 6.28038 6.60016 6.44226
#
# Compressibility (1/GPa) = 0.02187396
#
# Stress axis : x y z
#
# Youngs Moduli (GPa) = 60.00868 87.96421 51.71738
#
# Poissons Ratio (x) = 0.32849 0.22078
# Poissons Ratio (y) = 0.22410 0.24534
# Poissons Ratio (z) = 0.25617 0.41730
#
# Static dielectric constant tensor:
#      x y z
#    x 1.678080 0.000000 -0.048550 
#    y 0.000000 1.638960 0.000000 
#    z -0.048550 0.000000 1.733530 
# 
# From -- ./inp_files/272877.got.cif
#   From: 2010.05.17/outbox.cif.g08.bks.cpg/sg12_137_cif.got.tgz:272877.got - 2010.06.03 13:09:07.
