data_PCOD9184077
_publ_section_title
;
Structure prediction by ZEFSAII (Michael W. Deem and Ramdas Pophale) SiO2 
 PCOD9184077
Probable space group: C 2/M
;
_chemical_formula_sum "Si O2"
_cell_formula_units_Z 56
_cell_length_a 15.118588
_cell_length_b 18.071109
_cell_length_c 12.718275
_cell_angle_alpha 90.000000
_cell_angle_beta 126.467416
_cell_angle_gamma 90.000000
_cell_volume 2794.381003
_symmetry_space_group_name_H-M "C 2/M"
_symmetry_group_IT_number 12
_symmetry_cell_setting 'monoclinic'
loop_
_space_group_symop_operation_xyz
x,y,z
-x,y,-z
-x,-y,-z
x,-y,z
1/2+x,1/2+y,z
1/2-x,1/2+y,-z
1/2-x,1/2-y,-z
1/2+x,1/2-y,z
loop_
_atom_site_type_symbol
_atom_site_label
_atom_site_fract_x
_atom_site_fract_y
_atom_site_fract_z
Si Si1 0.909283 0.695993 0.620821
Si Si2 0.711543 0.695993 0.620825
Si Si3 0.152423 0.087773 0.749315
Si Si4 0.596891 0.912227 0.749309
Si Si5 0.231481 0.204980 0.148548
Si Si6 0.401590 0.087972 0.000004
Si Si7 0.582934 0.295020 0.851451
O O1 0.803870 0.663859 0.607739
O O2 0.866982 0.750000 0.499997
O O3 0.991105 0.633308 0.635290
O O4 0.975614 0.748364 0.748908
O O5 0.644192 0.633308 0.635297
O O6 0.773300 0.748363 0.748913
O O7 0.081211 0.126101 0.790641
O O8 0.135607 0.000000 0.728187
O O9 0.279943 0.102954 0.872395
O O10 0.709430 0.873899 0.790639
O O11 0.592448 0.897045 0.872387
O O12 0.592581 0.000000 0.728183
O O13 0.321449 0.250000 0.142899
O O14 0.123473 0.199479 0.999999
O O15 0.412420 0.000000 0.000007
O O16 0.500000 0.121803 0.000000
#
# Coordination Sequence:
#
# PCOD9184077 Si02
#       7
#     8   8   8   8   8   8   8
#     4  10  22  38  54  76 112 152 190 232 276 329
#     4  10  22  38  54  76 112 152 190 232 276 329
#     4  10  19  33  57  84 109 139 177 231 288 330
#     4  10  19  33  57  84 109 139 177 231 288 330
#     4   9  18  33  53  78 110 144 179 220 273 339
#     4   9  16  26  45  80 115 135 159 211 282 335
#     4   9  18  33  53  78 110 144 179 220 273 339
#
# _framework density 20.040216000000001
#
# number of rings (size 3 to 8) (size 9 to 14) (size 15 to 20)
#    0.000    2.429    1.429    0.857    2.000    7.429 
#    0.000    2.857    0.000    2.571    0.000    2.000 
#    0.000    0.000    0.000    0.000    0.000    0.000 
#
# Total GULP energy -156186.053378 kJ/mol
# GULP energy per Si atom -5578.073335 kJ/mol
# Density = 1.999460 g / cm^3
# Si number density = 20.040216 Si / 1000 Ang^3
#
#
#
# Elastic Constant Matrix: (Units=GPa)
#
#
# Indices 1 2 3 4 5 6 
#
# 1 21.4722 22.2892 3.3693 0.0000 8.1334 0.0000
# 2 22.2892 133.6613 39.6790 0.0000 1.0514 0.0000
# 3 3.3693 39.6790 71.7795 0.0000 -5.0879 0.0000
# 4 0.0000 0.0000 0.0000 16.7874 0.0000 0.1169
# 5 8.1334 1.0514 -5.0879 0.0000 75.5238 0.0000
# 6 0.0000 0.0000 0.0000 0.1169 0.0000 14.8614
#
#
#
# Elastic Compliance Matrix: (Units=1/GPa)
#
#
# Indices 1 2 3 4 5 6 
#
# 1 0.059537 -0.010675 0.002675 0.000000 -0.006083 0.000000
# 2 -0.010675 0.010880 -0.005469 0.000000 0.000630 0.000000
# 3 0.002675 -0.005469 0.016895 0.000000 0.000926 0.000000
# 4 0.000000 0.000000 0.000000 0.059572 0.000000 -0.000469
# 5 -0.006083 0.000630 0.000926 0.000000 0.013950 0.000000
# 6 0.000000 0.000000 0.000000 -0.000469 0.000000 0.067292
#
#
# Mechanical properties :
#
#
# Convention : Reuss Voigt Hill
#
# Bulk Modulus (GPa) = 16.56312 39.73199 28.14755
# Shear Modulus (GPa) = 18.16948 32.20623 25.18785
#
# Velocity S-wave (km/s) = 3.01433 4.01319 3.54908
# Velocity P-wave (km/s) = 4.51639 6.42988 5.55613
#
# Compressibility (1/GPa) = 0.06037510
#
# Stress axis : x y z
#
# Youngs Moduli (GPa) = 16.79633 91.91016 59.19004
#
# Poissons Ratio (x) = 0.98110 -0.15833
# Poissons Ratio (y) = 0.17929 0.32370
# Poissons Ratio (z) = -0.04493 0.50264
#
# Static dielectric constant tensor:
#      x y z
#    x 1.717460 0.000000 0.004050 
#    y 0.000000 1.713810 0.000000 
#    z 0.004050 0.000000 1.784620 
# 
# From -- ./inp_files/158316.got.cif
#   From: 2010.05.17/outbox.cif.g08.bks.cpg/sg12_80_cif.got.tgz:158316.got - 2010.06.03 13:09:07.
