data_PCOD9184158
_publ_section_title
;
Structure prediction by ZEFSAII (Michael W. Deem and Ramdas Pophale) SiO2 
 PCOD9184158
Probable space group: C 2/M
;
_chemical_formula_sum "Si O2"
_cell_formula_units_Z 48
_cell_length_a 29.534934
_cell_length_b 8.972433
_cell_length_c 18.264734
_cell_angle_alpha 90.000000
_cell_angle_beta 153.790466
_cell_angle_gamma 90.000000
_cell_volume 2137.680913
_symmetry_space_group_name_H-M "C 2/M"
_symmetry_group_IT_number 12
_symmetry_cell_setting 'monoclinic'
loop_
_space_group_symop_operation_xyz
x,y,z
-x,y,-z
-x,-y,-z
x,-y,z
1/2+x,1/2+y,z
1/2-x,1/2+y,-z
1/2-x,1/2-y,-z
1/2+x,1/2-y,z
loop_
_atom_site_type_symbol
_atom_site_label
_atom_site_fract_x
_atom_site_fract_y
_atom_site_fract_z
Si Si1 0.356056 0.321589 0.934898
Si Si2 0.658691 0.676117 0.700035
Si Si3 0.078233 0.677449 0.276312
Si Si4 0.925376 0.324192 0.566732
Si Si5 0.377713 0.670952 0.802637
Si Si6 0.142534 0.675471 0.823943
O O1 0.350787 0.500000 0.937947
O O2 0.275656 0.234290 0.867375
O O3 0.328716 0.290714 0.809644
O O4 0.470116 0.262956 0.113134
O O5 0.652969 0.500000 0.700197
O O6 0.614249 0.728465 0.558142
O O7 0.608749 0.755401 0.697328
O O8 0.061910 0.500000 0.249261
O O9 0.117918 0.711432 0.415574
O O10 0.139962 0.729323 0.294171
O O11 0.905159 0.500000 0.522399
O O12 0.049029 0.303759 0.744818
O O13 0.352100 0.500000 0.747066
O O14 0.500000 0.675779 0.000000
O O15 0.158882 0.500000 0.839247
O O16 0.250000 0.750000 0.000000
#
# Coordination Sequence:
#
# PCOD9184158 Si02
#       6
#     8   8   8   8   8   8
#     4  10  20  36  58  82 113 152 192 235 283 337
#     4  12  25  39  58  85 115 148 190 236 284 338
#     4  10  19  33  57  87 116 146 188 239 284 333
#     4  10  23  41  58  81 115 153 188 226 279 338
#     4   8  16  31  52  80 112 148 189 232 282 336
#     4  11  23  41  65  89 116 149 187 231 277 331
#
# _framework density 22.454239000000001
#
# number of rings (size 3 to 8) (size 9 to 14) (size 15 to 20)
#    0.000    1.833    0.000    5.500    0.000    9.667 
#    0.000    0.833    0.000    0.000    0.000    0.000 
#    0.000    0.000    0.000    0.000    0.000    0.000 
#
# Total GULP energy -134225.256075 kJ/mol
# GULP energy per Si atom -5592.719003 kJ/mol
# Density = 2.240313 g / cm^3
# Si number density = 22.454239 Si / 1000 Ang^3
#
#
#
# Elastic Constant Matrix: (Units=GPa)
#
#
# Indices 1 2 3 4 5 6 
#
# 1 104.1924 43.4873 5.0369 0.0000 -18.9825 0.0000
# 2 43.4873 80.2160 27.7621 0.0000 -17.1975 0.0000
# 3 5.0369 27.7621 70.5863 0.0000 -15.2733 0.0000
# 4 0.0000 0.0000 0.0000 30.6426 0.0000 -6.2944
# 5 -18.9825 -17.1975 -15.2733 0.0000 38.5383 0.0000
# 6 0.0000 0.0000 0.0000 -6.2944 0.0000 33.2391
#
#
#
# Elastic Compliance Matrix: (Units=1/GPa)
#
#
# Indices 1 2 3 4 5 6 
#
# 1 0.013293 -0.007243 0.002863 0.000000 0.004450 0.000000
# 2 -0.007243 0.019158 -0.006497 0.000000 0.002406 0.000000
# 3 0.002863 -0.006497 0.017715 0.000000 0.005532 0.000000
# 4 0.000000 0.000000 0.000000 0.033955 0.000000 0.006430
# 5 0.004450 0.002406 0.005532 0.000000 0.031406 0.000000
# 6 0.000000 0.000000 0.000000 0.006430 0.000000 0.031303
#
#
# Mechanical properties :
#
#
# Convention : Reuss Voigt Hill
#
# Bulk Modulus (GPa) = 35.19778 45.28524 40.24151
# Shear Modulus (GPa) = 28.08112 32.39791 30.23952
#
# Velocity S-wave (km/s) = 3.54021 3.80260 3.67375
# Velocity P-wave (km/s) = 5.69387 6.28420 5.99631
#
# Compressibility (1/GPa) = 0.02841089
#
# Stress axis : x y z
#
# Youngs Moduli (GPa) = 75.22632 52.19811 56.44898
#
# Poissons Ratio (x) = 0.37810 -0.16163
# Poissons Ratio (y) = 0.54490 0.36677
# Poissons Ratio (z) = -0.21539 0.33915
#
# Static dielectric constant tensor:
#      x y z
#    x 1.910210 0.000000 0.030180 
#    y 0.000000 1.736920 0.000000 
#    z 0.030180 0.000000 1.895310 
# 
# From -- ./inp_files/274604.got.cif
#   From: 2010.05.17/outbox.cif.g08.bks.cpg/sg12_138_cif.got.tgz:274604.got - 2010.06.03 13:09:07.
