data_PCOD9184725
_publ_section_title
;
Structure prediction by ZEFSAII (Michael W. Deem and Ramdas Pophale) SiO2 
 PCOD9184725
Probable space group: C 2/M
;
_chemical_formula_sum "Si O2"
_cell_formula_units_Z 64
_cell_length_a 24.691497
_cell_length_b 9.237550
_cell_length_c 14.959076
_cell_angle_alpha 90.000000
_cell_angle_beta 104.474354
_cell_angle_gamma 90.000000
_cell_volume 3303.701575
_symmetry_space_group_name_H-M "C 2/M"
_symmetry_group_IT_number 12
_symmetry_cell_setting 'monoclinic'
loop_
_space_group_symop_operation_xyz
x,y,z
-x,y,-z
-x,-y,-z
x,-y,z
1/2+x,1/2+y,z
1/2-x,1/2+y,-z
1/2-x,1/2-y,-z
1/2+x,1/2-y,z
loop_
_atom_site_type_symbol
_atom_site_label
_atom_site_fract_x
_atom_site_fract_y
_atom_site_fract_z
Si Si1 0.860229 0.328447 0.928510
Si Si2 0.565035 0.327938 0.182614
Si Si3 0.761103 0.666621 0.644512
Si Si4 0.112864 0.326753 0.366541
Si Si5 0.149071 0.326193 0.570683
Si Si6 0.260192 0.667548 0.151350
Si Si7 0.953292 0.670167 0.118962
Si Si8 0.371300 0.826252 0.236229
O O1 0.858581 0.500000 0.903131
O O2 0.885649 0.237029 0.858117
O O3 0.796227 0.285643 0.922703
O O4 0.903212 0.313129 0.027559
O O5 0.566392 0.500000 0.183724
O O6 0.573239 0.261269 0.284569
O O7 0.506780 0.266450 0.120837
O O8 0.750203 0.500000 0.614559
O O9 0.823237 0.702508 0.638226
O O10 0.711614 0.764738 0.586143
O O11 0.757110 0.675789 0.750591
O O12 0.102979 0.500000 0.352776
O O13 0.111425 0.285718 0.470318
O O14 0.152349 0.500000 0.571844
O O15 0.127817 0.279171 0.659767
O O16 0.272381 0.500000 0.134939
O O17 0.316157 0.760150 0.167599
O O18 0.969704 0.500000 0.125641
O O19 0.926297 0.710688 0.203062
O O20 0.366156 0.000000 0.231602
#
# Coordination Sequence:
#
# PCOD9184725 Si02
#       8
#     8   8   8   8   8   8   8   8
#     4  10  20  38  61  83 109 145 185 218 269 342
#     4  12  25  38  56  83 112 138 177 239 289 320
#     4   9  16  28  48  75 110 146 178 215 264 325
#     4  10  19  34  54  77 108 148 185 217 266 335
#     4   9  18  31  52  80 111 144 180 224 267 314
#     4   9  17  31  53  81 112 146 179 218 268 324
#     4  10  22  40  61  78 104 151 191 223 268 330
#     4   9  19  36  55  82 115 145 185 227 266 314
#
# _framework density 19.372209000000002
#
# number of rings (size 3 to 8) (size 9 to 14) (size 15 to 20)
#    0.000    2.250    1.250    1.875    0.000    4.500 
#    0.000    0.625    0.000    3.750    0.000    0.000 
#    0.000    0.000    0.000    0.000    0.000    0.000 
#
# Total GULP energy -178631.413565 kJ/mol
# GULP energy per Si atom -5582.231674 kJ/mol
# Density = 1.932812 g / cm^3
# Si number density = 19.372209 Si / 1000 Ang^3
#
#
#
# Elastic Constant Matrix: (Units=GPa)
#
#
# Indices 1 2 3 4 5 6 
#
# 1 42.8866 18.0738 2.3101 0.0000 -3.4024 0.0000
# 2 18.0738 30.3478 24.8460 0.0000 1.0846 0.0000
# 3 2.3101 24.8460 65.0799 0.0000 6.1162 0.0000
# 4 0.0000 0.0000 0.0000 18.1603 0.0000 9.7249
# 5 -3.4024 1.0846 6.1162 0.0000 17.5863 0.0000
# 6 0.0000 0.0000 0.0000 9.7249 0.0000 22.6679
#
#
#
# Elastic Compliance Matrix: (Units=1/GPa)
#
#
# Indices 1 2 3 4 5 6 
#
# 1 0.035409 -0.028855 0.009251 0.000000 0.005413 0.000000
# 2 -0.028855 0.071660 -0.026252 0.000000 -0.000872 0.000000
# 3 0.009251 -0.026252 0.025575 0.000000 -0.005486 0.000000
# 4 0.000000 0.000000 0.000000 0.071489 0.000000 -0.030670
# 5 0.005413 -0.000872 -0.005486 0.000000 0.059871 0.000000
# 6 0.000000 0.000000 0.000000 -0.030670 0.000000 0.057273
#
#
# Mechanical properties :
#
#
# Convention : Reuss Voigt Hill
#
# Bulk Modulus (GPa) = 24.43106 25.41935 24.92520
# Shear Modulus (GPa) = 11.71964 17.88852 14.80408
#
# Velocity S-wave (km/s) = 2.46229 3.04207 2.76740
# Velocity P-wave (km/s) = 4.55221 5.04866 4.80684
#
# Compressibility (1/GPa) = 0.04093151
#
# Stress axis : x y z
#
# Youngs Moduli (GPa) = 28.24153 13.95484 39.10024
#
# Poissons Ratio (x) = 0.40267 -0.36170
# Poissons Ratio (y) = 0.81491 1.02645
# Poissons Ratio (z) = -0.26125 0.36634
#
# Static dielectric constant tensor:
#      x y z
#    x 1.655500 0.000000 -0.011410 
#    y 0.000000 1.645190 0.000000 
#    z -0.011410 0.000000 1.735950 
# 
# From -- ./inp_files/244138.got.cif
#   From: 2010.05.17/outbox.cif.g08.bks.cpg/sg12_123_cif.got.tgz:244138.got - 2010.06.03 13:09:07.
