data_PCOD9184785
_publ_section_title
;
Structure prediction by ZEFSAII (Michael W. Deem and Ramdas Pophale) SiO2 
 PCOD9184785
Probable space group: C 2/M
;
_chemical_formula_sum "Si O2"
_cell_formula_units_Z 64
_cell_length_a 14.538090
_cell_length_b 29.439784
_cell_length_c 8.716802
_cell_angle_alpha 90.000000
_cell_angle_beta 94.025830
_cell_angle_gamma 90.000000
_cell_volume 3721.570138
_symmetry_space_group_name_H-M "C 2/M"
_symmetry_group_IT_number 12
_symmetry_cell_setting 'monoclinic'
loop_
_space_group_symop_operation_xyz
x,y,z
-x,y,-z
-x,-y,-z
x,-y,z
1/2+x,1/2+y,z
1/2-x,1/2+y,-z
1/2-x,1/2-y,-z
1/2+x,1/2-y,z
loop_
_atom_site_type_symbol
_atom_site_label
_atom_site_fract_x
_atom_site_fract_y
_atom_site_fract_z
Si Si1 0.179053 0.792510 0.184849
Si Si2 0.298837 0.298115 0.178582
Si Si3 0.583930 0.949956 0.605382
Si Si4 0.442205 0.051277 0.854748
Si Si5 0.842771 0.365099 0.698889
Si Si6 0.305809 0.868099 0.335732
Si Si7 0.016980 0.772845 0.682381
Si Si8 0.971467 0.323032 0.174856
O O1 0.242693 0.747621 0.223879
O O2 0.221915 0.838568 0.260992
O O3 0.078063 0.786265 0.245613
O O4 0.178826 0.795197 0.999818
O O5 0.231659 0.340208 0.204085
O O6 0.394276 0.304565 0.281422
O O7 0.500000 0.925838 0.500000
O O8 0.527519 0.955403 0.752062
O O9 0.676184 0.922330 0.650225
O O10 0.601554 0.000000 0.537281
O O11 0.367385 0.084292 0.766254
O O12 0.407647 0.000000 0.889780
O O13 0.500000 0.073773 0.000000
O O14 0.815333 0.358211 0.518496
O O15 0.938213 0.338839 0.726885
O O16 0.387936 0.852723 0.230226
O O17 0.049807 0.727593 0.773777
O O18 0.000000 0.765467 0.500000
O O19 0.000000 0.323594 0.000000
#
# Coordination Sequence:
#
# PCOD9184785 Si02
#       8
#     8   8   8   8   8   8   8   8
#     4  11  24  39  57  79 109 148 190 231 280 337
#     4  11  24  39  57  78 109 150 189 231 280 334
#     4  10  19  34  54  80 117 154 184 224 279 334
#     4  10  21  35  54  82 118 154 188 228 279 337
#     4  12  22  34  54  82 111 149 192 231 276 330
#     4  12  22  34  54  83 110 148 193 231 275 332
#     4  12  24  40  58  78 107 142 187 239 280 324
#     4  12  22  33  52  76 111 147 186 228 276 328
#
# _framework density 17.197042
#
# number of rings (size 3 to 8) (size 9 to 14) (size 15 to 20)
#    0.000    0.750    5.000    4.125    1.750    1.000 
#    0.000    0.000    0.000    0.000    0.000    0.875 
#    0.000    5.000    0.000    0.000    0.000    0.000 
#
# Total GULP energy -178170.347182 kJ/mol
# GULP energy per Si atom -5567.823349 kJ/mol
# Density = 1.715790 g / cm^3
# Si number density = 17.197042 Si / 1000 Ang^3
#
#
#
# Elastic Constant Matrix: (Units=GPa)
#
#
# Indices 1 2 3 4 5 6 
#
# 1 71.8204 19.3083 0.7985 0.0000 -4.5889 0.0000
# 2 19.3083 76.3885 1.5776 0.0000 7.2121 0.0000
# 3 0.7985 1.5776 76.6982 0.0000 -3.5473 0.0000
# 4 0.0000 0.0000 0.0000 19.3924 0.0000 -2.1467
# 5 -4.5889 7.2121 -3.5473 0.0000 27.8239 0.0000
# 6 0.0000 0.0000 0.0000 -2.1467 0.0000 -9.9882
#
#
#
# Elastic Compliance Matrix: (Units=1/GPa)
#
#
# Indices 1 2 3 4 5 6 
#
# 1 0.015285 -0.004208 0.000095 0.000000 0.003624 0.000000
# 2 -0.004208 0.014592 -0.000466 0.000000 -0.004536 0.000000
# 3 0.000095 -0.000466 0.013130 0.000000 0.001811 0.000000
# 4 0.000000 0.000000 0.000000 0.050368 0.000000 -0.010825
# 5 0.003624 -0.004536 0.001811 0.000000 0.037944 0.000000
# 6 0.000000 0.000000 0.000000 -0.010825 0.000000 -0.097791
#
#
# Mechanical properties :
#
#
# Convention : Reuss Voigt Hill
#
# Bulk Modulus (GPa) = 29.54160 29.80843 29.67502
# Shear Modulus (GPa) = 92.64260 20.99380 56.81820
#
# Velocity S-wave (km/s) = 7.34767 3.49776 5.75424
# Velocity P-wave (km/s) = 9.44457 5.80375 7.83847
#
# Compressibility (1/GPa) = 0.03385057
#
# Stress axis : x y z
#
# Youngs Moduli (GPa) = 65.42242 68.52891 76.15882
#
# Poissons Ratio (x) = 0.28835 -0.00724
# Poissons Ratio (y) = 0.27528 0.03550
# Poissons Ratio (z) = -0.00622 0.03194
#
# Static dielectric constant tensor:
#      x y z
#    x 1.858250 0.000000 -1.052080 
#    y 0.000000 1.710670 0.000000 
#    z -1.052080 0.000000 5.477100 
# 
# From -- ./inp_files/66975.got.cif
#   From: 2010.05.17/outbox.cif.g08.bks.cpg/sg12_34_cif.got.tgz:66975.got - 2010.06.03 13:09:07.
