data_PCOD9184997
_publ_section_title
;
Structure prediction by ZEFSAII (Michael W. Deem and Ramdas Pophale) SiO2 
 PCOD9184997
Probable space group: C 2/M
;
_chemical_formula_sum "Si O2"
_cell_formula_units_Z 46
_cell_length_a 26.650469
_cell_length_b 7.552156
_cell_length_c 13.749667
_cell_angle_alpha 90.000000
_cell_angle_beta 79.681520
_cell_angle_gamma 90.000000
_cell_volume 2722.618966
_symmetry_space_group_name_H-M "C 2/M"
_symmetry_group_IT_number 12
_symmetry_cell_setting 'monoclinic'
loop_
_space_group_symop_operation_xyz
x,y,z
-x,y,-z
-x,-y,-z
x,-y,z
1/2+x,1/2+y,z
1/2-x,1/2+y,-z
1/2-x,1/2-y,-z
1/2+x,1/2-y,z
loop_
_atom_site_type_symbol
_atom_site_label
_atom_site_fract_x
_atom_site_fract_y
_atom_site_fract_z
Si Si1 0.178109 0.202097 0.932581
Si Si2 0.558989 0.709362 0.506548
Si Si3 0.889137 0.500000 0.142461
Si Si4 0.791465 0.787207 0.860551
Si Si5 0.958679 0.500000 0.796608
Si Si6 0.429935 0.000000 0.338946
Si Si7 0.500000 0.000000 0.000000
Si Si8 0.108667 0.789396 0.282446
O O1 0.141268 0.330168 0.886909
O O2 0.235448 0.207925 0.869818
O O3 0.159402 0.000000 0.940112
O O4 0.185507 0.264082 0.042014
O O5 0.500000 0.750895 0.500000
O O6 0.561478 0.500000 0.527938
O O7 0.575840 0.829273 0.590266
O O8 0.592547 0.745104 0.398947
O O9 0.893862 0.500000 0.257555
O O10 0.945979 0.500000 0.080186
O O11 0.833100 0.744571 0.764688
O O12 0.784827 0.000000 0.865938
O O13 0.927284 0.671976 0.773195
O O14 0.012240 0.500000 0.721228
O O15 0.968049 0.500000 0.907609
O O16 0.101456 0.000000 0.266738
#
# Coordination Sequence:
#
# PCOD9184997 Si02
#       8
#     8   8   4   8   4   4   2   8
#     4  10  20  35  56  81 111 143 179 220 270 322
#     4  10  19  34  55  81 108 135 180 234 277 320
#     4  11  23  40  55  76 114 152 185 220 255 330
#     4   9  18  33  55  85 111 136 174 227 278 320
#     4  11  20  34  52  76 114 144 180 218 262 327
#     4  11  22  35  54  76 108 154 184 213 275 321
#     4  10  24  38  54  78 108 156 188 208 254 318
#     4  10  20  32  54  84 109 135 172 230 278 318
#
# _framework density 16.895496999999999
#
# number of rings (size 3 to 8) (size 9 to 14) (size 15 to 20)
#    0.000    1.913    2.609    1.826    2.435    0.696 
#    0.000    3.478    0.000    1.043    0.000    0.000 
#    0.000    0.000    0.000    0.000    0.000    0.000 
#
# Total GULP energy -128107.523961 kJ/mol
# GULP energy per Si atom -5569.892346 kJ/mol
# Density = 1.685704 g / cm^3
# Si number density = 16.895497 Si / 1000 Ang^3
#
#
#
# Elastic Constant Matrix: (Units=GPa)
#
#
# Indices 1 2 3 4 5 6 
#
# 1 81.3996 35.8802 47.7493 0.0000 -0.1277 0.0000
# 2 35.8802 70.0919 44.9705 0.0000 14.8083 0.0000
# 3 47.7493 44.9705 121.8731 0.0000 -2.6861 0.0000
# 4 0.0000 0.0000 0.0000 15.0342 0.0000 -3.3109
# 5 -0.1277 14.8083 -2.6861 0.0000 36.8187 0.0000
# 6 0.0000 0.0000 0.0000 -3.3109 0.0000 5.2246
#
#
#
# Elastic Compliance Matrix: (Units=1/GPa)
#
#
# Indices 1 2 3 4 5 6 
#
# 1 0.017909 -0.006850 -0.004434 0.000000 0.002493 0.000000
# 2 -0.006850 0.024030 -0.006407 0.000000 -0.010156 0.000000
# 3 -0.004434 -0.006407 0.012383 0.000000 0.003465 0.000000
# 4 0.000000 0.000000 0.000000 0.077304 0.000000 0.048989
# 5 0.002493 -0.010156 0.003465 0.000000 0.031506 0.000000
# 6 0.000000 0.000000 0.000000 0.048989 0.000000 0.222448
#
#
# Mechanical properties :
#
#
# Convention : Reuss Voigt Hill
#
# Bulk Modulus (GPa) = 52.79774 58.95162 55.87468
# Shear Modulus (GPa) = 11.70206 21.06647 16.38426
#
# Velocity S-wave (km/s) = 2.63461 3.53493 3.11745
# Velocity P-wave (km/s) = 6.36964 7.18531 6.78974
#
# Compressibility (1/GPa) = 0.01894021
#
# Stress axis : x y z
#
# Youngs Moduli (GPa) = 55.83634 41.61534 80.75489
#
# Poissons Ratio (x) = 0.28505 0.35810
# Poissons Ratio (y) = 0.38246 0.51739
# Poissons Ratio (z) = 0.24760 0.26663
#
# Static dielectric constant tensor:
#      x y z
#    x 1.546670 0.000000 -0.026580 
#    y 0.000000 1.607500 0.000000 
#    z -0.026580 0.000000 1.560440 
# 
# From -- ./inp_files/172235.got.cif
#   From: 2010.05.17/outbox.cif.g08.bks.cpg/sg12_87_cif.got.tgz:172235.got - 2010.06.03 13:09:07.
