data_PCOD9184971
_publ_section_title
;
Structure prediction by ZEFSAII (Michael W. Deem and Ramdas Pophale) SiO2 
 PCOD9184971
Probable space group: C 2/M
;
_chemical_formula_sum "Si O2"
_cell_formula_units_Z 48
_cell_length_a 15.638816
_cell_length_b 26.592484
_cell_length_c 12.409157
_cell_angle_alpha 90.000000
_cell_angle_beta 152.328833
_cell_angle_gamma 90.000000
_cell_volume 2396.591021
_symmetry_space_group_name_H-M "C 2/M"
_symmetry_group_IT_number 12
_symmetry_cell_setting 'monoclinic'
loop_
_space_group_symop_operation_xyz
x,y,z
-x,y,-z
-x,-y,-z
x,-y,z
1/2+x,1/2+y,z
1/2-x,1/2+y,-z
1/2-x,1/2-y,-z
1/2+x,1/2-y,z
loop_
_atom_site_type_symbol
_atom_site_label
_atom_site_fract_x
_atom_site_fract_y
_atom_site_fract_z
Si Si1 0.590281 0.410582 0.211278
Si Si2 0.174808 0.942398 0.907074
Si Si3 0.544368 0.690173 0.273975
Si Si4 0.459311 0.193351 0.774388
Si Si5 0.331526 0.347693 0.233980
Si Si6 0.494951 0.881549 0.620381
O O1 0.535874 0.352029 0.172193
O O2 0.808413 0.411329 0.440855
O O3 0.500000 0.428888 0.000000
O O4 0.509197 0.437779 0.225732
O O5 0.333817 0.916496 0.156708
O O6 0.214206 0.000000 0.926981
O O7 0.165065 0.906738 0.791907
O O8 0.528919 0.746582 0.214946
O O9 0.743654 0.682051 0.554387
O O10 0.386854 0.679738 0.184339
O O11 0.490316 0.167680 0.691192
O O12 0.624894 0.170280 0.030064
O O13 0.500000 0.335853 0.500000
O O14 0.500000 0.868993 0.500000
#
# Coordination Sequence:
#
# PCOD9184971 Si02
#       6
#     8   8   8   8   8   8
#     4  10  19  35  54  78 112 142 173 219 273 326
#     4  10  22  38  56  78 106 141 183 229 277 331
#     4   9  19  36  54  79 111 144 181 221 261 321
#     4   9  19  36  54  79 113 145 183 220 263 320
#     4  10  21  37  56  79 109 143 183 231 271 312
#     4  10  19  34  55  80 110 142 175 225 278 325
#
# _framework density 20.028448000000001
#
# number of rings (size 3 to 8) (size 9 to 14) (size 15 to 20)
#    0.000    2.333    1.667    0.500    0.000    3.000 
#    9.000    0.000    0.000    0.000    0.000    9.333 
#    0.000    0.000    0.000    0.000    0.000    0.000 
#
# Total GULP energy -133854.339445 kJ/mol
# GULP energy per Si atom -5577.264144 kJ/mol
# Density = 1.998286 g / cm^3
# Si number density = 20.028448 Si / 1000 Ang^3
#
#
#
# Elastic Constant Matrix: (Units=GPa)
#
#
# Indices 1 2 3 4 5 6 
#
# 1 47.7131 -3.8551 23.5521 0.0000 24.9281 0.0000
# 2 -3.8551 67.0712 -0.9793 0.0000 11.7095 0.0000
# 3 23.5521 -0.9793 103.6390 0.0001 15.2438 0.0000
# 4 0.0000 0.0000 0.0001 6.7938 0.0000 1.3960
# 5 24.9281 11.7095 15.2438 0.0000 26.8513 0.0000
# 6 0.0000 0.0000 0.0000 1.3960 0.0000 1.2433
#
#
#
# Elastic Compliance Matrix: (Units=1/GPa)
#
#
# Indices 1 2 3 4 5 6 
#
# 1 0.048879 0.011131 -0.003944 0.000000 -0.047993 0.000000
# 2 0.011131 0.018834 0.000411 0.000000 -0.018780 0.000000
# 3 -0.003944 0.000411 0.010951 0.000000 -0.002735 0.000000
# 4 0.000000 0.000000 0.000000 0.191334 0.000000 -0.214822
# 5 -0.047993 -0.018780 -0.002735 0.000000 0.091540 -0.000001
# 6 0.000000 0.000000 0.000000 -0.214822 -0.000001 1.045473
#
#
# Mechanical properties :
#
#
# Convention : Reuss Voigt Hill
#
# Bulk Modulus (GPa) = 10.65419 28.42873 19.54146
# Shear Modulus (GPa) = 3.51345 20.29140 11.90243
#
# Velocity S-wave (km/s) = 1.32591 3.18642 2.44042
# Velocity P-wave (km/s) = 2.77040 5.26903 4.20938
#
# Compressibility (1/GPa) = 0.09385977
#
# Stress axis : x y z
#
# Youngs Moduli (GPa) = 20.45873 53.09571 91.31392
#
# Poissons Ratio (x) = -0.59099 0.36010
# Poissons Ratio (y) = -0.22772 -0.03751
# Poissons Ratio (z) = 0.08068 -0.02181
#
# Static dielectric constant tensor:
#      x y z
#    x 1.697550 0.000000 0.005170 
#    y 0.000000 1.680070 0.000000 
#    z 0.005170 0.000000 1.743560 
# 
# From -- ./inp_files/149650.got.cif
#   From: 2010.05.17/outbox.cif.g08.bks.cpg/sg12_75_cif.got.tgz:149650.got - 2010.06.03 13:09:07.
