data_PCOD9184334
_publ_section_title
;
Structure prediction by ZEFSAII (Michael W. Deem and Ramdas Pophale) SiO2 
 PCOD9184334
Probable space group: C 2/M
;
_chemical_formula_sum "Si O2"
_cell_formula_units_Z 44
_cell_length_a 19.603513
_cell_length_b 14.954069
_cell_length_c 8.377335
_cell_angle_alpha 90.000000
_cell_angle_beta 55.227822
_cell_angle_gamma 90.000000
_cell_volume 2017.287239
_symmetry_space_group_name_H-M "C 2/M"
_symmetry_group_IT_number 12
_symmetry_cell_setting 'monoclinic'
loop_
_space_group_symop_operation_xyz
x,y,z
-x,y,-z
-x,-y,-z
x,-y,z
1/2+x,1/2+y,z
1/2-x,1/2+y,-z
1/2-x,1/2-y,-z
1/2+x,1/2-y,z
loop_
_atom_site_type_symbol
_atom_site_label
_atom_site_fract_x
_atom_site_fract_y
_atom_site_fract_z
Si Si1 0.118615 0.900406 0.163591
Si Si2 0.000000 0.766439 0.500000
Si Si3 0.759813 0.311530 0.140244
Si Si4 0.597169 0.893333 0.875642
Si Si5 0.598367 0.398452 0.830832
Si Si6 0.640658 0.231748 0.546706
O O1 0.196249 0.891013 0.179484
O O2 0.051885 0.829304 0.311412
O O3 0.083042 0.000000 0.219652
O O4 0.140487 0.885092 0.948562
O O5 0.932228 0.715818 0.485510
O O6 0.851565 0.346990 0.050758
O O7 0.722442 0.257924 0.340051
O O8 0.750000 0.250000 0.000000
O O9 0.641061 0.853813 0.659680
O O10 0.602806 0.000000 0.877927
O O11 0.500000 0.867452 0.000000
O O12 0.617669 0.500000 0.748344
O O13 0.619083 0.319565 0.681329
O O14 0.500000 0.395036 0.000000
#
# Coordination Sequence:
#
# PCOD9184334 Si02
#       6
#     8   4   8   8   8   8
#     4  10  20  35  58  92 134 170 208 263 333 403
#     4  10  21  32  59  98 130 170 206 264 332 402
#     4  11  25  44  67  96 129 171 225 285 342 393
#     4  11  26  47  71  97 134 182 233 278 328 399
#     4  10  19  33  58  97 139 177 212 260 329 411
#     4  11  23  40  68  96 130 176 223 280 337 398
#
# _framework density 21.81147
#
# number of rings (size 3 to 8) (size 9 to 14) (size 15 to 20)
#    0.000    1.455    1.818    3.000    5.091    3.636 
#    0.000    4.091    0.000    0.000    0.000    0.000 
#    0.000    0.000    0.000    0.000    0.000    0.000 
#
# Total GULP energy -123034.417865 kJ/mol
# GULP energy per Si atom -5592.473539 kJ/mol
# Density = 2.176183 g / cm^3
# Si number density = 21.811470 Si / 1000 Ang^3
#
#
#
# Elastic Constant Matrix: (Units=GPa)
#
#
# Indices 1 2 3 4 5 6 
#
# 1 153.6571 27.6317 15.4543 0.0000 -5.4933 0.0000
# 2 27.6317 72.8378 31.4340 0.0000 1.4569 0.0000
# 3 15.4543 31.4340 76.7569 0.0000 3.6226 0.0000
# 4 0.0000 0.0000 0.0000 17.7439 0.0000 4.2831
# 5 -5.4933 1.4569 3.6226 0.0000 30.0785 0.0000
# 6 0.0000 0.0000 0.0000 4.2831 0.0000 22.8631
#
#
#
# Elastic Compliance Matrix: (Units=1/GPa)
#
#
# Indices 1 2 3 4 5 6 
#
# 1 0.007058 -0.002507 -0.000464 0.000000 0.001466 0.000000
# 2 -0.002507 0.017567 -0.006665 0.000000 -0.000506 0.000000
# 3 -0.000464 -0.006665 0.015931 0.000000 -0.001680 0.000000
# 4 0.000000 0.000000 0.000000 0.059026 0.000000 -0.011058
# 5 0.001466 -0.000506 -0.001680 0.000000 0.033741 0.000000
# 6 0.000000 0.000000 0.000000 -0.011058 0.000000 0.045810
#
#
# Mechanical properties :
#
#
# Convention : Reuss Voigt Hill
#
# Bulk Modulus (GPa) = 46.98495 50.25464 48.61979
# Shear Modulus (GPa) = 24.33104 29.38589 26.85847
#
# Velocity S-wave (km/s) = 3.34356 3.67450 3.51293
# Velocity P-wave (km/s) = 6.04103 6.41039 6.22844
#
# Compressibility (1/GPa) = 0.02128341
#
# Stress axis : x y z
#
# Youngs Moduli (GPa) = 141.68682 56.92577 62.77265
#
# Poissons Ratio (x) = 0.14269 0.02911
# Poissons Ratio (y) = 0.35516 0.41841
# Poissons Ratio (z) = 0.06570 0.37944
#
# Static dielectric constant tensor:
#      x y z
#    x 1.872470 0.000000 0.003660 
#    y 0.000000 1.800040 0.000000 
#    z 0.003660 0.000000 1.789520 
# 
# From -- ./inp_files/85578.got.cif
#   From: 2010.05.17/outbox.cif.g08.bks.cpg/sg12_43_cif.got.tgz:85578.got - 2010.06.03 13:09:07.
