data_PCOD9184846
_publ_section_title
;
Structure prediction by ZEFSAII (Michael W. Deem and Ramdas Pophale) SiO2 
 PCOD9184846
Probable space group: C 2/M
;
_chemical_formula_sum "Si O2"
_cell_formula_units_Z 56
_cell_length_a 18.900046
_cell_length_b 13.311328
_cell_length_c 14.391249
_cell_angle_alpha 90.000000
_cell_angle_beta 61.827873
_cell_angle_gamma 90.000000
_cell_volume 3191.695289
_symmetry_space_group_name_H-M "C 2/M"
_symmetry_group_IT_number 12
_symmetry_cell_setting 'monoclinic'
loop_
_space_group_symop_operation_xyz
x,y,z
-x,y,-z
-x,-y,-z
x,-y,z
1/2+x,1/2+y,z
1/2-x,1/2+y,-z
1/2-x,1/2-y,-z
1/2+x,1/2-y,z
loop_
_atom_site_type_symbol
_atom_site_label
_atom_site_fract_x
_atom_site_fract_y
_atom_site_fract_z
Si Si1 0.411766 0.386078 0.085605
Si Si2 0.907313 0.611993 0.085069
Si Si3 0.686561 0.384306 0.354570
Si Si4 0.661581 0.727224 0.018468
Si Si5 0.913607 0.115537 0.770396
Si Si6 0.900946 0.115727 0.400416
Si Si7 0.654218 0.240742 0.720358
O O1 0.426054 0.500000 0.101865
O O2 0.371379 0.331415 0.196366
O O3 0.500000 0.344729 0.000000
O O4 0.350776 0.370246 0.038761
O O5 0.873372 0.500000 0.099455
O O6 0.897530 0.653043 0.196419
O O7 0.864980 0.684611 0.035997
O O8 0.000000 0.609475 0.000000
O O9 0.717175 0.500000 0.340599
O O10 0.645496 0.371091 0.280198
O O11 0.622059 0.374918 0.477331
O O12 0.756822 0.303915 0.326116
O O13 0.605542 0.699309 0.140599
O O14 0.750000 0.750000 0.000000
O O15 0.004603 0.122644 0.678634
O O16 0.902939 0.000000 0.812214
O O17 0.861466 0.208887 0.369374
O O18 0.876132 0.000000 0.388354
#
# Coordination Sequence:
#
# PCOD9184846 Si02
#       7
#     8   8   8   8   8   8   8
#     4  10  20  34  52  75 103 133 166 207 255 306
#     4  10  21  36  52  72 101 137 173 204 240 298
#     4  10  21  35  51  75 105 135 170 212 257 302
#     4  11  21  32  50  77 106 132 164 204 250 303
#     4  10  19  34  55  76 102 135 169 209 257 304
#     4  10  20  34  54  78 101 130 171 216 259 302
#     4  11  19  32  52  76 104 132 166 208 256 304
#
# _framework density 17.545534
#
# number of rings (size 3 to 8) (size 9 to 14) (size 15 to 20)
#    0.000    1.714    0.000    7.286    0.000    6.286 
#    0.000    0.000    0.000    0.000    0.000    0.000 
#    0.000   16.000    0.000    0.000    0.000    0.000 
#
# Total GULP energy -155959.243923 kJ/mol
# GULP energy per Si atom -5569.972997 kJ/mol
# Density = 1.750560 g / cm^3
# Si number density = 17.545534 Si / 1000 Ang^3
#
#
#
# Elastic Constant Matrix: (Units=GPa)
#
#
# Indices 1 2 3 4 5 6 
#
# 1 43.0721 11.3597 -16.6805 0.0000 -1.4011 0.0000
# 2 11.3597 88.8972 16.1670 0.0000 2.2962 0.0000
# 3 -16.6805 16.1670 60.5146 0.0000 1.6456 0.0000
# 4 0.0000 0.0000 0.0000 -5.0169 0.0000 0.8955
# 5 -1.4011 2.2962 1.6456 0.0000 24.9372 0.0000
# 6 0.0000 0.0000 0.0000 0.8955 0.0000 24.4999
#
#
#
# Elastic Compliance Matrix: (Units=1/GPa)
#
#
# Indices 1 2 3 4 5 6 
#
# 1 0.028209 -0.005307 0.009154 0.000000 0.001470 0.000000
# 2 -0.005307 0.012841 -0.004862 0.000000 -0.001160 0.000000
# 3 0.009154 -0.004862 0.020357 0.000000 -0.000381 0.000000
# 4 0.000000 0.000000 0.000000 -0.198034 0.000000 0.007239
# 5 0.001470 -0.001160 -0.000381 0.000000 0.040315 0.000000
# 6 0.000000 0.000000 0.000000 0.007239 0.000000 0.040552
#
#
# Mechanical properties :
#
#
# Convention : Reuss Voigt Hill
#
# Bulk Modulus (GPa) = 16.84168 23.79739 20.31953
# Shear Modulus (GPa) = -147.34149 20.99323 -63.17413
#
# Velocity S-wave (km/s) = -9.17382 3.46280 -6.00699
# Velocity P-wave (km/s) = 10.12878 5.43881 6.04200
#
# Compressibility (1/GPa) = 0.05937650
#
# Stress axis : x y z
#
# Youngs Moduli (GPa) = 35.44921 77.87351 49.12219
#
# Poissons Ratio (x) = 0.41331 -0.44965
# Poissons Ratio (y) = 0.18814 0.23884
# Poissons Ratio (z) = -0.32449 0.37863
#
# Static dielectric constant tensor:
#      x y z
#    x 1.594840 0.000000 0.007590 
#    y 0.000000 1.631340 0.000000 
#    z 0.007590 0.000000 1.616800 
# 
# From -- ./inp_files/224651.got.cif
#   From: 2010.05.17/outbox.cif.g08.bks.cpg/sg12_113_cif.got.tgz:224651.got - 2010.06.03 13:09:07.
