data_PCOD9184327
_publ_section_title
;
Structure prediction by ZEFSAII (Michael W. Deem and Ramdas Pophale) SiO2 
 PCOD9184327
Probable space group: C 2/M
;
_chemical_formula_sum "Si O2"
_cell_formula_units_Z 56
_cell_length_a 20.753161
_cell_length_b 8.707843
_cell_length_c 31.426276
_cell_angle_alpha 90.000000
_cell_angle_beta 147.317737
_cell_angle_gamma 90.000000
_cell_volume 3066.657473
_symmetry_space_group_name_H-M "C 2/M"
_symmetry_group_IT_number 12
_symmetry_cell_setting 'monoclinic'
loop_
_space_group_symop_operation_xyz
x,y,z
-x,y,-z
-x,-y,-z
x,-y,z
1/2+x,1/2+y,z
1/2-x,1/2+y,-z
1/2-x,1/2-y,-z
1/2+x,1/2-y,z
loop_
_atom_site_type_symbol
_atom_site_label
_atom_site_fract_x
_atom_site_fract_y
_atom_site_fract_z
Si Si1 0.082981 0.317600 0.667961
Si Si2 0.173426 0.816392 0.496719
Si Si3 0.930207 0.684184 0.086124
Si Si4 0.727639 0.182806 0.918803
Si Si5 0.826491 0.816091 0.657734
Si Si6 0.194188 0.684439 0.259136
Si Si7 0.088051 0.182474 0.764240
O O1 0.070140 0.500000 0.657459
O O2 0.194988 0.259704 0.703096
O O3 0.100489 0.269093 0.726695
O O4 0.962006 0.237904 0.584462
O O5 0.250000 0.750000 0.500000
O O6 0.230806 0.751298 0.571676
O O7 0.180146 0.000000 0.499795
O O8 0.919939 0.500000 0.075297
O O9 0.865139 0.723788 0.094684
O O10 0.068603 0.725559 0.166834
O O11 0.855845 0.765414 0.007732
O O12 0.685600 0.266009 0.852855
O O13 0.723420 0.000000 0.910522
O O14 0.812930 0.742001 0.696395
O O15 0.957994 0.782330 0.711959
O O16 0.814047 0.000000 0.653655
O O17 0.205087 0.500000 0.264596
O O18 0.094369 0.000000 0.760286
#
# Coordination Sequence:
#
# PCOD9184327 Si02
#       7
#     8   8   8   8   8   8   8
#     4  12  26  43  64  90 125 163 205 253 308 369
#     4  12  24  41  65  93 124 160 204 254 307 360
#     4   9  19  35  57  87 123 161 199 247 304 361
#     4  10  19  33  58  91 123 157 203 253 301 357
#     4  11  23  39  64  94 124 160 205 254 303 362
#     4  11  23  42  64  90 127 165 205 251 309 370
#     4  11  22  38  62  91 124 161 205 252 304 363
#
# _framework density 18.260923999999999
#
# number of rings (size 3 to 8) (size 9 to 14) (size 15 to 20)
#    0.000    1.143    2.857    4.286    0.000    3.429 
#    0.000    3.571    0.000    4.286    0.000    0.000 
#    0.000    0.000    0.000    0.000    0.000    0.000 
#
# Total GULP energy -156583.282630 kJ/mol
# GULP energy per Si atom -5592.260094 kJ/mol
# Density = 1.821936 g / cm^3
# Si number density = 18.260924 Si / 1000 Ang^3
#
#
#
# Elastic Constant Matrix: (Units=GPa)
#
#
# Indices 1 2 3 4 5 6 
#
# 1 72.0179 21.4721 32.1375 0.0000 3.9472 0.0001
# 2 21.4721 53.4174 23.1805 0.0000 -3.5166 0.0001
# 3 32.1375 23.1805 120.4685 0.0000 -2.6530 0.0000
# 4 0.0000 0.0000 0.0000 34.1938 0.0000 -3.7920
# 5 3.9472 -3.5166 -2.6530 0.0000 27.5796 0.0000
# 6 0.0001 0.0001 0.0000 -3.7920 0.0000 32.1665
#
#
#
# Elastic Compliance Matrix: (Units=1/GPa)
#
#
# Indices 1 2 3 4 5 6 
#
# 1 0.017384 -0.005647 -0.003629 0.000000 -0.003557 0.000000
# 2 -0.005647 0.022398 -0.002729 0.000000 0.003402 0.000000
# 3 -0.003629 -0.002729 0.009819 0.000000 0.001116 0.000000
# 4 0.000000 0.000000 0.000000 0.029632 0.000000 0.003493
# 5 -0.003557 0.003402 0.001116 0.000000 0.037309 0.000000
# 6 0.000000 0.000000 0.000000 0.003493 0.000000 0.031500
#
#
# Mechanical properties :
#
#
# Convention : Reuss Voigt Hill
#
# Bulk Modulus (GPa) = 39.07576 44.38711 41.73143
# Shear Modulus (GPa) = 27.68830 30.06221 28.87526
#
# Velocity S-wave (km/s) = 3.89814 4.06181 3.98082
# Velocity P-wave (km/s) = 6.45800 6.80865 6.63564
#
# Compressibility (1/GPa) = 0.02559131
#
# Stress axis : x y z
#
# Youngs Moduli (GPa) = 57.52579 44.64610 101.84663
#
# Poissons Ratio (x) = 0.25211 0.36962
# Poissons Ratio (y) = 0.32484 0.27789
# Poissons Ratio (z) = 0.20877 0.12182
#
# Static dielectric constant tensor:
#      x y z
#    x 1.595680 0.000000 0.006240 
#    y 0.000000 1.607720 0.000000 
#    z 0.006240 0.000000 1.609390 
# 
# From -- ./inp_files/380707.got.cif
#   From: 2010.05.17/outbox.cif.g08.bks.cpg/sg12_191_cif.got.tgz:380707.got - 2010.06.03 13:09:07.
