data_PCOD9184012
_publ_section_title
;
Structure prediction by ZEFSAII (Michael W. Deem and Ramdas Pophale) SiO2 
 PCOD9184012
Probable space group: C 2/M
;
_chemical_formula_sum "Si O2"
_cell_formula_units_Z 48
_cell_length_a 15.070080
_cell_length_b 25.441352
_cell_length_c 9.938290
_cell_angle_alpha 90.000000
_cell_angle_beta 145.194152
_cell_angle_gamma 90.000000
_cell_volume 2174.950506
_symmetry_space_group_name_H-M "C 2/M"
_symmetry_group_IT_number 12
_symmetry_cell_setting 'monoclinic'
loop_
_space_group_symop_operation_xyz
x,y,z
-x,y,-z
-x,-y,-z
x,-y,z
1/2+x,1/2+y,z
1/2-x,1/2+y,-z
1/2-x,1/2-y,-z
1/2+x,1/2-y,z
loop_
_atom_site_type_symbol
_atom_site_label
_atom_site_fract_x
_atom_site_fract_y
_atom_site_fract_z
Si Si1 0.248645 0.851199 0.647715
Si Si2 0.240285 0.125587 0.089416
Si Si3 0.999499 0.786131 0.835442
Si Si4 0.314852 0.558559 0.740232
Si Si5 0.448284 0.560488 0.619478
Si Si6 0.954721 0.331010 0.142279
O O1 0.147373 0.898323 0.587789
O O2 0.405642 0.861067 0.758200
O O3 0.137029 0.819772 0.406053
O O4 0.315909 0.821369 0.861287
O O5 0.266587 0.102157 0.271130
O O6 0.387882 0.135649 0.181307
O O7 0.153743 0.181392 0.991948
O O8 0.113923 0.084854 0.868056
O O9 0.989637 0.728152 0.760770
O O10 0.000000 0.784110 0.000000
O O11 0.262399 0.500000 0.714294
O O12 0.328004 0.562078 0.597014
O O13 0.500000 0.562788 0.000000
O O14 0.463856 0.500000 0.599480
#
# Coordination Sequence:
#
# PCOD9184012 Si02
#       6
#     8   8   8   8   8   8
#     4  10  22  41  61  80 120 161 195 238 289 355
#     4  10  19  33  56  90 115 142 194 249 288 339
#     4  11  21  38  62  82 111 158 202 238 288 350
#     4   8  14  30  56  84 112 142 183 236 287 334
#     4   9  18  36  62  85 112 155 200 238 286 347
#     4  11  23  38  56  83 121 158 195 239 295 341
#
# _framework density 22.069468000000001
#
# number of rings (size 3 to 8) (size 9 to 14) (size 15 to 20)
#    0.000    2.167    1.667    5.000    0.000    2.667 
#    0.000    9.167    0.000    2.000    0.000    0.000 
#    0.000    0.000    0.000    0.000    0.000    0.000 
#
# Total GULP energy -133786.881841 kJ/mol
# GULP energy per Si atom -5574.453410 kJ/mol
# Density = 2.201924 g / cm^3
# Si number density = 22.069468 Si / 1000 Ang^3
#
#
#
# Elastic Constant Matrix: (Units=GPa)
#
#
# Indices 1 2 3 4 5 6 
#
# 1 107.2849 17.2378 8.7788 0.0000 9.4087 0.0000
# 2 17.2378 100.5576 18.9966 0.0000 19.8756 0.0000
# 3 8.7788 18.9966 56.9850 0.0000 1.0580 0.0000
# 4 0.0000 0.0000 0.0000 -2.0278 0.0000 -3.5342
# 5 9.4087 19.8756 1.0580 0.0000 24.5569 0.0000
# 6 0.0000 0.0000 0.0000 -3.5342 0.0000 14.0051
#
#
#
# Elastic Compliance Matrix: (Units=1/GPa)
#
#
# Indices 1 2 3 4 5 6 
#
# 1 0.009820 -0.000868 -0.001168 0.000000 -0.003010 0.000000
# 2 -0.000868 0.012785 -0.003945 0.000000 -0.009845 0.000000
# 3 -0.001168 -0.003945 0.018991 0.000000 0.002822 0.000000
# 4 0.000000 0.000000 0.000000 -0.342504 0.000000 -0.086431
# 5 -0.003010 -0.009845 0.002822 0.000000 0.049721 0.000000
# 6 0.000000 0.000000 0.000000 -0.086431 0.000000 0.049592
#
#
# Mechanical properties :
#
#
# Convention : Reuss Voigt Hill
#
# Bulk Modulus (GPa) = 33.74518 39.42821 36.58670
# Shear Modulus (GPa) = -27.81560 21.96112 -2.92724
#
# Velocity S-wave (km/s) = -3.55401 3.15793 -1.15293
# Velocity P-wave (km/s) = 1.23196 5.58578 3.85248
#
# Compressibility (1/GPa) = 0.02963386
#
# Stress axis : x y z
#
# Youngs Moduli (GPa) = 101.83395 78.21936 52.65594
#
# Poissons Ratio (x) = 0.06789 0.06148
# Poissons Ratio (y) = 0.08838 0.20775
# Poissons Ratio (z) = 0.11890 0.30861
#
# Static dielectric constant tensor:
#      x y z
#    x 1.908670 0.000000 -0.072920 
#    y 0.000000 1.851160 0.000000 
#    z -0.072920 0.000000 1.833000 
# 
# From -- ./inp_files/149851.got.cif
#   From: 2010.05.17/outbox.cif.g08.bks.cpg/sg12_75_cif.got.tgz:149851.got - 2010.06.03 13:09:07.
