data_PCOD9184701
_publ_section_title
;
Structure prediction by ZEFSAII (Michael W. Deem and Ramdas Pophale) SiO2 
 PCOD9184701
Probable space group: C 2/M
;
_chemical_formula_sum "Si O2"
_cell_formula_units_Z 56
_cell_length_a 12.260683
_cell_length_b 23.395701
_cell_length_c 11.704188
_cell_angle_alpha 90.000000
_cell_angle_beta 127.529619
_cell_angle_gamma 90.000000
_cell_volume 2662.479709
_symmetry_space_group_name_H-M "C 2/M"
_symmetry_group_IT_number 12
_symmetry_cell_setting 'monoclinic'
loop_
_space_group_symop_operation_xyz
x,y,z
-x,y,-z
-x,-y,-z
x,-y,z
1/2+x,1/2+y,z
1/2-x,1/2+y,-z
1/2-x,1/2-y,-z
1/2+x,1/2-y,z
loop_
_atom_site_type_symbol
_atom_site_label
_atom_site_fract_x
_atom_site_fract_y
_atom_site_fract_z
Si Si1 0.450292 0.147294 0.334350
Si Si2 0.837394 0.563959 0.620720
Si Si3 0.148957 0.197912 0.128081
Si Si4 0.244318 0.183926 0.856611
Si Si5 0.663579 0.062237 0.106217
Si Si6 0.950070 0.235634 0.697603
Si Si7 0.146008 0.154453 0.547695
O O1 0.500000 0.150602 0.500000
O O2 0.515914 0.089959 0.322290
O O3 0.287158 0.159583 0.211350
O O4 0.519408 0.198503 0.305576
O O5 0.821158 0.500000 0.565747
O O6 0.809727 0.562117 0.739943
O O7 0.722316 0.610156 0.513493
O O8 0.165635 0.258847 0.070223
O O9 0.137903 0.218011 0.251280
O O10 0.000000 0.172450 0.000000
O O11 0.288392 0.120688 0.924588
O O12 0.230637 0.172941 0.712360
O O13 0.094078 0.201636 0.801402
O O14 0.711754 0.000000 0.091641
O O15 0.500000 0.063357 0.000000
O O16 0.885178 0.211215 0.541372
O O17 0.000000 0.130462 0.500000
#
# Coordination Sequence:
#
# PCOD9184701 Si02
#       7
#     8   8   8   8   8   8   8
#     4  11  23  38  59  81 106 145 185 222 270 331
#     4  10  21  35  53  78 108 143 181 226 272 314
#     4  11  23  35  52  82 113 141 179 226 272 321
#     4   9  18  30  50  77 104 135 172 218 270 318
#     4   9  17  30  49  73 101 135 174 212 257 318
#     4  10  19  34  54  76 106 139 173 215 271 324
#     4   9  17  32  55  83 108 137 178 222 269 324
#
# _framework density 21.033024000000001
#
# number of rings (size 3 to 8) (size 9 to 14) (size 15 to 20)
#    0.000    2.143    0.000    5.143    0.000    5.714 
#    0.000    2.143    0.000    1.286    0.000    0.000 
#    0.000    0.000    0.000    0.000    0.000    0.000 
#
# Total GULP energy -156084.657181 kJ/mol
# GULP energy per Si atom -5574.452042 kJ/mol
# Density = 2.098515 g / cm^3
# Si number density = 21.033024 Si / 1000 Ang^3
#
#
#
# Elastic Constant Matrix: (Units=GPa)
#
#
# Indices 1 2 3 4 5 6 
#
# 1 83.5587 41.8927 6.6531 0.0000 8.8063 0.0000
# 2 41.8927 103.2689 7.0794 0.0000 14.4448 0.0000
# 3 6.6531 7.0794 46.4047 0.0000 9.3091 0.0000
# 4 0.0000 0.0000 0.0000 7.3925 0.0000 -8.8709
# 5 8.8063 14.4448 9.3091 0.0000 32.5976 0.0000
# 6 0.0000 0.0000 0.0000 -8.8709 0.0000 37.5542
#
#
#
# Elastic Compliance Matrix: (Units=1/GPa)
#
#
# Indices 1 2 3 4 5 6 
#
# 1 0.015134 -0.005904 -0.001033 0.000000 -0.001177 0.000000
# 2 -0.005904 0.012648 -0.000296 0.000000 -0.003925 0.000000
# 3 -0.001033 -0.000296 0.022977 0.000000 -0.006152 0.000000
# 4 0.000000 0.000000 0.000000 0.188784 0.000000 0.044594
# 5 -0.001177 -0.003925 -0.006152 0.000000 0.034491 0.000000
# 6 0.000000 0.000000 0.000000 0.044594 0.000000 0.037162
#
#
# Mechanical properties :
#
#
# Convention : Reuss Voigt Hill
#
# Bulk Modulus (GPa) = 27.55304 38.27585 32.91445
# Shear Modulus (GPa) = 14.80351 27.34932 21.07641
#
# Velocity S-wave (km/s) = 2.65584 3.60988 3.16897
# Velocity P-wave (km/s) = 4.74689 5.96762 5.39192
#
# Compressibility (1/GPa) = 0.03629363
#
# Stress axis : x y z
#
# Youngs Moduli (GPa) = 66.07690 79.06551 43.52220
#
# Poissons Ratio (x) = 0.46679 0.04495
# Poissons Ratio (y) = 0.39011 0.01287
# Poissons Ratio (z) = 0.06825 0.02338
#
# Static dielectric constant tensor:
#      x y z
#    x 1.793720 0.000000 -0.007240 
#    y 0.000000 1.798450 0.000000 
#    z -0.007240 0.000000 1.950500 
# 
# From -- ./inp_files/135481.got.cif
#   From: 2010.05.17/outbox.cif.g08.bks.cpg/sg12_68_cif.got.tgz:135481.got - 2010.06.03 13:09:07.
