data_PCOD9184313
_publ_section_title
;
Structure prediction by ZEFSAII (Michael W. Deem and Ramdas Pophale) SiO2 
 PCOD9184313
Probable space group: C 2/M
;
_chemical_formula_sum "Si O2"
_cell_formula_units_Z 44
_cell_length_a 13.290542
_cell_length_b 20.409923
_cell_length_c 12.019428
_cell_angle_alpha 90.000000
_cell_angle_beta 46.067058
_cell_angle_gamma 90.000000
_cell_volume 2347.968278
_symmetry_space_group_name_H-M "C 2/M"
_symmetry_group_IT_number 12
_symmetry_cell_setting 'monoclinic'
loop_
_space_group_symop_operation_xyz
x,y,z
-x,y,-z
-x,-y,-z
x,-y,z
1/2+x,1/2+y,z
1/2-x,1/2+y,-z
1/2-x,1/2-y,-z
1/2+x,1/2-y,z
loop_
_atom_site_type_symbol
_atom_site_label
_atom_site_fract_x
_atom_site_fract_y
_atom_site_fract_z
Si Si1 0.953972 0.788714 0.411227
Si Si2 0.407213 0.076726 0.826967
Si Si3 0.000000 0.125943 0.000000
Si Si4 0.835187 0.653559 0.419760
Si Si5 0.778084 0.425922 0.684356
Si Si6 0.322692 0.320615 0.935094
O O1 0.913402 0.722737 0.375896
O O2 0.814490 0.832548 0.519574
O O3 0.000000 0.771937 0.500000
O O4 0.078815 0.822256 0.247941
O O5 0.561953 0.105032 0.723972
O O6 0.372897 0.084414 0.720860
O O7 0.394143 0.000000 0.863538
O O8 0.293333 0.122331 0.974148
O O9 0.880582 0.083533 0.151677
O O10 0.079502 0.168094 0.032034
O O11 0.807605 0.624230 0.563497
O O12 0.800755 0.500000 0.626682
O O13 0.250000 0.250000 0.000000
#
# Coordination Sequence:
#
# PCOD9184313 Si02
#       6
#     8   8   4   8   8   8
#     4  11  24  39  59  87 121 162 202 240 290 353
#     4  10  21  37  61  91 120 151 195 252 308 354
#     4  10  21  36  58  92 117 150 194 244 306 354
#     4  11  21  37  59  88 120 155 194 248 299 355
#     4  10  19  33  58  89 122 151 186 243 310 364
#     4  11  22  40  61  88 120 157 195 248 295 352
#
# _framework density 18.739605000000001
#
# number of rings (size 3 to 8) (size 9 to 14) (size 15 to 20)
#    0.000    1.455    3.636    2.455    2.545    2.182 
#    0.000    0.000    0.000    6.000    0.000    0.000 
#    0.000    0.000    0.000    0.000    0.000    0.000 
#
# Total GULP energy -122908.903435 kJ/mol
# GULP energy per Si atom -5586.768338 kJ/mol
# Density = 1.869695 g / cm^3
# Si number density = 18.739605 Si / 1000 Ang^3
#
#
#
# Elastic Constant Matrix: (Units=GPa)
#
#
# Indices 1 2 3 4 5 6 
#
# 1 49.5876 19.5644 19.4553 0.0000 -21.6415 0.0000
# 2 19.5644 79.4053 17.8447 0.0000 -18.8869 0.0000
# 3 19.4553 17.8447 80.0248 0.0000 -23.9950 0.0000
# 4 0.0000 0.0000 0.0000 32.3975 0.0000 0.6543
# 5 -21.6415 -18.8869 -23.9950 0.0000 28.1318 0.0000
# 6 0.0000 0.0000 0.0000 0.6543 0.0000 20.2040
#
#
#
# Elastic Compliance Matrix: (Units=1/GPa)
#
#
# Indices 1 2 3 4 5 6 
#
# 1 0.030725 -0.002307 -0.000447 0.000000 0.021707 0.000000
# 2 -0.002307 0.015171 -0.000403 0.000000 0.008067 0.000000
# 3 -0.000447 -0.000403 0.016810 0.000000 0.013723 0.000000
# 4 0.000000 0.000000 0.000000 0.030887 0.000000 -0.001000
# 5 0.021707 0.008067 0.013723 0.000000 0.069367 0.000000
# 6 0.000000 0.000000 0.000000 -0.001000 0.000000 0.049528
#
#
# Mechanical properties :
#
#
# Convention : Reuss Voigt Hill
#
# Bulk Modulus (GPa) = 17.73295 35.86070 26.79683
# Shear Modulus (GPa) = 21.04391 26.29023 23.66707
#
# Velocity S-wave (km/s) = 3.35470 3.74963 3.55765
# Velocity P-wave (km/s) = 4.94861 6.15826 5.58627
#
# Compressibility (1/GPa) = 0.05639220
#
# Stress axis : x y z
#
# Youngs Moduli (GPa) = 32.54657 65.91354 59.49012
#
# Poissons Ratio (x) = 0.15205 0.02658
# Poissons Ratio (y) = 0.07508 0.02400
# Poissons Ratio (z) = 0.01454 0.02659
#
# Static dielectric constant tensor:
#      x y z
#    x 1.639090 0.000000 -0.027980 
#    y 0.000000 1.633760 0.000000 
#    z -0.027980 0.000000 1.659700 
# 
# From -- ./inp_files/147495.got.cif
#   From: 2010.05.17/outbox.cif.g08.bks.cpg/sg12_74_cif.got.tgz:147495.got - 2010.06.03 13:09:07.
