data_PCOD9184032
_publ_section_title
;
Structure prediction by ZEFSAII (Michael W. Deem and Ramdas Pophale) SiO2 
 PCOD9184032
Probable space group: C 2/M
;
_chemical_formula_sum "Si O2"
_cell_formula_units_Z 64
_cell_length_a 13.556141
_cell_length_b 13.471877
_cell_length_c 24.935786
_cell_angle_alpha 90.000000
_cell_angle_beta 129.986889
_cell_angle_gamma 90.000000
_cell_volume 3489.189727
_symmetry_space_group_name_H-M "C 2/M"
_symmetry_group_IT_number 12
_symmetry_cell_setting 'monoclinic'
loop_
_space_group_symop_operation_xyz
x,y,z
-x,y,-z
-x,-y,-z
x,-y,z
1/2+x,1/2+y,z
1/2-x,1/2+y,-z
1/2-x,1/2-y,-z
1/2+x,1/2-y,z
loop_
_atom_site_type_symbol
_atom_site_label
_atom_site_fract_x
_atom_site_fract_y
_atom_site_fract_z
Si Si1 0.048287 0.740783 0.958880
Si Si2 0.094839 0.185964 0.778857
Si Si3 0.302971 0.690976 0.402359
Si Si4 0.806416 0.881249 0.070050
Si Si5 0.836027 0.886195 0.639236
Si Si6 0.438912 0.381781 0.555796
Si Si7 0.455569 0.112804 0.736038
Si Si8 0.651052 0.884204 0.180307
O O1 0.100479 0.830818 0.941200
O O2 0.936173 0.682811 0.888620
O O3 0.165623 0.663896 0.009113
O O4 0.000000 0.774595 0.000000
O O5 0.147835 0.155487 0.855527
O O6 0.202658 0.152321 0.774314
O O7 0.960196 0.131544 0.719951
O O8 0.062074 0.302747 0.764400
O O9 0.272413 0.806810 0.384323
O O10 0.415148 0.654313 0.402027
O O11 0.354260 0.668644 0.479841
O O12 0.168696 0.635456 0.344111
O O13 0.805845 0.000000 0.067631
O O14 0.884920 0.862719 0.595995
O O15 0.794414 0.000000 0.627156
O O16 0.436662 0.500000 0.545931
O O17 0.403646 0.123583 0.778786
O O18 0.500366 0.000000 0.743912
O O19 0.645590 0.000000 0.162239
#
# Coordination Sequence:
#
# PCOD9184032 Si02
#       8
#     8   8   8   8   8   8   8   8
#     4  11  23  39  58  83 112 139 182 230 271 325
#     4  11  21  36  59  83 111 142 188 227 269 325
#     4  10  19  33  57  81 111 142 186 228 271 321
#     4  11  23  39  59  83 111 146 183 224 275 327
#     4  10  21  35  54  80 112 147 182 224 272 323
#     4  10  19  34  56  83 108 142 187 229 271 319
#     4  10  21  37  57  82 112 146 181 227 278 324
#     4  11  21  36  59  83 109 143 184 227 272 318
#
# _framework density 18.342366999999999
#
# number of rings (size 3 to 8) (size 9 to 14) (size 15 to 20)
#    0.000    1.500    2.500    4.125    0.000    2.750 
#    0.000    1.875    0.000    9.000    0.000    0.000 
#    0.000    0.000    0.000    0.000    0.000    0.000 
#
# Total GULP energy -178784.618211 kJ/mol
# GULP energy per Si atom -5587.019319 kJ/mol
# Density = 1.830062 g / cm^3
# Si number density = 18.342367 Si / 1000 Ang^3
#
#
#
# Elastic Constant Matrix: (Units=GPa)
#
#
# Indices 1 2 3 4 5 6 
#
# 1 22.1460 4.0677 -6.7742 0.0000 4.9293 0.0000
# 2 4.0677 82.9445 11.1242 0.0000 3.9828 0.0000
# 3 -6.7742 11.1242 67.4374 0.0000 3.9202 0.0000
# 4 0.0000 0.0000 0.0000 11.8052 0.0000 0.5659
# 5 4.9293 3.9828 3.9202 0.0000 19.3961 0.0000
# 6 0.0000 0.0000 0.0000 0.5659 0.0000 22.6570
#
#
#
# Elastic Compliance Matrix: (Units=1/GPa)
#
#
# Indices 1 2 3 4 5 6 
#
# 1 0.050602 -0.002676 0.006314 0.000000 -0.013587 0.000000
# 2 -0.002676 0.012559 -0.002257 0.000000 -0.001443 0.000000
# 3 0.006314 -0.002257 0.016090 0.000000 -0.004393 0.000000
# 4 0.000000 0.000000 0.000000 0.084810 0.000000 -0.002118
# 5 -0.013587 -0.001443 -0.004393 0.000000 0.056194 0.000000
# 6 0.000000 0.000000 0.000000 -0.002118 0.000000 0.044189
#
#
# Mechanical properties :
#
#
# Convention : Reuss Voigt Hill
#
# Bulk Modulus (GPa) = 12.19287 21.04036 16.61661
# Shear Modulus (GPa) = 17.29981 21.71233 19.50607
#
# Velocity S-wave (km/s) = 3.07442 3.44426 3.26459
# Velocity P-wave (km/s) = 4.38915 5.22619 4.82585
#
# Compressibility (1/GPa) = 0.08201517
#
# Stress axis : x y z
#
# Youngs Moduli (GPa) = 19.76203 79.62146 62.14851
#
# Poissons Ratio (x) = 0.21307 -0.39242
# Poissons Ratio (y) = 0.05288 0.14025
# Poissons Ratio (z) = -0.12478 0.17968
#
# Static dielectric constant tensor:
#      x y z
#    x 1.629520 0.000000 -0.014670 
#    y 0.000000 1.613970 0.000000 
#    z -0.014670 0.000000 1.623080 
# 
# From -- ./inp_files/361051.got.cif
#   From: 2010.05.17/outbox.cif.g08.bks.cpg/sg12_181_cif.got.tgz:361051.got - 2010.06.03 13:09:07.
