data_PCOD9184133
_publ_section_title
;
Structure prediction by ZEFSAII (Michael W. Deem and Ramdas Pophale) SiO2 
 PCOD9184133
Probable space group: C 2/M
;
_chemical_formula_sum "Si O2"
_cell_formula_units_Z 56
_cell_length_a 13.484814
_cell_length_b 22.674854
_cell_length_c 14.547844
_cell_angle_alpha 90.000000
_cell_angle_beta 144.231554
_cell_angle_gamma 90.000000
_cell_volume 2600.044144
_symmetry_space_group_name_H-M "C 2/M"
_symmetry_group_IT_number 12
_symmetry_cell_setting 'monoclinic'
loop_
_space_group_symop_operation_xyz
x,y,z
-x,y,-z
-x,-y,-z
x,-y,z
1/2+x,1/2+y,z
1/2-x,1/2+y,-z
1/2-x,1/2-y,-z
1/2+x,1/2-y,z
loop_
_atom_site_type_symbol
_atom_site_label
_atom_site_fract_x
_atom_site_fract_y
_atom_site_fract_z
Si Si1 0.306761 0.066146 0.107423
Si Si2 0.676648 0.873709 0.129684
Si Si3 0.476237 0.567314 0.594101
Si Si4 0.356438 0.131370 0.683517
Si Si5 0.425973 0.774391 0.096637
Si Si6 0.505952 0.645417 0.114040
Si Si7 0.184722 0.567653 0.664158
O O1 0.494178 0.082687 0.212520
O O2 0.310300 0.066164 0.221194
O O3 0.258597 0.000000 0.041533
O O4 0.166244 0.115361 0.977817
O O5 0.699765 0.855708 0.253394
O O6 0.847164 0.907963 0.233728
O O7 0.500000 0.910568 0.000000
O O8 0.629567 0.819350 0.027256
O O9 0.500000 0.565992 0.500000
O O10 0.445134 0.500000 0.599639
O O11 0.313187 0.608295 0.491995
O O12 0.463661 0.190485 0.744270
O O13 0.523196 0.714890 0.142675
O O14 0.250000 0.750000 0.000000
O O15 0.667187 0.607439 0.265058
O O16 0.500000 0.637718 0.000000
O O17 0.201199 0.500000 0.644016
O O18 0.000000 0.590721 0.500000
#
# Coordination Sequence:
#
# PCOD9184133 Si02
#       7
#     8   8   8   8   8   8   8
#     4  10  19  33  57  86 113 150 196 238 294 355
#     4   9  20  37  59  83 117 152 198 242 290 344
#     4   9  18  35  59  84 116 157 193 233 292 355
#     4  10  19  36  57  87 119 151 189 243 296 351
#     4  11  21  39  59  83 116 157 201 250 287 346
#     4  10  19  35  59  82 109 152 196 238 295 353
#     4   9  19  37  58  84 117 148 189 247 299 348
#
# _framework density 21.538097
#
# number of rings (size 3 to 8) (size 9 to 14) (size 15 to 20)
#    0.000    2.286    1.429    2.143    0.000    2.571 
#    2.571   11.429    0.000    0.000    0.000    0.000 
#    0.000    0.000    0.000    0.000    0.000    0.000 
#
# Total GULP energy -156052.056263 kJ/mol
# GULP energy per Si atom -5573.287724 kJ/mol
# Density = 2.148907 g / cm^3
# Si number density = 21.538097 Si / 1000 Ang^3
#
#
#
# Elastic Constant Matrix: (Units=GPa)
#
#
# Indices 1 2 3 4 5 6 
#
# 1 56.6123 20.3092 20.6946 0.0000 10.3910 0.0000
# 2 20.3092 121.2640 79.7899 0.0000 22.2292 0.0000
# 3 20.6946 79.7899 145.5835 0.0000 46.9038 0.0000
# 4 0.0000 0.0000 0.0000 24.6140 0.0000 17.7516
# 5 10.3910 22.2292 46.9038 0.0000 36.7587 0.0000
# 6 0.0000 0.0000 0.0000 17.7516 0.0000 25.3684
#
#
#
# Elastic Compliance Matrix: (Units=1/GPa)
#
#
# Indices 1 2 3 4 5 6 
#
# 1 0.019290 -0.002397 -0.000235 0.000000 -0.003703 0.000000
# 2 -0.002397 0.013289 -0.007763 0.000000 0.002547 0.000000
# 3 -0.000235 -0.007763 0.016341 0.000000 -0.016090 0.000000
# 4 0.000000 0.000000 0.000000 0.082019 0.000000 -0.057393
# 5 -0.003703 0.002547 -0.016090 0.000000 0.047241 0.000000
# 6 0.000000 0.000000 0.000000 -0.057393 0.000000 0.079580
#
#
# Mechanical properties :
#
#
# Convention : Reuss Voigt Hill
#
# Bulk Modulus (GPa) = 35.55086 62.78302 49.16694
# Shear Modulus (GPa) = 17.36550 30.85930 24.11240
#
# Velocity S-wave (km/s) = 2.84257 3.78931 3.34956
# Velocity P-wave (km/s) = 5.22642 6.95401 6.15117
#
# Compressibility (1/GPa) = 0.02812872
#
# Stress axis : x y z
#
# Youngs Moduli (GPa) = 51.84140 75.24973 61.19638
#
# Poissons Ratio (x) = 0.18037 0.01439
# Poissons Ratio (y) = 0.12426 0.47508
# Poissons Ratio (z) = 0.01219 0.58418
#
# Static dielectric constant tensor:
#      x y z
#    x 1.871730 0.000000 -0.001430 
#    y 0.000000 1.815910 0.000000 
#    z -0.001430 0.000000 1.808270 
# 
# From -- ./inp_files/272395.got.cif
#   From: 2010.05.17/outbox.cif.g08.bks.cpg/sg12_137_cif.got.tgz:272395.got - 2010.06.03 13:09:07.
