data_PCOD9184025
_publ_section_title
;
Structure prediction by ZEFSAII (Michael W. Deem and Ramdas Pophale) SiO2 
 PCOD9184025
Probable space group: C 2/M
;
_chemical_formula_sum "Si O2"
_cell_formula_units_Z 56
_cell_length_a 29.736388
_cell_length_b 13.584157
_cell_length_c 9.020415
_cell_angle_alpha 90.000000
_cell_angle_beta 121.464548
_cell_angle_gamma 90.000000
_cell_volume 3107.976817
_symmetry_space_group_name_H-M "C 2/M"
_symmetry_group_IT_number 12
_symmetry_cell_setting 'monoclinic'
loop_
_space_group_symop_operation_xyz
x,y,z
-x,y,-z
-x,-y,-z
x,-y,z
1/2+x,1/2+y,z
1/2-x,1/2+y,-z
1/2-x,1/2-y,-z
1/2+x,1/2-y,z
loop_
_atom_site_type_symbol
_atom_site_label
_atom_site_fract_x
_atom_site_fract_y
_atom_site_fract_z
Si Si1 0.098972 0.611926 0.863086
Si Si2 0.304956 0.607545 0.901436
Si Si3 0.882095 0.283611 0.410716
Si Si4 0.188981 0.689814 0.201132
Si Si5 0.484013 0.112276 0.647028
Si Si6 0.801913 0.391185 0.470931
Si Si7 0.702007 0.384120 0.758338
O O1 0.097511 0.500000 0.800228
O O2 0.112240 0.685472 0.751265
O O3 0.040042 0.632408 0.821380
O O4 0.144463 0.617640 0.062554
O O5 0.330740 0.500000 0.929507
O O6 0.332573 0.704286 0.888589
O O7 0.252535 0.608189 0.711488
O O8 0.291732 0.620238 0.052241
O O9 0.939164 0.304704 0.582325
O O10 0.845075 0.362974 0.425811
O O11 0.849984 0.180986 0.368763
O O12 0.195953 0.682575 0.388307
O O13 0.245556 0.663056 0.224513
O O14 0.500000 0.111315 0.500000
O O15 0.466290 0.000000 0.653835
O O16 0.810101 0.500000 0.547644
O O17 0.697779 0.500000 0.709486
#
# Coordination Sequence:
#
# PCOD9184025 Si02
#       7
#     8   8   8   8   8   8   8
#     4  10  19  33  57  80 103 137 178 218 264 317
#     4  10  21  36  52  73 104 140 179 216 256 312
#     4  11  19  34  54  75 107 140 176 214 265 307
#     4  12  21  37  50  79 111 144 172 215 265 310
#     4   8  16  31  53  80 102 131 175 219 262 315
#     4  11  22  33  51  78 110 144 176 210 258 319
#     4  11  22  35  53  78 107 139 180 221 260 310
#
# _framework density 18.018153000000002
#
# number of rings (size 3 to 8) (size 9 to 14) (size 15 to 20)
#    0.000    1.571    2.857    5.143    0.000    1.143 
#    0.000    0.714    0.000    7.286    0.000    0.000 
#    0.000    2.286    0.000    0.000    0.000    0.000 
#
# Total GULP energy -156002.532640 kJ/mol
# GULP energy per Si atom -5571.519023 kJ/mol
# Density = 1.797714 g / cm^3
# Si number density = 18.018153 Si / 1000 Ang^3
#
#
#
# Elastic Constant Matrix: (Units=GPa)
#
#
# Indices 1 2 3 4 5 6 
#
# 1 0.9670 12.1358 44.7569 0.0000 22.4021 0.0000
# 2 12.1358 81.4246 29.2939 0.0000 18.7941 0.0000
# 3 44.7569 29.2939 55.7435 0.0000 11.3766 0.0000
# 4 0.0000 0.0000 0.0000 26.2156 0.0000 3.6661
# 5 22.4021 18.7941 11.3766 0.0000 21.7666 0.0000
# 6 0.0000 0.0000 0.0000 3.6661 0.0000 18.7517
#
#
#
# Elastic Compliance Matrix: (Units=1/GPa)
#
#
# Indices 1 2 3 4 5 6 
#
# 1 -0.019586 -0.006846 0.015675 0.000000 0.017876 0.000000
# 2 -0.006846 0.014973 -0.001311 0.000000 -0.005197 0.000000
# 3 0.015675 -0.001311 0.010191 0.000000 -0.020327 0.000000
# 4 0.000000 0.000000 0.000000 0.039217 0.000000 -0.007667
# 5 0.017876 -0.005197 -0.020327 0.000000 0.042655 0.000000
# 6 0.000000 0.000000 0.000000 -0.007667 0.000000 0.054827
#
#
# Mechanical properties :
#
#
# Convention : Reuss Voigt Hill
#
# Bulk Modulus (GPa) = 48.51063 34.50093 41.50578
# Shear Modulus (GPa) = 37.28167 16.81003 27.04585
#
# Velocity S-wave (km/s) = 4.55369 3.05774 3.87852
# Velocity P-wave (km/s) = 7.39120 5.62635 6.56832
#
# Compressibility (1/GPa) = 0.02061404
#
# Stress axis : x y z
#
# Youngs Moduli (GPa) = -51.05775 66.78794 98.12427
#
# Poissons Ratio (x) = 0.45725 -1.53810
# Poissons Ratio (y) = -0.34956 0.12862
# Poissons Ratio (z) = 0.80033 0.08755
#
# Static dielectric constant tensor:
#      x y z
#    x 1.613640 0.000000 0.033120 
#    y 0.000000 1.699080 0.000000 
#    z 0.033120 0.000000 1.635050 
# 
# From -- ./inp_files/104724.got.cif
#   From: 2010.05.17/outbox.cif.g08.bks.cpg/sg12_53_cif.got.tgz:104724.got - 2010.06.03 13:09:07.
