data_PCOD9184477
_publ_section_title
;
Structure prediction by ZEFSAII (Michael W. Deem and Ramdas Pophale) SiO2 
 PCOD9184477
Probable space group: C 2/M
;
_chemical_formula_sum "Si O2"
_cell_formula_units_Z 48
_cell_length_a 12.717831
_cell_length_b 17.606058
_cell_length_c 16.201739
_cell_angle_alpha 90.000000
_cell_angle_beta 141.608426
_cell_angle_gamma 90.000000
_cell_volume 2252.947925
_symmetry_space_group_name_H-M "C 2/M"
_symmetry_group_IT_number 12
_symmetry_cell_setting 'monoclinic'
loop_
_space_group_symop_operation_xyz
x,y,z
-x,y,-z
-x,-y,-z
x,-y,z
1/2+x,1/2+y,z
1/2-x,1/2+y,-z
1/2-x,1/2-y,-z
1/2+x,1/2-y,z
loop_
_atom_site_type_symbol
_atom_site_label
_atom_site_fract_x
_atom_site_fract_y
_atom_site_fract_z
Si Si1 0.952233 0.154410 0.713566
Si Si2 0.000000 0.232449 0.500000
Si Si3 0.381583 0.500000 0.757421
Si Si4 0.616721 0.841423 0.425275
Si Si5 0.367958 0.797263 0.749739
Si Si6 0.266650 0.500000 0.965045
Si Si7 0.443706 0.000000 0.333815
Si Si8 0.296523 0.166828 0.985255
O O1 0.819371 0.168753 0.559240
O O2 0.890073 0.206817 0.752236
O O3 0.916354 0.071083 0.721766
O O4 0.152684 0.165649 0.825748
O O5 0.964211 0.287746 0.555479
O O6 0.830880 0.186188 0.371835
O O7 0.197376 0.500000 0.682516
O O8 0.529778 0.500000 0.917453
O O9 0.565981 0.824000 0.300163
O O10 0.558076 0.925833 0.408277
O O11 0.500394 0.826912 0.898259
O O12 0.159541 0.500000 0.815788
O O13 0.228992 0.582993 0.986374
O O14 0.250000 0.250000 0.000000
#
# Coordination Sequence:
#
# PCOD9184477 Si02
#       8
#     8   4   4   8   8   4   4   8
#     4   9  18  32  51  73 106 145 180 215 272 333
#     4  10  20  33  54  79 108 144 186 236 282 320
#     4  10  20  32  49  79 113 147 172 221 281 350
#     4  11  21  33  54  80 111 146 180 228 278 338
#     4  10  19  35  54  77 107 145 186 233 274 331
#     4  10  19  34  50  80 113 148 182 229 285 330
#     4  12  20  30  51  81 116 143 176 223 285 342
#     4   9  18  34  56  74 107 150 187 223 273 334
#
# _framework density 21.305420000000002
#
# number of rings (size 3 to 8) (size 9 to 14) (size 15 to 20)
#    0.000    2.000    1.667    4.750    0.000    1.000 
#    0.000    0.000    0.000    7.000    0.000    2.333 
#    0.000   24.000    0.000    0.000    0.000    0.000 
#
# Total GULP energy -133621.540524 kJ/mol
# GULP energy per Si atom -5567.564188 kJ/mol
# Density = 2.125693 g / cm^3
# Si number density = 21.305420 Si / 1000 Ang^3
#
#
#
# Elastic Constant Matrix: (Units=GPa)
#
#
# Indices 1 2 3 4 5 6 
#
# 1 51.9122 30.5020 39.9788 0.0000 12.6756 0.0000
# 2 30.5020 126.1806 13.3190 0.0000 5.8280 0.0000
# 3 39.9788 13.3190 158.5992 -0.0002 27.2761 -0.0001
# 4 0.0000 0.0000 -0.0002 36.6178 0.0000 9.3153
# 5 12.6756 5.8280 27.2761 0.0000 39.0097 0.0000
# 6 0.0000 0.0000 -0.0001 9.3153 0.0000 0.8255
#
#
#
# Elastic Compliance Matrix: (Units=1/GPa)
#
#
# Indices 1 2 3 4 5 6 
#
# 1 0.028407 -0.006048 -0.005934 0.000000 -0.004178 0.000001
# 2 -0.006048 0.009307 0.000732 0.000000 0.000063 0.000000
# 3 -0.005934 0.000732 0.008442 0.000000 -0.004084 0.000000
# 4 0.000000 0.000000 0.000000 -0.014599 0.000000 0.164739
# 5 -0.004178 0.000063 -0.004084 0.000000 0.029838 0.000001
# 6 0.000001 0.000000 0.000000 0.164739 0.000001 -0.647578
#
#
# Mechanical properties :
#
#
# Convention : Reuss Voigt Hill
#
# Bulk Modulus (GPa) = 42.27241 56.03240 49.15240
# Shear Modulus (GPa) = -8.99606 32.15008 11.57701
#
# Velocity S-wave (km/s) = -2.05708 3.88881 2.33359
# Velocity P-wave (km/s) = 3.77387 6.82059 5.51192
#
# Compressibility (1/GPa) = 0.02365609
#
# Stress axis : x y z
#
# Youngs Moduli (GPa) = 35.20284 107.44764 118.45590
#
# Poissons Ratio (x) = 0.64979 0.70295
# Poissons Ratio (y) = 0.21289 -0.08672
# Poissons Ratio (z) = 0.20890 -0.07866
#
# Static dielectric constant tensor:
#      x y z
#    x 1.766240 0.000000 0.028850 
#    y 0.000000 1.851090 0.000000 
#    z 0.028850 0.000000 1.844300 
# 
# From -- ./inp_files/271839.got.cif
#   From: 2010.05.17/outbox.cif.g08.bks.cpg/sg12_136_cif.got.tgz:271839.got - 2010.06.03 13:09:07.
