data_PCOD9184230
_publ_section_title
;
Structure prediction by ZEFSAII (Michael W. Deem and Ramdas Pophale) SiO2 
 PCOD9184230
Probable space group: C 2/M
;
_chemical_formula_sum "Si O2"
_cell_formula_units_Z 50
_cell_length_a 9.304171
_cell_length_b 31.344329
_cell_length_c 9.524927
_cell_angle_alpha 90.000000
_cell_angle_beta 133.174141
_cell_angle_gamma 90.000000
_cell_volume 2025.774663
_symmetry_space_group_name_H-M "C 2/M"
_symmetry_group_IT_number 12
_symmetry_cell_setting 'monoclinic'
loop_
_space_group_symop_operation_xyz
x,y,z
-x,y,-z
-x,-y,-z
x,-y,z
1/2+x,1/2+y,z
1/2-x,1/2+y,-z
1/2-x,1/2-y,-z
1/2+x,1/2-y,z
loop_
_atom_site_type_symbol
_atom_site_label
_atom_site_fract_x
_atom_site_fract_y
_atom_site_fract_z
Si Si1 0.500000 0.000000 0.500000
Si Si2 0.501449 0.952141 0.834230
Si Si3 0.365986 0.605025 0.050711
Si Si4 0.762655 0.075422 0.554466
Si Si5 0.794647 0.718828 0.197243
Si Si6 0.381051 0.691069 0.201310
Si Si7 0.689310 0.825634 0.492111
O O1 0.337710 0.961577 0.423037
O O2 0.288907 0.938082 0.637841
O O3 0.540229 0.000000 0.802659
O O4 0.500000 0.952334 0.000000
O O5 0.671767 0.921699 0.888859
O O6 0.515124 0.578895 0.247247
O O7 0.300225 0.644651 0.105395
O O8 0.500000 0.615948 0.000000
O O9 0.670844 0.123493 0.499750
O O10 0.789789 0.769198 0.221724
O O11 0.783419 0.693508 0.333897
O O12 0.012787 0.699869 0.298139
O O13 0.637055 0.710254 0.970391
O O14 0.590613 0.682519 0.413902
#
# Coordination Sequence:
#
# PCOD9184230 Si02
#       7
#     2   8   8   8   8   8   8
#     4  12  20  36  64 106 134 164 226 278 336 404
#     4  11  26  48  69  95 136 182 230 281 345 420
#     4  11  24  42  70 103 138 180 224 289 352 402
#     4  11  23  39  67  99 139 175 226 288 339 411
#     4  10  19  33  58  83 121 170 213 256 321 399
#     4  10  20  36  57  89 126 166 219 267 325 400
#     4  10  20  37  57  87 126 170 210 272 338 379
#
# _framework density 24.681916999999999
#
# number of rings (size 3 to 8) (size 9 to 14) (size 15 to 20)
#    0.000    1.440    0.800    5.760    1.120    2.240 
#    0.000   12.800    0.000    0.960    0.000    0.000 
#    0.000    0.000    0.000    0.000    0.000    0.000 
#
# Total GULP energy -139219.960107 kJ/mol
# GULP energy per Si atom -5568.798404 kJ/mol
# Density = 2.462574 g / cm^3
# Si number density = 24.681917 Si / 1000 Ang^3
#
#
#
# Elastic Constant Matrix: (Units=GPa)
#
#
# Indices 1 2 3 4 5 6 
#
# 1 38.6468 31.1671 13.8288 0.0000 -1.6390 0.0000
# 2 31.1671 180.3948 31.2902 0.0000 0.9952 0.0000
# 3 13.8288 31.2902 136.8204 0.0000 9.5376 0.0000
# 4 0.0000 0.0000 0.0000 36.6846 0.0000 -11.5368
# 5 -1.6390 0.9952 9.5376 0.0000 22.7090 0.0000
# 6 0.0000 0.0000 0.0000 -11.5368 0.0000 8.9932
#
#
#
# Elastic Compliance Matrix: (Units=1/GPa)
#
#
# Indices 1 2 3 4 5 6 
#
# 1 0.030809 -0.004957 -0.002215 0.000000 0.003371 0.000000
# 2 -0.004957 0.006572 -0.000986 0.000000 -0.000232 0.000000
# 3 -0.002215 -0.000986 0.008001 0.000000 -0.003477 0.000000
# 4 0.000000 0.000000 0.000000 0.045694 0.000000 0.058617
# 5 0.003371 -0.000232 -0.003477 0.000000 0.045749 0.000000
# 6 0.000000 0.000000 0.000000 0.058617 0.000000 0.186390
#
#
# Mechanical properties :
#
#
# Convention : Reuss Voigt Hill
#
# Bulk Modulus (GPa) = 34.40571 56.49271 45.44921
# Shear Modulus (GPa) = 14.31766 32.31577 23.31671
#
# Velocity S-wave (km/s) = 2.41111 3.62234 3.07691
# Velocity P-wave (km/s) = 4.66060 6.35870 5.57469
#
# Compressibility (1/GPa) = 0.02906494
#
# Stress axis : x y z
#
# Youngs Moduli (GPa) = 32.45820 152.15743 124.99106
#
# Poissons Ratio (x) = 0.75428 0.27689
# Poissons Ratio (y) = 0.16090 0.12322
# Poissons Ratio (z) = 0.07190 0.15000
#
# Static dielectric constant tensor:
#      x y z
#    x 2.308400 0.000000 -0.170430 
#    y 0.000000 1.972230 0.000000 
#    z -0.170430 0.000000 2.030500 
# 
# From -- ./inp_files/137631.got.cif
#   From: 2010.05.17/outbox.cif.g08.bks.cpg/sg12_69_cif.got.tgz:137631.got - 2010.06.03 13:09:07.
