data_PCOD9184870
_publ_section_title
;
Structure prediction by ZEFSAII (Michael W. Deem and Ramdas Pophale) SiO2 
 PCOD9184870
Probable space group: C 2/M
;
_chemical_formula_sum "Si O2"
_cell_formula_units_Z 64
_cell_length_a 12.112462
_cell_length_b 13.703705
_cell_length_c 25.596710
_cell_angle_alpha 90.000000
_cell_angle_beta 46.733674
_cell_angle_gamma 90.000000
_cell_volume 3093.789493
_symmetry_space_group_name_H-M "C 2/M"
_symmetry_group_IT_number 12
_symmetry_cell_setting 'monoclinic'
loop_
_space_group_symop_operation_xyz
x,y,z
-x,y,-z
-x,-y,-z
x,-y,z
1/2+x,1/2+y,z
1/2-x,1/2+y,-z
1/2-x,1/2-y,-z
1/2+x,1/2-y,z
loop_
_atom_site_type_symbol
_atom_site_label
_atom_site_fract_x
_atom_site_fract_y
_atom_site_fract_z
Si Si1 0.271266 0.889254 0.002752
Si Si2 0.370873 0.614082 0.653001
Si Si3 0.822226 0.676691 0.549658
Si Si4 0.061432 0.288855 0.771548
Si Si5 0.325188 0.388304 0.509134
Si Si6 0.010943 0.241648 0.903417
Si Si7 0.951544 0.113000 0.297456
Si Si8 0.249227 0.609484 0.116840
O O1 0.424955 0.828846 0.961094
O O2 0.250522 0.889224 0.946228
O O3 0.277628 0.000000 0.019076
O O4 0.126264 0.830137 0.069747
O O5 0.332234 0.500000 0.667344
O O6 0.217476 0.673266 0.696586
O O7 0.500857 0.625489 0.567002
O O8 0.450020 0.638587 0.682864
O O9 0.772663 0.624149 0.511970
O O10 0.784998 0.792494 0.555424
O O11 0.721299 0.629320 0.627542
O O12 0.000000 0.665421 0.500000
O O13 0.085269 0.279056 0.825973
O O14 0.018110 0.186649 0.759176
O O15 0.919301 0.361048 0.810707
O O16 0.308493 0.500000 0.534772
O O17 0.129426 0.184378 0.900062
O O18 0.977753 0.000000 0.276072
O O19 0.288521 0.500000 0.121254
#
# Coordination Sequence:
#
# PCOD9184870 Si02
#       8
#     8   8   8   8   8   8   8   8
#     4   9  19  36  57  79 105 141 178 212 260 317
#     4   9  18  36  57  74 101 139 175 213 259 315
#     4  10  19  34  55  77 105 137 173 217 265 319
#     4  11  21  35  54  78 106 138 179 217 254 306
#     4   9  19  34  54  80 104 132 174 221 268 313
#     4  10  20  33  55  82 109 136 174 222 262 303
#     4  10  22  37  52  74 106 144 178 210 260 319
#     4  10  20  35  57  82 106 135 173 217 265 313
#
# _framework density 20.686605
#
# number of rings (size 3 to 8) (size 9 to 14) (size 15 to 20)
#    0.000    2.250    0.000    3.750    0.000    3.750 
#    0.000    1.875    0.000   10.500    0.000    0.000 
#    0.000    0.000    0.000    0.000    0.000    0.000 
#
# Total GULP energy -178802.200547 kJ/mol
# GULP energy per Si atom -5587.568767 kJ/mol
# Density = 2.063952 g / cm^3
# Si number density = 20.686605 Si / 1000 Ang^3
#
#
#
# Elastic Constant Matrix: (Units=GPa)
#
#
# Indices 1 2 3 4 5 6 
#
# 1 47.0902 9.3257 6.7716 0.0000 -11.7268 0.0000
# 2 9.3257 86.8702 9.4303 0.0000 -13.4464 0.0000
# 3 6.7716 9.4303 50.5030 0.0000 -8.9883 0.0000
# 4 0.0000 0.0000 0.0000 21.4503 0.0000 -0.9644
# 5 -11.7268 -13.4464 -8.9883 0.0000 19.0242 0.0000
# 6 0.0000 0.0000 0.0000 -0.9644 0.0000 28.3477
#
#
#
# Elastic Compliance Matrix: (Units=1/GPa)
#
#
# Indices 1 2 3 4 5 6 
#
# 1 0.025115 -0.000311 -0.000648 0.000000 0.014955 0.000000
# 2 -0.000311 0.012964 -0.000854 0.000000 0.008567 0.000000
# 3 -0.000648 -0.000854 0.021693 0.000000 0.009246 0.000000
# 4 0.000000 0.000000 0.000000 0.046691 0.000000 0.001588
# 5 0.014955 0.008567 0.009246 0.000000 0.072207 0.000000
# 6 0.000000 0.000000 0.000000 0.001588 0.000000 0.035330
#
#
# Mechanical properties :
#
#
# Convention : Reuss Voigt Hill
#
# Bulk Modulus (GPa) = 17.81087 26.16875 21.98981
# Shear Modulus (GPa) = 21.15594 24.36017 22.75806
#
# Velocity S-wave (km/s) = 3.20142 3.43531 3.32043
# Velocity P-wave (km/s) = 4.72165 5.33036 5.03521
#
# Compressibility (1/GPa) = 0.05614550
#
# Stress axis : x y z
#
# Youngs Moduli (GPa) = 39.81715 77.13866 46.09839
#
# Poissons Ratio (x) = 0.02399 0.02986
# Poissons Ratio (y) = 0.01238 0.03938
# Poissons Ratio (z) = 0.02579 0.06589
#
# Static dielectric constant tensor:
#      x y z
#    x 1.748990 0.000000 0.014240 
#    y 0.000000 1.743190 0.000000 
#    z 0.014240 0.000000 1.722040 
# 
# From -- ./inp_files/374083.got.cif
#   From: 2010.05.17/outbox.cif.g08.bks.cpg/sg12_188_cif.got.tgz:374083.got - 2010.06.03 13:09:07.
