data_PCOD9184531
_publ_section_title
;
Structure prediction by ZEFSAII (Michael W. Deem and Ramdas Pophale) SiO2 
 PCOD9184531
Probable space group: C 2/M
;
_chemical_formula_sum "Si O2"
_cell_formula_units_Z 48
_cell_length_a 24.601041
_cell_length_b 8.889380
_cell_length_c 24.355604
_cell_angle_alpha 90.000000
_cell_angle_beta 32.505574
_cell_angle_gamma 90.000000
_cell_volume 2862.244286
_symmetry_space_group_name_H-M "C 2/M"
_symmetry_group_IT_number 12
_symmetry_cell_setting 'monoclinic'
loop_
_space_group_symop_operation_xyz
x,y,z
-x,y,-z
-x,-y,-z
x,-y,z
1/2+x,1/2+y,z
1/2-x,1/2+y,-z
1/2-x,1/2-y,-z
1/2+x,1/2-y,z
loop_
_atom_site_type_symbol
_atom_site_label
_atom_site_fract_x
_atom_site_fract_y
_atom_site_fract_z
Si Si1 0.252965 0.321712 0.358620
Si Si2 0.654339 0.821036 0.111882
Si Si3 0.112547 0.825526 0.262424
Si Si4 0.942154 0.181543 0.261831
Si Si5 0.125060 0.826770 0.560554
Si Si6 0.886446 0.181809 0.614689
O O1 0.250385 0.500000 0.352232
O O2 0.368577 0.277759 0.274346
O O3 0.189586 0.279144 0.466916
O O4 0.196899 0.240589 0.356524
O O5 0.652525 0.768487 0.177043
O O6 0.550585 0.759264 0.173189
O O7 0.657039 0.000000 0.106311
O O8 0.750000 0.750000 0.000000
O O9 0.137111 0.771239 0.302748
O O10 0.990508 0.825333 0.362256
O O11 0.144844 0.000000 0.228541
O O12 0.883685 0.218986 0.368517
O O13 0.956310 0.000000 0.250607
O O14 0.161716 0.000000 0.525598
O O15 0.000000 0.231033 0.500000
O O16 0.887399 0.000000 0.612917
#
# Coordination Sequence:
#
# PCOD9184531 Si02
#       6
#     8   8   8   8   8   8
#     4  11  21  30  46  74 108 142 177 219 258 298
#     4  11  22  37  60  84 104 129 167 217 271 319
#     4   9  18  34  54  76 105 140 179 218 257 305
#     4   9  20  36  50  71 105 140 173 214 265 313
#     4   9  16  30  49  68 100 143 180 211 253 311
#     4  10  19  34  52  71 104 151 187 211 251 306
#
# _framework density 16.770057000000001
#
# number of rings (size 3 to 8) (size 9 to 14) (size 15 to 20)
#    0.000    2.167    1.667    3.500    0.000    5.000 
#    0.000    0.000    0.000    1.000    0.000    7.000 
#    0.000    0.000    0.000    0.000    0.000    0.000 
#
# Total GULP energy -133876.849702 kJ/mol
# GULP energy per Si atom -5578.202071 kJ/mol
# Density = 1.673189 g / cm^3
# Si number density = 16.770057 Si / 1000 Ang^3
#
#
#
# Elastic Constant Matrix: (Units=GPa)
#
#
# Indices 1 2 3 4 5 6 
#
# 1 152.6820 43.5182 62.9567 0.0001 -8.6042 0.0000
# 2 43.5182 46.0532 41.8226 0.0001 2.5609 0.0000
# 3 62.9567 41.8226 91.1186 0.0001 2.9339 -0.0001
# 4 0.0001 0.0001 0.0001 24.8823 -0.0001 0.3007
# 5 -8.6042 2.5609 2.9339 -0.0001 6.6250 0.0001
# 6 0.0000 0.0000 -0.0001 0.3007 0.0001 22.5869
#
#
#
# Elastic Compliance Matrix: (Units=1/GPa)
#
#
# Indices 1 2 3 4 5 6 
#
# 1 0.012265 -0.007645 -0.005654 0.000000 0.021389 0.000000
# 2 -0.007645 0.042314 -0.013486 0.000000 -0.020313 0.000000
# 3 -0.005654 -0.013486 0.021446 0.000000 -0.011628 0.000000
# 4 0.000000 0.000000 0.000000 0.040196 0.000001 -0.000535
# 5 0.021389 -0.020313 -0.011628 0.000001 0.191724 -0.000001
# 6 0.000000 0.000000 0.000000 -0.000535 -0.000001 0.044280
#
#
# Mechanical properties :
#
#
# Convention : Reuss Voigt Hill
#
# Bulk Modulus (GPa) = 44.53223 65.16096 54.84660
# Shear Modulus (GPa) = 12.09833 20.25595 16.17714
#
# Velocity S-wave (km/s) = 2.68885 3.47920 3.10924
# Velocity P-wave (km/s) = 6.02097 7.42157 6.75766
#
# Compressibility (1/GPa) = 0.02245565
#
# Stress axis : x y z
#
# Youngs Moduli (GPa) = 81.53095 23.63262 46.62903
#
# Poissons Ratio (x) = 0.18066 0.26366
# Poissons Ratio (y) = 0.62327 0.62884
# Poissons Ratio (z) = 0.46101 0.31871
#
# Static dielectric constant tensor:
#      x y z
#    x 1.595470 0.000000 -0.004710 
#    y 0.000000 1.562480 0.000000 
#    z -0.004710 0.000000 1.540840 
# 
# From -- ./inp_files/172034.got.cif
#   From: 2010.05.17/outbox.cif.g08.bks.cpg/sg12_87_cif.got.tgz:172034.got - 2010.06.03 13:09:07.
