data_PCOD9184716
_publ_section_title
;
Structure prediction by ZEFSAII (Michael W. Deem and Ramdas Pophale) SiO2 
 PCOD9184716
Probable space group: C 2/M
;
_chemical_formula_sum "Si O2"
_cell_formula_units_Z 56
_cell_length_a 19.769794
_cell_length_b 8.342938
_cell_length_c 21.495305
_cell_angle_alpha 90.000000
_cell_angle_beta 57.688291
_cell_angle_gamma 90.000000
_cell_volume 2996.400849
_symmetry_space_group_name_H-M "C 2/M"
_symmetry_group_IT_number 12
_symmetry_cell_setting 'monoclinic'
loop_
_space_group_symop_operation_xyz
x,y,z
-x,y,-z
-x,-y,-z
x,-y,z
1/2+x,1/2+y,z
1/2-x,1/2+y,-z
1/2-x,1/2-y,-z
1/2+x,1/2-y,z
loop_
_atom_site_type_symbol
_atom_site_label
_atom_site_fract_x
_atom_site_fract_y
_atom_site_fract_z
Si Si1 0.962843 0.684829 0.324156
Si Si2 0.119952 0.692225 0.760625
Si Si3 0.336903 0.681049 0.948703
Si Si4 0.501154 0.305268 0.072280
Si Si5 0.128857 0.818280 0.213190
Si Si6 0.792450 0.692178 0.712787
Si Si7 0.028767 0.304096 0.418096
O O1 0.937100 0.500000 0.342471
O O2 0.055810 0.697776 0.259380
O O3 0.969886 0.752572 0.391086
O O4 0.915513 0.755410 0.288233
O O5 0.113799 0.500000 0.762736
O O6 0.068431 0.750382 0.845754
O O7 0.212208 0.743110 0.721198
O O8 0.334365 0.500000 0.974344
O O9 0.414245 0.757893 0.942533
O O10 0.351986 0.679899 0.868083
O O11 0.250000 0.750000 0.000000
O O12 0.499154 0.500000 0.075872
O O13 0.500000 0.259360 0.000000
O O14 0.201299 0.761719 0.220584
O O15 0.104805 0.000000 0.243059
O O16 0.789463 0.500000 0.715402
O O17 0.878373 0.740791 0.640432
O O18 0.026915 0.500000 0.417230
O O19 0.000000 0.252043 0.500000
#
# Coordination Sequence:
#
# PCOD9184716 Si02
#       7
#     8   8   8   8   8   8   8
#     4   9  18  33  55  81 106 141 179 215 264 318
#     4  11  22  36  55  80 112 146 183 227 271 322
#     4  10  22  36  52  76 105 137 176 223 273 321
#     4  10  22  40  57  77 106 144 186 228 276 324
#     4  10  19  34  54  77 104 136 178 225 268 317
#     4  10  21  35  55  81 109 143 182 221 269 322
#     4   8  15  32  58  84 108 138 180 222 262 317
#
# _framework density 18.689088000000002
#
# number of rings (size 3 to 8) (size 9 to 14) (size 15 to 20)
#    0.000    2.286    1.429    2.143    2.000    2.571 
#    0.000    0.714    0.000   10.714    0.000    0.000 
#    0.000    0.000    0.000    0.000    0.000    0.000 
#
# Total GULP energy -155913.056449 kJ/mol
# GULP energy per Si atom -5568.323445 kJ/mol
# Density = 1.864655 g / cm^3
# Si number density = 18.689088 Si / 1000 Ang^3
#
#
#
# Elastic Constant Matrix: (Units=GPa)
#
#
# Indices 1 2 3 4 5 6 
#
# 1 165.1080 12.8078 72.8476 0.0000 21.6506 0.0003
# 2 12.8078 22.7821 21.6941 -0.0001 6.1087 0.0001
# 3 72.8476 21.6941 100.0164 0.0000 22.0742 0.0000
# 4 0.0000 -0.0001 0.0000 14.6786 0.0000 -4.6850
# 5 21.6506 6.1087 22.0742 0.0000 28.4194 0.0000
# 6 0.0003 0.0001 0.0000 -4.6850 0.0000 22.1901
#
#
#
# Elastic Compliance Matrix: (Units=1/GPa)
#
#
# Indices 1 2 3 4 5 6 
#
# 1 0.009081 0.001667 -0.006481 0.000000 -0.002243 0.000000
# 2 0.001667 0.055854 -0.012551 0.000000 -0.003527 0.000000
# 3 -0.006481 -0.012551 0.019016 0.000000 -0.007135 0.000000
# 4 0.000000 0.000000 0.000000 0.073049 0.000000 0.015423
# 5 -0.002243 -0.003527 -0.007135 0.000000 0.043196 0.000000
# 6 0.000000 0.000000 0.000000 0.015423 0.000000 0.048321
#
#
# Mechanical properties :
#
#
# Convention : Reuss Voigt Hill
#
# Bulk Modulus (GPa) = 20.31613 55.84508 38.08060
# Shear Modulus (GPa) = 16.68597 25.09476 20.89037
#
# Velocity S-wave (km/s) = 2.99125 3.66833 3.34696
# Velocity P-wave (km/s) = 4.77748 6.92013 5.94611
#
# Compressibility (1/GPa) = 0.04922198
#
# Stress axis : x y z
#
# Youngs Moduli (GPa) = 110.12308 17.90374 52.58771
#
# Poissons Ratio (x) = -0.02985 0.34081
# Poissons Ratio (y) = -0.18363 0.66004
# Poissons Ratio (z) = 0.71368 0.22471
#
# Static dielectric constant tensor:
#      x y z
#    x 1.661390 0.000000 0.036410 
#    y 0.000000 1.698240 0.000000 
#    z 0.036410 0.000000 1.643710 
# 
# From -- ./inp_files/313793.got.cif
#   From: 2010.05.17/outbox.cif.g08.bks.cpg/sg12_157_cif.got.tgz:313793.got - 2010.06.03 13:09:07.
