data_PCOD9184267
_publ_section_title
;
Structure prediction by ZEFSAII (Michael W. Deem and Ramdas Pophale) SiO2 
 PCOD9184267
Probable space group: C 2/M
;
_chemical_formula_sum "Si O2"
_cell_formula_units_Z 60
_cell_length_a 20.058268
_cell_length_b 24.851378
_cell_length_c 10.699296
_cell_angle_alpha 90.000000
_cell_angle_beta 146.791772
_cell_angle_gamma 90.000000
_cell_volume 2920.980590
_symmetry_space_group_name_H-M "C 2/M"
_symmetry_group_IT_number 12
_symmetry_cell_setting 'monoclinic'
loop_
_space_group_symop_operation_xyz
x,y,z
-x,y,-z
-x,-y,-z
x,-y,z
1/2+x,1/2+y,z
1/2-x,1/2+y,-z
1/2-x,1/2-y,-z
1/2+x,1/2-y,z
loop_
_atom_site_type_symbol
_atom_site_label
_atom_site_fract_x
_atom_site_fract_y
_atom_site_fract_z
Si Si1 0.747947 0.940708 0.788084
Si Si2 0.500000 0.651360 0.500000
Si Si3 0.981056 0.059103 0.667954
Si Si4 0.517466 0.807458 0.882729
Si Si5 0.388083 0.169037 0.419284
Si Si6 0.632580 0.590466 0.266526
Si Si7 0.859992 0.210157 0.636545
Si Si8 0.211094 0.784492 0.754854
O O1 0.671547 0.888389 0.704433
O O2 0.771028 0.934710 0.675681
O O3 0.696316 0.000000 0.735755
O O4 0.882416 0.938276 0.060415
O O5 0.471016 0.609610 0.563612
O O6 0.381735 0.688790 0.292617
O O7 0.880026 0.065616 0.616991
O O8 0.966466 0.000000 0.587585
O O9 0.433614 0.829252 0.636671
O O10 0.481526 0.744697 0.840863
O O11 0.500000 0.829275 0.000000
O O12 0.653983 0.808037 0.043372
O O13 0.500000 0.177900 0.500000
O O14 0.297990 0.219712 0.255368
O O15 0.647725 0.654677 0.302284
O O16 0.500000 0.580410 0.000000
O O17 0.750000 0.250000 0.500000
O O18 0.846379 0.200382 0.468970
#
# Coordination Sequence:
#
# PCOD9184267 Si02
#       8
#     8   4   8   8   8   8   8   8
#     4  10  23  41  64  88 118 162 214 266 308 362
#     4  12  23  40  62  92 133 170 196 254 312 392
#     4  10  22  39  62  91 123 162 210 256 314 370
#     4  11  24  39  64  93 131 168 206 263 316 377
#     4  11  26  42  62  93 126 170 213 255 312 384
#     4  10  19  33  58  87 117 149 200 261 307 350
#     4  11  20  35  57  92 125 162 203 247 314 380
#     4  11  24  39  59  95 132 161 204 250 319 382
#
# _framework density 20.541046000000001
#
# number of rings (size 3 to 8) (size 9 to 14) (size 15 to 20)
#    0.000    1.333    3.333    2.600    5.600    2.400 
#    0.000    0.000    0.000    0.400    0.000    0.000 
#    0.000    0.000    0.000    0.000    0.000    0.000 
#
# Total GULP energy -167373.740563 kJ/mol
# GULP energy per Si atom -5579.124685 kJ/mol
# Density = 2.049429 g / cm^3
# Si number density = 20.541046 Si / 1000 Ang^3
#
#
#
# Elastic Constant Matrix: (Units=GPa)
#
#
# Indices 1 2 3 4 5 6 
#
# 1 54.9110 14.1914 -6.7367 0.0000 10.4571 0.0000
# 2 14.1914 121.3438 6.2196 0.0000 5.9423 0.0000
# 3 -6.7367 6.2196 16.1803 0.0000 10.0184 0.0000
# 4 0.0000 0.0000 0.0000 22.4638 0.0000 9.2913
# 5 10.4571 5.9423 10.0184 0.0000 32.3496 0.0000
# 6 0.0000 0.0000 0.0000 9.2913 0.0000 10.3836
#
#
#
# Elastic Compliance Matrix: (Units=1/GPa)
#
#
# Indices 1 2 3 4 5 6 
#
# 1 0.023883 -0.003139 0.019268 0.000000 -0.013111 0.000000
# 2 -0.003139 0.008831 -0.005351 0.000000 0.001050 0.000000
# 3 0.019268 -0.005351 0.092955 0.000000 -0.034033 0.000000
# 4 0.000000 0.000000 0.000000 0.070672 0.000000 -0.063238
# 5 -0.013111 0.001050 -0.034033 0.000000 0.045497 0.000000
# 6 0.000000 0.000000 0.000000 -0.063238 0.000000 0.152891
#
#
# Mechanical properties :
#
#
# Convention : Reuss Voigt Hill
#
# Bulk Modulus (GPa) = 6.79230 24.42039 15.60634
# Shear Modulus (GPa) = 11.84137 24.95680 18.39909
#
# Velocity S-wave (km/s) = 2.40359 3.48943 2.99611
# Velocity P-wave (km/s) = 3.31917 5.30558 4.42527
#
# Compressibility (1/GPa) = 0.14722562
#
# Stress axis : x y z
#
# Youngs Moduli (GPa) = 41.87047 113.23729 10.75789
#
# Poissons Ratio (x) = 0.35542 -0.20729
# Poissons Ratio (y) = 0.13142 0.05757
# Poissons Ratio (z) = -0.80677 0.60597
#
# Static dielectric constant tensor:
#      x y z
#    x 1.672000 0.000000 -0.085950 
#    y 0.000000 1.706840 0.000000 
#    z -0.085950 0.000000 1.730720 
# 
# From -- ./inp_files/170406.got.cif
#   From: 2010.05.17/outbox.cif.g08.bks.cpg/sg12_86_cif.got.tgz:170406.got - 2010.06.03 13:09:07.
