data_PCOD9184332
_publ_section_title
;
Structure prediction by ZEFSAII (Michael W. Deem and Ramdas Pophale) SiO2 
 PCOD9184332
Probable space group: C 2/M
;
_chemical_formula_sum "Si O2"
_cell_formula_units_Z 28
_cell_length_a 5.477028
_cell_length_b 24.410590
_cell_length_c 8.877458
_cell_angle_alpha 90.000000
_cell_angle_beta 104.791605
_cell_angle_gamma 90.000000
_cell_volume 1147.561103
_symmetry_space_group_name_H-M "C 2/M"
_symmetry_group_IT_number 12
_symmetry_cell_setting 'monoclinic'
loop_
_space_group_symop_operation_xyz
x,y,z
-x,y,-z
-x,-y,-z
x,-y,z
1/2+x,1/2+y,z
1/2-x,1/2+y,-z
1/2-x,1/2-y,-z
1/2+x,1/2-y,z
loop_
_atom_site_type_symbol
_atom_site_label
_atom_site_fract_x
_atom_site_fract_y
_atom_site_fract_z
Si Si1 0.417234 0.565667 0.315081
Si Si2 0.000000 0.805786 0.000000
Si Si3 0.475678 0.235657 0.686821
Si Si4 0.871770 0.379450 0.202853
O O1 0.500000 0.579947 0.500000
O O2 0.405245 0.500000 0.302699
O O3 0.643362 0.586841 0.243005
O O4 0.135927 0.588362 0.231333
O O5 0.760278 0.846941 0.957457
O O6 0.002569 0.766895 0.854360
O O7 0.179784 0.232359 0.623723
O O8 0.565775 0.173440 0.687287
#
# Coordination Sequence:
#
# PCOD9184332 Si02
#       4
#     8   4   8   8
#     4  11  25  45  65  85 116 165 220 265 305 351
#     4  10  22  38  65 100 131 164 192 236 310 390
#     4  10  19  33  58  93 125 158 195 230 289 374
#     4  11  21  38  67  95 121 160 206 251 306 372
#
# _framework density 24.399573
#
# number of rings (size 3 to 8) (size 9 to 14) (size 15 to 20)
#    0.000    1.429    0.000    8.571    0.000    8.000 
#    0.000    5.714    0.000   68.571    0.000    0.000 
#    0.000    0.000    0.000    0.000    0.000    0.000 
#
# Total GULP energy -78113.567082 kJ/mol
# GULP energy per Si atom -5579.540506 kJ/mol
# Density = 2.434404 g / cm^3
# Si number density = 24.399573 Si / 1000 Ang^3
#
#
#
# Elastic Constant Matrix: (Units=GPa)
#
#
# Indices 1 2 3 4 5 6 
#
# 1 247.3146 67.8669 70.6720 0.0000 23.6884 0.0000
# 2 67.8669 121.6928 30.4814 0.0000 11.4656 0.0000
# 3 70.6720 30.4814 120.2756 0.0000 11.1761 0.0000
# 4 0.0000 0.0000 0.0000 42.4644 0.0000 14.0180
# 5 23.6884 11.4656 11.1761 0.0000 51.4189 0.0000
# 6 0.0000 0.0000 0.0000 14.0180 0.0000 66.1094
#
#
#
# Elastic Compliance Matrix: (Units=1/GPa)
#
#
# Indices 1 2 3 4 5 6 
#
# 1 0.005546 -0.002318 -0.002533 0.000000 -0.001487 0.000000
# 2 -0.002318 0.009859 -0.001053 0.000000 -0.000902 0.000000
# 3 -0.002533 -0.001053 0.010144 0.000000 -0.000803 0.000000
# 4 0.000000 0.000000 0.000000 0.025322 0.000000 -0.005369
# 5 -0.001487 -0.000902 -0.000803 0.000000 0.020509 0.000000
# 6 0.000000 0.000000 0.000000 -0.005369 0.000000 0.016265
#
#
# Mechanical properties :
#
#
# Convention : Reuss Voigt Hill
#
# Bulk Modulus (GPa) = 72.77427 91.92486 82.34956
# Shear Modulus (GPa) = 48.06202 53.34936 50.70569
#
# Velocity S-wave (km/s) = 4.44305 4.68106 4.56361
# Velocity P-wave (km/s) = 7.49744 8.18371 7.84808
#
# Compressibility (1/GPa) = 0.01374112
#
# Stress axis : x y z
#
# Youngs Moduli (GPa) = 180.31385 101.43123 98.58111
#
# Poissons Ratio (x) = 0.23515 0.24970
# Poissons Ratio (y) = 0.41802 0.10376
# Poissons Ratio (z) = 0.45672 0.10676
#
# Static dielectric constant tensor:
#      x y z
#    x 2.003780 0.000000 0.009880 
#    y 0.000000 1.891980 0.000000 
#    z 0.009880 0.000000 1.903050 
# 
# From -- ./inp_files/114712.got.cif
#   From: 2010.05.17/outbox.cif.g08.bks.cpg/sg12_58_cif.got.tgz:114712.got - 2010.06.03 13:09:07.
