data_PCOD9184930
_publ_section_title
;
Structure prediction by ZEFSAII (Michael W. Deem and Ramdas Pophale) SiO2 
 PCOD9184930
Probable space group: C 2/M
;
_chemical_formula_sum "Si O2"
_cell_formula_units_Z 64
_cell_length_a 26.859907
_cell_length_b 14.385825
_cell_length_c 10.150384
_cell_angle_alpha 90.000000
_cell_angle_beta 119.558227
_cell_angle_gamma 90.000000
_cell_volume 3411.681842
_symmetry_space_group_name_H-M "C 2/M"
_symmetry_group_IT_number 12
_symmetry_cell_setting 'monoclinic'
loop_
_space_group_symop_operation_xyz
x,y,z
-x,y,-z
-x,-y,-z
x,-y,z
1/2+x,1/2+y,z
1/2-x,1/2+y,-z
1/2-x,1/2-y,-z
1/2+x,1/2-y,z
loop_
_atom_site_type_symbol
_atom_site_label
_atom_site_fract_x
_atom_site_fract_y
_atom_site_fract_z
Si Si1 0.072546 0.808112 0.735263
Si Si2 0.730084 0.111860 0.424959
Si Si3 0.559480 0.286432 0.415262
Si Si4 0.233287 0.289235 0.150390
Si Si5 0.358297 0.391667 0.675078
Si Si6 0.656315 0.605145 0.044880
Si Si7 0.131340 0.395373 0.505772
Si Si8 0.331274 0.824411 0.179684
O O1 0.070444 0.827487 0.576028
O O2 0.107603 0.711387 0.791418
O O3 0.007712 0.797489 0.698528
O O4 0.109430 0.878871 0.870515
O O5 0.724253 0.163837 0.278609
O O6 0.792085 0.136833 0.565896
O O7 0.679491 0.133295 0.461861
O O8 0.729185 0.000000 0.404279
O O9 0.598675 0.336039 0.359465
O O10 0.580748 0.179615 0.444193
O O11 0.202257 0.188488 0.099219
O O12 0.298904 0.264990 0.203351
O O13 0.206330 0.349452 0.996339
O O14 0.361891 0.500000 0.643569
O O15 0.371319 0.383662 0.846691
O O16 0.680343 0.500000 0.069616
O O17 0.112496 0.500000 0.450989
O O18 0.160330 0.392710 0.688178
#
# Coordination Sequence:
#
# PCOD9184930 Si02
#       8
#     8   8   8   8   8   8   8   8
#     4   9  20  37  54  74 103 139 179 217 258 308
#     4  10  20  34  54  81 110 140 176 218 266 318
#     4  10  20  37  57  77 105 140 179 221 262 311
#     4  10  19  34  55  79 109 143 176 214 264 317
#     4  10  21  35  53  80 109 139 176 218 265 316
#     4  10  21  36  55  81 111 138 170 215 266 319
#     4  10  20  34  55  81 107 137 176 221 269 318
#     4   9  19  34  51  76 107 140 178 216 259 311
#
# _framework density 18.759077000000001
#
# number of rings (size 3 to 8) (size 9 to 14) (size 15 to 20)
#    0.000    2.250    0.000    3.000    0.000    5.000 
#    0.000   15.000    0.000    0.750    0.000    7.875 
#    0.000    0.000    0.000    0.000    0.000    0.000 
#
# Total GULP energy -178514.987253 kJ/mol
# GULP energy per Si atom -5578.593352 kJ/mol
# Density = 1.871638 g / cm^3
# Si number density = 18.759077 Si / 1000 Ang^3
#
#
#
# Elastic Constant Matrix: (Units=GPa)
#
#
# Indices 1 2 3 4 5 6 
#
# 1 75.7995 25.1509 23.8331 0.0000 1.6213 0.0000
# 2 25.1509 56.5915 30.3980 0.0000 -7.8090 0.0000
# 3 23.8331 30.3980 82.0593 0.0000 -8.7658 0.0000
# 4 0.0000 0.0000 0.0000 20.8040 0.0000 0.5865
# 5 1.6213 -7.8090 -8.7658 0.0000 27.8800 0.0000
# 6 0.0000 0.0000 0.0000 0.5865 0.0000 6.8129
#
#
#
# Elastic Compliance Matrix: (Units=1/GPa)
#
#
# Indices 1 2 3 4 5 6 
#
# 1 0.016201 -0.006191 -0.002792 0.000000 -0.003554 0.000000
# 2 -0.006191 0.024808 -0.006841 0.000000 0.005158 0.000000
# 3 -0.002792 -0.006841 0.015877 0.000000 0.003238 0.000000
# 4 0.000000 0.000000 0.000000 0.048185 0.000000 -0.004148
# 5 -0.003554 0.005158 0.003238 0.000000 0.038537 0.000000
# 6 0.000000 0.000000 0.000000 -0.004148 0.000000 0.147136
#
#
# Mechanical properties :
#
#
# Convention : Reuss Voigt Hill
#
# Bulk Modulus (GPa) = 39.62089 41.46828 40.54458
# Shear Modulus (GPa) = 15.11467 20.10394 17.60930
#
# Velocity S-wave (km/s) = 2.84161 3.27722 3.06716
# Velocity P-wave (km/s) = 5.65094 6.03937 5.84838
#
# Compressibility (1/GPa) = 0.02523921
#
# Stress axis : x y z
#
# Youngs Moduli (GPa) = 61.72591 40.30920 62.98376
#
# Poissons Ratio (x) = 0.24955 0.17582
# Poissons Ratio (y) = 0.38214 0.43086
# Poissons Ratio (z) = 0.17231 0.27575
#
# Static dielectric constant tensor:
#      x y z
#    x 1.639240 0.000000 0.003470 
#    y 0.000000 1.665820 0.000000 
#    z 0.003470 0.000000 1.662510 
# 
# From -- ./inp_files/104675.got.cif
#   From: 2010.05.17/outbox.cif.g08.bks.cpg/sg12_53_cif.got.tgz:104675.got - 2010.06.03 13:09:07.
