data_PCOD9184875
_publ_section_title
;
Structure prediction by ZEFSAII (Michael W. Deem and Ramdas Pophale) SiO2 
 PCOD9184875
Probable space group: C 2/M
;
_chemical_formula_sum "Si O2"
_cell_formula_units_Z 32
_cell_length_a 15.055995
_cell_length_b 15.857086
_cell_length_c 19.216308
_cell_angle_alpha 90.000000
_cell_angle_beta 159.641078
_cell_angle_gamma 90.000000
_cell_volume 1596.089330
_symmetry_space_group_name_H-M "C 2/M"
_symmetry_group_IT_number 12
_symmetry_cell_setting 'monoclinic'
loop_
_space_group_symop_operation_xyz
x,y,z
-x,y,-z
-x,-y,-z
x,-y,z
1/2+x,1/2+y,z
1/2-x,1/2+y,-z
1/2-x,1/2-y,-z
1/2+x,1/2-y,z
loop_
_atom_site_type_symbol
_atom_site_label
_atom_site_fract_x
_atom_site_fract_y
_atom_site_fract_z
Si Si1 0.478450 0.748145 0.067422
Si Si2 0.289677 0.904866 0.685858
Si Si3 0.249784 0.593447 0.765351
Si Si4 0.932805 0.327750 0.650587
O O1 0.546654 0.832882 0.156708
O O2 0.678370 0.672226 0.230784
O O3 0.500000 0.764573 0.000000
O O4 0.196834 0.712415 0.873317
O O5 0.309010 0.886290 0.618075
O O6 0.000000 0.896906 0.500000
O O7 0.378374 0.000000 0.765584
O O8 0.220811 0.500000 0.713934
O O9 0.017298 0.620359 0.644299
O O10 0.500000 0.589134 0.000000
O O11 0.750000 0.250000 0.500000
#
# Coordination Sequence:
#
# PCOD9184875 Si02
#       4
#     8   8   8   8
#     4   9  19  35  55  78 104 138 179 224 269 311
#     4  11  22  35  53  77 108 147 184 217 263 325
#     4   8  15  30  53  75  95 126 171 218 261 305
#     4  10  19  34  55  77 106 140 177 222 272 323
#
# _framework density 20.049002999999999
#
# number of rings (size 3 to 8) (size 9 to 14) (size 15 to 20)
#    0.000    3.000    0.000    4.500    0.000    1.500 
#    0.000    2.500    0.000    8.250    0.000    0.000 
#    0.000    0.000    0.000    0.000    0.000    0.000 
#
# Total GULP energy -89250.415358 kJ/mol
# GULP energy per Si atom -5578.150960 kJ/mol
# Density = 2.000337 g / cm^3
# Si number density = 20.049003 Si / 1000 Ang^3
#
#
#
# Elastic Constant Matrix: (Units=GPa)
#
#
# Indices 1 2 3 4 5 6 
#
# 1 57.9703 37.2681 34.1462 -0.0101 25.3997 0.0058
# 2 37.2681 178.4490 34.6951 -0.0285 7.9233 -0.0091
# 3 34.1462 34.6951 49.1411 -0.0006 22.6680 -0.0069
# 4 -0.0101 -0.0285 -0.0006 13.0534 0.0005 -5.8230
# 5 25.3997 7.9233 22.6680 0.0005 30.2642 0.0058
# 6 0.0058 -0.0091 -0.0069 -5.8230 0.0058 24.8256
#
#
#
# Elastic Compliance Matrix: (Units=1/GPa)
#
#
# Indices 1 2 3 4 5 6 
#
# 1 0.036227 -0.004111 -0.013357 0.000017 -0.019324 -0.000005
# 2 -0.004111 0.007104 -0.004420 0.000014 0.004901 0.000004
# 3 -0.013357 -0.004420 0.041324 -0.000011 -0.018585 0.000015
# 4 0.000017 0.000014 -0.000011 0.085561 -0.000015 0.020069
# 5 -0.019324 0.004901 -0.018585 -0.000015 0.061897 -0.000017
# 6 -0.000005 0.000004 0.000015 0.020069 -0.000017 0.044988
#
#
# Mechanical properties :
#
#
# Convention : Reuss Voigt Hill
#
# Bulk Modulus (GPa) = 24.46157 55.30881 39.88519
# Shear Modulus (GPa) = 14.94753 25.59204 20.26978
#
# Velocity S-wave (km/s) = 2.73344 3.57665 3.18309
# Velocity P-wave (km/s) = 4.71059 6.68605 5.78329
#
# Compressibility (1/GPa) = 0.04088045
#
# Stress axis : x y z
#
# Youngs Moduli (GPa) = 27.60354 140.76323 24.19904
#
# Poissons Ratio (x) = 0.57868 0.32322
# Poissons Ratio (y) = 0.11348 0.10695
# Poissons Ratio (z) = 0.36869 0.62215
#
# Static dielectric constant tensor:
#      x y z
#    x 1.742520 0.000010 -0.011300 
#    y 0.000010 1.724010 -0.000020 
#    z -0.011300 -0.000020 1.720610 
# 
# From -- ./inp_files/58720.got.cif
#   From: 2010.05.17/outbox.cif.g08.bks.cpg/sg12_30_cif.got.tgz:58720.got - 2010.06.03 13:09:07.
