data_PCOD9184390
_publ_section_title
;
Structure prediction by ZEFSAII (Michael W. Deem and Ramdas Pophale) SiO2 
 PCOD9184390
Probable space group: C 2/M
;
_chemical_formula_sum "Si O2"
_cell_formula_units_Z 40
_cell_length_a 22.667172
_cell_length_b 10.964345
_cell_length_c 8.889237
_cell_angle_alpha 90.000000
_cell_angle_beta 119.392722
_cell_angle_gamma 90.000000
_cell_volume 1924.865326
_symmetry_space_group_name_H-M "C 2/M"
_symmetry_group_IT_number 12
_symmetry_cell_setting 'monoclinic'
loop_
_space_group_symop_operation_xyz
x,y,z
-x,y,-z
-x,-y,-z
x,-y,z
1/2+x,1/2+y,z
1/2-x,1/2+y,-z
1/2-x,1/2-y,-z
1/2+x,1/2-y,z
loop_
_atom_site_type_symbol
_atom_site_label
_atom_site_fract_x
_atom_site_fract_y
_atom_site_fract_z
Si Si1 0.310363 0.500000 0.706986
Si Si2 0.244795 0.000000 0.702281
Si Si3 0.333418 0.241571 0.833940
Si Si4 0.403062 0.500000 0.373749
Si Si5 0.959220 0.000000 0.782225
Si Si6 0.050511 0.638782 0.208807
Si Si7 0.550548 0.295083 0.792861
O O1 0.278496 0.500000 0.501421
O O2 0.295072 0.370365 0.765803
O O3 0.392557 0.500000 0.798607
O O4 0.286828 0.877082 0.784110
O O5 0.177549 0.000000 0.718692
O O6 0.384258 0.218551 0.755276
O O7 0.382219 0.250432 0.039477
O O8 0.430754 0.500000 0.576512
O O9 0.429211 0.379691 0.320744
O O10 0.008664 0.885126 0.850993
O O11 0.072844 0.500000 0.260884
O O12 0.004686 0.687961 0.288341
O O13 0.000000 0.638191 0.000000
#
# Coordination Sequence:
#
# PCOD9184390 Si02
#       7
#     4   4   8   4   4   8   8
#     4  11  21  36  60  89 116 153 193 245 285 344
#     4  11  25  41  56  80 123 174 187 220 290 362
#     4  11  21  36  60  89 119 146 196 244 291 341
#     4  10  23  40  57  82 118 162 198 222 285 358
#     4  10  19  35  59  87 115 145 186 246 299 340
#     4   9  17  30  54  89 118 140 175 239 312 341
#     4  10  19  33  60  88 110 145 191 248 283 330
#
# _framework density 20.780674999999999
#
# number of rings (size 3 to 8) (size 9 to 14) (size 15 to 20)
#    0.000    1.800    3.000    3.000    1.400    1.600 
#    0.000    0.000    2.200    2.400    0.000    0.000 
#    0.000    0.000    0.000    0.000    0.000    0.000 
#
# Total GULP energy -111648.748799 kJ/mol
# GULP energy per Si atom -5582.437440 kJ/mol
# Density = 2.073338 g / cm^3
# Si number density = 20.780675 Si / 1000 Ang^3
#
#
#
# Elastic Constant Matrix: (Units=GPa)
#
#
# Indices 1 2 3 4 5 6 
#
# 1 83.5565 37.9663 21.4852 0.0000 5.9823 0.0000
# 2 37.9663 153.4875 23.7397 0.0000 10.0929 0.0000
# 3 21.4852 23.7397 60.1230 0.0000 6.4498 0.0000
# 4 0.0000 0.0000 0.0000 5.5214 0.0000 -0.7725
# 5 5.9823 10.0929 6.4498 0.0000 27.7414 0.0000
# 6 0.0000 0.0000 0.0000 -0.7725 0.0000 19.9098
#
#
#
# Elastic Compliance Matrix: (Units=1/GPa)
#
#
# Indices 1 2 3 4 5 6 
#
# 1 0.014352 -0.002876 -0.003870 0.000000 -0.001149 0.000000
# 2 -0.002876 0.007618 -0.001794 0.000000 -0.001734 0.000000
# 3 -0.003870 -0.001794 0.019039 0.000000 -0.002939 0.000000
# 4 0.000000 0.000000 0.000000 0.182102 0.000000 0.007065
# 5 -0.001149 -0.001734 -0.002939 0.000000 0.037609 0.000000
# 6 0.000000 0.000000 0.000000 0.007065 0.000000 0.050501
#
#
# Mechanical properties :
#
#
# Convention : Reuss Voigt Hill
#
# Bulk Modulus (GPa) = 41.79001 51.50551 46.64776
# Shear Modulus (GPa) = 14.86865 24.89957 19.88411
#
# Velocity S-wave (km/s) = 2.67779 3.46527 3.09666
# Velocity P-wave (km/s) = 5.45110 6.39139 5.93988
#
# Compressibility (1/GPa) = 0.02392917
#
# Stress axis : x y z
#
# Youngs Moduli (GPa) = 69.67629 131.26555 52.52293
#
# Poissons Ratio (x) = 0.37752 0.20326
# Poissons Ratio (y) = 0.20039 0.09424
# Poissons Ratio (z) = 0.26964 0.23552
#
# Static dielectric constant tensor:
#      x y z
#    x 1.745760 0.000000 -0.011420 
#    y 0.000000 1.834550 0.000000 
#    z -0.011420 0.000000 1.745920 
# 
# From -- ./inp_files/94686.got.cif
#   From: 2010.05.17/outbox.cif.g08.bks.cpg/sg12_48_cif.got.tgz:94686.got - 2010.06.03 13:09:07.
