data_PCOD9184937
_publ_section_title
;
Structure prediction by ZEFSAII (Michael W. Deem and Ramdas Pophale) SiO2 
 PCOD9184937
Probable space group: C 2/M
;
_chemical_formula_sum "Si O2"
_cell_formula_units_Z 48
_cell_length_a 11.296818
_cell_length_b 15.242437
_cell_length_c 12.541460
_cell_angle_alpha 90.000000
_cell_angle_beta 98.277135
_cell_angle_gamma 90.000000
_cell_volume 2137.031894
_symmetry_space_group_name_H-M "C 2/M"
_symmetry_group_IT_number 12
_symmetry_cell_setting 'monoclinic'
loop_
_space_group_symop_operation_xyz
x,y,z
-x,y,-z
-x,-y,-z
x,-y,z
1/2+x,1/2+y,z
1/2-x,1/2+y,-z
1/2-x,1/2-y,-z
1/2+x,1/2-y,z
loop_
_atom_site_type_symbol
_atom_site_label
_atom_site_fract_x
_atom_site_fract_y
_atom_site_fract_z
Si Si1 0.832818 0.606687 0.563675
Si Si2 0.734132 0.340695 0.135352
Si Si3 0.297144 0.400353 0.254980
Si Si4 0.510187 0.399440 0.881312
Si Si5 0.635973 0.148917 0.059269
Si Si6 0.895815 0.606392 0.339448
O O1 0.827748 0.500000 0.566745
O O2 0.736505 0.641177 0.636244
O O3 0.824491 0.629882 0.438616
O O4 0.966047 0.629404 0.620963
O O5 0.625737 0.393998 0.174135
O O6 0.679220 0.245954 0.100241
O O7 0.842226 0.344563 0.231491
O O8 0.781555 0.379135 0.029882
O O9 0.338463 0.500000 0.281732
O O10 0.397681 0.358892 0.190649
O O11 0.175605 0.404047 0.168712
O O12 0.548833 0.500000 0.900315
O O13 0.500000 0.361743 0.000000
O O14 0.500000 0.145061 0.000000
O O15 0.889082 0.500000 0.323301
#
# Coordination Sequence:
#
# PCOD9184937 Si02
#       6
#     8   8   8   8   8   8
#     4   8  16  33  57  86 114 141 180 234 288 320
#     4  11  22  35  53  78 112 147 189 224 269 340
#     4  10  20  36  58  83 112 145 185 232 280 331
#     4  10  19  34  55  79 111 149 185 226 272 329
#     4  11  24  36  53  80 112 147 181 232 282 324
#     4   9  17  33  59  85 112 147 187 231 274 329
#
# _framework density 22.461058000000001
#
# number of rings (size 3 to 8) (size 9 to 14) (size 15 to 20)
#    0.000    2.167    1.667    3.000    2.333    1.000 
#    0.000    1.667    0.000    4.000    0.000    0.000 
#    0.000    0.000    0.000    0.000    0.000    0.000 
#
# Total GULP energy -133873.832157 kJ/mol
# GULP energy per Si atom -5578.076340 kJ/mol
# Density = 2.240994 g / cm^3
# Si number density = 22.461058 Si / 1000 Ang^3
#
#
#
# Elastic Constant Matrix: (Units=GPa)
#
#
# Indices 1 2 3 4 5 6 
#
# 1 62.5778 12.0539 13.5164 0.0000 -24.4532 0.0000
# 2 12.0539 44.3050 7.3263 0.0000 -2.5354 0.0000
# 3 13.5164 7.3263 105.6805 0.0000 -33.2938 0.0000
# 4 0.0000 0.0000 0.0000 14.1166 0.0000 6.9194
# 5 -24.4532 -2.5354 -33.2938 0.0000 49.2084 0.0000
# 6 0.0000 0.0000 0.0000 6.9194 0.0000 12.6119
#
#
#
# Elastic Compliance Matrix: (Units=1/GPa)
#
#
# Indices 1 2 3 4 5 6 
#
# 1 0.021029 -0.005281 0.001122 0.000000 0.010937 0.000000
# 2 -0.005281 0.024159 -0.001822 0.000000 -0.002613 0.000000
# 3 0.001122 -0.001822 0.012190 0.000000 0.008711 0.000000
# 4 0.000000 0.000000 0.000000 0.096896 0.000000 -0.053162
# 5 0.010937 -0.002613 0.008711 0.000000 0.031516 0.000000
# 6 0.000000 0.000000 0.000000 -0.053162 0.000000 0.108457
#
#
# Mechanical properties :
#
#
# Convention : Reuss Voigt Hill
#
# Bulk Modulus (GPa) = 22.01896 30.92851 26.47373
# Shear Modulus (GPa) = 15.55946 27.16517 21.36231
#
# Velocity S-wave (km/s) = 2.63483 3.48146 3.08731
# Velocity P-wave (km/s) = 4.36817 5.47362 4.95184
#
# Compressibility (1/GPa) = 0.04541540
#
# Stress axis : x y z
#
# Youngs Moduli (GPa) = 47.55402 41.39172 82.03663
#
# Poissons Ratio (x) = 0.21858 -0.09206
# Poissons Ratio (y) = 0.25113 0.14951
# Poissons Ratio (z) = -0.05336 0.07544
#
# Static dielectric constant tensor:
#      x y z
#    x 1.895080 0.000000 -0.019680 
#    y 0.000000 1.848070 0.000000 
#    z -0.019680 0.000000 1.840830 
# 
# From -- ./inp_files/131173.got.cif
#   From: 2010.05.17/outbox.cif.g08.bks.cpg/sg12_66_cif.got.tgz:131173.got - 2010.06.03 13:09:07.
