data_PCOD9184573
_publ_section_title
;
Structure prediction by ZEFSAII (Michael W. Deem and Ramdas Pophale) SiO2 
 PCOD9184573
Probable space group: C 2/M
;
_chemical_formula_sum "Si O2"
_cell_formula_units_Z 60
_cell_length_a 27.265320
_cell_length_b 19.309613
_cell_length_c 13.183678
_cell_angle_alpha 90.000000
_cell_angle_beta 26.558525
_cell_angle_gamma 90.000000
_cell_volume 3103.393204
_symmetry_space_group_name_H-M "C 2/M"
_symmetry_group_IT_number 12
_symmetry_cell_setting 'monoclinic'
loop_
_space_group_symop_operation_xyz
x,y,z
-x,y,-z
-x,-y,-z
x,-y,z
1/2+x,1/2+y,z
1/2-x,1/2+y,-z
1/2-x,1/2-y,-z
1/2+x,1/2-y,z
loop_
_atom_site_type_symbol
_atom_site_label
_atom_site_fract_x
_atom_site_fract_y
_atom_site_fract_z
Si Si1 0.507478 0.664168 0.174497
Si Si2 0.153929 0.581288 0.949733
Si Si3 0.765847 0.843117 0.557507
Si Si4 0.742735 0.680485 0.650811
Si Si5 0.500000 0.826838 0.500000
Si Si6 0.788604 0.581476 0.933998
Si Si7 0.464713 0.810786 0.344167
Si Si8 0.551836 0.583112 0.295235
O O1 0.397422 0.646459 0.316658
O O2 0.497183 0.746073 0.215092
O O3 0.505576 0.623187 0.284309
O O4 0.624668 0.653529 0.904920
O O5 0.130783 0.500000 0.985762
O O6 0.211442 0.608538 0.742260
O O7 0.227729 0.592510 0.914589
O O8 0.044424 0.625342 0.173155
O O9 0.739007 0.763721 0.639369
O O10 0.726407 0.851794 0.515261
O O11 0.839582 0.669400 0.552200
O O12 0.607173 0.874444 0.291086
O O13 0.484312 0.787418 0.423836
O O14 0.811492 0.500000 0.878248
O O15 0.680746 0.598989 0.070558
O O16 0.500000 0.601137 0.500000
O O17 0.538165 0.500000 0.306968
#
# Coordination Sequence:
#
# PCOD9184573 Si02
#       8
#     8   8   8   8   4   8   8   8
#     4  11  21  37  59  84 116 150 193 243 287 342
#     4  10  20  39  61  87 120 152 195 240 285 342
#     4  10  21  37  60  84 108 154 195 237 291 340
#     4  10  21  39  59  81 116 148 195 241 283 352
#     4  10  19  34  52  82 115 144 184 232 276 338
#     4   9  18  33  55  79 111 153 187 223 278 343
#     4  10  22  37  56  87 117 152 193 232 294 339
#     4  10  21  36  55  82 114 153 192 229 283 342
#
# _framework density 19.333677000000002
#
# number of rings (size 3 to 8) (size 9 to 14) (size 15 to 20)
#    0.000    2.000    1.333    2.200    0.933    2.667 
#    0.000    4.667    0.000    1.600    0.000    0.000 
#    0.000    0.000    0.000    0.000    0.000    0.000 
#
# Total GULP energy -167457.150972 kJ/mol
# GULP energy per Si atom -5581.905032 kJ/mol
# Density = 1.928967 g / cm^3
# Si number density = 19.333677 Si / 1000 Ang^3
#
#
#
# Elastic Constant Matrix: (Units=GPa)
#
#
# Indices 1 2 3 4 5 6 
#
# 1 69.6087 8.9375 3.2989 0.0000 -1.0520 0.0000
# 2 8.9375 35.9433 1.5134 0.0000 2.2973 0.0000
# 3 3.2989 1.5134 55.5841 0.0000 1.2747 -0.0001
# 4 0.0000 0.0000 0.0000 18.5942 0.0000 1.8004
# 5 -1.0520 2.2973 1.2747 0.0000 22.9680 0.0001
# 6 0.0000 0.0000 -0.0001 1.8004 0.0001 -158.8237
#
#
#
# Elastic Compliance Matrix: (Units=1/GPa)
#
#
# Indices 1 2 3 4 5 6 
#
# 1 0.014901 -0.003742 -0.000808 0.000000 0.001102 0.000000
# 2 -0.003742 0.028967 -0.000497 0.000000 -0.003041 0.000000
# 3 -0.000808 -0.000497 0.018075 0.000000 -0.000990 0.000000
# 4 0.000000 0.000000 0.000000 0.053721 0.000000 0.000609
# 5 0.001102 -0.003041 -0.000990 0.000000 0.043949 0.000000
# 6 0.000000 0.000000 0.000000 0.000609 0.000000 -0.006289
#
#
# Mechanical properties :
#
#
# Convention : Reuss Voigt Hill
#
# Bulk Modulus (GPa) = 19.28610 20.95955 20.12282
# Shear Modulus (GPa) = 27.67010 -13.62656 7.02177
#
# Velocity S-wave (km/s) = 3.78721 -2.65770 1.90782
# Velocity P-wave (km/s) = 5.39638 1.20276 3.90945
#
# Compressibility (1/GPa) = 0.05185081
#
# Stress axis : x y z
#
# Youngs Moduli (GPa) = 67.10793 34.52170 55.32521
#
# Poissons Ratio (x) = 0.12917 0.04469
# Poissons Ratio (y) = 0.25110 0.02749
# Poissons Ratio (z) = 0.05421 0.01715
#
# Static dielectric constant tensor:
#      x y z
#    x 1.676390 0.000000 0.002110 
#    y 0.000000 1.645810 0.000000 
#    z 0.002110 0.000000 1.673070 
# 
# From -- ./inp_files/178028.got.cif
#   From: 2010.05.17/outbox.cif.g08.bks.cpg/sg12_90_cif.got.tgz:178028.got - 2010.06.03 13:09:07.
