data_PCOD9184440
_publ_section_title
;
Structure prediction by ZEFSAII (Michael W. Deem and Ramdas Pophale) SiO2 
 PCOD9184440
Probable space group: C 2/M
;
_chemical_formula_sum "Si O2"
_cell_formula_units_Z 48
_cell_length_a 9.394220
_cell_length_b 27.433383
_cell_length_c 9.021800
_cell_angle_alpha 90.000000
_cell_angle_beta 78.535047
_cell_angle_gamma 90.000000
_cell_volume 2278.662253
_symmetry_space_group_name_H-M "C 2/M"
_symmetry_group_IT_number 12
_symmetry_cell_setting 'monoclinic'
loop_
_space_group_symop_operation_xyz
x,y,z
-x,y,-z
-x,-y,-z
x,-y,z
1/2+x,1/2+y,z
1/2-x,1/2+y,-z
1/2-x,1/2-y,-z
1/2+x,1/2-y,z
loop_
_atom_site_type_symbol
_atom_site_label
_atom_site_fract_x
_atom_site_fract_y
_atom_site_fract_z
Si Si1 0.403526 0.369514 0.884111
Si Si2 0.162166 0.442160 0.902953
Si Si3 0.364376 0.285565 0.645286
Si Si4 0.608543 0.597780 0.615406
Si Si5 0.371400 0.945348 0.421978
Si Si6 0.663390 0.182976 0.430487
O O1 0.502735 0.408611 0.773964
O O2 0.280029 0.443212 0.459660
O O3 0.500000 0.351696 0.000000
O O4 0.264493 0.401778 0.958689
O O5 0.210211 0.500000 0.899682
O O6 0.155431 0.422971 0.733441
O O7 0.000000 0.441134 0.000000
O O8 0.500000 0.287309 0.500000
O O9 0.378873 0.324148 0.775569
O O10 0.343960 0.228115 0.682659
O O11 0.225630 0.298791 0.575274
O O12 0.500000 0.607969 0.500000
O O13 0.720262 0.641533 0.632357
O O14 0.500000 0.927500 0.500000
O O15 0.415754 0.000000 0.374592
O O16 0.500000 0.168373 0.500000
#
# Coordination Sequence:
#
# PCOD9184440 Si02
#       6
#     8   8   8   8   8   8
#     4  12  25  41  61  90 130 169 209 265 321 376
#     4  10  23  44  65  91 131 173 212 255 315 388
#     4  10  19  40  64  91 121 158 212 264 316 379
#     4  12  21  40  64  92 127 165 217 265 311 377
#     4  10  22  39  66 100 129 160 210 273 318 366
#     4  10  19  33  68  93 115 158 212 260 315 376
#
# _framework density 21.064993000000001
#
# number of rings (size 3 to 8) (size 9 to 14) (size 15 to 20)
#    0.000    1.333    5.000    0.500    2.333    1.333 
#    0.000    0.833    0.000    1.000    0.000    0.000 
#    0.000    0.000    0.000    0.000    0.000    0.000 
#
# Total GULP energy -133659.718368 kJ/mol
# GULP energy per Si atom -5569.154932 kJ/mol
# Density = 2.101705 g / cm^3
# Si number density = 21.064993 Si / 1000 Ang^3
#
#
#
# Elastic Constant Matrix: (Units=GPa)
#
#
# Indices 1 2 3 4 5 6 
#
# 1 132.8787 35.2781 12.0885 0.0000 10.2656 0.0000
# 2 35.2781 106.2406 16.6729 0.0000 15.2289 0.0000
# 3 12.0885 16.6729 46.9191 0.0000 16.1597 0.0000
# 4 0.0000 0.0000 0.0000 39.0856 0.0000 36.8267
# 5 10.2656 15.2289 16.1597 0.0000 35.7248 0.0000
# 6 0.0000 0.0000 0.0000 36.8267 0.0000 118.3387
#
#
#
# Elastic Compliance Matrix: (Units=1/GPa)
#
#
# Indices 1 2 3 4 5 6 
#
# 1 0.008344 -0.002491 -0.000953 0.000000 -0.000905 0.000000
# 2 -0.002491 0.011018 -0.002253 0.000000 -0.002962 0.000000
# 3 -0.000953 -0.002253 0.025982 0.000000 -0.010518 0.000000
# 4 0.000000 0.000000 0.000000 0.036199 0.000000 -0.011265
# 5 -0.000905 -0.002962 -0.010518 0.000000 0.034272 0.000000
# 6 0.000000 0.000000 0.000000 -0.011265 0.000000 0.011956
#
#
# Mechanical properties :
#
#
# Convention : Reuss Voigt Hill
#
# Bulk Modulus (GPa) = 29.45624 46.01305 37.73465
# Shear Modulus (GPa) = 33.22650 53.42974 43.32812
#
# Velocity S-wave (km/s) = 3.97587 5.04176 4.54020
# Velocity P-wave (km/s) = 5.92373 7.46881 6.74069
#
# Compressibility (1/GPa) = 0.03394867
#
# Stress axis : x y z
#
# Youngs Moduli (GPa) = 119.85134 90.76013 38.48783
#
# Poissons Ratio (x) = 0.22612 0.03667
# Poissons Ratio (y) = 0.29860 0.08673
# Poissons Ratio (z) = 0.11420 0.20452
#
# Static dielectric constant tensor:
#      x y z
#    x 1.798000 0.000000 0.013140 
#    y 0.000000 1.823780 0.000000 
#    z 0.013140 0.000000 1.772490 
# 
# From -- ./inp_files/42211.got.cif
#   From: 2010.05.17/outbox.cif.g08.bks.cpg/sg12_22_cif.got.tgz:42211.got - 2010.06.03 13:09:07.
