data_PCOD9184010
_publ_section_title
;
Structure prediction by ZEFSAII (Michael W. Deem and Ramdas Pophale) SiO2 
 PCOD9184010
Probable space group: C 2/M
;
_chemical_formula_sum "Si O2"
_cell_formula_units_Z 48
_cell_length_a 10.576206
_cell_length_b 23.324453
_cell_length_c 16.365429
_cell_angle_alpha 90.000000
_cell_angle_beta 144.617845
_cell_angle_gamma 90.000000
_cell_volume 2337.586985
_symmetry_space_group_name_H-M "C 2/M"
_symmetry_group_IT_number 12
_symmetry_cell_setting 'monoclinic'
loop_
_space_group_symop_operation_xyz
x,y,z
-x,y,-z
-x,-y,-z
x,-y,z
1/2+x,1/2+y,z
1/2-x,1/2+y,-z
1/2-x,1/2-y,-z
1/2+x,1/2-y,z
loop_
_atom_site_type_symbol
_atom_site_label
_atom_site_fract_x
_atom_site_fract_y
_atom_site_fract_z
Si Si1 0.035327 0.274646 0.926856
Si Si2 0.198861 0.563595 0.299182
Si Si3 0.024631 0.933507 0.314052
Si Si4 0.770040 0.347066 0.538171
Si Si5 0.934727 0.742745 0.375124
Si Si6 0.642027 0.908558 0.999499
O O1 0.817422 0.258592 0.763753
O O2 0.250000 0.250000 0.000000
O O3 0.075138 0.342423 0.954798
O O4 0.000000 0.252488 0.000000
O O5 0.242367 0.500000 0.357099
O O6 0.362279 0.572162 0.308016
O O7 0.227345 0.614054 0.379340
O O8 0.954595 0.564261 0.133110
O O9 0.887007 0.916018 0.160975
O O10 0.221240 0.890933 0.438635
O O11 0.085943 0.000000 0.340240
O O12 0.574698 0.300391 0.432728
O O13 0.984972 0.307975 0.641847
O O14 0.000000 0.724035 0.500000
O O15 0.500000 0.933245 0.000000
#
# Coordination Sequence:
#
# PCOD9184010 Si02
#       6
#     8   8   8   8   8   8
#     4  11  25  41  65  94 128 168 213 261 315 378
#     4  10  19  33  56  89 122 159 204 260 313 368
#     4  10  19  33  57  90 123 161 206 258 317 371
#     4  11  22  36  60  88 125 158 204 253 318 374
#     4  11  25  40  61  87 124 168 208 257 318 379
#     4   9  18  33  56  84 123 157 201 256 311 365
#
# _framework density 20.533995999999998
#
# number of rings (size 3 to 8) (size 9 to 14) (size 15 to 20)
#    0.000    1.667    0.000    6.500    9.333    3.333 
#    0.000    0.000    0.000    2.000    0.000    1.167 
#    0.000    0.000    0.000    0.000    0.000    0.000 
#
# Total GULP energy -134060.062554 kJ/mol
# GULP energy per Si atom -5585.835940 kJ/mol
# Density = 2.048726 g / cm^3
# Si number density = 20.533996 Si / 1000 Ang^3
#
#
#
# Elastic Constant Matrix: (Units=GPa)
#
#
# Indices 1 2 3 4 5 6 
#
# 1 49.6761 41.6936 28.1093 0.0009 6.4398 -0.0004
# 2 41.6936 145.6350 65.1185 -0.0003 6.0442 0.0002
# 3 28.1093 65.1185 124.5105 0.0022 -4.7212 -0.0007
# 4 0.0009 -0.0003 0.0022 124.2628 0.0011 -73.8233
# 5 6.4398 6.0442 -4.7212 0.0011 24.9358 -0.0004
# 6 -0.0004 0.0002 -0.0007 -73.8233 -0.0004 66.0840
#
#
#
# Elastic Compliance Matrix: (Units=1/GPa)
#
#
# Indices 1 2 3 4 5 6 
#
# 1 0.028114 -0.006317 -0.003284 0.000000 -0.006351 0.000000
# 2 -0.006317 0.010623 -0.004196 0.000000 -0.001738 0.000000
# 3 -0.003284 -0.004196 0.011118 0.000000 0.003970 0.000000
# 4 0.000000 0.000000 0.000000 0.023927 -0.000001 0.026729
# 5 -0.006351 -0.001738 0.003970 -0.000001 0.042916 -0.000001
# 6 0.000000 0.000000 0.000000 0.026729 -0.000001 0.044992
#
#
# Mechanical properties :
#
#
# Convention : Reuss Voigt Hill
#
# Bulk Modulus (GPa) = 44.92050 65.51828 55.21939
# Shear Modulus (GPa) = 25.41904 55.38318 40.40111
#
# Velocity S-wave (km/s) = 3.52220 5.19904 4.44049
# Velocity P-wave (km/s) = 6.20200 8.24721 7.29662
#
# Compressibility (1/GPa) = 0.02226155
#
# Stress axis : x y z
#
# Youngs Moduli (GPa) = 35.56995 94.13539 89.94621
#
# Poissons Ratio (x) = 0.59461 0.29540
# Poissons Ratio (y) = 0.22468 0.37739
# Poissons Ratio (z) = 0.11682 0.39496
#
# Static dielectric constant tensor:
#      x y z
#    x 1.748880 0.000000 -0.004520 
#    y 0.000000 2.106760 0.000000 
#    z -0.004520 0.000000 1.793670 
# 
# From -- ./inp_files/265722.got.cif
#   From: 2010.05.17/outbox.cif.g08.bks.cpg/sg12_133_cif.got.tgz:265722.got - 2010.06.03 13:09:07.
