data_PCOD9184770
_publ_section_title
;
Structure prediction by ZEFSAII (Michael W. Deem and Ramdas Pophale) SiO2 
 PCOD9184770
Probable space group: C 2/M
;
_chemical_formula_sum "Si O2"
_cell_formula_units_Z 64
_cell_length_a 20.976255
_cell_length_b 8.956426
_cell_length_c 24.909635
_cell_angle_alpha 90.000000
_cell_angle_beta 127.696282
_cell_angle_gamma 90.000000
_cell_volume 3702.977180
_symmetry_space_group_name_H-M "C 2/M"
_symmetry_group_IT_number 12
_symmetry_cell_setting 'monoclinic'
loop_
_space_group_symop_operation_xyz
x,y,z
-x,y,-z
-x,-y,-z
x,-y,z
1/2+x,1/2+y,z
1/2-x,1/2+y,-z
1/2-x,1/2-y,-z
1/2+x,1/2-y,z
loop_
_atom_site_type_symbol
_atom_site_label
_atom_site_fract_x
_atom_site_fract_y
_atom_site_fract_z
Si Si1 0.536215 0.179031 0.459837
Si Si2 0.788707 0.320509 0.967630
Si Si3 0.875586 0.678130 0.316687
Si Si4 0.262764 0.322179 0.667088
Si Si5 0.762338 0.178879 0.175948
Si Si6 0.975164 0.679614 0.048141
Si Si7 0.289894 0.677747 0.468153
Si Si8 0.875943 0.178455 0.821681
O O1 0.500000 0.213415 0.500000
O O2 0.465888 0.214421 0.381081
O O3 0.618693 0.263674 0.491304
O O4 0.551224 0.000000 0.466436
O O5 0.785242 0.500000 0.969673
O O6 0.743715 0.277014 0.889372
O O7 0.750000 0.250000 0.000000
O O8 0.882662 0.278756 0.010302
O O9 0.869849 0.500000 0.304507
O O10 0.815145 0.710360 0.335426
O O11 0.840767 0.763259 0.247530
O O12 0.261441 0.500000 0.655114
O O13 0.256401 0.232461 0.609093
O O14 0.339574 0.287954 0.744123
O O15 0.686334 0.249068 0.168139
O O16 0.756751 0.000000 0.176559
O O17 0.982841 0.500000 0.056672
O O18 0.036757 0.756971 0.120477
O O19 0.000000 0.719925 0.000000
O O20 0.288295 0.500000 0.471270
O O21 0.250000 0.750000 0.500000
O O22 0.874435 0.000000 0.827286
#
# Coordination Sequence:
#
# PCOD9184770 Si02
#       8
#     8   8   8   8   8   8   8   8
#     4  10  19  37  61  84 116 151 185 231 283 331
#     4  10  22  38  56  79 110 150 184 223 277 331
#     4   9  18  33  57  86 113 145 183 227 278 329
#     4   9  18  36  56  80 115 149 182 225 283 335
#     4  10  19  34  54  79 114 150 183 225 280 329
#     4  10  19  36  57  80 113 146 184 231 280 328
#     4  12  25  39  58  84 115 151 193 234 281 340
#     4  10  20  33  55  86 113 142 184 233 279 326
#
# _framework density 17.283390000000001
#
# number of rings (size 3 to 8) (size 9 to 14) (size 15 to 20)
#    0.000    2.000    2.500    2.625    0.000    5.000 
#    0.000    1.250    0.000    3.000    0.000    0.000 
#    0.000    0.000    0.000    0.000    0.000    0.000 
#
# Total GULP energy -178632.591892 kJ/mol
# GULP energy per Si atom -5582.268497 kJ/mol
# Density = 1.724405 g / cm^3
# Si number density = 17.283390 Si / 1000 Ang^3
#
#
#
# Elastic Constant Matrix: (Units=GPa)
#
#
# Indices 1 2 3 4 5 6 
#
# 1 104.2167 53.9961 83.8592 0.0000 -6.9879 0.0000
# 2 53.9961 64.2776 77.4853 0.0000 -3.2737 0.0000
# 3 83.8592 77.4853 175.1242 0.0000 -1.6559 0.0000
# 4 0.0000 0.0000 0.0000 34.8186 0.0000 2.0795
# 5 -6.9879 -3.2737 -1.6559 0.0000 23.5406 0.0000
# 6 0.0000 0.0000 0.0000 2.0795 0.0000 29.0977
#
#
#
# Elastic Compliance Matrix: (Units=1/GPa)
#
#
# Indices 1 2 3 4 5 6 
#
# 1 0.018666 -0.010189 -0.004394 0.000000 0.003815 0.000000
# 2 -0.010189 0.039210 -0.012455 0.000000 0.001552 0.000000
# 3 -0.004394 -0.012455 0.013305 0.000000 -0.002101 0.000000
# 4 0.000000 0.000000 0.000000 0.028843 0.000000 -0.002061
# 5 0.003815 0.001552 -0.002101 0.000000 0.043680 0.000000
# 6 0.000000 0.000000 0.000000 -0.002061 0.000000 0.034514
#
#
# Mechanical properties :
#
#
# Convention : Reuss Voigt Hill
#
# Bulk Modulus (GPa) = 58.46200 86.03330 72.24765
# Shear Modulus (GPa) = 21.00857 26.04325 23.52591
#
# Velocity S-wave (km/s) = 3.49024 3.88601 3.69343
# Velocity P-wave (km/s) = 7.08105 8.36785 7.75120
#
# Compressibility (1/GPa) = 0.01710513
#
# Stress axis : x y z
#
# Youngs Moduli (GPa) = 53.57340 25.50340 75.15773
#
# Poissons Ratio (x) = 0.25986 0.33024
# Poissons Ratio (y) = 0.54587 0.93610
# Poissons Ratio (z) = 0.23540 0.31765
#
# Static dielectric constant tensor:
#      x y z
#    x 1.557900 0.000000 0.013330 
#    y 0.000000 1.576250 0.000000 
#    z 0.013330 0.000000 1.593460 
# 
# From -- ./inp_files/320135.got.cif
#   From: 2010.05.17/outbox.cif.g08.bks.cpg/sg12_161_cif.got.tgz:320135.got - 2010.06.03 13:09:07.
