data_PCOD9184868
_publ_section_title
;
Structure prediction by ZEFSAII (Michael W. Deem and Ramdas Pophale) SiO2 
 PCOD9184868
Probable space group: C 2/M
;
_chemical_formula_sum "Si O2"
_cell_formula_units_Z 64
_cell_length_a 24.638822
_cell_length_b 7.377985
_cell_length_c 15.945920
_cell_angle_alpha 90.000000
_cell_angle_beta 69.981439
_cell_angle_gamma 90.000000
_cell_volume 2723.590888
_symmetry_space_group_name_H-M "C 2/M"
_symmetry_group_IT_number 12
_symmetry_cell_setting 'monoclinic'
loop_
_space_group_symop_operation_xyz
x,y,z
-x,y,-z
-x,-y,-z
x,-y,z
1/2+x,1/2+y,z
1/2-x,1/2+y,-z
1/2-x,1/2-y,-z
1/2+x,1/2-y,z
loop_
_atom_site_type_symbol
_atom_site_label
_atom_site_fract_x
_atom_site_fract_y
_atom_site_fract_z
Si Si1 0.778415 0.784005 0.894536
Si Si2 0.484329 0.280079 0.604160
Si Si3 0.784196 0.783797 0.569133
Si Si4 0.393056 0.707312 0.430427
Si Si5 0.951770 0.282783 0.956585
Si Si6 0.171912 0.719456 0.703402
Si Si7 0.409097 0.717078 0.797431
Si Si8 0.659815 0.779268 0.889273
O O1 0.843654 0.713186 0.849564
O O2 0.725553 0.716255 0.865503
O O3 0.782555 0.000000 0.879491
O O4 0.750000 0.750000 0.000000
O O5 0.500000 0.224988 0.500000
O O6 0.477131 0.500000 0.604795
O O7 0.543794 0.219460 0.616437
O O8 0.434139 0.217441 0.694273
O O9 0.750000 0.750000 0.500000
O O10 0.848424 0.709304 0.521264
O O11 0.738956 0.720800 0.662183
O O12 0.790356 0.000000 0.576061
O O13 0.402102 0.500000 0.453283
O O14 0.360560 0.708794 0.359894
O O15 0.952803 0.500000 0.963613
O O16 0.950828 0.248450 0.856552
O O17 0.888557 0.215799 0.020724
O O18 0.000000 0.218770 0.000000
O O19 0.171871 0.500000 0.697346
O O20 0.141915 0.770550 0.805042
O O21 0.405338 0.500000 0.793135
O O22 0.661218 0.000000 0.894308
#
# Coordination Sequence:
#
# PCOD9184868 Si02
#       8
#     8   8   8   8   8   8   8   8
#     4  10  19  34  55  77 104 137 177 224 269 319
#     4   9  19  35  53  76 106 138 177 222 267 319
#     4   8  14  25  42  65  91 121 156 194 240 292
#     4   9  17  30  49  70  98 134 168 208 260 315
#     4  10  21  36  55  79 110 147 182 217 266 329
#     4   9  17  29  47  73 101 129 166 211 258 309
#     4  10  21  36  57  84 109 141 184 230 278 319
#     4   9  18  32  50  75 104 133 171 214 256 312
#
# _framework density 23.498387999999998
#
# number of rings (size 3 to 8) (size 9 to 14) (size 15 to 20)
#    0.000    2.750    1.250    0.000    1.750    1.250 
#    0.000    6.250    0.000    1.500    0.000    3.500 
#    0.000    0.000    0.000    0.000    0.000    0.000 
#
# Total GULP energy -178185.851981 kJ/mol
# GULP energy per Si atom -5568.307874 kJ/mol
# Density = 2.344490 g / cm^3
# Si number density = 23.498388 Si / 1000 Ang^3
#
#
#
# Elastic Constant Matrix: (Units=GPa)
#
#
# Indices 1 2 3 4 5 6 
#
# 1 117.5151 2.8417 57.8788 0.0000 -16.7407 0.0000
# 2 2.8417 84.9669 -3.3445 0.0000 -4.4310 0.0000
# 3 57.8788 -3.3445 156.2017 0.0000 -16.4226 0.0000
# 4 0.0000 0.0000 0.0000 12.8747 0.0000 -0.8212
# 5 -16.7407 -4.4310 -16.4226 0.0000 31.3154 0.0000
# 6 0.0000 0.0000 0.0000 -0.8212 0.0000 -4.8308
#
#
#
# Elastic Compliance Matrix: (Units=1/GPa)
#
#
# Indices 1 2 3 4 5 6 
#
# 1 0.010850 -0.000304 -0.003621 0.000000 0.003858 0.000000
# 2 -0.000304 0.011896 0.000558 0.000000 0.001813 0.000000
# 3 -0.003621 0.000558 0.008002 0.000000 0.002339 0.000000
# 4 0.000000 0.000000 0.000000 0.076838 0.000000 -0.013062
# 5 0.003858 0.001813 0.002339 0.000000 0.035479 0.000000
# 6 0.000000 0.000000 0.000000 -0.013062 0.000000 -0.204783
#
#
# Mechanical properties :
#
#
# Convention : Reuss Voigt Hill
#
# Bulk Modulus (GPa) = 41.64417 52.60397 47.12407
# Shear Modulus (GPa) = -106.43071 27.95904 -39.23584
#
# Velocity S-wave (km/s) = -6.73729 3.45313 -4.09066
# Velocity P-wave (km/s) = 6.53918 6.19141 1.48782
#
# Compressibility (1/GPa) = 0.02401297
#
# Stress axis : x y z
#
# Youngs Moduli (GPa) = 92.16534 84.06193 124.97341
#
# Poissons Ratio (x) = 0.02557 0.45256
# Poissons Ratio (y) = 0.02804 -0.06975
# Poissons Ratio (z) = 0.33375 -0.04691
#
# Static dielectric constant tensor:
#      x y z
#    x 1.948500 0.000000 0.002180 
#    y 0.000000 1.927460 0.000000 
#    z 0.002180 0.000000 1.921430 
# 
# From -- ./inp_files/239629.got.cif
#   From: 2010.05.17/outbox.cif.g08.bks.cpg/sg12_120_cif.got.tgz:239629.got - 2010.06.03 13:09:07.
