data_PCOD9184293
_publ_section_title
;
Structure prediction by ZEFSAII (Michael W. Deem and Ramdas Pophale) SiO2 
 PCOD9184293
Probable space group: C 2/M
;
_chemical_formula_sum "Si O2"
_cell_formula_units_Z 56
_cell_length_a 15.524302
_cell_length_b 7.630530
_cell_length_c 22.785256
_cell_angle_alpha 90.000000
_cell_angle_beta 66.519846
_cell_angle_gamma 90.000000
_cell_volume 2475.619320
_symmetry_space_group_name_H-M "C 2/M"
_symmetry_group_IT_number 12
_symmetry_cell_setting 'monoclinic'
loop_
_space_group_symop_operation_xyz
x,y,z
-x,y,-z
-x,-y,-z
x,-y,z
1/2+x,1/2+y,z
1/2-x,1/2+y,-z
1/2-x,1/2-y,-z
1/2+x,1/2-y,z
loop_
_atom_site_type_symbol
_atom_site_label
_atom_site_fract_x
_atom_site_fract_y
_atom_site_fract_z
Si Si1 0.317155 0.790713 0.926937
Si Si2 0.363029 0.202168 0.700321
Si Si3 0.716038 0.201353 0.835551
Si Si4 0.487676 0.785549 0.071224
Si Si5 0.736543 0.296054 0.388899
Si Si6 0.087332 0.787166 0.518915
Si Si7 0.936692 0.699744 0.340205
O O1 0.272193 0.708686 0.881463
O O2 0.421946 0.731808 0.915677
O O3 0.319640 0.000000 0.917329
O O4 0.250000 0.750000 0.000000
O O5 0.279820 0.209900 0.769502
O O6 0.330312 0.289235 0.649155
O O7 0.460511 0.278242 0.699330
O O8 0.382382 0.000000 0.680257
O O9 0.611959 0.273809 0.875964
O O10 0.705246 0.000000 0.819516
O O11 0.485906 0.000000 0.070889
O O12 0.500000 0.730429 0.000000
O O13 0.753911 0.500000 0.398028
O O14 0.680568 0.223232 0.459803
O O15 0.838405 0.217186 0.346426
O O16 0.073454 0.706198 0.586369
O O17 0.000000 0.747616 0.500000
O O18 0.090793 0.000000 0.524401
O O19 0.939634 0.500000 0.316001
#
# Coordination Sequence:
#
# PCOD9184293 Si02
#       7
#     8   8   8   8   8   8   8
#     4  11  21  37  62  91 121 151 188 234 283 340
#     4  11  24  41  58  83 117 154 196 242 287 342
#     4  11  23  41  63  86 116 156 196 237 289 346
#     4   9  18  36  61  87 116 151 188 225 280 348
#     4  10  21  39  60  84 115 154 196 238 291 350
#     4  10  19  33  58  89 117 146 190 248 296 336
#     4  10  22  38  59  84 116 156 196 236 290 355
#
# _framework density 22.620602000000002
#
# number of rings (size 3 to 8) (size 9 to 14) (size 15 to 20)
#    0.000    1.714    2.857    1.714    0.000    3.143 
#    0.000    9.286    0.000    0.000    0.000    0.000 
#    0.000    0.000    0.000    0.000    0.000    0.000 
#
# Total GULP energy -156471.498971 kJ/mol
# GULP energy per Si atom -5588.267820 kJ/mol
# Density = 2.256912 g / cm^3
# Si number density = 22.620602 Si / 1000 Ang^3
#
#
#
# Elastic Constant Matrix: (Units=GPa)
#
#
# Indices 1 2 3 4 5 6 
#
# 1 130.9012 2.0898 21.5452 0.0000 -46.8636 0.0000
# 2 2.0898 52.7144 -8.6883 0.0000 -7.3850 0.0000
# 3 21.5452 -8.6883 87.0079 0.0000 -35.2087 0.0000
# 4 0.0000 0.0000 0.0000 21.7674 0.0000 4.2632
# 5 -46.8636 -7.3850 -35.2087 0.0000 44.0730 0.0000
# 6 0.0000 0.0000 0.0000 4.2632 0.0000 16.5627
#
#
#
# Elastic Compliance Matrix: (Units=1/GPa)
#
#
# Indices 1 2 3 4 5 6 
#
# 1 0.013366 0.002709 0.004279 0.000000 0.018085 0.000000
# 2 0.002709 0.021442 0.006044 0.000000 0.011301 0.000000
# 3 0.004279 0.006044 0.019636 0.000000 0.021249 0.000000
# 4 0.000000 0.000000 0.000000 0.048379 0.000000 -0.012453
# 5 0.018085 0.011301 0.021249 0.000000 0.060789 0.000000
# 6 0.000000 0.000000 0.000000 -0.012453 0.000000 0.063582
#
#
# Mechanical properties :
#
#
# Convention : Reuss Voigt Hill
#
# Bulk Modulus (GPa) = 12.42124 33.39077 22.90601
# Shear Modulus (GPa) = 21.93305 33.52576 27.72940
#
# Velocity S-wave (km/s) = 3.11723 3.85397 3.50501
# Velocity P-wave (km/s) = 4.29641 5.88195 5.15056
#
# Compressibility (1/GPa) = 0.08050728
#
# Stress axis : x y z
#
# Youngs Moduli (GPa) = 74.81457 46.63721 50.92739
#
# Poissons Ratio (x) = -0.12634 -0.21792
# Poissons Ratio (y) = -0.20267 -0.30778
# Poissons Ratio (z) = -0.32013 -0.28186
#
# Static dielectric constant tensor:
#      x y z
#    x 1.901090 0.000000 -0.039520 
#    y 0.000000 1.848440 0.000000 
#    z -0.039520 0.000000 1.799150 
# 
# From -- ./inp_files/338585.got.cif
#   From: 2010.05.17/outbox.cif.g08.bks.cpg/sg12_170_cif.got.tgz:338585.got - 2010.06.03 13:09:07.
