data_PCOD9184600
_publ_section_title
;
Structure prediction by ZEFSAII (Michael W. Deem and Ramdas Pophale) SiO2 
 PCOD9184600
Probable space group: C 2/M
;
_chemical_formula_sum "Si O2"
_cell_formula_units_Z 64
_cell_length_a 24.613314
_cell_length_b 20.673832
_cell_length_c 11.082462
_cell_angle_alpha 90.000000
_cell_angle_beta 43.843733
_cell_angle_gamma 90.000000
_cell_volume 3906.327733
_symmetry_space_group_name_H-M "C 2/M"
_symmetry_group_IT_number 12
_symmetry_cell_setting 'monoclinic'
loop_
_space_group_symop_operation_xyz
x,y,z
-x,y,-z
-x,-y,-z
x,-y,z
1/2+x,1/2+y,z
1/2-x,1/2+y,-z
1/2-x,1/2-y,-z
1/2+x,1/2-y,z
loop_
_atom_site_type_symbol
_atom_site_label
_atom_site_fract_x
_atom_site_fract_y
_atom_site_fract_z
Si Si1 0.686070 0.571402 0.627273
Si Si2 0.325501 0.126567 0.555825
Si Si3 0.408126 0.835152 0.181039
Si Si4 0.210853 0.574105 0.770516
Si Si5 0.407520 0.075184 0.660986
Si Si6 0.408048 0.689398 0.121355
Si Si7 0.704537 0.702431 0.904976
Si Si8 0.213967 0.653240 0.994200
O O1 0.651900 0.500000 0.701874
O O2 0.760859 0.581675 0.595011
O O3 0.720368 0.575722 0.438195
O O4 0.630206 0.630917 0.744557
O O5 0.385646 0.147521 0.354708
O O6 0.368577 0.089665 0.594113
O O7 0.275082 0.185038 0.697839
O O8 0.358726 0.882056 0.172884
O O9 0.381491 0.761107 0.203632
O O10 0.500000 0.840075 0.000000
O O11 0.184747 0.500000 0.825834
O O12 0.238886 0.603845 0.850969
O O13 0.500000 0.086284 0.500000
O O14 0.365522 0.123686 0.821394
O O15 0.394548 0.000000 0.715988
O O16 0.375265 0.684067 0.036930
O O17 0.500000 0.687203 0.000000
O O18 0.725715 0.662271 0.991539
O O19 0.702883 0.776817 0.949732
#
# Coordination Sequence:
#
# PCOD9184600 Si02
#       8
#     8   8   8   8   8   8   8   8
#     4   9  19  34  53  77 103 133 175 222 267 317
#     4   9  19  33  52  74 101 140 176 214 263 308
#     4  10  21  33  51  79 112 142 174 216 260 315
#     4  10  20  33  53  78 106 141 178 216 257 308
#     4  10  21  33  48  71 104 144 177 213 259 310
#     4  10  20  34  55  81 106 135 172 220 274 319
#     4   9  19  34  55  76 100 136 176 222 259 308
#     4  10  19  34  53  74 103 137 182 216 254 306
#
# _framework density 16.383673999999999
#
# number of rings (size 3 to 8) (size 9 to 14) (size 15 to 20)
#    0.000    2.375    1.250    0.750    3.500    2.500 
#    0.000    0.625    0.000    0.000    0.000    1.750 
#    0.000    0.000    0.000    0.000    0.000    0.000 
#
# Total GULP energy -178277.171760 kJ/mol
# GULP energy per Si atom -5571.161617 kJ/mol
# Density = 1.634638 g / cm^3
# Si number density = 16.383674 Si / 1000 Ang^3
#
#
#
# Elastic Constant Matrix: (Units=GPa)
#
#
# Indices 1 2 3 4 5 6 
#
# 1 78.6057 35.3493 42.8527 0.0000 3.7166 0.0000
# 2 35.3493 133.1904 50.3938 0.0000 0.5264 0.0000
# 3 42.8527 50.3938 59.7346 0.0000 11.6453 0.0000
# 4 0.0000 0.0000 0.0000 22.9386 0.0000 -1.4566
# 5 3.7166 0.5264 11.6453 0.0000 25.1742 0.0000
# 6 0.0000 0.0000 0.0000 -1.4566 0.0000 14.6162
#
#
#
# Elastic Compliance Matrix: (Units=1/GPa)
#
#
# Indices 1 2 3 4 5 6 
#
# 1 0.021348 0.000660 -0.016766 0.000000 0.004590 0.000000
# 2 0.000660 0.011528 -0.011137 0.000000 0.004813 0.000000
# 3 -0.016766 -0.011137 0.041366 0.000000 -0.016427 0.000000
# 4 0.000000 0.000000 0.000000 0.043872 0.000000 0.004372
# 5 0.004590 0.004813 -0.016427 0.000000 0.046544 0.000000
# 6 0.000000 0.000000 0.000000 0.004372 0.000000 0.068853
#
#
# Mechanical properties :
#
#
# Convention : Reuss Voigt Hill
#
# Bulk Modulus (GPa) = 50.61832 58.74692 54.68262
# Shear Modulus (GPa) = 16.97311 22.07479 19.52395
#
# Velocity S-wave (km/s) = 3.22215 3.67463 3.45580
# Velocity P-wave (km/s) = 6.69370 7.34430 7.02653
#
# Compressibility (1/GPa) = 0.01975569
#
# Stress axis : x y z
#
# Youngs Moduli (GPa) = 46.84187 86.74845 24.17423
#
# Poissons Ratio (x) = -0.05722 0.40531
# Poissons Ratio (y) = -0.03090 0.26922
# Poissons Ratio (z) = 0.78537 0.96608
#
# Static dielectric constant tensor:
#      x y z
#    x 1.551930 0.000000 0.012300 
#    y 0.000000 1.557670 0.000000 
#    z 0.012300 0.000000 1.540850 
# 
# From -- ./inp_files/184504.got.cif
#   From: 2010.05.17/outbox.cif.g08.bks.cpg/sg12_93_cif.got.tgz:184504.got - 2010.06.03 13:09:07.
