data_PCOD9184765
_publ_section_title
;
Structure prediction by ZEFSAII (Michael W. Deem and Ramdas Pophale) SiO2 
 PCOD9184765
Probable space group: C 2/M
;
_chemical_formula_sum "Si O2"
_cell_formula_units_Z 64
_cell_length_a 19.433359
_cell_length_b 11.466150
_cell_length_c 15.033163
_cell_angle_alpha 90.000000
_cell_angle_beta 79.860166
_cell_angle_gamma 90.000000
_cell_volume 3297.456620
_symmetry_space_group_name_H-M "C 2/M"
_symmetry_group_IT_number 12
_symmetry_cell_setting 'monoclinic'
loop_
_space_group_symop_operation_xyz
x,y,z
-x,y,-z
-x,-y,-z
x,-y,z
1/2+x,1/2+y,z
1/2-x,1/2+y,-z
1/2-x,1/2-y,-z
1/2+x,1/2-y,z
loop_
_atom_site_type_symbol
_atom_site_label
_atom_site_fract_x
_atom_site_fract_y
_atom_site_fract_z
Si Si1 0.546565 0.210852 0.726246
Si Si2 0.102520 0.631252 0.279960
Si Si3 0.160110 0.136550 0.366710
Si Si4 0.064201 0.863977 0.549225
Si Si5 0.680426 0.693965 0.918059
Si Si6 0.968315 0.869637 0.101711
Si Si7 0.804161 0.369737 0.243109
Si Si8 0.668138 0.874422 0.069655
O O1 0.481154 0.134916 0.709929
O O2 0.564936 0.294983 0.640160
O O3 0.520851 0.284066 0.818228
O O4 0.618018 0.146944 0.736882
O O5 0.122981 0.500000 0.310128
O O6 0.126085 0.750743 0.324753
O O7 0.134667 0.640067 0.173877
O O8 0.133712 0.146859 0.473836
O O9 0.242716 0.145361 0.329304
O O10 0.139867 0.000000 0.344310
O O11 0.000000 0.825511 0.500000
O O12 0.052353 0.000000 0.571658
O O13 0.615178 0.625520 0.893920
O O14 0.706381 0.778878 0.833720
O O15 0.748046 0.627203 0.936869
O O16 0.651941 0.771924 0.005583
O O17 0.995639 0.000000 0.114131
O O18 0.000000 0.830857 0.000000
O O19 0.797116 0.500000 0.208185
O O20 0.645448 0.000000 0.038540
#
# Coordination Sequence:
#
# PCOD9184765 Si02
#       8
#     8   8   8   8   8   8   8   8
#     4  11  22  37  60  87 118 158 196 241 301 364
#     4  11  22  38  58  88 123 157 195 245 301 355
#     4  10  21  40  63  86 115 154 199 248 296 353
#     4  10  20  37  62  89 118 151 199 252 299 354
#     4  10  19  34  54  79 111 152 198 241 297 347
#     4  10  21  36  54  81 118 154 198 248 294 347
#     4  10  21  38  58  83 116 154 196 242 295 357
#     4  10  20  33  53  81 115 151 197 246 295 350
#
# _framework density 19.408898000000001
#
# number of rings (size 3 to 8) (size 9 to 14) (size 15 to 20)
#    0.000    1.750    2.500    2.250    0.000    1.000 
#    0.000    3.125    0.000    6.000    0.000    0.000 
#    0.000    0.000    0.000    0.000    0.000    0.000 
#
# Total GULP energy -178376.989119 kJ/mol
# GULP energy per Si atom -5574.280910 kJ/mol
# Density = 1.936472 g / cm^3
# Si number density = 19.408898 Si / 1000 Ang^3
#
#
#
# Elastic Constant Matrix: (Units=GPa)
#
#
# Indices 1 2 3 4 5 6 
#
# 1 47.2274 18.6117 -1.8614 0.0000 -12.4821 0.0000
# 2 18.6117 108.5803 44.6219 0.0000 -4.2629 0.0000
# 3 -1.8614 44.6219 91.6438 0.0000 -20.1649 0.0000
# 4 0.0000 0.0000 0.0000 -47.2686 0.0000 -24.0407
# 5 -12.4821 -4.2629 -20.1649 0.0000 25.7362 0.0000
# 6 0.0000 0.0000 0.0000 -24.0407 0.0000 -18.3906
#
#
#
# Elastic Compliance Matrix: (Units=1/GPa)
#
#
# Indices 1 2 3 4 5 6 
#
# 1 0.030069 -0.008056 0.009000 0.000000 0.020301 0.000000
# 2 -0.008056 0.013867 -0.008784 0.000000 -0.008493 0.000000
# 3 0.009000 -0.008784 0.019348 0.000000 0.018069 0.000000
# 4 0.000000 0.000000 0.000000 -0.063123 0.000000 0.082517
# 5 0.020301 -0.008493 0.018069 0.000000 0.061453 0.000000
# 6 0.000000 0.000000 0.000000 0.082517 0.000000 -0.162244
#
#
# Mechanical properties :
#
#
# Convention : Reuss Voigt Hill
#
# Bulk Modulus (GPa) = 21.00676 41.13286 31.06981
# Shear Modulus (GPa) = -72.37727 4.42069 -33.97829
#
# Velocity S-wave (km/s) = -6.11324 1.51083 -4.18862
# Velocity P-wave (km/s) = 6.24357 4.92770 2.71108
#
# Compressibility (1/GPa) = 0.04760372
#
# Stress axis : x y z
#
# Youngs Moduli (GPa) = 33.25689 72.11282 51.68584
#
# Poissons Ratio (x) = 0.58092 -0.46517
# Poissons Ratio (y) = 0.26791 0.45403
# Poissons Ratio (z) = -0.29931 0.63346
#
# Static dielectric constant tensor:
#      x y z
#    x 1.678650 0.000000 -0.019410 
#    y 0.000000 1.702250 0.000000 
#    z -0.019410 0.000000 1.644810 
# 
# From -- ./inp_files/232432.got.cif
#   From: 2010.05.17/outbox.cif.g08.bks.cpg/sg12_117_cif.got.tgz:232432.got - 2010.06.03 13:09:07.
