data_PCOD9184744
_publ_section_title
;
Structure prediction by ZEFSAII (Michael W. Deem and Ramdas Pophale) SiO2 
 PCOD9184744
Probable space group: C 2/M
;
_chemical_formula_sum "Si O2"
_cell_formula_units_Z 56
_cell_length_a 26.018612
_cell_length_b 14.736847
_cell_length_c 10.549257
_cell_angle_alpha 90.000000
_cell_angle_beta 43.652471
_cell_angle_gamma 90.000000
_cell_volume 2792.141353
_symmetry_space_group_name_H-M "C 2/M"
_symmetry_group_IT_number 12
_symmetry_cell_setting 'monoclinic'
loop_
_space_group_symop_operation_xyz
x,y,z
-x,y,-z
-x,-y,-z
x,-y,z
1/2+x,1/2+y,z
1/2-x,1/2+y,-z
1/2-x,1/2-y,-z
1/2+x,1/2-y,z
loop_
_atom_site_type_symbol
_atom_site_label
_atom_site_fract_x
_atom_site_fract_y
_atom_site_fract_z
Si Si1 0.437069 0.827320 0.716978
Si Si2 0.853402 0.784896 0.677990
Si Si3 0.695260 0.100878 0.333156
Si Si4 0.275740 0.098087 0.004485
Si Si5 0.838623 0.895038 0.237807
Si Si6 0.585663 0.398098 0.645187
Si Si7 0.964152 0.245731 0.938416
O O1 0.500000 0.854822 0.500000
O O2 0.399309 0.737481 0.722243
O O3 0.462328 0.806046 0.814540
O O4 0.364921 0.891961 0.854201
O O5 0.853710 0.691258 0.596129
O O6 0.770243 0.820086 0.853201
O O7 0.891815 0.862817 0.530880
O O8 0.755042 0.112517 0.336657
O O9 0.659454 0.000000 0.408215
O O10 0.738626 0.099501 0.120858
O O11 0.252595 0.000000 0.097673
O O12 0.846883 0.890689 0.374861
O O13 0.863588 0.000000 0.158700
O O14 0.887288 0.810164 0.098973
O O15 0.559335 0.500000 0.689665
O O16 0.521931 0.334667 0.811127
O O17 0.000000 0.292670 0.000000
#
# Coordination Sequence:
#
# PCOD9184744 Si02
#       7
#     8   8   8   8   8   8   8
#     4  11  21  37  58  84 112 145 192 242 281 327
#     4  11  20  35  55  82 116 145 181 241 286 335
#     4   9  18  33  53  78 102 138 187 225 271 331
#     4  10  21  36  58  82 112 153 188 227 284 341
#     4   9  17  31  52  76 108 146 185 225 273 341
#     4  10  20  32  49  78 114 150 184 228 283 339
#     4  10  19  34  54  78 109 148 188 227 281 343
#
# _framework density 20.056291999999999
#
# number of rings (size 3 to 8) (size 9 to 14) (size 15 to 20)
#    0.000    2.000    1.429    4.286    0.000    2.571 
#    0.000    2.857    0.000    0.429    0.000    0.000 
#    0.000    0.000    0.000    0.000    0.000    0.000 
#
# Total GULP energy -155912.781689 kJ/mol
# GULP energy per Si atom -5568.313632 kJ/mol
# Density = 2.001064 g / cm^3
# Si number density = 20.056292 Si / 1000 Ang^3
#
#
#
# Elastic Constant Matrix: (Units=GPa)
#
#
# Indices 1 2 3 4 5 6 
#
# 1 88.0725 6.7301 0.5925 0.0000 12.7510 0.0000
# 2 6.7301 14.6312 -6.2125 0.0000 3.0979 0.0000
# 3 0.5925 -6.2125 35.2395 0.0000 -1.1308 0.0000
# 4 0.0000 0.0000 0.0000 10.9552 0.0000 4.7540
# 5 12.7510 3.0979 -1.1308 0.0000 22.3006 0.0000
# 6 0.0000 0.0000 0.0000 4.7540 0.0000 6.6174
#
#
#
# Elastic Compliance Matrix: (Units=1/GPa)
#
#
# Indices 1 2 3 4 5 6 
#
# 1 0.012706 -0.004994 -0.001307 0.000000 -0.006637 0.000000
# 2 -0.004994 0.077959 0.013594 0.000000 -0.007285 0.000000
# 3 -0.001307 0.013594 0.030809 0.000000 0.000421 0.000000
# 4 0.000000 0.000000 0.000000 0.132629 0.000000 -0.095282
# 5 -0.006637 -0.007285 0.000421 0.000000 0.049670 0.000000
# 6 0.000000 0.000000 0.000000 -0.095282 0.000000 0.219568
#
#
# Mechanical properties :
#
#
# Convention : Reuss Voigt Hill
#
# Bulk Modulus (GPa) = 7.34972 15.57371 11.46171
# Shear Modulus (GPa) = 9.02352 17.09685 13.06018
#
# Velocity S-wave (km/s) = 2.12341 2.92283 2.55458
# Velocity P-wave (km/s) = 3.11196 4.37863 3.79847
#
# Compressibility (1/GPa) = 0.13605957
#
# Stress axis : x y z
#
# Youngs Moduli (GPa) = 78.70521 12.82728 32.45777
#
# Poissons Ratio (x) = 0.06406 0.04242
# Poissons Ratio (y) = 0.39305 -0.44123
# Poissons Ratio (z) = 0.10287 -0.17437
#
# Static dielectric constant tensor:
#      x y z
#    x 1.747240 0.000000 0.013590 
#    y 0.000000 1.718310 0.000000 
#    z 0.013590 0.000000 1.758360 
# 
# From -- ./inp_files/183447.got.cif
#   From: 2010.05.17/outbox.cif.g08.bks.cpg/sg12_92_cif.got.tgz:183447.got - 2010.06.03 13:09:07.
