data_PCOD9184147
_publ_section_title
;
Structure prediction by ZEFSAII (Michael W. Deem and Ramdas Pophale) SiO2 
 PCOD9184147
Probable space group: C 2/M
;
_chemical_formula_sum "Si O2"
_cell_formula_units_Z 64
_cell_length_a 26.203441
_cell_length_b 27.699220
_cell_length_c 9.658103
_cell_angle_alpha 90.000000
_cell_angle_beta 27.061143
_cell_angle_gamma 90.000000
_cell_volume 3189.134594
_symmetry_space_group_name_H-M "C 2/M"
_symmetry_group_IT_number 12
_symmetry_cell_setting 'monoclinic'
loop_
_space_group_symop_operation_xyz
x,y,z
-x,y,-z
-x,-y,-z
x,-y,z
1/2+x,1/2+y,z
1/2-x,1/2+y,-z
1/2-x,1/2-y,-z
1/2+x,1/2-y,z
loop_
_atom_site_type_symbol
_atom_site_label
_atom_site_fract_x
_atom_site_fract_y
_atom_site_fract_z
Si Si1 0.229658 0.612079 0.607543
Si Si2 0.632483 0.623885 0.172545
Si Si3 0.712349 0.341119 0.271308
Si Si4 0.741823 0.943407 0.293034
Si Si5 0.434630 0.221582 0.799880
Si Si6 0.996319 0.444239 0.842277
Si Si7 0.927838 0.249786 0.309174
Si Si8 0.212135 0.193963 0.738922
O O1 0.295852 0.617574 0.591187
O O2 0.259631 0.577825 0.404820
O O3 0.256846 0.664639 0.474130
O O4 0.103808 0.593148 0.949284
O O5 0.500000 0.632989 0.500000
O O6 0.693860 0.635917 0.166775
O O7 0.659347 0.571085 0.048749
O O8 0.688076 0.656463 0.918996
O O9 0.618136 0.299375 0.510743
O O10 0.833057 0.314389 0.006695
O O11 0.623570 0.926863 0.507653
O O12 0.729719 0.000000 0.338352
O O13 0.500000 0.233769 0.500000
O O14 0.525656 0.209186 0.696860
O O15 0.388297 0.268139 0.997057
O O16 0.976949 0.500000 0.838484
O O17 0.000000 0.447024 0.000000
O O18 0.818355 0.274115 0.511446
O O19 0.000000 0.238353 0.000000
#
# Coordination Sequence:
#
# PCOD9184147 Si02
#       8
#     8   8   8   8   8   8   8   8
#     4  10  19  33  57  86 118 145 183 236 287 335
#     4  11  23  40  61  80 110 152 193 236 286 344
#     4  11  24  37  54  87 117 147 194 244 288 330
#     4   9  20  40  64  88 114 148 188 226 279 355
#     4  11  22  37  56  77 113 157 196 239 281 326
#     4   8  15  31  57  85 112 142 173 219 285 346
#     4  11  22  36  55  78 115 156 193 236 285 332
#     4  10  21  36  54  80 108 151 200 231 272 335
#
# _framework density 20.068141000000001
#
# number of rings (size 3 to 8) (size 9 to 14) (size 15 to 20)
#    0.000    1.875    0.000    5.250    0.000   12.750 
#    0.000    1.250    0.000    2.250    0.000    0.000 
#    0.000    0.000    0.000    0.000    0.000    0.000 
#
# Total GULP energy -178150.048200 kJ/mol
# GULP energy per Si atom -5567.189006 kJ/mol
# Density = 2.002246 g / cm^3
# Si number density = 20.068141 Si / 1000 Ang^3
#
#
#
# Elastic Constant Matrix: (Units=GPa)
#
#
# Indices 1 2 3 4 5 6 
#
# 1 90.7359 18.5499 18.2362 0.0011 17.1388 -0.0003
# 2 18.5499 46.4933 26.3170 -0.0004 -3.2925 0.0001
# 3 18.2362 26.3170 78.7276 -0.0015 7.9237 0.0004
# 4 0.0011 -0.0004 -0.0015 126.8011 0.0000 -34.1607
# 5 17.1388 -3.2925 7.9237 0.0000 16.9533 0.0000
# 6 -0.0003 0.0001 0.0004 -34.1607 0.0000 25.6824
#
#
#
# Elastic Compliance Matrix: (Units=1/GPa)
#
#
# Indices 1 2 3 4 5 6 
#
# 1 0.015921 -0.008107 0.000840 0.000000 -0.018062 0.000000
# 2 -0.008107 0.032288 -0.010883 0.000000 0.019553 0.000000
# 3 0.000840 -0.010883 0.017255 0.000000 -0.011028 0.000000
# 4 0.000000 0.000000 0.000000 0.012291 0.000000 0.016348
# 5 -0.018062 0.019553 -0.011028 0.000000 0.086197 0.000000
# 6 0.000000 0.000000 0.000000 0.016348 0.000000 0.060682
#
#
# Mechanical properties :
#
#
# Convention : Reuss Voigt Hill
#
# Bulk Modulus (GPa) = 34.28852 38.01811 36.15331
# Shear Modulus (GPa) = 18.47362 44.07760 31.27561
#
# Velocity S-wave (km/s) = 3.03734 4.69166 3.95203
# Velocity P-wave (km/s) = 5.42436 6.95230 6.23531
#
# Compressibility (1/GPa) = 0.02916428
#
# Stress axis : x y z
#
# Youngs Moduli (GPa) = 62.80902 30.97131 57.95281
#
# Poissons Ratio (x) = 0.25108 -0.04868
# Poissons Ratio (y) = 0.50918 0.63072
# Poissons Ratio (z) = -0.05275 0.33707
#
# Static dielectric constant tensor:
#      x y z
#    x 1.777350 0.000000 -0.158300 
#    y 0.000000 1.805400 0.000000 
#    z -0.158300 0.000000 1.996800 
# 
# From -- ./inp_files/100217.got.cif
#   From: 2010.05.17/outbox.cif.g08.bks.cpg/sg12_51_cif.got.tgz:100217.got - 2010.06.03 13:09:07.
