data_PCOD9184748
_publ_section_title
;
Structure prediction by ZEFSAII (Michael W. Deem and Ramdas Pophale) SiO2 
 PCOD9184748
Probable space group: C 2/M
;
_chemical_formula_sum "Si O2"
_cell_formula_units_Z 56
_cell_length_a 29.420310
_cell_length_b 8.818283
_cell_length_c 14.630286
_cell_angle_alpha 90.000000
_cell_angle_beta 120.152492
_cell_angle_gamma 90.000000
_cell_volume 3282.051036
_symmetry_space_group_name_H-M "C 2/M"
_symmetry_group_IT_number 12
_symmetry_cell_setting 'monoclinic'
loop_
_space_group_symop_operation_xyz
x,y,z
-x,y,-z
-x,-y,-z
x,-y,z
1/2+x,1/2+y,z
1/2-x,1/2+y,-z
1/2-x,1/2-y,-z
1/2+x,1/2-y,z
loop_
_atom_site_type_symbol
_atom_site_label
_atom_site_fract_x
_atom_site_fract_y
_atom_site_fract_z
Si Si1 0.058293 0.181004 0.522646
Si Si2 0.254940 0.179542 0.903061
Si Si3 0.415786 0.826852 0.152878
Si Si4 0.860866 0.821172 0.933728
Si Si5 0.949232 0.815817 0.889365
Si Si6 0.848646 0.325349 0.266604
Si Si7 0.475574 0.318715 0.709617
O O1 0.105883 0.262033 0.622013
O O2 0.059593 0.208696 0.415044
O O3 0.000000 0.226754 0.500000
O O4 0.062456 0.000000 0.543465
O O5 0.307501 0.236860 0.906083
O O6 0.204499 0.229754 0.793210
O O7 0.256802 0.000000 0.915471
O O8 0.250000 0.250000 0.000000
O O9 0.373035 0.821026 0.189404
O O10 0.470946 0.773781 0.248797
O O11 0.418422 0.000000 0.121066
O O12 0.400003 0.712004 0.057510
O O13 0.894528 0.767392 0.880429
O O14 0.850329 0.000000 0.915445
O O15 0.953885 0.775793 0.787551
O O16 0.949895 0.000000 0.895292
O O17 0.000000 0.763267 0.000000
O O18 0.836798 0.500000 0.277140
O O19 0.486975 0.500000 0.722306
#
# Coordination Sequence:
#
# PCOD9184748 Si02
#       7
#     8   8   8   8   8   8   8
#     4  10  20  33  54  82 110 144 183 225 273 321
#     4  12  24  38  57  81 111 143 181 223 273 327
#     4  11  21  31  49  79 113 145 181 223 269 322
#     4  11  21  35  56  79 110 147 184 223 268 324
#     4   9  17  31  54  82 108 144 185 221 269 324
#     4  11  23  37  54  78 112 148 183 222 270 325
#     4  10  19  34  54  78 112 148 186 224 267 327
#
# _framework density 17.062501000000001
#
# number of rings (size 3 to 8) (size 9 to 14) (size 15 to 20)
#    0.000    1.429    4.286    2.571    0.000    2.000 
#    0.000    2.143    0.000    0.857    0.000    0.000 
#    0.000    0.000    0.000    0.000    0.000    0.000 
#
# Total GULP energy -156267.394811 kJ/mol
# GULP energy per Si atom -5580.978386 kJ/mol
# Density = 1.702367 g / cm^3
# Si number density = 17.062501 Si / 1000 Ang^3
#
#
#
# Elastic Constant Matrix: (Units=GPa)
#
#
# Indices 1 2 3 4 5 6 
#
# 1 97.6924 38.2755 34.1419 0.0000 2.0365 0.0000
# 2 38.2755 66.3420 26.5014 0.0000 5.2357 0.0000
# 3 34.1419 26.5014 79.5974 0.0000 -0.0684 0.0000
# 4 0.0000 0.0000 0.0000 20.4661 0.0000 5.9091
# 5 2.0365 5.2357 -0.0684 0.0000 27.9504 0.0000
# 6 0.0000 0.0000 0.0000 5.9091 0.0000 21.7476
#
#
#
# Elastic Compliance Matrix: (Units=1/GPa)
#
#
# Indices 1 2 3 4 5 6 
#
# 1 0.014194 -0.006659 -0.003871 0.000000 0.000204 0.000000
# 2 -0.006659 0.020814 -0.004077 0.000000 -0.003424 0.000000
# 3 -0.003871 -0.004077 0.015582 0.000000 0.001084 0.000000
# 4 0.000000 0.000000 0.000000 0.053021 0.000000 -0.014406
# 5 0.000204 -0.003424 0.001084 0.000000 0.036407 0.000000
# 6 0.000000 0.000000 0.000000 -0.014406 0.000000 0.049896
#
#
# Mechanical properties :
#
#
# Convention : Reuss Voigt Hill
#
# Bulk Modulus (GPa) = 46.77994 49.05216 47.91605
# Shear Modulus (GPa) = 22.09934 23.68036 22.88985
#
# Velocity S-wave (km/s) = 3.60279 3.72944 3.66666
# Velocity P-wave (km/s) = 6.69202 6.88156 6.78745
#
# Compressibility (1/GPa) = 0.02137669
#
# Stress axis : x y z
#
# Youngs Moduli (GPa) = 70.45405 48.04525 64.17729
#
# Poissons Ratio (x) = 0.31992 0.24843
# Poissons Ratio (y) = 0.46913 0.26163
# Poissons Ratio (z) = 0.27273 0.19586
#
# Static dielectric constant tensor:
#      x y z
#    x 1.582420 0.000000 -0.011490 
#    y 0.000000 1.583770 0.000000 
#    z -0.011490 0.000000 1.569600 
# 
# From -- ./inp_files/244303.got.cif
#   From: 2010.05.17/outbox.cif.g08.bks.cpg/sg12_123_cif.got.tgz:244303.got - 2010.06.03 13:09:07.
