data_PCOD9184985
_publ_section_title
;
Structure prediction by ZEFSAII (Michael W. Deem and Ramdas Pophale) SiO2 
 PCOD9184985
Probable space group: C 2/M
;
_chemical_formula_sum "Si O2"
_cell_formula_units_Z 56
_cell_length_a 24.397039
_cell_length_b 15.329569
_cell_length_c 15.724674
_cell_angle_alpha 90.000000
_cell_angle_beta 28.084061
_cell_angle_gamma 90.000000
_cell_volume 2768.561879
_symmetry_space_group_name_H-M "C 2/M"
_symmetry_group_IT_number 12
_symmetry_cell_setting 'monoclinic'
loop_
_space_group_symop_operation_xyz
x,y,z
-x,y,-z
-x,-y,-z
x,-y,z
1/2+x,1/2+y,z
1/2-x,1/2+y,-z
1/2-x,1/2-y,-z
1/2+x,1/2-y,z
loop_
_atom_site_type_symbol
_atom_site_label
_atom_site_fract_x
_atom_site_fract_y
_atom_site_fract_z
Si Si1 0.011634 0.716647 0.080163
Si Si2 0.395504 0.599257 0.255644
Si Si3 0.432094 0.599005 0.404912
Si Si4 0.872742 0.401859 0.403424
Si Si5 0.282371 0.707442 0.740897
Si Si6 0.366000 0.293625 0.804814
Si Si7 0.947739 0.641915 0.486920
O O1 0.975991 0.818544 0.124291
O O2 0.932179 0.667202 0.258587
O O3 0.144628 0.706123 0.926059
O O4 0.000000 0.680717 0.000000
O O5 0.430351 0.500000 0.182396
O O6 0.392549 0.599337 0.361956
O O7 0.265087 0.616516 0.400737
O O8 0.432547 0.500000 0.435976
O O9 0.342578 0.656814 0.581315
O O10 0.561693 0.639456 0.236627
O O11 0.885400 0.500000 0.350675
O O12 0.926388 0.401178 0.424940
O O13 0.331220 0.666995 0.761376
O O14 0.329245 0.806883 0.673110
O O15 0.458122 0.217365 0.660391
O O16 0.250000 0.250000 0.000000
O O17 0.000000 0.596527 0.500000
#
# Coordination Sequence:
#
# PCOD9184985 Si02
#       7
#     8   8   8   8   8   8   8
#     4  12  23  37  62  89 118 157 197 238 293 354
#     4  10  22  40  61  85 115 151 195 246 293 344
#     4  10  20  36  58  84 116 153 193 239 295 354
#     4  11  23  39  59  85 119 155 194 243 293 348
#     4  10  20  34  56  84 114 150 192 243 292 344
#     4  10  19  34  55  80 114 152 194 242 289 342
#     4   9  19  37  59  81 110 152 196 237 289 345
#
# _framework density 20.227108000000001
#
# number of rings (size 3 to 8) (size 9 to 14) (size 15 to 20)
#    0.000    1.714    0.000    6.857    0.000    2.571 
#    0.000    2.857    0.000    1.714    0.000    0.000 
#    0.000    0.000    0.000    0.000    0.000    0.000 
#
# Total GULP energy -156250.858983 kJ/mol
# GULP energy per Si atom -5580.387821 kJ/mol
# Density = 2.018107 g / cm^3
# Si number density = 20.227108 Si / 1000 Ang^3
#
#
#
# Elastic Constant Matrix: (Units=GPa)
#
#
# Indices 1 2 3 4 5 6 
#
# 1 133.8129 24.9785 24.9855 0.0000 -3.6891 0.0000
# 2 24.9785 74.8296 15.8095 0.0000 -8.6593 0.0000
# 3 24.9855 15.8095 48.0371 0.0000 -12.0225 0.0000
# 4 0.0000 0.0000 0.0000 2.0035 0.0000 1.1666
# 5 -3.6891 -8.6593 -12.0225 0.0000 41.7211 0.0000
# 6 0.0000 0.0000 0.0000 1.1666 0.0000 -25.4778
#
#
#
# Elastic Compliance Matrix: (Units=1/GPa)
#
#
# Indices 1 2 3 4 5 6 
#
# 1 0.008589 -0.002123 -0.003976 0.000000 -0.000827 0.000000
# 2 -0.002123 0.015006 -0.003343 0.000000 0.001963 0.000000
# 3 -0.003976 -0.003343 0.025568 0.000000 0.006322 0.000000
# 4 0.000000 0.000000 0.000000 0.486157 0.000000 0.022260
# 5 -0.000827 0.001963 0.006322 0.000000 0.026125 0.000000
# 6 0.000000 0.000000 0.000000 0.022260 0.000000 -0.038231
#
#
# Mechanical properties :
#
#
# Convention : Reuss Voigt Hill
#
# Bulk Modulus (GPa) = 33.02571 43.13627 38.08099
# Shear Modulus (GPa) = 9.05486 16.37644 12.71565
#
# Velocity S-wave (km/s) = 2.11809 2.84848 2.51000
# Velocity P-wave (km/s) = 4.72701 5.67369 5.22185
#
# Compressibility (1/GPa) = 0.03027944
#
# Stress axis : x y z
#
# Youngs Moduli (GPa) = 116.42933 66.64094 39.11198
#
# Poissons Ratio (x) = 0.14146 0.15549
# Poissons Ratio (y) = 0.24715 0.13075
# Poissons Ratio (z) = 0.46288 0.22278
#
# Static dielectric constant tensor:
#      x y z
#    x 1.740670 0.000000 0.019540 
#    y 0.000000 1.723580 0.000000 
#    z 0.019540 0.000000 1.699530 
# 
# From -- ./inp_files/240905.got.cif
#   From: 2010.05.17/outbox.cif.g08.bks.cpg/sg12_121_cif.got.tgz:240905.got - 2010.06.03 13:09:07.
