data_PCOD9184968
_publ_section_title
;
Structure prediction by ZEFSAII (Michael W. Deem and Ramdas Pophale) SiO2 
 PCOD9184968
Probable space group: C 2/M
;
_chemical_formula_sum "Si O2"
_cell_formula_units_Z 64
_cell_length_a 17.704466
_cell_length_b 32.162555
_cell_length_c 8.523788
_cell_angle_alpha 90.000000
_cell_angle_beta 139.335036
_cell_angle_gamma 90.000000
_cell_volume 3162.788916
_symmetry_space_group_name_H-M "C 2/M"
_symmetry_group_IT_number 12
_symmetry_cell_setting 'monoclinic'
loop_
_space_group_symop_operation_xyz
x,y,z
-x,y,-z
-x,-y,-z
x,-y,z
1/2+x,1/2+y,z
1/2-x,1/2+y,-z
1/2-x,1/2-y,-z
1/2+x,1/2-y,z
loop_
_atom_site_type_symbol
_atom_site_label
_atom_site_fract_x
_atom_site_fract_y
_atom_site_fract_z
Si Si1 0.844512 0.773682 0.042419
Si Si2 0.227759 0.703918 0.538769
Si Si3 0.168878 0.875750 0.466307
Si Si4 0.980054 0.303983 0.283359
Si Si5 0.702629 0.879143 0.993114
Si Si6 0.184292 0.452267 0.387595
Si Si7 0.942574 0.453186 0.154752
Si Si8 0.564122 0.361086 0.757720
O O1 0.914054 0.811625 0.228023
O O2 0.929740 0.737393 0.126828
O O3 0.750000 0.750000 0.000000
O O4 0.783278 0.793037 0.797139
O O5 0.250000 0.750000 0.500000
O O6 0.287863 0.667849 0.534825
O O7 0.096728 0.688857 0.369501
O O8 0.228047 0.878725 0.732451
O O9 0.219480 0.916340 0.458510
O O10 0.029525 0.872517 0.258564
O O11 0.000000 0.294718 0.500000
O O12 0.884712 0.340261 0.135434
O O13 0.805047 0.877729 0.026936
O O14 0.623230 0.919279 0.848191
O O15 0.224772 0.500000 0.476974
O O16 0.077008 0.443275 0.334861
O O17 0.122673 0.452139 0.117935
O O18 0.933369 0.500000 0.200941
O O19 0.500000 0.376756 0.500000
#
# Coordination Sequence:
#
# PCOD9184968 Si02
#       8
#     8   8   8   8   8   8   8   8
#     4  12  23  40  58  76 108 150 186 225 280 345
#     4  12  26  38  55  88 112 141 187 242 284 328
#     4  10  21  35  53  84 118 143 189 245 283 335
#     4  12  23  38  59  77 105 145 190 229 276 339
#     4  10  19  34  55  80 109 149 188 230 287 337
#     4   8  14  28  50  78 112 150 183 227 293 346
#     4   8  14  26  49  78 110 145 183 230 283 337
#     4  10  21  36  57  76 108 153 190 229 285 341
#
# _framework density 20.235305
#
# number of rings (size 3 to 8) (size 9 to 14) (size 15 to 20)
#    0.000    1.750    2.500    3.375    1.750    4.500 
#    0.000    0.625    0.000    4.125    0.000    4.375 
#    0.000    0.000    0.000    0.000    0.000    0.125 
#
# Total GULP energy -178492.574387 kJ/mol
# GULP energy per Si atom -5577.892950 kJ/mol
# Density = 2.018925 g / cm^3
# Si number density = 20.235305 Si / 1000 Ang^3
#
#
#
# Elastic Constant Matrix: (Units=GPa)
#
#
# Indices 1 2 3 4 5 6 
#
# 1 125.3800 77.9570 31.6225 0.0000 50.6546 0.0000
# 2 77.9570 138.5715 21.7886 0.0000 43.1521 0.0000
# 3 31.6225 21.7886 41.1597 0.0000 19.2144 0.0000
# 4 0.0000 0.0000 0.0000 18.2324 0.0000 10.2729
# 5 50.6546 43.1521 19.2144 0.0000 37.5024 0.0000
# 6 0.0000 0.0000 0.0000 10.2729 0.0000 32.4953
#
#
#
# Elastic Compliance Matrix: (Units=1/GPa)
#
#
# Indices 1 2 3 4 5 6 
#
# 1 0.019396 -0.004304 -0.003556 0.000000 -0.019424 0.000000
# 2 -0.004304 0.012202 0.000904 0.000000 -0.008690 0.000000
# 3 -0.003556 0.000904 0.032586 0.000000 -0.012933 0.000000
# 4 0.000000 0.000000 0.000000 0.066735 0.000000 -0.021097
# 5 -0.019424 -0.008690 -0.012933 0.000000 0.069527 0.000000
# 6 0.000000 0.000000 0.000000 -0.021097 0.000000 0.037443
#
#
# Mechanical properties :
#
#
# Convention : Reuss Voigt Hill
#
# Bulk Modulus (GPa) = 19.89131 63.09414 41.49272
# Shear Modulus (GPa) = 18.61800 29.22890 23.92345
#
# Velocity S-wave (km/s) = 3.03656 3.80472 3.44213
# Velocity P-wave (km/s) = 4.70592 7.10979 6.02888
#
# Compressibility (1/GPa) = 0.05027321
#
# Stress axis : x y z
#
# Youngs Moduli (GPa) = 51.55664 81.95633 30.68768
#
# Poissons Ratio (x) = 0.35273 0.10912
# Poissons Ratio (y) = 0.22189 -0.02774
# Poissons Ratio (z) = 0.18332 -0.07409
#
# Static dielectric constant tensor:
#      x y z
#    x 1.749740 0.000000 -0.021870 
#    y 0.000000 1.705500 0.000000 
#    z -0.021870 0.000000 1.710500 
# 
# From -- ./inp_files/80751.got.cif
#   From: 2010.05.17/outbox.cif.g08.bks.cpg/sg12_41_cif.got.tgz:80751.got - 2010.06.03 13:09:07.
