data_PCOD9184686
_publ_section_title
;
Structure prediction by ZEFSAII (Michael W. Deem and Ramdas Pophale) SiO2 
 PCOD9184686
Probable space group: C 2/M
;
_chemical_formula_sum "Si O2"
_cell_formula_units_Z 40
_cell_length_a 25.300617
_cell_length_b 15.371769
_cell_length_c 6.967106
_cell_angle_alpha 90.000000
_cell_angle_beta 36.202481
_cell_angle_gamma 90.000000
_cell_volume 1600.407890
_symmetry_space_group_name_H-M "C 2/M"
_symmetry_group_IT_number 12
_symmetry_cell_setting 'monoclinic'
loop_
_space_group_symop_operation_xyz
x,y,z
-x,y,-z
-x,-y,-z
x,-y,z
1/2+x,1/2+y,z
1/2-x,1/2+y,-z
1/2-x,1/2-y,-z
1/2+x,1/2-y,z
loop_
_atom_site_type_symbol
_atom_site_label
_atom_site_fract_x
_atom_site_fract_y
_atom_site_fract_z
Si Si1 0.587581 0.904825 0.881456
Si Si2 0.786936 0.906903 0.118911
Si Si3 0.603158 0.763658 0.253403
Si Si4 0.245913 0.402370 0.786767
Si Si5 0.596384 0.280184 0.723949
O O1 0.688553 0.908066 0.500087
O O2 0.585903 0.798698 0.903960
O O3 0.577561 0.000000 0.017009
O O4 0.500000 0.910590 0.000000
O O5 0.831857 0.000000 0.034940
O O6 0.844049 0.820085 0.982289
O O7 0.769622 0.906185 0.941346
O O8 0.500000 0.761705 0.500000
O O9 0.613113 0.756491 0.458120
O O10 0.651196 0.853723 0.051763
O O11 0.247539 0.500000 0.708990
O O12 0.321573 0.342793 0.471018
O O13 0.500000 0.326906 0.000000
#
# Coordination Sequence:
#
# PCOD9184686 Si02
#       5
#     8   8   8   8   8
#     4   9  15  25  50  81 102 122 166 223 261 294
#     4   9  16  31  54  75  99 133 177 218 250 303
#     4  11  21  34  51  81 109 136 170 215 267 308
#     4  10  19  34  54  75 103 141 184 211 244 309
#     4  10  19  35  57  80 101 136 178 216 255 307
#
# _framework density 24.993628000000001
#
# number of rings (size 3 to 8) (size 9 to 14) (size 15 to 20)
#    0.000    2.200    4.000    1.200    0.000    1.200 
#    0.000    1.000    0.000    0.000    0.000    0.000 
#    0.000    0.000    0.000    0.000    0.000    0.000 
#
# Total GULP energy -111599.744315 kJ/mol
# GULP energy per Si atom -5579.987216 kJ/mol
# Density = 2.493674 g / cm^3
# Si number density = 24.993628 Si / 1000 Ang^3
#
#
#
# Elastic Constant Matrix: (Units=GPa)
#
#
# Indices 1 2 3 4 5 6 
#
# 1 93.7003 51.6969 35.0423 0.0000 -11.0107 0.0000
# 2 51.6969 224.9368 72.8851 0.0000 -41.0204 0.0000
# 3 35.0423 72.8851 124.8154 0.0000 -22.3148 0.0000
# 4 0.0000 0.0000 0.0000 -150.7539 0.0000 210.9223
# 5 -11.0107 -41.0204 -22.3148 0.0000 55.1229 0.0000
# 6 0.0000 0.0000 0.0000 210.9223 0.0000 -258.8049
#
#
#
# Elastic Compliance Matrix: (Units=1/GPa)
#
#
# Indices 1 2 3 4 5 6 
#
# 1 0.012737 -0.002183 -0.002303 0.000000 -0.000013 0.000000
# 2 -0.002183 0.006360 -0.002515 0.000000 0.003279 0.000000
# 3 -0.002303 -0.002515 0.010468 0.000000 0.001906 0.000000
# 4 0.000000 0.000000 0.000000 0.047293 0.000000 0.038543
# 5 -0.000013 0.003279 0.001906 0.000000 0.021350 0.000000
# 6 0.000000 0.000000 0.000000 0.038543 0.000000 0.027548
#
#
# Mechanical properties :
#
#
# Convention : Reuss Voigt Hill
#
# Bulk Modulus (GPa) = 64.25938 84.74457 74.50197
# Shear Modulus (GPa) = 34.49548 -51.96531 -8.73491
#
# Velocity S-wave (km/s) = 3.71910 -4.56471 -1.87148
# Velocity P-wave (km/s) = 6.64894 2.48958 5.02028
#
# Compressibility (1/GPa) = 0.01556193
#
# Stress axis : x y z
#
# Youngs Moduli (GPa) = 78.51276 157.22459 95.53108
#
# Poissons Ratio (x) = 0.34327 0.22003
# Poissons Ratio (y) = 0.17142 0.24025
# Poissons Ratio (z) = 0.18084 0.39540
#
# Static dielectric constant tensor:
#      x y z
#    x 2.291830 0.000000 0.092590 
#    y 0.000000 2.002860 0.000000 
#    z 0.092590 0.000000 1.915310 
# 
# From -- ./inp_files/58966.got.cif
#   From: 2010.05.17/outbox.cif.g08.bks.cpg/sg12_30_cif.got.tgz:58966.got - 2010.06.03 13:09:07.
