data_PCOD9184491
_publ_section_title
;
Structure prediction by ZEFSAII (Michael W. Deem and Ramdas Pophale) SiO2 
 PCOD9184491
Probable space group: C 2/M
;
_chemical_formula_sum "Si O2"
_cell_formula_units_Z 56
_cell_length_a 19.058549
_cell_length_b 19.575212
_cell_length_c 16.278538
_cell_angle_alpha 90.000000
_cell_angle_beta 150.908062
_cell_angle_gamma 90.000000
_cell_volume 2952.825352
_symmetry_space_group_name_H-M "C 2/M"
_symmetry_group_IT_number 12
_symmetry_cell_setting 'monoclinic'
loop_
_space_group_symop_operation_xyz
x,y,z
-x,y,-z
-x,-y,-z
x,-y,z
1/2+x,1/2+y,z
1/2-x,1/2+y,-z
1/2-x,1/2-y,-z
1/2+x,1/2-y,z
loop_
_atom_site_type_symbol
_atom_site_label
_atom_site_fract_x
_atom_site_fract_y
_atom_site_fract_z
Si Si1 0.264318 0.080040 0.054805
Si Si2 0.672420 0.812193 0.101944
Si Si3 0.427490 0.317591 0.245933
Si Si4 0.526556 0.421533 0.930624
Si Si5 0.744228 0.331215 0.624189
Si Si6 0.051974 0.781282 0.209827
Si Si7 0.004988 0.581298 0.185635
O O1 0.427784 0.096564 0.194695
O O2 0.249710 0.000000 0.022477
O O3 0.159024 0.121903 0.887580
O O4 0.193146 0.090617 0.071665
O O5 0.815127 0.790483 0.197699
O O6 0.712341 0.829625 0.235713
O O7 0.556002 0.752437 0.967278
O O8 0.597907 0.878798 0.984464
O O9 0.575439 0.340858 0.438917
O O10 0.475452 0.269280 0.219517
O O11 0.490034 0.500000 0.870125
O O12 0.437685 0.361869 0.794984
O O13 0.500000 0.414974 0.000000
O O14 0.798916 0.258283 0.645623
O O15 0.839211 0.386160 0.671476
O O16 0.008024 0.500000 0.176153
#
# Coordination Sequence:
#
# PCOD9184491 Si02
#       7
#     8   8   8   8   8   8   8
#     4   8  16  31  49  71 100 133 169 206 244 294
#     4  10  20  34  52  72  98 133 171 209 247 292
#     4  10  20  33  50  72 100 132 167 207 253 300
#     4   9  16  28  50  77  98 119 156 206 250 288
#     4  11  21  32  49  76 104 128 164 214 255 288
#     4  10  19  34  51  71  98 131 166 200 245 306
#     4   9  18  33  51  71  99 137 174 204 241 294
#
# _framework density 18.964887999999998
#
# number of rings (size 3 to 8) (size 9 to 14) (size 15 to 20)
#    0.000    2.429    0.000    3.857    0.000    2.857 
#    0.000    0.000    0.000    4.286    0.000    4.000 
#    0.000   24.000    0.000    0.000    0.000    0.000 
#
# Total GULP energy -155921.674911 kJ/mol
# GULP energy per Si atom -5568.631247 kJ/mol
# Density = 1.892172 g / cm^3
# Si number density = 18.964888 Si / 1000 Ang^3
#
#
#
# Elastic Constant Matrix: (Units=GPa)
#
#
# Indices 1 2 3 4 5 6 
#
# 1 110.2861 11.1702 19.0921 0.0000 4.9413 0.0000
# 2 11.1702 75.0967 -3.9308 0.0000 0.0767 0.0000
# 3 19.0921 -3.9308 58.1464 0.0000 15.2613 0.0000
# 4 0.0000 0.0000 0.0000 5.3001 0.0000 6.0146
# 5 4.9413 0.0767 15.2613 0.0000 21.1761 0.0000
# 6 0.0000 0.0000 0.0000 6.0146 0.0000 22.4271
#
#
#
# Elastic Compliance Matrix: (Units=1/GPa)
#
#
# Indices 1 2 3 4 5 6 
#
# 1 0.009810 -0.001636 -0.003370 0.000000 0.000145 0.000000
# 2 -0.001636 0.013649 0.001693 0.000000 -0.000888 0.000000
# 3 -0.003370 0.001693 0.022463 0.000000 -0.015409 0.000000
# 4 0.000000 0.000000 0.000000 0.271218 0.000000 -0.072737
# 5 0.000145 -0.000888 -0.015409 0.000000 0.058297 0.000000
# 6 0.000000 0.000000 0.000000 -0.072737 0.000000 0.064096
#
#
# Mechanical properties :
#
#
# Convention : Reuss Voigt Hill
#
# Bulk Modulus (GPa) = 25.44756 32.91022 29.17889
# Shear Modulus (GPa) = 10.88716 24.26051 17.57384
#
# Velocity S-wave (km/s) = 2.39857 3.58052 3.04740
# Velocity P-wave (km/s) = 4.59546 5.87234 5.27270
#
# Compressibility (1/GPa) = 0.03929650
#
# Stress axis : x y z
#
# Youngs Moduli (GPa) = 101.93854 73.26555 44.51763
#
# Poissons Ratio (x) = 0.11984 0.15001
# Poissons Ratio (y) = 0.16674 -0.07536
# Poissons Ratio (z) = 0.34351 -0.12402
#
# Static dielectric constant tensor:
#      x y z
#    x 1.736690 0.000000 0.010440 
#    y 0.000000 1.668300 0.000000 
#    z 0.010440 0.000000 1.639020 
# 
# From -- ./inp_files/227648.got.cif
#   From: 2010.05.17/outbox.cif.g08.bks.cpg/sg12_114_cif.got.tgz:227648.got - 2010.06.03 13:09:07.
