data_PCOD9184152
_publ_section_title
;
Structure prediction by ZEFSAII (Michael W. Deem and Ramdas Pophale) SiO2 
 PCOD9184152
Probable space group: C 2/M
;
_chemical_formula_sum "Si O2"
_cell_formula_units_Z 52
_cell_length_a 8.386903
_cell_length_b 20.560019
_cell_length_c 22.878019
_cell_angle_alpha 90.000000
_cell_angle_beta 141.143202
_cell_angle_gamma 90.000000
_cell_volume 2474.978884
_symmetry_space_group_name_H-M "C 2/M"
_symmetry_group_IT_number 12
_symmetry_cell_setting 'monoclinic'
loop_
_space_group_symop_operation_xyz
x,y,z
-x,y,-z
-x,-y,-z
x,-y,z
1/2+x,1/2+y,z
1/2-x,1/2+y,-z
1/2-x,1/2-y,-z
1/2+x,1/2-y,z
loop_
_atom_site_type_symbol
_atom_site_label
_atom_site_fract_x
_atom_site_fract_y
_atom_site_fract_z
Si Si1 0.795746 0.792289 0.597025
Si Si2 0.942021 0.000000 0.909218
Si Si3 0.296120 0.618237 0.070532
Si Si4 0.878630 0.223796 0.901621
Si Si5 0.836817 0.154608 0.400027
Si Si6 0.999956 0.392927 0.206691
Si Si7 0.365951 0.356856 0.213558
O O1 0.500000 0.804421 0.500000
O O2 0.818902 0.715531 0.617573
O O3 0.970512 0.813334 0.592483
O O4 0.895907 0.832014 0.681308
O O5 0.724760 0.056081 0.858273
O O6 0.149258 0.057871 0.955463
O O7 0.418822 0.683437 0.079147
O O8 0.431179 0.607466 0.171934
O O9 0.000000 0.622625 0.000000
O O10 0.630109 0.178148 0.833567
O O11 0.792656 0.292186 0.850275
O O12 0.000000 0.228759 0.000000
O O13 0.658780 0.106910 0.312342
O O14 0.000000 0.126016 0.500000
O O15 0.189833 0.398373 0.206476
#
# Coordination Sequence:
#
# PCOD9184152 Si02
#       7
#     8   4   8   8   8   8   8
#     4  10  20  32  55  90 127 159 188 231 292 362
#     4  10  25  44  62  80 116 160 211 254 291 346
#     4  11  24  41  63  88 118 158 205 246 296 349
#     4  11  22  38  62  91 125 154 187 239 305 368
#     4  10  19  33  57  86 123 157 195 237 291 358
#     4  10  22  40  59  87 118 160 199 244 299 346
#     4  11  22  37  62  92 124 154 194 246 300 362
#
# _framework density 21.010280000000002
#
# number of rings (size 3 to 8) (size 9 to 14) (size 15 to 20)
#    0.000    1.538    1.538    4.385    2.154    4.923 
#    0.000   13.462    0.000    0.000    0.000    4.846 
#    0.000    0.000    0.000    0.000    0.000    0.000 
#
# Total GULP energy -144911.105495 kJ/mol
# GULP energy per Si atom -5573.504058 kJ/mol
# Density = 2.096246 g / cm^3
# Si number density = 21.010280 Si / 1000 Ang^3
#
#
#
# Elastic Constant Matrix: (Units=GPa)
#
#
# Indices 1 2 3 4 5 6 
#
# 1 65.9286 -1.6280 30.3771 -0.0003 1.4621 0.0003
# 2 -1.6280 37.1251 -1.6223 -0.0010 7.8761 -0.0001
# 3 30.3771 -1.6223 96.1076 -0.0019 -24.6504 -0.0002
# 4 -0.0003 -0.0010 -0.0019 4.1141 -0.0003 30.6504
# 5 1.4621 7.8761 -24.6504 -0.0003 31.6831 0.0003
# 6 0.0003 -0.0001 -0.0002 30.6504 0.0003 7.6156
#
#
#
# Elastic Compliance Matrix: (Units=1/GPa)
#
#
# Indices 1 2 3 4 5 6 
#
# 1 0.019037 0.002093 -0.007921 0.000000 -0.007562 0.000000
# 2 0.002093 0.028881 -0.002549 0.000000 -0.009259 0.000001
# 3 -0.007921 -0.002549 0.016393 0.000000 0.013754 0.000001
# 4 0.000000 0.000000 0.000000 -0.008386 -0.000001 0.033752
# 5 -0.007562 -0.009259 0.013754 -0.000001 0.044914 0.000001
# 6 0.000000 0.000001 0.000001 0.033752 0.000001 -0.004530
#
#
# Mechanical properties :
#
#
# Convention : Reuss Voigt Hill
#
# Bulk Modulus (GPa) = 21.02760 28.15722 24.59241
# Shear Modulus (GPa) = 38.78519 20.15152 29.46836
#
# Velocity S-wave (km/s) = 4.30118 3.10034 3.74915
# Velocity P-wave (km/s) = 5.89041 5.12317 5.52013
#
# Compressibility (1/GPa) = 0.04755655
#
# Stress axis : x y z
#
# Youngs Moduli (GPa) = 52.52904 34.62528 61.00045
#
# Poissons Ratio (x) = -0.07247 0.48320
# Poissons Ratio (y) = -0.10994 0.15548
# Poissons Ratio (z) = 0.41610 0.08825
#
# Static dielectric constant tensor:
#      x y z
#    x 1.801830 0.000000 -0.040640 
#    y 0.000000 1.742180 0.000000 
#    z -0.040640 0.000000 1.807150 
# 
# From -- ./inp_files/333803.got.cif
#   From: 2010.05.17/outbox.cif.g08.bks.cpg/sg12_167_cif.got.tgz:333803.got - 2010.06.03 13:09:07.
