data_PCOD9184615
_publ_section_title
;
Structure prediction by ZEFSAII (Michael W. Deem and Ramdas Pophale) SiO2 
 PCOD9184615
Probable space group: C 2/M
;
_chemical_formula_sum "Si O2"
_cell_formula_units_Z 56
_cell_length_a 17.181425
_cell_length_b 12.350788
_cell_length_c 17.562396
_cell_angle_alpha 90.000000
_cell_angle_beta 126.784279
_cell_angle_gamma 90.000000
_cell_volume 2984.788596
_symmetry_space_group_name_H-M "C 2/M"
_symmetry_group_IT_number 12
_symmetry_cell_setting 'monoclinic'
loop_
_space_group_symop_operation_xyz
x,y,z
-x,y,-z
-x,-y,-z
x,-y,z
1/2+x,1/2+y,z
1/2-x,1/2+y,-z
1/2-x,1/2-y,-z
1/2+x,1/2-y,z
loop_
_atom_site_type_symbol
_atom_site_label
_atom_site_fract_x
_atom_site_fract_y
_atom_site_fract_z
Si Si1 0.236287 0.162776 0.092209
Si Si2 0.072464 0.875052 0.108946
Si Si3 0.958288 0.811789 0.741526
Si Si4 0.176659 0.882412 0.889101
Si Si5 0.760059 0.131955 0.552762
Si Si6 0.604077 0.869764 0.592535
Si Si7 0.938907 0.378803 0.266084
O O1 0.177729 0.126200 0.131507
O O2 0.251783 0.291044 0.099559
O O3 0.346487 0.120081 0.155924
O O4 0.180778 0.127891 0.983434
O O5 0.066673 0.810680 0.183643
O O6 0.046574 0.000000 0.111924
O O7 0.000000 0.836042 0.000000
O O8 0.871415 0.868977 0.646424
O O9 0.065701 0.864013 0.798707
O O10 0.975841 0.693943 0.716318
O O11 0.209667 0.000000 0.885317
O O12 0.750000 0.250000 0.500000
O O13 0.689829 0.154188 0.584141
O O14 0.739912 0.000000 0.516699
O O15 0.500000 0.832578 0.500000
O O16 0.605220 0.832584 0.680814
O O17 0.603373 0.000000 0.595808
O O18 0.974199 0.500000 0.299915
#
# Coordination Sequence:
#
# PCOD9184615 Si02
#       7
#     8   8   8   8   8   8   8
#     4  10  20  32  52  79 106 144 192 231 276 335
#     4  11  20  33  54  79 111 148 191 243 289 336
#     4  11  22  35  57  87 117 149 193 241 294 349
#     4  10  19  34  53  75 108 146 183 229 280 335
#     4  11  23  39  63  93 123 154 194 245 300 356
#     4   9  18  35  59  83 108 145 193 239 285 340
#     4  10  20  35  57  84 115 153 198 244 287 341
#
# _framework density 18.761797999999999
#
# number of rings (size 3 to 8) (size 9 to 14) (size 15 to 20)
#    0.000    1.714    1.429    4.286    0.000    2.857 
#    0.000    0.714    0.000   12.429    0.000    0.000 
#    0.000    0.000    0.000    0.000    0.000    0.000 
#
# Total GULP energy -155885.376679 kJ/mol
# GULP energy per Si atom -5567.334881 kJ/mol
# Density = 1.871910 g / cm^3
# Si number density = 18.761798 Si / 1000 Ang^3
#
#
#
# Elastic Constant Matrix: (Units=GPa)
#
#
# Indices 1 2 3 4 5 6 
#
# 1 72.4837 38.8609 16.2645 0.0000 -6.1990 0.0000
# 2 38.8609 118.0138 22.4137 0.0000 -13.3406 0.0000
# 3 16.2645 22.4137 74.0610 0.0000 4.6308 0.0000
# 4 0.0000 0.0000 0.0000 10.4164 0.0000 -5.1945
# 5 -6.1990 -13.3406 4.6308 0.0000 33.0537 0.0000
# 6 0.0000 0.0000 0.0000 -5.1945 0.0000 -33.0188
#
#
#
# Elastic Compliance Matrix: (Units=1/GPa)
#
#
# Indices 1 2 3 4 5 6 
#
# 1 0.017148 -0.005032 -0.002338 0.000000 0.001513 0.000000
# 2 -0.005032 0.011037 -0.002476 0.000000 0.003858 0.000000
# 3 -0.002338 -0.002476 0.014986 0.000000 -0.003537 0.000000
# 4 0.000000 0.000000 0.000000 0.089019 0.000000 -0.014004
# 5 0.001513 0.003858 -0.003537 0.000000 0.032590 0.000000
# 6 0.000000 0.000000 0.000000 -0.014004 0.000000 -0.028083
#
#
# Mechanical properties :
#
#
# Convention : Reuss Voigt Hill
#
# Bulk Modulus (GPa) = 42.59000 46.62628 44.60814
# Shear Modulus (GPa) = 30.44789 14.55823 22.50306
#
# Velocity S-wave (km/s) = 4.03285 2.78861 3.46700
# Velocity P-wave (km/s) = 6.66595 5.93920 6.31304
#
# Compressibility (1/GPa) = 0.02347969
#
# Stress axis : x y z
#
# Youngs Moduli (GPa) = 58.31675 90.60520 66.72718
#
# Poissons Ratio (x) = 0.45589 0.15598
# Poissons Ratio (y) = 0.29343 0.16524
# Poissons Ratio (z) = 0.13632 0.22438
#
# Static dielectric constant tensor:
#      x y z
#    x 1.638130 0.000000 0.010080 
#    y 0.000000 1.710610 0.000000 
#    z 0.010080 0.000000 1.719580 
# 
# From -- ./inp_files/277072.got.cif
#   From: 2010.05.17/outbox.cif.g08.bks.cpg/sg12_139_cif.got.tgz:277072.got - 2010.06.03 13:09:07.
