data_PCOD9184599
_publ_section_title
;
Structure prediction by ZEFSAII (Michael W. Deem and Ramdas Pophale) SiO2 
 PCOD9184599
Probable space group: C 2/M
;
_chemical_formula_sum "Si O2"
_cell_formula_units_Z 56
_cell_length_a 25.067142
_cell_length_b 7.620636
_cell_length_c 15.841983
_cell_angle_alpha 90.000000
_cell_angle_beta 105.711870
_cell_angle_gamma 90.000000
_cell_volume 2913.181412
_symmetry_space_group_name_H-M "C 2/M"
_symmetry_group_IT_number 12
_symmetry_cell_setting 'monoclinic'
loop_
_space_group_symop_operation_xyz
x,y,z
-x,y,-z
-x,-y,-z
x,-y,z
1/2+x,1/2+y,z
1/2-x,1/2+y,-z
1/2-x,1/2-y,-z
1/2+x,1/2-y,z
loop_
_atom_site_type_symbol
_atom_site_label
_atom_site_fract_x
_atom_site_fract_y
_atom_site_fract_z
Si Si1 0.795604 0.710440 0.403038
Si Si2 0.903699 0.211231 0.779544
Si Si3 0.140629 0.292299 0.923820
Si Si4 0.014532 0.787473 0.911002
Si Si5 0.689707 0.202788 0.773410
Si Si6 0.688486 0.790380 0.120069
Si Si7 0.327100 0.710965 0.598706
O O1 0.791030 0.500000 0.392527
O O2 0.817586 0.780434 0.323256
O O3 0.733136 0.777313 0.395251
O O4 0.831096 0.746359 0.501724
O O5 0.862236 0.253124 0.838707
O O6 0.874991 0.276545 0.681420
O O7 0.965011 0.274614 0.829024
O O8 0.906905 0.000000 0.775395
O O9 0.153262 0.500000 0.927441
O O10 0.075429 0.270648 0.910718
O O11 0.160076 0.216652 0.842511
O O12 0.172822 0.222883 0.020006
O O13 0.014714 0.000000 0.911351
O O14 0.000000 0.730064 0.000000
O O15 0.755306 0.208268 0.820682
O O16 0.671064 0.000000 0.760591
O O17 0.696629 0.000000 0.120440
O O18 0.325894 0.500000 0.605079
#
# Coordination Sequence:
#
# PCOD9184599 Si02
#       7
#     8   8   8   8   8   8   8
#     4   9  17  30  50  73  98 129 164 203 248 300
#     4  10  19  34  53  74 102 137 169 201 251 306
#     4  10  22  36  51  73 104 138 171 208 251 296
#     4  10  20  34  55  76  97 133 176 212 246 293
#     4  10  20  36  53  71 102 142 171 199 250 309
#     4  11  21  31  48  78 106 133 167 208 249 292
#     4   9  17  30  49  73 100 129 161 204 252 296
#
# _framework density 19.22297
#
# number of rings (size 3 to 8) (size 9 to 14) (size 15 to 20)
#    0.000    2.143    2.857    0.857    0.000    3.143 
#    0.000    0.000    0.000    0.857    0.000    6.000 
#    0.000    0.000    0.000    0.000    0.000    0.000 
#
# Total GULP energy -156267.041085 kJ/mol
# GULP energy per Si atom -5580.965753 kJ/mol
# Density = 1.917922 g / cm^3
# Si number density = 19.222970 Si / 1000 Ang^3
#
#
#
# Elastic Constant Matrix: (Units=GPa)
#
#
# Indices 1 2 3 4 5 6 
#
# 1 25.4146 -11.4159 28.4253 0.0000 -13.4589 0.0000
# 2 -11.4159 36.2636 3.7842 0.0000 4.2817 0.0000
# 3 28.4253 3.7842 181.9062 0.0000 -15.2217 0.0000
# 4 0.0000 0.0000 0.0000 -19.1406 0.0000 -13.9198
# 5 -13.4589 4.2817 -15.2217 0.0000 25.3322 0.0000
# 6 0.0000 0.0000 0.0000 -13.9198 0.0000 7.4681
#
#
#
# Elastic Compliance Matrix: (Units=1/GPa)
#
#
# Indices 1 2 3 4 5 6 
#
# 1 0.076338 0.021383 -0.009774 0.000000 0.031071 0.000000
# 2 0.021383 0.034313 -0.003780 0.000000 0.003290 0.000000
# 3 -0.009774 -0.003780 0.007078 0.000000 -0.000301 0.000000
# 4 0.000000 0.000000 0.000000 -0.022180 0.000000 -0.041341
# 5 0.031071 0.003290 -0.000301 0.000000 0.055247 0.000000
# 6 0.000000 0.000000 0.000000 -0.041341 0.000000 0.056847
#
#
# Mechanical properties :
#
#
# Convention : Reuss Voigt Hill
#
# Bulk Modulus (GPa) = 7.49693 31.68574 19.59134
# Shear Modulus (GPa) = 21.14634 17.58465 19.36550
#
# Velocity S-wave (km/s) = 3.32031 3.02780 3.17742
# Velocity P-wave (km/s) = 4.31366 5.36120 4.86571
#
# Compressibility (1/GPa) = 0.13338787
#
# Stress axis : x y z
#
# Youngs Moduli (GPa) = 13.09960 29.14327 141.28115
#
# Poissons Ratio (x) = -0.62316 1.38084
# Poissons Ratio (y) = -0.28011 0.53403
# Poissons Ratio (z) = 0.12803 0.11016
#
# Static dielectric constant tensor:
#      x y z
#    x 1.629300 0.000000 -0.012760 
#    y 0.000000 1.744320 0.000000 
#    z -0.012760 0.000000 1.708420 
# 
# From -- ./inp_files/237859.got.cif
#   From: 2010.05.17/outbox.cif.g08.bks.cpg/sg12_119_cif.got.tgz:237859.got - 2010.06.03 13:09:07.
