data_PCOD9184169
_publ_section_title
;
Structure prediction by ZEFSAII (Michael W. Deem and Ramdas Pophale) SiO2 
 PCOD9184169
Probable space group: C 2/M
;
_chemical_formula_sum "Si O2"
_cell_formula_units_Z 56
_cell_length_a 13.033054
_cell_length_b 19.421425
_cell_length_c 12.587804
_cell_angle_alpha 90.000000
_cell_angle_beta 105.325055
_cell_angle_gamma 90.000000
_cell_volume 3072.934797
_symmetry_space_group_name_H-M "C 2/M"
_symmetry_group_IT_number 12
_symmetry_cell_setting 'monoclinic'
loop_
_space_group_symop_operation_xyz
x,y,z
-x,y,-z
-x,-y,-z
x,-y,z
1/2+x,1/2+y,z
1/2-x,1/2+y,-z
1/2-x,1/2-y,-z
1/2+x,1/2-y,z
loop_
_atom_site_type_symbol
_atom_site_label
_atom_site_fract_x
_atom_site_fract_y
_atom_site_fract_z
Si Si1 0.382240 0.849860 0.729522
Si Si2 0.784177 0.080404 0.728608
Si Si3 0.714478 0.080923 0.090416
Si Si4 0.600499 0.919374 0.846246
Si Si5 0.349358 0.302005 0.035285
Si Si6 0.381377 0.081307 0.509238
Si Si7 0.428354 0.297324 0.815272
O O1 0.318132 0.887611 0.806000
O O2 0.504127 0.873995 0.779531
O O3 0.351629 0.875285 0.604592
O O4 0.375393 0.768496 0.745620
O O5 0.708530 0.094599 0.810343
O O6 0.705007 0.089658 0.607250
O O7 0.883075 0.132422 0.752784
O O8 0.816261 0.000000 0.742256
O O9 0.809386 0.124431 0.065597
O O10 0.736029 0.000000 0.104135
O O11 0.621420 0.090272 0.976925
O O12 0.574326 0.000000 0.820266
O O13 0.445254 0.283805 0.141697
O O14 0.250000 0.250000 0.000000
O O15 0.393285 0.302246 0.928353
O O16 0.500000 0.099611 0.500000
O O17 0.385560 0.000000 0.538770
#
# Coordination Sequence:
#
# PCOD9184169 Si02
#       7
#     8   8   8   8   8   8   8
#     4  12  22  34  57  91 125 155 197 250 307 367
#     4  10  21  40  62  85 118 159 209 255 294 351
#     4  11  22  35  57  87 120 157 197 252 302 362
#     4  10  19  33  57  87 120 153 192 247 305 357
#     4  11  22  41  57  85 124 160 199 233 303 372
#     4  10  20  37  62  89 120 162 204 252 303 351
#     4  11  25  36  62  88 118 164 194 248 306 361
#
# _framework density 18.223621000000001
#
# number of rings (size 3 to 8) (size 9 to 14) (size 15 to 20)
#    0.000    1.286    4.286    2.571    2.000    2.286 
#    0.000    1.429    0.000    0.000    0.000    3.000 
#    0.000    0.000    0.000    0.000    0.000    0.000 
#
# Total GULP energy -156295.202211 kJ/mol
# GULP energy per Si atom -5581.971508 kJ/mol
# Density = 1.818214 g / cm^3
# Si number density = 18.223621 Si / 1000 Ang^3
#
#
#
# Elastic Constant Matrix: (Units=GPa)
#
#
# Indices 1 2 3 4 5 6 
#
# 1 52.7920 30.6639 24.6771 0.0000 2.2703 0.0000
# 2 30.6639 81.6872 36.3260 0.0000 -4.3097 0.0000
# 3 24.6771 36.3260 92.8037 0.0000 -14.5755 0.0000
# 4 0.0000 0.0000 0.0000 15.5154 0.0000 1.2229
# 5 2.2703 -4.3097 -14.5755 0.0000 23.8256 0.0000
# 6 0.0000 0.0000 0.0000 1.2229 0.0000 30.7849
#
#
#
# Elastic Compliance Matrix: (Units=1/GPa)
#
#
# Indices 1 2 3 4 5 6 
#
# 1 0.026196 -0.008011 -0.004922 0.000000 -0.006957 0.000000
# 2 -0.008011 0.017292 -0.004455 0.000000 0.001166 0.000000
# 3 -0.004922 -0.004455 0.015239 0.000000 0.008986 0.000000
# 4 0.000000 0.000000 0.000000 0.064654 0.000000 -0.002568
# 5 -0.006957 0.001166 0.008986 0.000000 0.048343 0.000000
# 6 0.000000 0.000000 0.000000 -0.002568 0.000000 0.032585
#
#
# Mechanical properties :
#
#
# Convention : Reuss Voigt Hill
#
# Bulk Modulus (GPa) = 41.75488 45.62410 43.68949
# Shear Modulus (GPa) = 20.23714 23.06624 21.65169
#
# Velocity S-wave (km/s) = 3.33602 3.56157 3.45064
# Velocity P-wave (km/s) = 6.14825 6.48098 6.31680
#
# Compressibility (1/GPa) = 0.02394929
#
# Stress axis : x y z
#
# Youngs Moduli (GPa) = 38.17423 57.83060 65.61909
#
# Poissons Ratio (x) = 0.46331 0.32299
# Poissons Ratio (y) = 0.30583 0.29234
# Poissons Ratio (z) = 0.18790 0.25764
#
# Static dielectric constant tensor:
#      x y z
#    x 1.696880 0.000000 0.049010 
#    y 0.000000 1.639960 0.000000 
#    z 0.049010 0.000000 1.651200 
# 
# From -- ./inp_files/133847.got.cif
#   From: 2010.05.17/outbox.cif.g08.bks.cpg/sg12_67_cif.got.tgz:133847.got - 2010.06.03 13:09:07.
