data_PCOD9184671
_publ_section_title
;
Structure prediction by ZEFSAII (Michael W. Deem and Ramdas Pophale) SiO2 
 PCOD9184671
Probable space group: C 2/M
;
_chemical_formula_sum "Si O2"
_cell_formula_units_Z 56
_cell_length_a 23.182233
_cell_length_b 8.854800
_cell_length_c 16.797077
_cell_angle_alpha 90.000000
_cell_angle_beta 97.862211
_cell_angle_gamma 90.000000
_cell_volume 3415.592215
_symmetry_space_group_name_H-M "C 2/M"
_symmetry_group_IT_number 12
_symmetry_cell_setting 'monoclinic'
loop_
_space_group_symop_operation_xyz
x,y,z
-x,y,-z
-x,-y,-z
x,-y,z
1/2+x,1/2+y,z
1/2-x,1/2+y,-z
1/2-x,1/2-y,-z
1/2+x,1/2-y,z
loop_
_atom_site_type_symbol
_atom_site_label
_atom_site_fract_x
_atom_site_fract_y
_atom_site_fract_z
Si Si1 0.462668 0.817795 0.883644
Si Si2 0.250467 0.179202 0.236993
Si Si3 0.295858 0.327290 0.398186
Si Si4 0.703226 0.818134 0.930187
Si Si5 0.581112 0.681633 0.960078
Si Si6 0.336778 0.174365 0.558414
Si Si7 0.371288 0.817934 0.732669
O O1 0.526366 0.744227 0.899483
O O2 0.426346 0.781078 0.797615
O O3 0.466744 0.000000 0.892337
O O4 0.428806 0.750133 0.953493
O O5 0.292102 0.233557 0.316426
O O6 0.276035 0.216564 0.155567
O O7 0.187484 0.254371 0.238918
O O8 0.243146 0.000000 0.240940
O O9 0.309912 0.500000 0.383039
O O10 0.336268 0.263836 0.475982
O O11 0.229832 0.322767 0.421103
O O12 0.641226 0.743669 0.937002
O O13 0.699966 0.000000 0.938465
O O14 0.750000 0.750000 0.000000
O O15 0.580255 0.500000 0.963317
O O16 0.373327 0.233532 0.640862
O O17 0.351816 0.000000 0.545560
O O18 0.365568 0.000000 0.729099
#
# Coordination Sequence:
#
# PCOD9184671 Si02
#       7
#     8   8   8   8   8   8   8
#     4  10  19  34  54  73  96 126 160 200 241 281
#     4  10  20  31  46  68  95 127 160 195 235 281
#     4   9  16  26  41  62  90 124 158 190 229 278
#     4  11  23  37  52  72  97 127 162 198 239 284
#     4  11  22  35  51  72  97 127 162 198 239 284
#     4   8  14  25  40  62  92 122 153 189 229 276
#     4   9  18  30  47  71  97 126 158 193 236 282
#
# _framework density 16.395401
#
# number of rings (size 3 to 8) (size 9 to 14) (size 15 to 20)
#    0.000    2.286    0.000    5.571    0.000    9.143 
#    0.000    0.000    0.000    0.000    0.000    1.000 
#    0.000    8.000    0.000    0.000    0.000    0.000 
#
# Total GULP energy -156132.815545 kJ/mol
# GULP energy per Si atom -5576.171984 kJ/mol
# Density = 1.635808 g / cm^3
# Si number density = 16.395401 Si / 1000 Ang^3
#
#
#
# Elastic Constant Matrix: (Units=GPa)
#
#
# Indices 1 2 3 4 5 6 
#
# 1 62.3968 26.7118 56.9329 0.0000 9.7511 0.0000
# 2 26.7118 58.3048 49.4790 0.0000 5.0502 0.0000
# 3 56.9329 49.4790 147.6368 0.0000 26.3513 0.0000
# 4 0.0000 0.0000 0.0000 25.5920 0.0000 1.9806
# 5 9.7511 5.0502 26.3513 0.0000 22.4122 0.0000
# 6 0.0000 0.0000 0.0000 1.9806 0.0000 21.1034
#
#
#
# Elastic Compliance Matrix: (Units=1/GPa)
#
#
# Indices 1 2 3 4 5 6 
#
# 1 0.025614 -0.004722 -0.008221 0.000000 -0.000414 0.000000
# 2 -0.004722 0.025312 -0.007607 0.000000 0.005295 0.000000
# 3 -0.008221 -0.007607 0.014616 0.000000 -0.011894 0.000000
# 4 0.000000 0.000000 0.000000 0.039361 0.000000 -0.003694
# 5 -0.000414 0.005295 -0.011894 0.000000 0.057590 0.000000
# 6 0.000000 0.000000 0.000000 -0.003694 0.000000 0.047732
#
#
# Mechanical properties :
#
#
# Convention : Reuss Voigt Hill
#
# Bulk Modulus (GPa) = 40.91500 59.39841 50.15670
# Shear Modulus (GPa) = 19.26997 22.83585 21.05291
#
# Velocity S-wave (km/s) = 3.43202 3.73610 3.58729
# Velocity P-wave (km/s) = 6.38078 7.41071 6.91495
#
# Compressibility (1/GPa) = 0.02444092
#
# Stress axis : x y z
#
# Youngs Moduli (GPa) = 39.04155 39.50769 68.41914
#
# Poissons Ratio (x) = 0.18657 0.56246
# Poissons Ratio (y) = 0.18437 0.52045
# Poissons Ratio (z) = 0.32095 0.30053
#
# Static dielectric constant tensor:
#      x y z
#    x 1.524790 0.000000 0.018940 
#    y 0.000000 1.553420 0.000000 
#    z 0.018940 0.000000 1.570230 
# 
# From -- ./inp_files/280316.got.cif
#   From: 2010.05.17/outbox.cif.g08.bks.cpg/sg12_141_cif.got.tgz:280316.got - 2010.06.03 13:09:07.
