data_PCOD9184363
_publ_section_title
;
Structure prediction by ZEFSAII (Michael W. Deem and Ramdas Pophale) SiO2 
 PCOD9184363
Probable space group: C 2/M
;
_chemical_formula_sum "Si O2"
_cell_formula_units_Z 56
_cell_length_a 15.740766
_cell_length_b 14.753242
_cell_length_c 12.455736
_cell_angle_alpha 90.000000
_cell_angle_beta 54.030839
_cell_angle_gamma 90.000000
_cell_volume 2341.046853
_symmetry_space_group_name_H-M "C 2/M"
_symmetry_group_IT_number 12
_symmetry_cell_setting 'monoclinic'
loop_
_space_group_symop_operation_xyz
x,y,z
-x,y,-z
-x,-y,-z
x,-y,z
1/2+x,1/2+y,z
1/2-x,1/2+y,-z
1/2-x,1/2-y,-z
1/2+x,1/2-y,z
loop_
_atom_site_type_symbol
_atom_site_label
_atom_site_fract_x
_atom_site_fract_y
_atom_site_fract_z
Si Si1 0.561450 0.856505 0.849182
Si Si2 0.475598 0.352087 0.134248
Si Si3 0.792698 0.896567 0.424203
Si Si4 0.366516 0.108116 0.856439
Si Si5 0.330471 0.611229 0.861867
Si Si6 0.196415 0.103416 0.353021
Si Si7 0.120014 0.611185 0.392615
O O1 0.568808 0.748324 0.853802
O O2 0.485059 0.873826 0.805604
O O3 0.676863 0.896095 0.752461
O O4 0.500000 0.891488 0.000000
O O5 0.388907 0.399229 0.271136
O O6 0.581359 0.350831 0.125010
O O7 0.500000 0.393460 0.000000
O O8 0.824611 0.854581 0.514658
O O9 0.696010 0.855680 0.430341
O O10 0.761307 0.000000 0.474130
O O11 0.344350 0.140805 0.752556
O O12 0.354739 0.000000 0.862263
O O13 0.282586 0.140104 0.006938
O O14 0.335737 0.500000 0.859576
O O15 0.344932 0.642314 0.728421
O O16 0.155800 0.000000 0.385145
O O17 0.124290 0.500000 0.390380
O O18 0.000000 0.637293 0.500000
#
# Coordination Sequence:
#
# PCOD9184363 Si02
#       7
#     8   8   8   8   8   8   8
#     4  11  22  38  58  88 123 160 194 241 303 361
#     4  11  25  41  57  86 121 165 203 237 295 360
#     4  10  21  39  64  87 117 157 196 249 299 348
#     4  10  19  33  59  89 117 153 197 251 302 343
#     4  10  21  38  62  90 117 151 202 253 293 348
#     4  10  21  39  65  92 116 151 199 252 303 350
#     4   9  17  31  53  85 116 144 186 237 293 348
#
# _framework density 23.920921
#
# number of rings (size 3 to 8) (size 9 to 14) (size 15 to 20)
#    0.000    1.857    1.429    2.571    0.000    6.857 
#    2.571    2.143    3.143    0.000    0.000    0.000 
#    0.000    0.000    0.000    0.000    0.000    0.000 
#
# Total GULP energy -156573.166183 kJ/mol
# GULP energy per Si atom -5591.898792 kJ/mol
# Density = 2.386648 g / cm^3
# Si number density = 23.920921 Si / 1000 Ang^3
#
#
#
# Elastic Constant Matrix: (Units=GPa)
#
#
# Indices 1 2 3 4 5 6 
#
# 1 104.8680 -12.7218 40.2183 0.0000 26.1239 0.0000
# 2 -12.7218 69.0832 1.6502 0.0000 8.8074 0.0000
# 3 40.2183 1.6502 146.6764 0.0000 40.2449 0.0000
# 4 0.0000 0.0000 0.0000 1.4747 0.0000 21.5805
# 5 26.1239 8.8074 40.2449 0.0000 46.5923 0.0000
# 6 0.0000 0.0000 0.0000 21.5805 0.0000 -105.3221
#
#
#
# Elastic Compliance Matrix: (Units=1/GPa)
#
#
# Indices 1 2 3 4 5 6 
#
# 1 0.012009 0.002992 -0.001735 0.000000 -0.005800 0.000000
# 2 0.002992 0.015649 0.000361 0.000000 -0.004948 0.000000
# 3 -0.001735 0.000361 0.009228 0.000000 -0.007067 0.000000
# 4 0.000000 0.000000 0.000000 0.169591 0.000000 0.034749
# 5 -0.005800 -0.004948 -0.007067 0.000000 0.031754 0.000000
# 6 0.000000 0.000000 0.000000 0.034749 0.000000 -0.002375
#
#
# Mechanical properties :
#
#
# Convention : Reuss Voigt Hill
#
# Bulk Modulus (GPa) = 24.92348 42.10233 33.51290
# Shear Modulus (GPa) = 20.32568 7.98104 14.15336
#
# Velocity S-wave (km/s) = 2.91813 1.82857 2.43507
# Velocity P-wave (km/s) = 4.66859 4.70075 4.68470
#
# Compressibility (1/GPa) = 0.04012281
#
# Stress axis : x y z
#
# Youngs Moduli (GPa) = 83.26949 63.90377 108.36219
#
# Poissons Ratio (x) = -0.19123 0.18801
# Poissons Ratio (y) = -0.24918 -0.03911
# Poissons Ratio (z) = 0.14448 -0.02307
#
# Static dielectric constant tensor:
#      x y z
#    x 1.869400 0.000000 0.032150 
#    y 0.000000 1.927720 0.000000 
#    z 0.032150 0.000000 1.914230 
# 
# From -- ./inp_files/145480.got.cif
#   From: 2010.05.17/outbox.cif.g08.bks.cpg/sg12_73_cif.got.tgz:145480.got - 2010.06.03 13:09:07.
