data_PCOD9184412
_publ_section_title
;
Structure prediction by ZEFSAII (Michael W. Deem and Ramdas Pophale) SiO2 
 PCOD9184412
Probable space group: C 2/M
;
_chemical_formula_sum "Si O2"
_cell_formula_units_Z 40
_cell_length_a 16.050958
_cell_length_b 8.783757
_cell_length_c 12.258958
_cell_angle_alpha 90.000000
_cell_angle_beta 97.272635
_cell_angle_gamma 90.000000
_cell_volume 1714.457826
_symmetry_space_group_name_H-M "C 2/M"
_symmetry_group_IT_number 12
_symmetry_cell_setting 'monoclinic'
loop_
_space_group_symop_operation_xyz
x,y,z
-x,y,-z
-x,-y,-z
x,-y,z
1/2+x,1/2+y,z
1/2-x,1/2+y,-z
1/2-x,1/2-y,-z
1/2+x,1/2-y,z
loop_
_atom_site_type_symbol
_atom_site_label
_atom_site_fract_x
_atom_site_fract_y
_atom_site_fract_z
Si Si1 0.704161 0.000000 0.270731
Si Si2 0.658688 0.000000 0.734357
Si Si3 0.920746 0.174135 0.567808
Si Si4 0.491195 0.000000 0.805278
Si Si5 0.729613 0.723460 0.121795
Si Si6 0.173410 0.500000 0.491020
Si Si7 0.957429 0.168353 0.834045
O O1 0.602875 0.000000 0.256087
O O2 0.730349 0.136714 0.201949
O O3 0.735237 0.000000 0.398246
O O4 0.694199 0.867041 0.813503
O O5 0.697997 0.000000 0.621408
O O6 0.558695 0.000000 0.719093
O O7 0.870428 0.331135 0.531959
O O8 0.944803 0.178942 0.700413
O O9 0.000000 0.179523 0.500000
O O10 0.885230 0.000000 0.549496
O O11 0.498572 0.165076 0.867713
O O12 0.634404 0.663685 0.123925
O O13 0.750000 0.750000 0.000000
O O14 0.997694 0.000000 0.862478
#
# Coordination Sequence:
#
# PCOD9184412 Si02
#       7
#     4   4   8   4   8   4   8
#     4  10  23  43  69  99 136 201 221 271 363 419
#     4  12  27  41  71 107 133 175 227 303 356 390
#     4  10  19  33  60  95 135 185 225 265 337 421
#     4  10  20  41  65 104 138 171 235 283 334 416
#     4  11  23  46  68  94 133 186 242 285 341 425
#     4  12  21  38  64  96 148 169 229 284 348 421
#     4  10  19  39  69  93 134 189 233 262 348 417
#
# _framework density 23.33099
#
# number of rings (size 3 to 8) (size 9 to 14) (size 15 to 20)
#    0.000    1.400    5.000    2.100    0.000    0.800 
#    3.600    8.000    0.000    1.200    0.000    0.000 
#    0.000    0.000    0.000    0.000    0.000    0.000 
#
# Total GULP energy -111365.328900 kJ/mol
# GULP energy per Si atom -5568.266445 kJ/mol
# Density = 2.327789 g / cm^3
# Si number density = 23.330990 Si / 1000 Ang^3
#
#
#
# Elastic Constant Matrix: (Units=GPa)
#
#
# Indices 1 2 3 4 5 6 
#
# 1 53.3179 35.2313 53.6349 0.0000 -30.2213 0.0000
# 2 35.2313 216.9033 35.3858 0.0000 1.5427 0.0000
# 3 53.6349 35.3858 215.2661 0.0000 -34.2053 0.0000
# 4 0.0000 0.0000 0.0000 26.3133 0.0000 -6.4506
# 5 -30.2213 1.5427 -34.2053 0.0000 34.9069 0.0000
# 6 0.0000 0.0000 0.0000 -6.4506 0.0000 10.2257
#
#
#
# Elastic Compliance Matrix: (Units=1/GPa)
#
#
# Indices 1 2 3 4 5 6 
#
# 1 0.052134 -0.007892 -0.005288 0.000000 0.040303 0.000000
# 2 -0.007892 0.005971 -0.000169 0.000000 -0.007262 0.000000
# 3 -0.005288 -0.000169 0.006235 0.000000 0.001539 0.000000
# 4 0.000000 0.000000 0.000000 0.044956 0.000000 0.028359
# 5 0.040303 -0.007262 0.001539 0.000000 0.065370 0.000000
# 6 0.000000 0.000000 0.000000 0.028359 0.000000 0.115682
#
#
# Mechanical properties :
#
#
# Convention : Reuss Voigt Hill
#
# Bulk Modulus (GPa) = 26.56599 81.55459 54.06029
# Shear Modulus (GPa) = 15.17014 38.37156 26.77085
#
# Velocity S-wave (km/s) = 2.55270 4.05984 3.39106
# Velocity P-wave (km/s) = 4.48326 7.55035 6.20916
#
# Compressibility (1/GPa) = 0.03764212
#
# Stress axis : x y z
#
# Youngs Moduli (GPa) = 19.18130 167.46215 160.37484
#
# Poissons Ratio (x) = 1.32161 0.84809
# Poissons Ratio (y) = 0.15138 0.02714
# Poissons Ratio (z) = 0.10143 0.02834
#
# Static dielectric constant tensor:
#      x y z
#    x 1.999520 0.000000 0.022210 
#    y 0.000000 1.946400 0.000000 
#    z 0.022210 0.000000 1.808270 
# 
# From -- ./inp_files/151925.got.cif
#   From: 2010.05.17/outbox.cif.g08.bks.cpg/sg12_76_cif.got.tgz:151925.got - 2010.06.03 13:09:07.
