data_PCOD9184211
_publ_section_title
;
Structure prediction by ZEFSAII (Michael W. Deem and Ramdas Pophale) SiO2 
 PCOD9184211
Probable space group: C 2/M
;
_chemical_formula_sum "Si O2"
_cell_formula_units_Z 56
_cell_length_a 19.119797
_cell_length_b 15.577633
_cell_length_c 22.509034
_cell_angle_alpha 90.000000
_cell_angle_beta 153.442749
_cell_angle_gamma 90.000000
_cell_volume 2997.356023
_symmetry_space_group_name_H-M "C 2/M"
_symmetry_group_IT_number 12
_symmetry_cell_setting 'monoclinic'
loop_
_space_group_symop_operation_xyz
x,y,z
-x,y,-z
-x,-y,-z
x,-y,z
1/2+x,1/2+y,z
1/2-x,1/2+y,-z
1/2-x,1/2-y,-z
1/2+x,1/2-y,z
loop_
_atom_site_type_symbol
_atom_site_label
_atom_site_fract_x
_atom_site_fract_y
_atom_site_fract_z
Si Si1 0.590648 0.162492 0.125707
Si Si2 0.177147 0.249909 0.509963
Si Si3 0.879001 0.407500 0.366194
Si Si4 0.830576 0.098425 0.401004
Si Si5 0.635798 0.720006 0.965516
Si Si6 0.817987 0.285851 0.222666
Si Si7 0.636630 0.401891 0.283114
O O1 0.704087 0.105353 0.251922
O O2 0.476569 0.209841 0.086703
O O3 0.699343 0.231870 0.173903
O O4 0.500000 0.121651 0.000000
O O5 0.250000 0.250000 0.500000
O O6 0.209287 0.170019 0.579210
O O7 0.250984 0.336990 0.594730
O O8 0.990666 0.246218 0.357065
O O9 0.954836 0.500000 0.413957
O O10 0.841758 0.373616 0.274498
O O11 0.722948 0.410173 0.285529
O O12 0.000000 0.355321 0.500000
O O13 0.000000 0.117206 0.500000
O O14 0.833810 0.000000 0.426421
O O15 0.525476 0.646418 0.853824
O O16 0.750000 0.750000 0.000000
O O17 0.749019 0.696897 0.106046
O O18 0.621132 0.500000 0.295138
#
# Coordination Sequence:
#
# PCOD9184211 Si02
#       7
#     8   8   8   8   8   8   8
#     4  10  21  39  64  90 122 163 217 267 321 382
#     4  12  24  40  66  96 131 173 210 270 332 389
#     4  10  19  33  57  91 123 156 201 250 302 370
#     4  11  23  42  69  98 129 169 224 280 328 385
#     4  11  23  40  61  89 124 171 215 260 318 380
#     4  11  21  36  62  91 121 168 211 256 315 384
#     4  11  23  40  65  93 129 168 208 262 324 388
#
# _framework density 18.683133000000002
#
# number of rings (size 3 to 8) (size 9 to 14) (size 15 to 20)
#    0.000    1.143    5.714    0.857    0.000    1.429 
#    0.000    2.143    0.000    0.000    0.000    0.000 
#    0.000    0.000    0.000    0.000    0.000    0.000 
#
# Total GULP energy -155873.590913 kJ/mol
# GULP energy per Si atom -5566.913961 kJ/mol
# Density = 1.864061 g / cm^3
# Si number density = 18.683133 Si / 1000 Ang^3
#
#
#
# Elastic Constant Matrix: (Units=GPa)
#
#
# Indices 1 2 3 4 5 6 
#
# 1 128.0375 38.8367 42.9669 -0.0003 1.1872 0.0019
# 2 38.8367 79.6343 30.7952 0.0081 -2.0719 0.0006
# 3 42.9669 30.7952 130.7403 0.0160 -1.1162 -0.0044
# 4 -0.0003 0.0081 0.0160 14.9302 -0.0015 9.0292
# 5 1.1872 -2.0719 -1.1162 -0.0015 24.9305 -0.0024
# 6 0.0019 0.0006 -0.0044 9.0292 -0.0024 9.4722
#
#
#
# Elastic Compliance Matrix: (Units=1/GPa)
#
#
# Indices 1 2 3 4 5 6 
#
# 1 0.009774 -0.003900 -0.002301 0.000015 -0.000893 -0.000018
# 2 -0.003900 0.015397 -0.002333 -0.000012 0.001361 0.000011
# 3 -0.002301 -0.002333 0.008957 -0.000027 0.000317 0.000030
# 4 0.000015 -0.000012 -0.000027 0.158142 -0.000008 -0.150745
# 5 -0.000893 0.001361 0.000317 -0.000008 0.040281 0.000018
# 6 -0.000018 0.000011 0.000030 -0.150745 0.000018 0.249266
#
#
# Mechanical properties :
#
#
# Convention : Reuss Voigt Hill
#
# Bulk Modulus (GPa) = 58.61898 62.62329 60.62114
# Shear Modulus (GPa) = 9.90938 24.92082 17.41510
#
# Velocity S-wave (km/s) = 2.30552 3.65618 3.05639
# Velocity P-wave (km/s) = 6.20731 7.17042 6.70618
#
# Compressibility (1/GPa) = 0.01705932
#
# Stress axis : x y z
#
# Youngs Moduli (GPa) = 102.31652 64.94739 111.64067
#
# Poissons Ratio (x) = 0.25329 0.25689
# Poissons Ratio (y) = 0.39902 0.26050
# Poissons Ratio (z) = 0.23544 0.15155
#
# Static dielectric constant tensor:
#      x y z
#    x 1.635580 0.000000 0.021990 
#    y 0.000000 1.705250 0.000000 
#    z 0.021990 0.000000 1.640960 
# 
# From -- ./inp_files/316773.got.cif
#   From: 2010.05.17/outbox.cif.g08.bks.cpg/sg12_159_cif.got.tgz:316773.got - 2010.06.03 13:09:07.
