data_PCOD9184828
_publ_section_title
;
Structure prediction by ZEFSAII (Michael W. Deem and Ramdas Pophale) SiO2 
 PCOD9184828
Probable space group: C 2/M
;
_chemical_formula_sum "Si O2"
_cell_formula_units_Z 56
_cell_length_a 10.193793
_cell_length_b 25.826033
_cell_length_c 18.728641
_cell_angle_alpha 90.000000
_cell_angle_beta 132.267370
_cell_angle_gamma 90.000000
_cell_volume 3648.714339
_symmetry_space_group_name_H-M "C 2/M"
_symmetry_group_IT_number 12
_symmetry_cell_setting 'monoclinic'
loop_
_space_group_symop_operation_xyz
x,y,z
-x,y,-z
-x,-y,-z
x,-y,z
1/2+x,1/2+y,z
1/2-x,1/2+y,-z
1/2-x,1/2-y,-z
1/2+x,1/2-y,z
loop_
_atom_site_type_symbol
_atom_site_label
_atom_site_fract_x
_atom_site_fract_y
_atom_site_fract_z
Si Si1 0.290082 0.302171 0.104951
Si Si2 0.705340 0.756931 0.567002
Si Si3 0.296621 0.060493 0.439599
Si Si4 0.787095 0.058324 0.424422
Si Si5 0.237933 0.343960 0.314200
Si Si6 0.461815 0.649062 0.696336
Si Si7 0.506337 0.205588 0.887927
O O1 0.413302 0.344144 0.188837
O O2 0.411207 0.256489 0.117906
O O3 0.156885 0.281661 0.118278
O O4 0.160348 0.319259 0.993332
O O5 0.500000 0.772147 0.500000
O O6 0.750000 0.750000 0.500000
O O7 0.732844 0.703550 0.620451
O O8 0.833773 0.801111 0.644681
O O9 0.500000 0.074907 0.500000
O O10 0.266598 0.065421 0.513290
O O11 0.158792 0.098201 0.350521
O O12 0.271386 0.000000 0.410886
O O13 0.711658 0.103411 0.347791
O O14 0.000000 0.062267 0.500000
O O15 0.737621 0.000000 0.383542
O O16 0.409995 0.349540 0.326108
O O17 0.074804 0.330213 0.202964
#
# Coordination Sequence:
#
# PCOD9184828 Si02
#       7
#     8   8   8   8   8   8   8
#     4   9  18  33  51  71  97 129 170 202 248 296
#     4  12  22  31  43  68 103 132 160 196 246 295
#     4  10  21  37  53  74 101 132 170 209 244 290
#     4  10  19  34  55  73  94 133 174 201 239 294
#     4  11  20  33  50  74 102 130 166 207 248 290
#     4  11  20  33  51  74  99 134 165 203 251 298
#     4   9  18  33  51  70  98 131 164 210 243 295
#
# _framework density 15.347872000000001
#
# number of rings (size 3 to 8) (size 9 to 14) (size 15 to 20)
#    0.000    1.714    4.286    1.714    0.000    0.000 
#    2.571    0.000    0.000    0.857    0.000    4.000 
#    0.000    3.429    0.000    0.000    0.000    0.000 
#
# Total GULP energy -156154.029427 kJ/mol
# GULP energy per Si atom -5576.929622 kJ/mol
# Density = 1.531294 g / cm^3
# Si number density = 15.347872 Si / 1000 Ang^3
#
#
#
# Elastic Constant Matrix: (Units=GPa)
#
#
# Indices 1 2 3 4 5 6 
#
# 1 81.8658 27.6856 43.2741 0.0000 10.0217 0.0000
# 2 27.6856 86.4578 60.7134 0.0000 5.6904 0.0000
# 3 43.2741 60.7134 111.2129 0.0000 5.9295 0.0000
# 4 0.0000 0.0000 0.0000 17.5630 0.0000 1.6971
# 5 10.0217 5.6904 5.9295 0.0000 20.5245 0.0000
# 6 0.0000 0.0000 0.0000 1.6971 0.0000 24.2664
#
#
#
# Elastic Compliance Matrix: (Units=1/GPa)
#
#
# Indices 1 2 3 4 5 6 
#
# 1 0.016156 -0.000952 -0.005444 0.000000 -0.006052 0.000000
# 2 -0.000952 0.018919 -0.009854 0.000000 -0.001933 0.000000
# 3 -0.005444 -0.009854 0.016456 0.000000 0.000636 0.000000
# 4 0.000000 0.000000 0.000000 0.057325 0.000000 -0.004009
# 5 -0.006052 -0.001933 0.000636 0.000000 0.052029 0.000000
# 6 0.000000 0.000000 0.000000 -0.004009 0.000000 0.041490
#
#
# Mechanical properties :
#
#
# Convention : Reuss Voigt Hill
#
# Bulk Modulus (GPa) = 52.55132 60.32029 56.43581
# Shear Modulus (GPa) = 20.72812 22.32835 21.52824
#
# Velocity S-wave (km/s) = 3.67897 3.81834 3.74931
# Velocity P-wave (km/s) = 7.23609 7.66988 7.45614
#
# Compressibility (1/GPa) = 0.01902902
#
# Stress axis : x y z
#
# Youngs Moduli (GPa) = 61.89829 52.85800 60.76875
#
# Poissons Ratio (x) = 0.05033 0.33081
# Poissons Ratio (y) = 0.05894 0.59884
# Poissons Ratio (z) = 0.33696 0.52089
#
# Static dielectric constant tensor:
#      x y z
#    x 1.483530 0.000000 0.006240 
#    y 0.000000 1.494890 0.000000 
#    z 0.006240 0.000000 1.510410 
# 
# From -- ./inp_files/198386.got.cif
#   From: 2010.05.17/outbox.cif.g08.bks.cpg/sg12_100_cif.got.tgz:198386.got - 2010.06.03 13:09:07.
