data_PCOD9184373
_publ_section_title
;
Structure prediction by ZEFSAII (Michael W. Deem and Ramdas Pophale) SiO2 
 PCOD9184373
Probable space group: C 2/M
;
_chemical_formula_sum "Si O2"
_cell_formula_units_Z 42
_cell_length_a 16.457529
_cell_length_b 16.175874
_cell_length_c 7.046812
_cell_angle_alpha 90.000000
_cell_angle_beta 103.308756
_cell_angle_gamma 90.000000
_cell_volume 1825.584952
_symmetry_space_group_name_H-M "C 2/M"
_symmetry_group_IT_number 12
_symmetry_cell_setting 'monoclinic'
loop_
_space_group_symop_operation_xyz
x,y,z
-x,y,-z
-x,-y,-z
x,-y,z
1/2+x,1/2+y,z
1/2-x,1/2+y,-z
1/2-x,1/2-y,-z
1/2+x,1/2-y,z
loop_
_atom_site_type_symbol
_atom_site_label
_atom_site_fract_x
_atom_site_fract_y
_atom_site_fract_z
Si Si1 0.500000 0.500000 0.000000
Si Si2 0.283607 0.402089 0.051491
Si Si3 0.394291 0.352125 0.804675
Si Si4 0.737333 0.902190 0.465934
Si Si5 0.567426 0.830402 0.281468
Si Si6 0.597927 0.097795 0.876025
O O1 0.541686 0.427176 0.156692
O O2 0.306622 0.500000 0.035100
O O3 0.267611 0.389381 0.264390
O O4 0.355656 0.348014 0.996974
O O5 0.195840 0.385765 0.898941
O O6 0.313552 0.373188 0.635247
O O7 0.431787 0.266545 0.758109
O O8 0.649002 0.856192 0.444059
O O9 0.722802 0.000000 0.485239
O O10 0.473923 0.857864 0.281868
O O11 0.584270 0.876796 0.088829
O O12 0.586019 0.000000 0.850103
#
# Coordination Sequence:
#
# PCOD9184373 Si02
#       6
#     2   8   8   8   8   8
#     4  12  24  40  62  80 124 170 196 248 298 364
#     4   9  19  38  64  88 117 157 202 246 301 365
#     4  12  23  40  59  89 123 160 210 249 300 364
#     4  10  20  38  62  88 122 163 202 248 307 362
#     4  10  19  33  59  91 121 157 201 251 306 358
#     4   9  17  34  60  90 120 155 197 247 308 366
#
# _framework density 23.006326000000001
#
# number of rings (size 3 to 8) (size 9 to 14) (size 15 to 20)
#    0.000    1.905    1.905    5.143    0.000    3.048 
#    0.000    2.857    0.000   10.286    0.000    0.000 
#    0.000    0.000    0.000    0.000    0.000    0.000 
#
# Total GULP energy -117177.683555 kJ/mol
# GULP energy per Si atom -5579.889693 kJ/mol
# Density = 2.295396 g / cm^3
# Si number density = 23.006326 Si / 1000 Ang^3
#
#
#
# Elastic Constant Matrix: (Units=GPa)
#
#
# Indices 1 2 3 4 5 6 
#
# 1 -0.6694 93.6903 50.8005 0.0000 21.5423 0.0000
# 2 93.6903 107.6311 8.2233 0.0000 16.9281 0.0000
# 3 50.8005 8.2233 94.5848 0.0000 24.8304 0.0000
# 4 0.0000 0.0000 0.0000 -21.8775 0.0000 -21.3185
# 5 21.5423 16.9281 24.8304 0.0000 37.2072 0.0000
# 6 0.0000 0.0000 0.0000 -21.3185 0.0000 -53.8135
#
#
#
# Elastic Compliance Matrix: (Units=1/GPa)
#
#
# Indices 1 2 3 4 5 6 
#
# 1 -0.009700 0.008293 0.004856 0.000000 -0.001397 0.000000
# 2 0.008293 0.002930 -0.003756 0.000000 -0.003628 0.000000
# 3 0.004856 -0.003756 0.010403 0.000000 -0.008045 0.000000
# 4 0.000000 0.000000 0.000000 -0.074449 0.000000 0.029493
# 5 -0.001397 -0.003628 -0.008045 0.000000 0.034705 0.000000
# 6 0.000000 0.000000 0.000000 0.029493 0.000000 -0.030267
#
#
# Mechanical properties :
#
#
# Convention : Reuss Voigt Hill
#
# Bulk Modulus (GPa) = 44.60932 56.33055 50.46993
# Shear Modulus (GPa) = -64.35912 -4.44128 -34.40020
#
# Velocity S-wave (km/s) = -5.29483 -1.39092 -3.87104
# Velocity P-wave (km/s) = 4.23654 4.68598 1.41601
#
# Compressibility (1/GPa) = 0.02241684
#
# Stress axis : x y z
#
# Youngs Moduli (GPa) = -103.09041 341.29103 96.12497
#
# Poissons Ratio (x) = -2.83017 -0.46675
# Poissons Ratio (y) = 0.85488 0.36107
# Poissons Ratio (z) = 0.50057 1.28199
#
# Static dielectric constant tensor:
#      x y z
#    x 18.264930 0.000000 -16.540250 
#    y 0.000000 1.791110 0.000000 
#    z -16.540250 0.000000 18.622950 
# 
# From -- ./inp_files/73746.got.cif
#   From: 2010.05.17/outbox.cif.g08.bks.cpg/sg12_37_cif.got.tgz:73746.got - 2010.06.03 13:09:07.
