data_PCOD9184517
_publ_section_title
;
Structure prediction by ZEFSAII (Michael W. Deem and Ramdas Pophale) SiO2 
 PCOD9184517
Probable space group: C 2/M
;
_chemical_formula_sum "Si O2"
_cell_formula_units_Z 64
_cell_length_a 16.172654
_cell_length_b 13.380134
_cell_length_c 27.170325
_cell_angle_alpha 90.000000
_cell_angle_beta 149.724046
_cell_angle_gamma 90.000000
_cell_volume 2964.213499
_symmetry_space_group_name_H-M "C 2/M"
_symmetry_group_IT_number 12
_symmetry_cell_setting 'monoclinic'
loop_
_space_group_symop_operation_xyz
x,y,z
-x,y,-z
-x,-y,-z
x,-y,z
1/2+x,1/2+y,z
1/2-x,1/2+y,-z
1/2-x,1/2-y,-z
1/2+x,1/2-y,z
loop_
_atom_site_type_symbol
_atom_site_label
_atom_site_fract_x
_atom_site_fract_y
_atom_site_fract_z
Si Si1 0.063177 0.387047 0.476397
Si Si2 0.786376 0.387383 0.067673
Si Si3 0.681118 0.225073 0.375478
Si Si4 0.850979 0.324827 0.988207
Si Si5 0.283202 0.192033 0.805101
Si Si6 0.567211 0.390679 0.771502
Si Si7 0.830436 0.385400 0.722240
Si Si8 0.098714 0.614611 0.708394
O O1 0.134721 0.500000 0.508259
O O2 0.187996 0.296341 0.531316
O O3 0.000000 0.377810 0.500000
O O4 0.926812 0.381990 0.363704
O O5 0.723159 0.500000 0.042907
O O6 0.805553 0.365081 0.019228
O O7 0.971621 0.382865 0.184084
O O8 0.682199 0.294100 0.033122
O O9 0.563867 0.304768 0.287160
O O10 0.753617 0.156846 0.369632
O O11 0.567474 0.157836 0.352198
O O12 0.044454 0.341246 0.083030
O O13 0.725448 0.376352 0.886972
O O14 0.136551 0.127182 0.752367
O O15 0.295407 0.176810 0.753187
O O16 0.239726 0.306804 0.794706
O O17 0.497146 0.500000 0.742609
O O18 0.786411 0.500000 0.709084
O O19 0.126670 0.500000 0.737813
#
# Coordination Sequence:
#
# PCOD9184517 Si02
#       8
#     8   8   8   8   8   8   8   8
#     4  10  21  39  63  89 117 148 184 231 290 343
#     4   9  18  32  51  75 108 146 187 234 281 331
#     4  11  21  37  61  87 115 150 189 234 279 347
#     4  10  19  34  51  80 112 146 195 238 281 331
#     4  10  22  36  56  80 114 151 194 235 282 337
#     4  11  22  36  55  83 115 150 193 241 286 333
#     4  10  19  35  57  80 110 151 188 230 284 335
#     4  10  22  40  60  86 117 151 189 233 287 341
#
# _framework density 21.590886000000001
#
# number of rings (size 3 to 8) (size 9 to 14) (size 15 to 20)
#    0.000    1.875    1.250    3.000    0.000    2.500 
#    0.000    0.625    0.000   11.250    0.000    0.000 
#    0.000    0.000    0.000    0.000    0.000    0.000 
#
# Total GULP energy -178708.923106 kJ/mol
# GULP energy per Si atom -5584.653847 kJ/mol
# Density = 2.154174 g / cm^3
# Si number density = 21.590886 Si / 1000 Ang^3
#
#
#
# Elastic Constant Matrix: (Units=GPa)
#
#
# Indices 1 2 3 4 5 6 
#
# 1 24.7445 -4.3064 -7.8476 0.0000 -7.8901 0.0000
# 2 -4.3064 114.9018 -6.7349 0.0000 3.0643 0.0000
# 3 -7.8476 -6.7349 31.4336 0.0000 -8.8282 0.0000
# 4 0.0000 0.0000 0.0000 26.7080 0.0000 -2.7352
# 5 -7.8901 3.0643 -8.8282 0.0000 21.8933 0.0000
# 6 0.0000 0.0000 0.0000 -2.7352 0.0000 18.0467
#
#
#
# Elastic Compliance Matrix: (Units=1/GPa)
#
#
# Indices 1 2 3 4 5 6 
#
# 1 0.057864 0.002745 0.023437 0.000000 0.029920 0.000000
# 2 0.002745 0.008949 0.002852 0.000000 0.000886 0.000000
# 3 0.023437 0.002852 0.045712 0.000000 0.026480 0.000000
# 4 0.000000 0.000000 0.000000 0.038032 0.000000 0.005764
# 5 0.029920 0.000886 0.026480 0.000000 0.067013 0.000000
# 6 0.000000 0.000000 0.000000 0.005764 0.000000 0.056285
#
#
# Mechanical properties :
#
#
# Convention : Reuss Voigt Hill
#
# Bulk Modulus (GPa) = 5.86191 14.81133 10.33662
# Shear Modulus (GPa) = 18.33828 25.99419 22.16624
#
# Velocity S-wave (km/s) = 2.91753 3.47355 3.20761
# Velocity P-wave (km/s) = 3.75102 4.79190 4.30305
#
# Compressibility (1/GPa) = 0.17059296
#
# Stress axis : x y z
#
# Youngs Moduli (GPa) = 17.28188 111.73866 21.87588
#
# Poissons Ratio (x) = -0.30667 -0.51271
# Poissons Ratio (y) = -0.04743 -0.06238
# Poissons Ratio (z) = -0.40504 -0.31864
#
# Static dielectric constant tensor:
#      x y z
#    x 1.782070 0.000000 -0.021900 
#    y 0.000000 1.781670 0.000000 
#    z -0.021900 0.000000 1.787320 
# 
# From -- ./inp_files/296522.got.cif
#   From: 2010.05.17/outbox.cif.g08.bks.cpg/sg12_149_cif.got.tgz:296522.got - 2010.06.03 13:09:07.
