data_PCOD9184066
_publ_section_title
;
Structure prediction by ZEFSAII (Michael W. Deem and Ramdas Pophale) SiO2 
 PCOD9184066
Probable space group: C 2/M
;
_chemical_formula_sum "Si O2"
_cell_formula_units_Z 48
_cell_length_a 19.221271
_cell_length_b 14.508586
_cell_length_c 8.466056
_cell_angle_alpha 90.000000
_cell_angle_beta 56.740478
_cell_angle_gamma 90.000000
_cell_volume 1974.221629
_symmetry_space_group_name_H-M "C 2/M"
_symmetry_group_IT_number 12
_symmetry_cell_setting 'monoclinic'
loop_
_space_group_symop_operation_xyz
x,y,z
-x,y,-z
-x,-y,-z
x,-y,z
1/2+x,1/2+y,z
1/2-x,1/2+y,-z
1/2-x,1/2-y,-z
1/2+x,1/2-y,z
loop_
_atom_site_type_symbol
_atom_site_label
_atom_site_fract_x
_atom_site_fract_y
_atom_site_fract_z
Si Si1 0.527166 0.195791 0.209529
Si Si2 0.821544 0.268401 0.778748
Si Si3 0.189802 0.892728 0.427424
Si Si4 0.888299 0.390873 0.203446
Si Si5 0.534060 0.599930 0.136415
Si Si6 0.299549 0.394938 0.242286
O O1 0.596976 0.180554 0.255698
O O2 0.441357 0.140946 0.290264
O O3 0.576614 0.169776 0.985866
O O4 0.509149 0.304428 0.244194
O O5 0.842948 0.172431 0.668173
O O6 0.775099 0.329375 0.706972
O O7 0.750000 0.250000 0.000000
O O8 0.289478 0.878080 0.323974
O O9 0.158298 0.870712 0.643042
O O10 0.175807 0.000000 0.409231
O O11 0.903606 0.500000 0.157678
O O12 0.514097 0.500000 0.234622
O O13 0.633198 0.606644 0.981055
O O14 0.500000 0.597698 0.000000
O O15 0.270119 0.500000 0.297996
#
# Coordination Sequence:
#
# PCOD9184066 Si02
#       6
#     8   8   8   8   8   8
#     4  11  20  34  54  85 122 147 190 242 295 347
#     4  12  22  35  58  92 122 151 192 256 302 343
#     4  10  22  41  63  86 119 161 201 244 300 362
#     4  10  20  36  59  84 117 158 195 236 291 358
#     4  10  19  33  57  83 110 147 194 244 285 340
#     4  10  22  39  60  86 118 158 199 241 299 362
#
# _framework density 24.313381
#
# number of rings (size 3 to 8) (size 9 to 14) (size 15 to 20)
#    0.000    1.500    5.000    1.500    0.000    2.667 
#    0.000    0.833    0.000    3.000    0.000    4.667 
#    0.000    0.000    0.000    0.000    0.000    0.000 
#
# Total GULP energy -134243.587150 kJ/mol
# GULP energy per Si atom -5593.482798 kJ/mol
# Density = 2.425804 g / cm^3
# Si number density = 24.313381 Si / 1000 Ang^3
#
#
#
# Elastic Constant Matrix: (Units=GPa)
#
#
# Indices 1 2 3 4 5 6 
#
# 1 106.3039 38.3869 21.5584 0.0000 5.3619 0.0000
# 2 38.3869 111.4689 24.1730 0.0000 14.3962 0.0000
# 3 21.5584 24.1730 77.9040 0.0000 -4.5864 0.0000
# 4 0.0000 0.0000 0.0000 11.8784 0.0000 5.5140
# 5 5.3619 14.3962 -4.5864 0.0000 44.9279 0.0000
# 6 0.0000 0.0000 0.0000 5.5140 0.0000 1.6720
#
#
#
# Elastic Compliance Matrix: (Units=1/GPa)
#
#
# Indices 1 2 3 4 5 6 
#
# 1 0.011038 -0.003293 -0.002060 0.000000 -0.000472 0.000000
# 2 -0.003293 0.011149 -0.002752 0.000000 -0.003460 0.000000
# 3 -0.002060 -0.002752 0.014413 0.000000 0.002599 0.000000
# 4 0.000000 0.000000 0.000000 -0.158574 0.000000 0.522955
# 5 -0.000472 -0.003460 0.002599 0.000000 0.023688 0.000000
# 6 0.000000 0.000000 0.000000 0.522955 0.000000 -1.126552
#
#
# Mechanical properties :
#
#
# Convention : Reuss Voigt Hill
#
# Bulk Modulus (GPa) = 49.04582 51.54593 50.29588
# Shear Modulus (GPa) = -4.16032 25.79955 10.81961
#
# Velocity S-wave (km/s) = -1.30952 3.26103 2.11181
# Velocity P-wave (km/s) = 4.23435 5.95195 5.16505
#
# Compressibility (1/GPa) = 0.02038910
#
# Stress axis : x y z
#
# Youngs Moduli (GPa) = 90.59680 89.69504 69.38008
#
# Poissons Ratio (x) = 0.29540 0.14295
# Poissons Ratio (y) = 0.29837 0.19092
# Poissons Ratio (z) = 0.18667 0.24682
#
# Static dielectric constant tensor:
#      x y z
#    x 1.950800 0.000000 -0.058850 
#    y 0.000000 1.911740 0.000000 
#    z -0.058850 0.000000 2.009890 
# 
# From -- ./inp_files/85694.got.cif
#   From: 2010.05.17/outbox.cif.g08.bks.cpg/sg12_43_cif.got.tgz:85694.got - 2010.06.03 13:09:07.
