data_PCOD9184768
_publ_section_title
;
Structure prediction by ZEFSAII (Michael W. Deem and Ramdas Pophale) SiO2 
 PCOD9184768
Probable space group: C 2/M
;
_chemical_formula_sum "Si O2"
_cell_formula_units_Z 52
_cell_length_a 14.398445
_cell_length_b 21.157183
_cell_length_c 12.524875
_cell_angle_alpha 90.000000
_cell_angle_beta 50.136550
_cell_angle_gamma 90.000000
_cell_volume 2928.648136
_symmetry_space_group_name_H-M "C 2/M"
_symmetry_group_IT_number 12
_symmetry_cell_setting 'monoclinic'
loop_
_space_group_symop_operation_xyz
x,y,z
-x,y,-z
-x,-y,-z
x,-y,z
1/2+x,1/2+y,z
1/2-x,1/2+y,-z
1/2-x,1/2-y,-z
1/2+x,1/2-y,z
loop_
_atom_site_type_symbol
_atom_site_label
_atom_site_fract_x
_atom_site_fract_y
_atom_site_fract_z
Si Si1 0.500000 0.209573 0.500000
Si Si2 0.173332 0.924022 0.457802
Si Si3 0.179081 0.830191 0.051007
Si Si4 0.718299 0.767124 0.203423
Si Si5 0.543647 0.757501 0.855127
Si Si6 0.105441 0.074451 0.273565
Si Si7 0.334413 0.813992 0.431395
O O1 0.408019 0.245776 0.645704
O O2 0.591219 0.175766 0.514300
O O3 0.174947 0.905710 0.330775
O O4 0.257237 0.875428 0.458751
O O5 0.036178 0.913405 0.599300
O O6 0.198402 0.000000 0.449123
O O7 0.236012 0.788360 0.104341
O O8 0.147352 0.894051 0.133688
O O9 0.055243 0.795130 0.104522
O O10 0.267770 0.828190 0.883808
O O11 0.825589 0.770446 0.209228
O O12 0.570245 0.801253 0.734730
O O13 0.500000 0.787155 0.000000
O O14 0.120524 0.000000 0.255818
O O15 0.250000 0.750000 0.500000
#
# Coordination Sequence:
#
# PCOD9184768 Si02
#       7
#     4   8   8   8   8   8   8
#     4  12  24  34  49  90 111 146 194 218 276 338
#     4   9  20  36  55  82 114 144 180 231 286 329
#     4  10  19  34  54  79 114 142 173 230 285 324
#     4  10  21  33  50  79 115 144 175 222 279 330
#     4  10  20  34  52  80 110 145 178 223 284 323
#     4   9  18  33  58  85 106 139 183 230 283 332
#     4  12  22  34  57  84 112 146 188 233 270 328
#
# _framework density 17.755631999999999
#
# number of rings (size 3 to 8) (size 9 to 14) (size 15 to 20)
#    0.000    1.846    3.077    2.769    0.000    0.000 
#    0.000    0.385    0.000    6.462    0.000    0.000 
#    0.000    0.000    0.000    0.000    0.000    0.000 
#
# Total GULP energy -144784.533881 kJ/mol
# GULP energy per Si atom -5568.635919 kJ/mol
# Density = 1.771522 g / cm^3
# Si number density = 17.755632 Si / 1000 Ang^3
#
#
#
# Elastic Constant Matrix: (Units=GPa)
#
#
# Indices 1 2 3 4 5 6 
#
# 1 128.9130 38.9413 16.5038 0.0000 11.1434 0.0000
# 2 38.9413 42.9904 17.3624 0.0000 5.9656 0.0000
# 3 16.5038 17.3624 92.8120 0.0000 11.0960 0.0000
# 4 0.0000 0.0000 0.0000 19.4740 0.0000 0.2992
# 5 11.1434 5.9656 11.0960 0.0000 30.4053 0.0000
# 6 0.0000 0.0000 0.0000 0.2992 0.0000 24.9890
#
#
#
# Elastic Compliance Matrix: (Units=1/GPa)
#
#
# Indices 1 2 3 4 5 6 
#
# 1 0.010809 -0.009543 0.000118 0.000000 -0.002132 0.000000
# 2 -0.009543 0.033921 -0.004466 0.000000 -0.001528 0.000000
# 3 0.000118 -0.004466 0.012013 0.000000 -0.003551 0.000000
# 4 0.000000 0.000000 0.000000 0.051360 0.000000 -0.000615
# 5 -0.002132 -0.001528 -0.003551 0.000000 0.035266 0.000000
# 6 0.000000 0.000000 0.000000 -0.000615 0.000000 0.040025
#
#
# Mechanical properties :
#
#
# Convention : Reuss Voigt Hill
#
# Bulk Modulus (GPa) = 34.52822 45.59225 40.06024
# Shear Modulus (GPa) = 22.64189 27.76752 25.20471
#
# Velocity S-wave (km/s) = 3.57486 3.95887 3.77176
# Velocity P-wave (km/s) = 6.04385 6.82863 6.44819
#
# Compressibility (1/GPa) = 0.02896181
#
# Stress axis : x y z
#
# Youngs Moduli (GPa) = 92.51557 29.48052 83.23978
#
# Poissons Ratio (x) = 0.28132 -0.00982
# Poissons Ratio (y) = 0.88285 0.37175
# Poissons Ratio (z) = -0.01092 0.13166
#
# Static dielectric constant tensor:
#      x y z
#    x 1.646550 0.000000 -0.019240 
#    y 0.000000 1.606320 0.000000 
#    z -0.019240 0.000000 1.697310 
# 
# From -- ./inp_files/147567.got.cif
#   From: 2010.05.17/outbox.cif.g08.bks.cpg/sg12_74_cif.got.tgz:147567.got - 2010.06.03 13:09:07.
