data_PCOD9184991
_publ_section_title
;
Structure prediction by ZEFSAII (Michael W. Deem and Ramdas Pophale) SiO2 
 PCOD9184991
Probable space group: C 2/M
;
_chemical_formula_sum "Si O2"
_cell_formula_units_Z 60
_cell_length_a 10.638959
_cell_length_b 19.200613
_cell_length_c 15.456584
_cell_angle_alpha 90.000000
_cell_angle_beta 73.834675
_cell_angle_gamma 90.000000
_cell_volume 3032.550869
_symmetry_space_group_name_H-M "C 2/M"
_symmetry_group_IT_number 12
_symmetry_cell_setting 'monoclinic'
loop_
_space_group_symop_operation_xyz
x,y,z
-x,y,-z
-x,-y,-z
x,-y,z
1/2+x,1/2+y,z
1/2-x,1/2+y,-z
1/2-x,1/2-y,-z
1/2+x,1/2-y,z
loop_
_atom_site_type_symbol
_atom_site_label
_atom_site_fract_x
_atom_site_fract_y
_atom_site_fract_z
Si Si1 0.546010 0.199512 0.892637
Si Si2 0.937796 0.920652 0.683281
Si Si3 0.637471 0.296619 0.188539
Si Si4 0.806966 0.422741 0.399534
Si Si5 0.832812 0.678772 0.682903
Si Si6 0.000000 0.287934 0.500000
Si Si7 0.660886 0.331028 0.560550
Si Si8 0.454250 0.080859 0.779748
O O1 0.462004 0.261438 0.861520
O O2 0.705399 0.206320 0.861451
O O3 0.502232 0.129927 0.848719
O O4 0.500000 0.195718 0.000000
O O5 0.907616 0.872766 0.772276
O O6 0.810425 0.919846 0.647215
O O7 0.049383 0.887386 0.601902
O O8 0.969353 0.000000 0.700666
O O9 0.626912 0.248480 0.275798
O O10 0.812216 0.500000 0.438453
O O11 0.770056 0.368128 0.480531
O O12 0.932500 0.414971 0.314388
O O13 0.940262 0.667787 0.588261
O O14 0.705991 0.689372 0.648693
O O15 0.832532 0.618092 0.754097
O O16 0.105522 0.234205 0.519234
O O17 0.433111 0.000000 0.806347
#
# Coordination Sequence:
#
# PCOD9184991 Si02
#       8
#     8   8   8   8   8   4   8   8
#     4  11  24  42  69  96 121 152 195 253 313 376
#     4  11  21  36  59  87 117 158 204 247 289 345
#     4  11  22  42  64  92 125 156 200 245 311 370
#     4  10  19  34  55  80 115 159 201 245 288 338
#     4  11  24  36  58  85 122 163 200 250 302 352
#     4  12  22  34  54  86 120 162 216 250 284 346
#     4  12  21  35  54  86 123 162 210 254 290 341
#     4  10  23  42  62  86 119 157 199 249 307 367
#
# _framework density 19.785323999999999
#
# number of rings (size 3 to 8) (size 9 to 14) (size 15 to 20)
#    0.000    1.067    4.000    2.800    1.867    2.400 
#    0.000    1.667    0.000    0.400    0.000    0.000 
#    0.000    0.000    0.000    0.000    0.000    0.000 
#
# Total GULP energy -167461.866704 kJ/mol
# GULP energy per Si atom -5582.062223 kJ/mol
# Density = 1.974029 g / cm^3
# Si number density = 19.785324 Si / 1000 Ang^3
#
#
#
# Elastic Constant Matrix: (Units=GPa)
#
#
# Indices 1 2 3 4 5 6 
#
# 1 58.9052 23.6430 23.1112 0.0000 9.1018 0.0000
# 2 23.6430 126.4892 47.5293 0.0000 20.6969 0.0000
# 3 23.1112 47.5293 88.1524 0.0000 5.9643 0.0000
# 4 0.0000 0.0000 0.0000 17.9373 0.0000 -1.7120
# 5 9.1018 20.6969 5.9643 0.0000 26.3975 0.0000
# 6 0.0000 0.0000 0.0000 -1.7120 0.0000 16.0067
#
#
#
# Elastic Compliance Matrix: (Units=1/GPa)
#
#
# Indices 1 2 3 4 5 6 
#
# 1 0.019904 -0.001365 -0.004154 0.000000 -0.004854 0.000000
# 2 -0.001365 0.011316 -0.005255 0.000000 -0.007214 0.000000
# 3 -0.004154 -0.005255 0.015122 0.000000 0.002136 0.000000
# 4 0.000000 0.000000 0.000000 0.056325 0.000000 0.006024
# 5 -0.004854 -0.007214 0.002136 0.000000 0.044730 0.000000
# 6 0.000000 0.000000 0.000000 0.006024 0.000000 0.063118
#
#
# Mechanical properties :
#
#
# Convention : Reuss Voigt Hill
#
# Bulk Modulus (GPa) = 40.33324 51.34599 45.83962
# Shear Modulus (GPa) = 20.80485 24.01918 22.41202
#
# Velocity S-wave (km/s) = 3.24625 3.48802 3.36930
# Velocity P-wave (km/s) = 5.87201 6.49843 6.19314
#
# Compressibility (1/GPa) = 0.02479345
#
# Stress axis : x y z
#
# Youngs Moduli (GPa) = 50.24077 88.36894 66.12895
#
# Poissons Ratio (x) = 0.12066 0.27468
# Poissons Ratio (y) = 0.06860 0.34753
# Poissons Ratio (z) = 0.20869 0.46440
#
# Static dielectric constant tensor:
#      x y z
#    x 1.827550 0.000000 -0.017020 
#    y 0.000000 1.709040 0.000000 
#    z -0.017020 0.000000 1.656850 
# 
# From -- ./inp_files/206626.got.cif
#   From: 2010.05.17/outbox.cif.g08.bks.cpg/sg12_104_cif.got.tgz:206626.got - 2010.06.03 13:09:07.
