data_PCOD9184633
_publ_section_title
;
Structure prediction by ZEFSAII (Michael W. Deem and Ramdas Pophale) SiO2 
 PCOD9184633
Probable space group: C 2/M
;
_chemical_formula_sum "Si O2"
_cell_formula_units_Z 40
_cell_length_a 8.839671
_cell_length_b 26.443287
_cell_length_c 9.993862
_cell_angle_alpha 90.000000
_cell_angle_beta 40.406175
_cell_angle_gamma 90.000000
_cell_volume 1514.241818
_symmetry_space_group_name_H-M "C 2/M"
_symmetry_group_IT_number 12
_symmetry_cell_setting 'monoclinic'
loop_
_space_group_symop_operation_xyz
x,y,z
-x,y,-z
-x,-y,-z
x,-y,z
1/2+x,1/2+y,z
1/2-x,1/2+y,-z
1/2-x,1/2-y,-z
1/2+x,1/2-y,z
loop_
_atom_site_type_symbol
_atom_site_label
_atom_site_fract_x
_atom_site_fract_y
_atom_site_fract_z
Si Si1 0.534712 0.082885 0.753796
Si Si2 0.540184 0.185841 0.616570
Si Si3 0.942731 0.792035 0.695279
Si Si4 0.150043 0.906299 0.220926
Si Si5 0.312027 0.559107 0.237353
O O1 0.531435 0.143157 0.731776
O O2 0.767125 0.074833 0.687825
O O3 0.433125 0.061615 0.681058
O O4 0.331602 0.069071 0.995868
O O5 0.500000 0.161178 0.500000
O O6 0.802570 0.204397 0.412605
O O7 0.373278 0.233441 0.765483
O O8 0.000000 0.793227 0.500000
O O9 0.817687 0.844975 0.806391
O O10 0.897008 0.916280 0.322172
O O11 0.357198 0.500000 0.227427
O O12 0.500000 0.580217 0.000000
#
# Coordination Sequence:
#
# PCOD9184633 Si02
#       5
#     8   8   8   8   8
#     4  10  20  35  56  85 111 141 184 231 275 322
#     4  10  20  33  54  79 107 148 190 220 262 328
#     4  10  19  34  53  77 109 149 186 219 266 328
#     4  10  20  35  57  82 112 143 181 230 280 322
#     4   9  19  36  57  82 111 142 181 230 281 332
#
# _framework density 26.415863000000002
#
# number of rings (size 3 to 8) (size 9 to 14) (size 15 to 20)
#    0.000    2.200    2.000    1.200    0.000    1.600 
#    0.000    4.000    0.000    6.000    0.000    0.000 
#    0.000    0.000    0.000    0.000    0.000    0.000 
#
# Total GULP energy -111363.065902 kJ/mol
# GULP energy per Si atom -5568.153295 kJ/mol
# Density = 2.635574 g / cm^3
# Si number density = 26.415863 Si / 1000 Ang^3
#
#
#
# Elastic Constant Matrix: (Units=GPa)
#
#
# Indices 1 2 3 4 5 6 
#
# 1 259.0880 29.0558 64.8630 0.0000 29.8278 0.0000
# 2 29.0558 94.8459 2.9406 0.0000 15.6248 0.0000
# 3 64.8630 2.9406 43.2488 0.0000 12.1278 0.0000
# 4 0.0000 0.0000 0.0000 12.8694 0.0000 -4.0789
# 5 29.8278 15.6248 12.1278 0.0000 57.5489 0.0000
# 6 0.0000 0.0000 0.0000 -4.0789 0.0000 31.7566
#
#
#
# Elastic Compliance Matrix: (Units=1/GPa)
#
#
# Indices 1 2 3 4 5 6 
#
# 1 0.006484 -0.001536 -0.009347 0.000000 -0.000974 0.000000
# 2 -0.001536 0.011401 0.002310 0.000000 -0.002786 0.000000
# 3 -0.009347 0.002310 0.038049 0.000000 -0.003801 0.000000
# 4 0.000000 0.000000 0.000000 0.081001 0.000000 0.010404
# 5 -0.000974 -0.002786 -0.003801 0.000000 0.019439 0.000000
# 6 0.000000 0.000000 0.000000 0.010404 0.000000 0.032826
#
#
# Mechanical properties :
#
#
# Convention : Reuss Voigt Hill
#
# Bulk Modulus (GPa) = 25.78104 65.65573 45.71839
# Shear Modulus (GPa) = 22.80222 40.45652 31.62937
#
# Velocity S-wave (km/s) = 2.94122 3.91771 3.46405
# Velocity P-wave (km/s) = 4.61684 6.73597 5.77445
#
# Compressibility (1/GPa) = 0.03878819
#
# Stress axis : x y z
#
# Youngs Moduli (GPa) = 154.22180 87.70864 26.28165
#
# Poissons Ratio (x) = 0.13474 0.24566
# Poissons Ratio (y) = 0.23691 -0.06071
# Poissons Ratio (z) = 1.44154 -0.20261
#
# Static dielectric constant tensor:
#      x y z
#    x 3.351580 0.000000 0.144560 
#    y 0.000000 2.089490 0.000000 
#    z 0.144560 0.000000 2.146600 
# 
# From -- ./inp_files/40549.got.cif
#   From: 2010.05.17/outbox.cif.g08.bks.cpg/sg12_21_cif.got.tgz:40549.got - 2010.06.03 13:09:07.
