data_PCOD9184775
_publ_section_title
;
Structure prediction by ZEFSAII (Michael W. Deem and Ramdas Pophale) SiO2 
 PCOD9184775
Probable space group: C 2/M
;
_chemical_formula_sum "Si O2"
_cell_formula_units_Z 64
_cell_length_a 25.972888
_cell_length_b 7.444521
_cell_length_c 19.817661
_cell_angle_alpha 90.000000
_cell_angle_beta 47.622180
_cell_angle_gamma 90.000000
_cell_volume 2830.655968
_symmetry_space_group_name_H-M "C 2/M"
_symmetry_group_IT_number 12
_symmetry_cell_setting 'monoclinic'
loop_
_space_group_symop_operation_xyz
x,y,z
-x,y,-z
-x,-y,-z
x,-y,z
1/2+x,1/2+y,z
1/2-x,1/2+y,-z
1/2-x,1/2-y,-z
1/2+x,1/2-y,z
loop_
_atom_site_type_symbol
_atom_site_label
_atom_site_fract_x
_atom_site_fract_y
_atom_site_fract_z
Si Si1 0.794819 0.288249 0.243282
Si Si2 0.382508 0.215308 0.289387
Si Si3 0.073451 0.217311 0.967673
Si Si4 0.575362 0.279407 0.512972
Si Si5 0.318389 0.697031 0.479389
Si Si6 0.055637 0.219461 0.280102
Si Si7 0.647493 0.281076 0.316992
Si Si8 0.040503 0.212118 0.140653
O O1 0.783609 0.500000 0.263510
O O2 0.822993 0.218435 0.290510
O O3 0.859899 0.267862 0.135371
O O4 0.722955 0.216860 0.275731
O O5 0.374946 0.299966 0.369644
O O6 0.458836 0.262105 0.195935
O O7 0.377073 0.000000 0.301333
O O8 0.070471 0.000000 0.971330
O O9 0.079415 0.282128 0.039866
O O10 0.000000 0.279384 0.000000
O O11 0.573138 0.500000 0.516248
O O12 0.644686 0.211524 0.490728
O O13 0.510051 0.222300 0.615801
O O14 0.588060 0.230243 0.424273
O O15 0.302398 0.500000 0.519093
O O16 0.250000 0.750000 0.500000
O O17 0.123105 0.273145 0.264135
O O18 0.053281 0.284489 0.204881
O O19 0.053037 0.000000 0.280146
O O20 0.649338 0.500000 0.315110
O O21 0.054935 0.000000 0.131779
#
# Coordination Sequence:
#
# PCOD9184775 Si02
#       8
#     8   8   8   8   8   8   8   8
#     4  10  21  35  52  77 110 140 173 219 266 318
#     4  11  21  33  51  76 107 141 172 212 265 317
#     4  10  20  34  55  78 104 138 176 217 263 321
#     4   9  16  28  49  76 105 135 174 219 255 301
#     4  11  21  33  49  74 110 145 179 218 262 314
#     4   9  16  29  52  78 104 136 174 219 264 303
#     4   9  17  30  49  77 108 136 172 219 264 305
#     4  10  19  34  54  80 105 130 173 220 263 312
#
# _framework density 22.6096
#
# number of rings (size 3 to 8) (size 9 to 14) (size 15 to 20)
#    0.000    2.125    2.500    1.875    0.000    4.750 
#    0.000    0.625    0.000    0.750    0.000    0.875 
#    0.000    0.000    0.000    0.000    0.000    0.000 
#
# Total GULP energy -178632.902756 kJ/mol
# GULP energy per Si atom -5582.278211 kJ/mol
# Density = 2.255814 g / cm^3
# Si number density = 22.609600 Si / 1000 Ang^3
#
#
#
# Elastic Constant Matrix: (Units=GPa)
#
#
# Indices 1 2 3 4 5 6 
#
# 1 162.3491 0.2215 45.8003 0.0052 28.1991 -0.0164
# 2 0.2215 59.2750 -2.0550 0.0090 9.5764 -0.0301
# 3 45.8003 -2.0550 104.8418 -0.0026 19.7266 -0.0011
# 4 0.0052 0.0090 -0.0026 2.7857 -0.0089 -4.5349
# 5 28.1991 9.5764 19.7266 -0.0089 33.0494 0.0305
# 6 -0.0164 -0.0301 -0.0011 -4.5349 0.0305 6.0282
#
#
#
# Elastic Compliance Matrix: (Units=1/GPa)
#
#
# Indices 1 2 3 4 5 6 
#
# 1 0.007769 0.000769 -0.002354 -0.000215 -0.005446 -0.000110
# 2 0.000769 0.017981 0.001262 -0.000554 -0.006620 -0.000292
# 3 -0.002354 0.001262 0.011583 -0.000182 -0.005271 -0.000108
# 4 -0.000215 -0.000554 -0.000182 -1.597846 0.001131 -1.202050
# 5 -0.005446 -0.006620 -0.005271 0.001131 0.039969 0.000600
# 6 -0.000110 -0.000292 -0.000108 -1.202050 0.000600 -0.738406
#
#
# Mechanical properties :
#
#
# Convention : Reuss Voigt Hill
#
# Bulk Modulus (GPa) = 27.25780 46.04440 36.65110
# Shear Modulus (GPa) = -2.22610 27.20594 12.48992
#
# Velocity S-wave (km/s) = -0.99334 3.47261 2.35290
# Velocity P-wave (km/s) = 3.28122 6.04052 4.86078
#
# Compressibility (1/GPa) = 0.03668675
#
# Stress axis : x y z
#
# Youngs Moduli (GPa) = 128.72406 55.61495 86.33387
#
# Poissons Ratio (x) = -0.04278 0.20322
# Poissons Ratio (y) = -0.09902 -0.10894
# Poissons Ratio (z) = 0.30300 -0.07018
#
# Static dielectric constant tensor:
#      x y z
#    x 1.871700 -0.000020 -0.000800 
#    y -0.000020 1.875380 0.000020 
#    z -0.000800 0.000020 1.834590 
# 
# From -- ./inp_files/324203.got.cif
#   From: 2010.05.17/outbox.cif.g08.bks.cpg/sg12_163_cif.got.tgz:324203.got - 2010.06.03 13:09:07.
