data_PCOD9184647
_publ_section_title
;
Structure prediction by ZEFSAII (Michael W. Deem and Ramdas Pophale) SiO2 
 PCOD9184647
Probable space group: C 2/M
;
_chemical_formula_sum "Si O2"
_cell_formula_units_Z 52
_cell_length_a 23.480975
_cell_length_b 13.869733
_cell_length_c 11.195445
_cell_angle_alpha 90.000000
_cell_angle_beta 59.558401
_cell_angle_gamma 90.000000
_cell_volume 3143.449054
_symmetry_space_group_name_H-M "C 2/M"
_symmetry_group_IT_number 12
_symmetry_cell_setting 'monoclinic'
loop_
_space_group_symop_operation_xyz
x,y,z
-x,y,-z
-x,-y,-z
x,-y,z
1/2+x,1/2+y,z
1/2-x,1/2+y,-z
1/2-x,1/2-y,-z
1/2+x,1/2-y,z
loop_
_atom_site_type_symbol
_atom_site_label
_atom_site_fract_x
_atom_site_fract_y
_atom_site_fract_z
Si Si1 0.381980 0.390427 0.112992
Si Si2 0.809776 0.266166 0.773494
Si Si3 0.000000 0.256845 0.000000
Si Si4 0.925690 0.612621 0.532772
Si Si5 0.709313 0.608433 0.023592
Si Si6 0.292293 0.246739 0.334679
Si Si7 0.414571 0.886323 0.258825
O O1 0.402584 0.500000 0.120298
O O2 0.440837 0.315371 0.029669
O O3 0.335454 0.343359 0.264420
O O4 0.339623 0.393474 0.037102
O O5 0.873454 0.317079 0.650512
O O6 0.821680 0.170645 0.837492
O O7 0.757609 0.241315 0.724032
O O8 0.774601 0.339637 0.903359
O O9 0.027637 0.325993 0.866844
O O10 0.909387 0.500000 0.576463
O O11 0.920542 0.624834 0.395360
O O12 0.000000 0.629945 0.500000
O O13 0.723738 0.500000 0.046376
O O14 0.250000 0.250000 0.500000
O O15 0.345499 0.160539 0.288254
O O16 0.418042 0.000000 0.227067
#
# Coordination Sequence:
#
# PCOD9184647 Si02
#       7
#     8   8   4   8   8   8   8
#     4   9  19  34  54  76 102 138 180 220 260 314
#     4  10  19  34  58  76 107 140 176 222 263 314
#     4  10  20  34  56  78 106 138 178 214 262 318
#     4  10  21  35  54  79 106 141 180 214 262 321
#     4   9  19  34  53  79 103 135 177 222 269 305
#     4  10  19  34  53  80 106 138 176 218 269 319
#     4  10  21  36  54  79 110 140 172 220 269 315
#
# _framework density 16.542338999999998
#
# number of rings (size 3 to 8) (size 9 to 14) (size 15 to 20)
#    0.000    2.308    1.538    0.923    2.154    1.846 
#    0.000    0.000    0.000    0.462    0.000    0.000 
#    0.000    0.000    0.000    0.000    0.000    0.000 
#
# Total GULP energy -144909.700860 kJ/mol
# GULP energy per Si atom -5573.450033 kJ/mol
# Density = 1.650469 g / cm^3
# Si number density = 16.542339 Si / 1000 Ang^3
#
#
#
# Elastic Constant Matrix: (Units=GPa)
#
#
# Indices 1 2 3 4 5 6 
#
# 1 55.9120 45.5855 30.0148 0.0000 -6.5277 0.0000
# 2 45.5855 152.8373 76.0052 0.0000 -1.4605 0.0000
# 3 30.0148 76.0052 114.4722 0.0000 -6.9089 0.0000
# 4 0.0000 0.0000 0.0000 25.4689 0.0000 3.1605
# 5 -6.5277 -1.4605 -6.9089 0.0000 18.9839 0.0000
# 6 0.0000 0.0000 0.0000 3.1605 0.0000 23.7290
#
#
#
# Elastic Compliance Matrix: (Units=1/GPa)
#
#
# Indices 1 2 3 4 5 6 
#
# 1 0.025016 -0.006497 -0.001796 0.000000 0.007448 0.000000
# 2 -0.006497 0.011506 -0.006153 0.000000 -0.003588 0.000000
# 3 -0.001796 -0.006153 0.013523 0.000000 0.003831 0.000000
# 4 0.000000 0.000000 0.000000 0.039923 0.000000 -0.005317
# 5 0.007448 -0.003588 0.003831 0.000000 0.056356 0.000000
# 6 0.000000 0.000000 0.000000 -0.005317 0.000000 0.042851
#
#
# Mechanical properties :
#
#
# Convention : Reuss Voigt Hill
#
# Bulk Modulus (GPa) = 47.27260 69.60360 58.43810
# Shear Modulus (GPa) = 22.21063 25.07741 23.64402
#
# Velocity S-wave (km/s) = 3.66820 3.89775 3.78471
# Velocity P-wave (km/s) = 6.82493 7.90088 7.38254
#
# Compressibility (1/GPa) = 0.02115390
#
# Stress axis : x y z
#
# Youngs Moduli (GPa) = 39.97440 86.91023 73.94835
#
# Poissons Ratio (x) = 0.56466 0.13280
# Poissons Ratio (y) = 0.25972 0.45498
# Poissons Ratio (z) = 0.07179 0.53473
#
# Static dielectric constant tensor:
#      x y z
#    x 1.550860 0.000000 -0.009000 
#    y 0.000000 1.555910 0.000000 
#    z -0.009000 0.000000 1.537380 
# 
# From -- ./inp_files/175198.got.cif
#   From: 2010.05.17/outbox.cif.g08.bks.cpg/sg12_88_cif.got.tgz:175198.got - 2010.06.03 13:09:07.
