data_PCOD9184422
_publ_section_title
;
Structure prediction by ZEFSAII (Michael W. Deem and Ramdas Pophale) SiO2 
 PCOD9184422
Probable space group: C 2/M
;
_chemical_formula_sum "Si O2"
_cell_formula_units_Z 40
_cell_length_a 11.852997
_cell_length_b 18.678500
_cell_length_c 8.078984
_cell_angle_alpha 90.000000
_cell_angle_beta 96.812161
_cell_angle_gamma 90.000000
_cell_volume 1776.029114
_symmetry_space_group_name_H-M "C 2/M"
_symmetry_group_IT_number 12
_symmetry_cell_setting 'monoclinic'
loop_
_space_group_symop_operation_xyz
x,y,z
-x,y,-z
-x,-y,-z
x,-y,z
1/2+x,1/2+y,z
1/2-x,1/2+y,-z
1/2-x,1/2-y,-z
1/2+x,1/2-y,z
loop_
_atom_site_type_symbol
_atom_site_label
_atom_site_fract_x
_atom_site_fract_y
_atom_site_fract_z
Si Si1 0.262338 0.664392 0.524673
Si Si2 0.977897 0.186915 0.733796
Si Si3 0.548257 0.147753 0.684995
Si Si4 0.151454 0.583973 0.190358
Si Si5 0.310970 0.673049 0.017450
O O1 0.250000 0.750000 0.500000
O O2 0.396432 0.653862 0.578716
O O3 0.182453 0.647011 0.670618
O O4 0.211075 0.622891 0.359411
O O5 0.003298 0.270802 0.702884
O O6 0.100229 0.160856 0.815228
O O7 0.894169 0.175412 0.875440
O O8 0.500000 0.122044 0.500000
O O9 0.481712 0.102514 0.809602
O O10 0.169254 0.500000 0.200564
O O11 0.211110 0.617416 0.039590
O O12 0.250000 0.750000 0.000000
#
# Coordination Sequence:
#
# PCOD9184422 Si02
#       5
#     8   8   8   8   8
#     4  11  20  38  64  97 128 164 218 266 318 386
#     4  11  21  36  65  96 122 163 224 275 312 370
#     4  10  19  33  61  93 129 159 208 264 319 376
#     4  11  24  41  64  96 135 175 212 268 337 393
#     4  11  22  40  63  92 127 171 223 267 316 382
#
# _framework density 22.522151000000001
#
# number of rings (size 3 to 8) (size 9 to 14) (size 15 to 20)
#    0.000    1.200    6.000    2.400    0.000    3.600 
#    0.000    5.000    0.000    8.400    0.000    0.000 
#    0.000    0.000    0.000    0.000    0.000    0.000 
#
# Total GULP energy -111602.389994 kJ/mol
# GULP energy per Si atom -5580.119500 kJ/mol
# Density = 2.247089 g / cm^3
# Si number density = 22.522151 Si / 1000 Ang^3
#
#
#
# Elastic Constant Matrix: (Units=GPa)
#
#
# Indices 1 2 3 4 5 6 
#
# 1 207.6120 34.6395 46.3465 0.0000 -13.9022 0.0000
# 2 34.6395 92.1520 15.9264 0.0000 -23.8355 0.0000
# 3 46.3465 15.9264 90.6709 0.0000 -19.3017 0.0000
# 4 0.0000 0.0000 0.0000 20.9208 0.0000 -2.2880
# 5 -13.9022 -23.8355 -19.3017 0.0000 54.9609 0.0000
# 6 0.0000 0.0000 0.0000 -2.2880 0.0000 9.0505
#
#
#
# Elastic Compliance Matrix: (Units=1/GPa)
#
#
# Indices 1 2 3 4 5 6 
#
# 1 0.005683 -0.001742 -0.002652 0.000000 -0.000249 0.000000
# 2 -0.001742 0.012859 -0.000297 0.000000 0.005032 0.000000
# 3 -0.002652 -0.000297 0.013257 0.000000 0.003856 0.000000
# 4 0.000000 0.000000 0.000000 0.049159 0.000000 0.012427
# 5 -0.000249 0.005032 0.003856 0.000000 0.021668 0.000000
# 6 0.000000 0.000000 0.000000 0.012427 0.000000 0.113633
#
#
# Mechanical properties :
#
#
# Convention : Reuss Voigt Hill
#
# Bulk Modulus (GPa) = 44.60838 64.91773 54.76305
# Shear Modulus (GPa) = 21.44880 36.55461 29.00171
#
# Velocity S-wave (km/s) = 3.08935 4.03308 3.59234
# Velocity P-wave (km/s) = 5.70744 7.11155 6.44783
#
# Compressibility (1/GPa) = 0.02241731
#
# Stress axis : x y z
#
# Youngs Moduli (GPa) = 175.97469 77.76411 75.42941
#
# Poissons Ratio (x) = 0.13549 0.20002
# Poissons Ratio (y) = 0.30660 0.02240
# Poissons Ratio (z) = 0.46664 0.02310
#
# Static dielectric constant tensor:
#      x y z
#    x 14.900140 0.000000 8.571060 
#    y 0.000000 1.751450 0.000000 
#    z 8.571060 0.000000 7.586110 
# 
# From -- ./inp_files/47053.got.cif
#   From: 2010.05.17/outbox.cif.g08.bks.cpg/sg12_24_cif.got.tgz:47053.got - 2010.06.03 13:09:07.
