data_PCOD9184607
_publ_section_title
;
Structure prediction by ZEFSAII (Michael W. Deem and Ramdas Pophale) SiO2 
 PCOD9184607
Probable space group: C 2/M
;
_chemical_formula_sum "Si O2"
_cell_formula_units_Z 52
_cell_length_a 10.312662
_cell_length_b 17.457643
_cell_length_c 18.396397
_cell_angle_alpha 90.000000
_cell_angle_beta 62.115812
_cell_angle_gamma 90.000000
_cell_volume 2927.451513
_symmetry_space_group_name_H-M "C 2/M"
_symmetry_group_IT_number 12
_symmetry_cell_setting 'monoclinic'
loop_
_space_group_symop_operation_xyz
x,y,z
-x,y,-z
-x,-y,-z
x,-y,z
1/2+x,1/2+y,z
1/2-x,1/2+y,-z
1/2-x,1/2-y,-z
1/2+x,1/2-y,z
loop_
_atom_site_type_symbol
_atom_site_label
_atom_site_fract_x
_atom_site_fract_y
_atom_site_fract_z
Si Si1 0.723555 0.279994 0.200153
Si Si2 0.782630 0.414297 0.552594
Si Si3 0.019220 0.160856 0.381421
Si Si4 0.500000 0.787077 0.500000
Si Si5 0.193320 0.411885 0.625933
Si Si6 0.101867 0.587441 0.903288
Si Si7 0.005159 0.328935 0.792688
O O1 0.600758 0.308643 0.288861
O O2 0.769135 0.349794 0.135252
O O3 0.873374 0.268572 0.207349
O O4 0.651186 0.208942 0.178911
O O5 0.818545 0.500000 0.569952
O O6 0.610923 0.396768 0.603045
O O7 0.822368 0.410526 0.456459
O O8 0.872679 0.343562 0.561493
O O9 0.955844 0.231087 0.445710
O O10 0.146669 0.120756 0.395285
O O11 0.185036 0.500000 0.652388
O O12 0.074119 0.363037 0.701063
O O13 0.154111 0.500000 0.887981
O O14 0.010799 0.606405 0.853628
O O15 0.000000 0.598463 0.000000
#
# Coordination Sequence:
#
# PCOD9184607 Si02
#       7
#     8   8   8   4   8   8   8
#     4   9  21  33  56  81 109 135 179 217 262 313
#     4  11  23  35  49  72 103 137 175 218 262 306
#     4  11  21  32  56  74  98 133 180 216 258 303
#     4  12  23  34  51  72 104 138 172 216 265 310
#     4  10  19  34  53  75 101 135 178 218 255 305
#     4   9  19  35  58  83 108 141 176 210 258 318
#     4   9  19  34  54  82 108 139 168 222 260 310
#
# _framework density 17.762891
#
# number of rings (size 3 to 8) (size 9 to 14) (size 15 to 20)
#    0.923    1.077    1.538    2.538    4.308    2.462 
#    0.000    0.000    0.000    1.846    0.000    2.154 
#    0.000    0.000    0.000    0.000    0.000    0.000 
#
# Total GULP energy -144863.782698 kJ/mol
# GULP energy per Si atom -5571.683950 kJ/mol
# Density = 1.772246 g / cm^3
# Si number density = 17.762891 Si / 1000 Ang^3
#
#
#
# Elastic Constant Matrix: (Units=GPa)
#
#
# Indices 1 2 3 4 5 6 
#
# 1 24.1416 15.8798 -8.2940 0.0000 -4.7116 0.0000
# 2 15.8798 71.3823 -5.3871 0.0000 -13.5772 0.0000
# 3 -8.2940 -5.3871 39.3263 0.0000 -3.9072 0.0000
# 4 0.0000 0.0000 0.0000 14.4860 0.0000 -4.9804
# 5 -4.7116 -13.5772 -3.9072 0.0000 10.8627 0.0000
# 6 0.0000 0.0000 0.0000 -4.9804 0.0000 24.5539
#
#
#
# Elastic Compliance Matrix: (Units=1/GPa)
#
#
# Indices 1 2 3 4 5 6 
#
# 1 0.054233 -0.007653 0.012213 0.000000 0.018351 0.000000
# 2 -0.007653 0.020448 0.003522 0.000000 0.023506 0.000000
# 3 0.012213 0.003522 0.030542 0.000000 0.020685 0.000000
# 4 0.000000 0.000000 0.000000 0.074207 0.000000 0.015052
# 5 0.018351 0.023506 0.020685 0.000000 0.136837 0.000000
# 6 0.000000 0.000000 0.000000 0.015052 0.000000 0.043780
#
#
# Mechanical properties :
#
#
# Convention : Reuss Voigt Hill
#
# Bulk Modulus (GPa) = 8.23801 15.47194 11.85498
# Shear Modulus (GPa) = 13.00916 18.82397 15.91656
#
# Velocity S-wave (km/s) = 2.70919 3.25889 2.99667
# Velocity P-wave (km/s) = 3.79922 4.78431 4.31994
#
# Compressibility (1/GPa) = 0.12138851
#
# Stress axis : x y z
#
# Youngs Moduli (GPa) = 18.43884 48.90405 32.74215
#
# Poissons Ratio (x) = 0.37425 -0.39988
# Poissons Ratio (y) = 0.14111 -0.11533
# Poissons Ratio (z) = -0.22519 -0.17226
#
# Static dielectric constant tensor:
#      x y z
#    x 1.634180 0.000000 0.016760 
#    y 0.000000 1.624350 0.000000 
#    z 0.016760 0.000000 1.593170 
# 
# From -- ./inp_files/305132.got.cif
#   From: 2010.05.17/outbox.cif.g08.bks.cpg/sg12_153_cif.got.tgz:305132.got - 2010.06.03 13:09:07.
