data_PCOD9184355
_publ_section_title
;
Structure prediction by ZEFSAII (Michael W. Deem and Ramdas Pophale) SiO2 
 PCOD9184355
Probable space group: C 2/M
;
_chemical_formula_sum "Si O2"
_cell_formula_units_Z 58
_cell_length_a 15.705354
_cell_length_b 12.794430
_cell_length_c 25.435822
_cell_angle_alpha 90.000000
_cell_angle_beta 32.810822
_cell_angle_gamma 90.000000
_cell_volume 2769.536708
_symmetry_space_group_name_H-M "C 2/M"
_symmetry_group_IT_number 12
_symmetry_cell_setting 'monoclinic'
loop_
_space_group_symop_operation_xyz
x,y,z
-x,y,-z
-x,-y,-z
x,-y,z
1/2+x,1/2+y,z
1/2-x,1/2+y,-z
1/2-x,1/2-y,-z
1/2+x,1/2-y,z
loop_
_atom_site_type_symbol
_atom_site_label
_atom_site_fract_x
_atom_site_fract_y
_atom_site_fract_z
Si Si1 0.870096 0.623450 0.759818
Si Si2 0.016659 0.882095 0.928480
Si Si3 0.861948 0.618800 0.463924
Si Si4 0.740684 0.616880 0.333558
Si Si5 0.437299 0.211902 0.839936
Si Si6 0.654736 0.836662 0.002686
Si Si7 0.500000 0.000000 0.000000
Si Si8 0.104185 0.833800 0.516182
O O1 0.877388 0.500000 0.765741
O O2 0.699645 0.644509 0.823796
O O3 0.008286 0.648038 0.647514
O O4 0.893191 0.675006 0.804356
O O5 0.916639 0.781012 0.965325
O O6 0.980881 0.000000 0.926352
O O7 0.000000 0.890025 0.000000
O O8 0.886616 0.500000 0.468313
O O9 0.876468 0.708971 0.499040
O O10 0.695954 0.629801 0.520258
O O11 0.800513 0.500000 0.290102
O O12 0.874587 0.702505 0.254652
O O13 0.578112 0.637040 0.387844
O O14 0.688292 0.618066 0.421770
O O15 0.379970 0.138803 0.918263
O O16 0.340876 0.320038 0.896330
O O17 0.572278 0.909491 0.002955
#
# Coordination Sequence:
#
# PCOD9184355 Si02
#       8
#     8   8   8   8   8   8   2   8
#     4  10  19  33  59  88 117 153 214 263 310 371
#     4  10  19  36  61  89 117 160 210 272 314 370
#     4  10  20  37  60  89 124 166 206 263 326 388
#     4  11  22  39  65  93 126 161 216 277 322 377
#     4  11  23  40  61  92 121 168 217 264 312 396
#     4  11  25  42  65  92 134 169 216 263 336 405
#     4  12  24  48  66  92 148 182 204 282 348 390
#     4  10  21  37  62  93 127 160 209 271 326 384
#
# _framework density 20.942131
#
# number of rings (size 3 to 8) (size 9 to 14) (size 15 to 20)
#    0.000    1.517    3.448    2.069    3.862    0.552 
#    3.724    1.379    6.069    0.000    0.000    0.000 
#    0.000    0.000    0.000    0.000    0.000    0.000 
#
# Total GULP energy -161537.393465 kJ/mol
# GULP energy per Si atom -5570.254947 kJ/mol
# Density = 2.089447 g / cm^3
# Si number density = 20.942131 Si / 1000 Ang^3
#
#
#
# Elastic Constant Matrix: (Units=GPa)
#
#
# Indices 1 2 3 4 5 6 
#
# 1 51.6612 41.5239 13.4666 -0.0017 -8.1851 -0.0015
# 2 41.5239 110.5950 25.6056 0.0097 -6.3104 0.0090
# 3 13.4666 25.6056 86.6704 0.0206 -25.6078 0.0194
# 4 -0.0017 0.0097 0.0206-3715.4960 -0.0045-3400.5449
# 5 -8.1851 -6.3104 -25.6078 -0.0045 23.5945 -0.0042
# 6 -0.0015 0.0090 0.0194-3400.5449 -0.0042-3092.8226
#
#
#
# Elastic Compliance Matrix: (Units=1/GPa)
#
#
# Indices 1 2 3 4 5 6 
#
# 1 0.028961 -0.010657 0.001140 0.000000 0.008435 0.000000
# 2 -0.010657 0.013636 -0.003515 0.000000 -0.003864 0.000000
# 3 0.001140 -0.003515 0.018015 0.000000 0.019008 0.000000
# 4 0.000000 0.000000 0.000000 0.042756 0.000000 -0.047011
# 5 0.008435 -0.003864 0.019008 0.000000 0.064905 0.000000
# 6 0.000000 0.000000 0.000000 -0.047011 0.000000 0.051365
#
#
# Mechanical properties :
#
#
# Convention : Reuss Voigt Hill
#
# Bulk Modulus (GPa) = 28.94222 45.56876 37.25549
# Shear Modulus (GPa) = 19.43874 -1345.72277 -663.14201
#
# Velocity S-wave (km/s) = 3.04996 -25.37688 -17.81409
# Velocity P-wave (km/s) = 5.12378 28.92821 20.13192
#
# Compressibility (1/GPa) = 0.03455160
#
# Stress axis : x y z
#
# Youngs Moduli (GPa) = 34.52866 73.33341 55.50842
#
# Poissons Ratio (x) = 0.78149 -0.06331
# Poissons Ratio (y) = 0.36796 0.19509
# Poissons Ratio (z) = -0.03938 0.25774
#
# Static dielectric constant tensor:
#      x y z
#    x 1.772160 0.000000 -0.035250 
#    y 0.000000 1.775800 0.000000 
#    z -0.035250 0.000000 1.819130 
# 
# From -- ./inp_files/378884.got.cif
#   From: 2010.05.17/outbox.cif.g08.bks.cpg/sg12_190_cif.got.tgz:378884.got - 2010.06.03 13:09:07.
