data_PCOD9184542
_publ_section_title
;
Structure prediction by ZEFSAII (Michael W. Deem and Ramdas Pophale) SiO2 
 PCOD9184542
Probable space group: C 2/M
;
_chemical_formula_sum "Si O2"
_cell_formula_units_Z 56
_cell_length_a 9.211777
_cell_length_b 26.790930
_cell_length_c 16.542019
_cell_angle_alpha 90.000000
_cell_angle_beta 124.854653
_cell_angle_gamma 90.000000
_cell_volume 3350.067724
_symmetry_space_group_name_H-M "C 2/M"
_symmetry_group_IT_number 12
_symmetry_cell_setting 'monoclinic'
loop_
_space_group_symop_operation_xyz
x,y,z
-x,y,-z
-x,-y,-z
x,-y,z
1/2+x,1/2+y,z
1/2-x,1/2+y,-z
1/2-x,1/2-y,-z
1/2+x,1/2-y,z
loop_
_atom_site_type_symbol
_atom_site_label
_atom_site_fract_x
_atom_site_fract_y
_atom_site_fract_z
Si Si1 0.186298 0.206646 0.098421
Si Si2 0.201258 0.355875 0.453530
Si Si3 0.860249 0.689321 0.312976
Si Si4 0.473617 0.187761 0.901435
Si Si5 0.289086 0.367385 0.291910
Si Si6 0.909845 0.212597 0.633560
Si Si7 0.444379 0.443963 0.576982
O O1 0.258262 0.176128 0.198429
O O2 0.343697 0.205148 0.082826
O O3 0.143884 0.262160 0.120257
O O4 0.000000 0.189991 0.000000
O O5 0.246981 0.358809 0.373097
O O6 0.298687 0.307101 0.521237
O O7 0.287354 0.403176 0.526407
O O8 0.989894 0.352065 0.391593
O O9 0.721123 0.708743 0.333243
O O10 0.996619 0.734255 0.338567
O O11 0.379658 0.147097 0.814861
O O12 0.500000 0.167202 0.000000
O O13 0.434356 0.327484 0.310198
O O14 0.389150 0.420497 0.321700
O O15 0.500000 0.446024 0.500000
O O16 0.398966 0.500000 0.588332
#
# Coordination Sequence:
#
# PCOD9184542 Si02
#       7
#     8   8   8   8   8   8   8
#     4  11  22  34  49  67  98 143 177 213 244 284
#     4  10  20  34  48  74 103 131 169 203 248 303
#     4  12  21  33  48  69 105 139 175 210 244 291
#     4  11  21  34  51  69 101 135 179 214 247 289
#     4  10  19  34  52  74 100 132 169 211 252 302
#     4  11  22  31  47  68 104 142 171 202 244 294
#     4   8  16  32  56  79 102 127 159 205 258 313
#
# _framework density 16.716080000000002
#
# number of rings (size 3 to 8) (size 9 to 14) (size 15 to 20)
#    0.000    1.571    2.857    5.571    2.000    1.143 
#    0.000    0.000    0.000    7.286    0.000    0.000 
#    0.000    1.143    0.000    0.000    0.000    0.000 
#
# Total GULP energy -156105.010718 kJ/mol
# GULP energy per Si atom -5575.178954 kJ/mol
# Density = 1.667803 g / cm^3
# Si number density = 16.716080 Si / 1000 Ang^3
#
#
#
# Elastic Constant Matrix: (Units=GPa)
#
#
# Indices 1 2 3 4 5 6 
#
# 1 84.7677 14.9387 34.0352 0.0000 -10.6279 0.0000
# 2 14.9387 61.8453 28.3128 0.0000 10.8913 0.0000
# 3 34.0352 28.3128 116.6559 0.0000 13.0667 0.0000
# 4 0.0000 0.0000 0.0000 14.0038 0.0000 2.7890
# 5 -10.6279 10.8913 13.0667 0.0000 23.1947 0.0000
# 6 0.0000 0.0000 0.0000 2.7890 0.0000 10.9970
#
#
#
# Elastic Compliance Matrix: (Units=1/GPa)
#
#
# Indices 1 2 3 4 5 6 
#
# 1 0.015981 -0.003613 -0.005119 0.000000 0.011903 0.000000
# 2 -0.003613 0.019962 -0.002728 0.000000 -0.009493 0.000000
# 3 -0.005119 -0.002728 0.011578 0.000000 -0.007587 0.000000
# 4 0.000000 0.000000 0.000000 0.075208 0.000000 -0.019074
# 5 0.011903 -0.009493 -0.007587 0.000000 0.057299 0.000000
# 6 0.000000 0.000000 0.000000 -0.019074 0.000000 0.095771
#
#
# Mechanical properties :
#
#
# Convention : Reuss Voigt Hill
#
# Bulk Modulus (GPa) = 40.64687 46.42693 43.53690
# Shear Modulus (GPa) = 16.29093 22.03792 19.16442
#
# Velocity S-wave (km/s) = 3.12519 3.63487 3.38962
# Velocity P-wave (km/s) = 6.11484 6.74170 6.43590
#
# Compressibility (1/GPa) = 0.02460214
#
# Stress axis : x y z
#
# Youngs Moduli (GPa) = 62.57270 50.09396 86.37396
#
# Poissons Ratio (x) = 0.18099 0.44216
# Poissons Ratio (y) = 0.22608 0.23559
# Poissons Ratio (z) = 0.32031 0.13663
#
# Static dielectric constant tensor:
#      x y z
#    x 1.585670 0.000000 0.015240 
#    y 0.000000 1.573620 0.000000 
#    z 0.015240 0.000000 1.623500 
# 
# From -- ./inp_files/199933.got.cif
#   From: 2010.05.17/outbox.cif.g08.bks.cpg/sg12_100_cif.got.tgz:199933.got - 2010.06.03 13:09:07.
