data_PCOD9184956
_publ_section_title
;
Structure prediction by ZEFSAII (Michael W. Deem and Ramdas Pophale) SiO2 
 PCOD9184956
Probable space group: C 2/M
;
_chemical_formula_sum "Si O2"
_cell_formula_units_Z 48
_cell_length_a 10.134690
_cell_length_b 28.760507
_cell_length_c 6.947371
_cell_angle_alpha 90.000000
_cell_angle_beta 101.042905
_cell_angle_gamma 90.000000
_cell_volume 1987.516455
_symmetry_space_group_name_H-M "C 2/M"
_symmetry_group_IT_number 12
_symmetry_cell_setting 'monoclinic'
loop_
_space_group_symop_operation_xyz
x,y,z
-x,y,-z
-x,-y,-z
x,-y,z
1/2+x,1/2+y,z
1/2-x,1/2+y,-z
1/2-x,1/2-y,-z
1/2+x,1/2-y,z
loop_
_atom_site_type_symbol
_atom_site_label
_atom_site_fract_x
_atom_site_fract_y
_atom_site_fract_z
Si Si1 0.385361 0.295013 0.232310
Si Si2 0.189978 0.786556 0.246837
Si Si3 0.537589 0.053582 0.239945
Si Si4 0.958856 0.947522 0.713209
Si Si5 0.793124 0.615545 0.256195
Si Si6 0.212772 0.894004 0.810801
O O1 0.282180 0.258574 0.294720
O O2 0.542992 0.284434 0.301573
O O3 0.355962 0.347758 0.288485
O O4 0.350595 0.291793 0.992401
O O5 0.276216 0.832197 0.328538
O O6 0.422103 0.082804 0.313229
O O7 0.680015 0.079947 0.291310
O O8 0.548454 0.000000 0.304776
O O9 0.500000 0.051879 0.000000
O O10 0.096404 0.929226 0.845275
O O11 0.000000 0.947241 0.500000
O O12 0.838595 0.912559 0.717713
O O13 0.923558 0.000000 0.759030
O O14 0.789224 0.621652 0.023549
#
# Coordination Sequence:
#
# PCOD9184956 Si02
#       6
#     8   8   8   8   8   8
#     4   9  17  28  46  76 108 136 168 211 263 314
#     4   9  17  28  46  76 108 136 168 211 263 314
#     4   9  18  30  48  77 107 133 167 217 268 309
#     4  11  23  37  54  77 105 141 183 227 274 319
#     4  10  19  34  55  80 108 139 178 219 265 322
#     4  10  19  34  55  80 108 139 178 219 265 322
#
# _framework density 24.150745000000001
#
# number of rings (size 3 to 8) (size 9 to 14) (size 15 to 20)
#    0.000    2.333    1.667    1.500    2.333    2.667 
#    0.000    0.833    0.000    4.000    0.000    0.000 
#    0.000    0.000    0.000    0.000    0.000    0.000 
#
# Total GULP energy -134292.010195 kJ/mol
# GULP energy per Si atom -5595.500425 kJ/mol
# Density = 2.409578 g / cm^3
# Si number density = 24.150745 Si / 1000 Ang^3
#
#
#
# Elastic Constant Matrix: (Units=GPa)
#
#
# Indices 1 2 3 4 5 6 
#
# 1 189.7768 90.3851 4.4311 0.0000 -23.1690 0.0000
# 2 90.3851 181.2981 -7.0008 0.0000 -12.3499 0.0000
# 3 4.4311 -7.0008 71.0920 0.0000 -8.9040 0.0000
# 4 0.0000 0.0000 0.0000 8.1545 0.0000 -4.5964
# 5 -23.1690 -12.3499 -8.9040 0.0000 33.9783 0.0000
# 6 0.0000 0.0000 0.0000 -4.5964 0.0000 42.3154
#
#
#
# Elastic Compliance Matrix: (Units=1/GPa)
#
#
# Indices 1 2 3 4 5 6 
#
# 1 0.007362 -0.003432 -0.000335 0.000000 0.003684 0.000000
# 2 -0.003432 0.007305 0.001006 0.000000 0.000578 0.000000
# 3 -0.000335 0.001006 0.014685 0.000000 0.003985 0.000000
# 4 0.000000 0.000000 0.000000 0.130630 0.000000 0.014189
# 5 0.003684 0.000578 0.003985 0.000000 0.033197 0.000000
# 6 0.000000 0.000000 0.000000 0.014189 0.000000 0.025173
#
#
# Mechanical properties :
#
#
# Convention : Reuss Voigt Hill
#
# Bulk Modulus (GPa) = 41.96634 68.64418 55.30526
# Shear Modulus (GPa) = 21.56853 40.51308 31.04081
#
# Velocity S-wave (km/s) = 2.99169 4.10018 3.58899
# Velocity P-wave (km/s) = 5.41739 7.13444 6.33437
#
# Compressibility (1/GPa) = 0.02382862
#
# Stress axis : x y z
#
# Youngs Moduli (GPa) = 135.84061 136.89174 68.09509
#
# Poissons Ratio (x) = 0.46982 0.02284
# Poissons Ratio (y) = 0.46621 -0.06849
# Poissons Ratio (z) = 0.04555 -0.13768
#
# Static dielectric constant tensor:
#      x y z
#    x 1.842640 0.000000 0.004190 
#    y 0.000000 1.840620 0.000000 
#    z 0.004190 0.000000 2.027480 
# 
# From -- ./inp_files/42184.got.cif
#   From: 2010.05.17/outbox.cif.g08.bks.cpg/sg12_22_cif.got.tgz:42184.got - 2010.06.03 13:09:07.
