data_PCOD9184101
_publ_section_title
;
Structure prediction by ZEFSAII (Michael W. Deem and Ramdas Pophale) SiO2 
 PCOD9184101
Probable space group: C 2/M
;
_chemical_formula_sum "Si O2"
_cell_formula_units_Z 64
_cell_length_a 22.950129
_cell_length_b 7.629785
_cell_length_c 29.732536
_cell_angle_alpha 90.000000
_cell_angle_beta 30.431116
_cell_angle_gamma 90.000000
_cell_volume 2637.003069
_symmetry_space_group_name_H-M "C 2/M"
_symmetry_group_IT_number 12
_symmetry_cell_setting 'monoclinic'
loop_
_space_group_symop_operation_xyz
x,y,z
-x,y,-z
-x,-y,-z
x,-y,z
1/2+x,1/2+y,z
1/2-x,1/2+y,-z
1/2-x,1/2-y,-z
1/2+x,1/2-y,z
loop_
_atom_site_type_symbol
_atom_site_label
_atom_site_fract_x
_atom_site_fract_y
_atom_site_fract_z
Si Si1 0.777502 0.786407 0.623491
Si Si2 0.493065 0.791424 0.705568
Si Si3 0.590638 0.289644 0.050982
Si Si4 0.111965 0.803976 0.538160
Si Si5 0.975003 0.290483 0.215117
Si Si6 0.262339 0.713987 0.126679
Si Si7 0.863417 0.786209 0.150358
Si Si8 0.379592 0.204184 0.646389
O O1 0.806395 0.720976 0.553992
O O2 0.648300 0.728285 0.721592
O O3 0.865827 0.720769 0.602050
O O4 0.784057 0.000000 0.619397
O O5 0.587291 0.762139 0.604520
O O6 0.513712 0.721131 0.741854
O O7 0.366204 0.727226 0.775716
O O8 0.484092 0.000000 0.715788
O O9 0.590981 0.500000 0.048439
O O10 0.576438 0.245467 0.112605
O O11 0.475393 0.223899 0.102182
O O12 0.696953 0.228596 0.949760
O O13 0.988184 0.799885 0.595340
O O14 0.155518 0.000000 0.514994
O O15 0.966490 0.500000 0.223908
O O16 0.261486 0.500000 0.127509
O O17 0.351460 0.765747 0.106202
O O18 0.743076 0.731915 0.253064
O O19 0.867083 0.000000 0.149365
O O20 0.392994 0.000000 0.650395
#
# Coordination Sequence:
#
# PCOD9184101 Si02
#       8
#     8   8   8   8   8   8   8   8
#     4  10  22  39  56  79 114 151 182 221 281 337
#     4  10  21  39  59  80 107 146 192 232 274 324
#     4  10  19  33  57  85 110 142 184 226 272 329
#     4  11  23  38  57  82 112 146 182 226 282 335
#     4  10  22  39  57  77 110 150 186 231 280 323
#     4   9  17  32  56  83 111 141 178 227 277 326
#     4   9  16  29  53  83 110 137 174 221 268 319
#     4  11  20  34  59  87 112 143 184 226 270 328
#
# _framework density 24.269974999999999
#
# number of rings (size 3 to 8) (size 9 to 14) (size 15 to 20)
#    0.000    2.000    2.500    1.500    0.000    5.500 
#    0.000    0.625    0.000    0.750    0.000    0.000 
#    0.000    0.000    0.000    0.000    0.000    0.000 
#
# Total GULP energy -178808.563744 kJ/mol
# GULP energy per Si atom -5587.767617 kJ/mol
# Density = 2.421474 g / cm^3
# Si number density = 24.269975 Si / 1000 Ang^3
#
#
#
# Elastic Constant Matrix: (Units=GPa)
#
#
# Indices 1 2 3 4 5 6 
#
# 1 75.2532 -4.6398 6.1641 -0.0219 38.4938 0.0885
# 2 -4.6398 43.8287 -3.3708 -0.0465 -2.2768 0.0405
# 3 6.1641 -3.3708 102.6396 -0.0040 40.1130 0.0217
# 4 -0.0219 -0.0465 -0.0040 3.5343 0.0014 0.0937
# 5 38.4938 -2.2768 40.1130 0.0014 40.5897 -0.0248
# 6 0.0885 0.0405 0.0217 0.0937 -0.0248 7.5260
#
#
#
# Elastic Compliance Matrix: (Units=1/GPa)
#
#
# Indices 1 2 3 4 5 6 
#
# 1 0.044640 0.003116 0.022645 0.000391 -0.064540 -0.000825
# 2 0.003116 0.023111 0.001988 0.000332 -0.003623 -0.000183
# 3 0.022645 0.001988 0.027368 0.000231 -0.048411 -0.000518
# 4 0.000391 0.000332 0.000231 0.283039 -0.000593 -0.003532
# 5 -0.064540 -0.003623 -0.048411 -0.000593 0.133484 0.001366
# 6 -0.000825 -0.000183 -0.000518 -0.003532 0.001366 0.132933
#
#
# Mechanical properties :
#
#
# Convention : Reuss Voigt Hill
#
# Bulk Modulus (GPa) = 6.63939 24.22538 15.43239
# Shear Modulus (GPa) = 7.82125 25.23455 16.52790
#
# Velocity S-wave (km/s) = 1.79711 3.22800 2.61243
# Velocity P-wave (km/s) = 2.65475 4.88842 3.93347
#
# Compressibility (1/GPa) = 0.15061624
#
# Stress axis : x y z
#
# Youngs Moduli (GPa) = 22.40119 43.26920 36.53932
#
# Poissons Ratio (x) = -0.13482 -0.82742
# Poissons Ratio (y) = -0.06980 -0.07264
# Poissons Ratio (z) = -0.50727 -0.08602
#
# Static dielectric constant tensor:
#      x y z
#    x 1.942070 0.000000 0.029630 
#    y 0.000000 1.913330 0.000000 
#    z 0.029630 0.000000 1.941000 
# 
# From -- ./inp_files/382379.got.cif
#   From: 2010.05.17/outbox.cif.g08.bks.cpg/sg12_192_cif.got.tgz:382379.got - 2010.06.03 13:09:07.
