data_PCOD9184794
_publ_section_title
;
Structure prediction by ZEFSAII (Michael W. Deem and Ramdas Pophale) SiO2 
 PCOD9184794
Probable space group: C 2/M
;
_chemical_formula_sum "Si O2"
_cell_formula_units_Z 56
_cell_length_a 31.757910
_cell_length_b 11.359462
_cell_length_c 28.220964
_cell_angle_alpha 90.000000
_cell_angle_beta 163.033755
_cell_angle_gamma 90.000000
_cell_volume 2970.838909
_symmetry_space_group_name_H-M "C 2/M"
_symmetry_group_IT_number 12
_symmetry_cell_setting 'monoclinic'
loop_
_space_group_symop_operation_xyz
x,y,z
-x,y,-z
-x,-y,-z
x,-y,z
1/2+x,1/2+y,z
1/2-x,1/2+y,-z
1/2-x,1/2-y,-z
1/2+x,1/2-y,z
loop_
_atom_site_type_symbol
_atom_site_label
_atom_site_fract_x
_atom_site_fract_y
_atom_site_fract_z
Si Si1 0.036099 0.210927 0.239144
Si Si2 0.823356 0.122784 0.084852
Si Si3 0.140454 0.364069 0.433886
Si Si4 0.324870 0.130671 0.319261
Si Si5 0.388527 0.631455 0.424633
Si Si6 0.965405 0.778381 0.323172
Si Si7 0.205185 0.863131 0.085072
O O1 0.066964 0.325758 0.304753
O O2 0.189959 0.161730 0.389333
O O3 0.953885 0.127917 0.188157
O O4 0.926323 0.214731 0.076803
O O5 0.883280 0.128435 0.202169
O O6 0.740977 0.000000 0.988397
O O7 0.750000 0.250000 0.000000
O O8 0.115948 0.500000 0.417525
O O9 0.078248 0.284634 0.409484
O O10 0.500000 0.128165 0.500000
O O11 0.294531 0.250329 0.315230
O O12 0.243394 0.144016 0.181602
O O13 0.289146 0.000000 0.300828
O O14 0.500000 0.628223 0.500000
O O15 0.322411 0.500000 0.355641
O O16 0.470298 0.660034 0.561473
O O17 0.849397 0.680750 0.214252
O O18 0.174575 0.000000 0.041786
#
# Coordination Sequence:
#
# PCOD9184794 Si02
#       7
#     8   8   8   8   8   8   8
#     4  10  22  39  57  81 115 157 194 231 291 346
#     4  11  22  34  53  81 115 147 186 236 286 335
#     4  10  22  39  58  81 116 158 198 238 284 345
#     4   9  17  30  51  81 112 141 183 233 285 337
#     4  10  19  34  54  81 116 149 183 231 295 350
#     4  11  21  34  53  86 111 146 193 237 283 339
#     4  11  19  32  55  84 114 145 187 237 285 331
#
# _framework density 18.849895
#
# number of rings (size 3 to 8) (size 9 to 14) (size 15 to 20)
#    0.000    1.714    4.286    2.143    0.000    2.857 
#    0.000    1.429    0.000    0.857    0.000    4.000 
#    0.000    0.000    0.000    0.000    0.000    0.000 
#
# Total GULP energy -155941.382422 kJ/mol
# GULP energy per Si atom -5569.335086 kJ/mol
# Density = 1.880699 g / cm^3
# Si number density = 18.849895 Si / 1000 Ang^3
#
#
#
# Elastic Constant Matrix: (Units=GPa)
#
#
# Indices 1 2 3 4 5 6 
#
# 1 57.6866 40.7485 41.7541 -0.0004 -23.2156 0.0000
# 2 40.7485 157.1040 33.1527 -0.0005 -4.3184 -0.0001
# 3 41.7541 33.1527 79.5050 -0.0012 -13.7012 0.0000
# 4 -0.0004 -0.0005 -0.0012 14.3478 -0.0007 -3.1371
# 5 -23.2156 -4.3184 -13.7012 -0.0007 39.5359 -0.0002
# 6 0.0000 -0.0001 0.0000 -3.1371 -0.0002 -17.8415
#
#
#
# Elastic Compliance Matrix: (Units=1/GPa)
#
#
# Indices 1 2 3 4 5 6 
#
# 1 0.040236 -0.006725 -0.015295 0.000000 0.017591 0.000000
# 2 -0.006725 0.008106 -0.000400 0.000000 -0.003202 0.000000
# 3 -0.015295 -0.000400 0.020443 0.000001 -0.001940 0.000000
# 4 0.000000 0.000000 0.000001 0.067117 0.000002 -0.011801
# 5 0.017591 -0.003202 -0.001940 0.000002 0.034601 -0.000001
# 6 0.000000 0.000000 0.000000 -0.011801 -0.000001 -0.053974
#
#
# Mechanical properties :
#
#
# Convention : Reuss Voigt Hill
#
# Bulk Modulus (GPa) = 41.76367 58.40069 50.08218
# Shear Modulus (GPa) = 29.52474 19.11779 24.32127
#
# Velocity S-wave (km/s) = 3.96195 3.18812 3.59592
# Velocity P-wave (km/s) = 6.56761 6.67843 6.62325
#
# Compressibility (1/GPa) = 0.02394426
#
# Stress axis : x y z
#
# Youngs Moduli (GPa) = 24.85361 123.36724 48.91684
#
# Poissons Ratio (x) = 0.82963 0.74818
# Poissons Ratio (y) = 0.16714 0.01957
# Poissons Ratio (z) = 0.38014 0.04937
#
# Static dielectric constant tensor:
#      x y z
#    x 1.646940 0.000000 -0.029520 
#    y 0.000000 1.716880 0.000000 
#    z -0.029520 0.000000 1.676540 
# 
# From -- ./inp_files/370791.got.cif
#   From: 2010.05.17/outbox.cif.g08.bks.cpg/sg12_186_cif.got.tgz:370791.got - 2010.06.03 13:09:07.
