data_PCOD9184891
_publ_section_title
;
Structure prediction by ZEFSAII (Michael W. Deem and Ramdas Pophale) SiO2 
 PCOD9184891
Probable space group: C 2/M
;
_chemical_formula_sum "Si O2"
_cell_formula_units_Z 64
_cell_length_a 20.800355
_cell_length_b 7.537207
_cell_length_c 23.856257
_cell_angle_alpha 90.000000
_cell_angle_beta 135.854647
_cell_angle_gamma 90.000000
_cell_volume 2604.910338
_symmetry_space_group_name_H-M "C 2/M"
_symmetry_group_IT_number 12
_symmetry_cell_setting 'monoclinic'
loop_
_space_group_symop_operation_xyz
x,y,z
-x,y,-z
-x,-y,-z
x,-y,z
1/2+x,1/2+y,z
1/2-x,1/2+y,-z
1/2-x,1/2-y,-z
1/2+x,1/2-y,z
loop_
_atom_site_type_symbol
_atom_site_label
_atom_site_fract_x
_atom_site_fract_y
_atom_site_fract_z
Si Si1 0.442341 0.719125 0.190117
Si Si2 0.806604 0.211840 0.479651
Si Si3 0.678663 0.786970 0.729708
Si Si4 0.520822 0.294572 0.350419
Si Si5 0.866957 0.210874 0.906299
Si Si6 0.971113 0.796958 0.867481
Si Si7 0.216255 0.708131 0.310873
Si Si8 0.259302 0.791190 0.940382
O O1 0.443545 0.500000 0.189859
O O2 0.513988 0.779530 0.282737
O O3 0.465025 0.782988 0.141508
O O4 0.339708 0.778821 0.143636
O O5 0.750000 0.250000 0.500000
O O6 0.907965 0.281974 0.559920
O O7 0.750655 0.282583 0.391490
O O8 0.813319 0.000000 0.473011
O O9 0.582591 0.713977 0.691261
O O10 0.769193 0.722588 0.820244
O O11 0.699347 0.730969 0.679302
O O12 0.676353 0.000000 0.732231
O O13 0.547970 0.500000 0.360383
O O14 0.946187 0.281622 0.913425
O O15 0.848903 0.232594 0.961339
O O16 0.873015 0.000000 0.901529
O O17 0.871691 0.798720 0.773169
O O18 0.001454 0.000000 0.894345
O O19 0.192269 0.500000 0.300373
O O20 0.258733 0.000000 0.933815
O O21 0.250000 0.750000 0.000000
#
# Coordination Sequence:
#
# PCOD9184891 Si02
#       8
#     8   8   8   8   8   8   8   8
#     4   9  18  34  58  84 107 140 186 228 271 325
#     4  10  22  36  52  74 105 144 184 230 283 332
#     4  10  20  34  54  80 106 141 184 229 276 323
#     4  10  19  34  55  78 105 141 185 233 278 324
#     4   9  18  34  56  82 111 141 178 224 272 323
#     4   9  18  35  59  84 110 145 189 232 271 319
#     4  10  20  34  51  77 111 145 183 225 277 332
#     4  11  22  37  59  85 112 145 180 220 272 330
#
# _framework density 24.568984
#
# number of rings (size 3 to 8) (size 9 to 14) (size 15 to 20)
#    0.000    2.250    1.250    2.625    0.000    5.000 
#    0.000    5.000    0.000    3.750    0.000    0.000 
#    0.000    0.000    0.000    0.000    0.000    0.000 
#
# Total GULP energy -178711.563172 kJ/mol
# GULP energy per Si atom -5584.736349 kJ/mol
# Density = 2.451306 g / cm^3
# Si number density = 24.568984 Si / 1000 Ang^3
#
#
#
# Elastic Constant Matrix: (Units=GPa)
#
#
# Indices 1 2 3 4 5 6 
#
# 1 159.2053 -8.4257 33.6340 0.0000 -23.6187 0.0000
# 2 -8.4257 82.3182 5.6624 0.0000 3.1136 0.0000
# 3 33.6340 5.6624 129.6453 0.0000 -23.5099 0.0000
# 4 0.0000 0.0000 0.0000 9.8599 0.0000 -1.2099
# 5 -23.6187 3.1136 -23.5099 0.0000 47.7086 0.0000
# 6 0.0000 0.0000 0.0000 -1.2099 0.0000 22.4945
#
#
#
# Elastic Compliance Matrix: (Units=1/GPa)
#
#
# Indices 1 2 3 4 5 6 
#
# 1 0.007013 0.000706 -0.001350 0.000000 0.002761 0.000000
# 2 0.000706 0.012315 -0.000882 0.000000 -0.000889 0.000000
# 3 -0.001350 -0.000882 0.008775 0.000000 0.003714 0.000000
# 4 0.000000 0.000000 0.000000 0.102095 0.000000 0.005491
# 5 0.002761 -0.000889 0.003714 0.000000 0.024215 0.000000
# 6 0.000000 0.000000 0.000000 0.005491 0.000000 0.044751
#
#
# Mechanical properties :
#
#
# Convention : Reuss Voigt Hill
#
# Bulk Modulus (GPa) = 39.91687 48.10113 44.00900
# Shear Modulus (GPa) = 23.74550 38.69913 31.22231
#
# Velocity S-wave (km/s) = 3.11220 3.97309 3.56870
# Velocity P-wave (km/s) = 5.40338 6.37712 5.91034
#
# Compressibility (1/GPa) = 0.02505206
#
# Stress axis : x y z
#
# Youngs Moduli (GPa) = 142.58649 81.20454 113.95375
#
# Poissons Ratio (x) = -0.05735 0.15380
# Poissons Ratio (y) = -0.10070 0.10054
# Poissons Ratio (z) = 0.19244 0.07164
#
# Static dielectric constant tensor:
#      x y z
#    x 1.939300 0.000000 -0.003520 
#    y 0.000000 3.671780 0.000000 
#    z -0.003520 0.000000 2.030460 
# 
# From -- ./inp_files/319835.got.cif
#   From: 2010.05.17/outbox.cif.g08.bks.cpg/sg12_160_cif.got.tgz:319835.got - 2010.06.03 13:09:07.
