data_PCOD9184879
_publ_section_title
;
Structure prediction by ZEFSAII (Michael W. Deem and Ramdas Pophale) SiO2 
 PCOD9184879
Probable space group: C 2/M
;
_chemical_formula_sum "Si O2"
_cell_formula_units_Z 64
_cell_length_a 20.605430
_cell_length_b 8.396916
_cell_length_c 23.418822
_cell_angle_alpha 90.000000
_cell_angle_beta 135.015755
_cell_angle_gamma 90.000000
_cell_volume 2864.389577
_symmetry_space_group_name_H-M "C 2/M"
_symmetry_group_IT_number 12
_symmetry_cell_setting 'monoclinic'
loop_
_space_group_symop_operation_xyz
x,y,z
-x,y,-z
-x,-y,-z
x,-y,z
1/2+x,1/2+y,z
1/2-x,1/2+y,-z
1/2-x,1/2-y,-z
1/2+x,1/2-y,z
loop_
_atom_site_type_symbol
_atom_site_label
_atom_site_fract_x
_atom_site_fract_y
_atom_site_fract_z
Si Si1 0.510875 0.308431 0.939908
Si Si2 0.264669 0.692782 0.348746
Si Si3 0.619202 0.809824 0.907692
Si Si4 0.963531 0.315439 0.311359
Si Si5 0.807857 0.811059 0.807781
Si Si6 0.284461 0.684337 0.140836
Si Si7 0.442466 0.681099 0.521955
Si Si8 0.069307 0.310323 0.268038
O O1 0.517239 0.500000 0.938229
O O2 0.596946 0.236217 0.959274
O O3 0.410301 0.251649 0.855223
O O4 0.500000 0.271628 0.000000
O O5 0.268852 0.500000 0.353300
O O6 0.265194 0.740664 0.282460
O O7 0.345591 0.750378 0.440274
O O8 0.166992 0.754771 0.310620
O O9 0.696075 0.742434 0.912074
O O10 0.522728 0.749448 0.819715
O O11 0.626357 0.000000 0.908191
O O12 0.933251 0.500000 0.287454
O O13 0.880674 0.211667 0.234766
O O14 0.999311 0.276454 0.395902
O O15 0.049303 0.291806 0.322327
O O16 0.784922 0.771632 0.859136
O O17 0.807679 0.000000 0.801698
O O18 0.260619 0.500000 0.123836
O O19 0.500000 0.670953 0.500000
O O20 0.429420 0.500000 0.536027
O O21 0.071259 0.500000 0.256939
#
# Coordination Sequence:
#
# PCOD9184879 Si02
#       8
#     8   8   8   8   8   8   8   8
#     4  10  22  40  62  90 124 157 189 232 285 343
#     4  10  19  34  55  77 109 151 193 235 288 344
#     4  10  19  36  61  88 119 151 194 241 286 342
#     4  10  20  35  54  78 110 145 190 243 293 340
#     4  11  22  37  59  89 119 148 194 242 284 338
#     4  11  22  37  60  86 116 155 197 238 291 347
#     4  10  21  34  48  71 105 147 192 238 291 347
#     4   8  16  31  52  78 106 141 182 231 284 334
#
# _framework density 22.343330999999999
#
# number of rings (size 3 to 8) (size 9 to 14) (size 15 to 20)
#    0.000    2.000    1.250    3.750    0.000    3.000 
#    0.000    1.250    0.000    0.000    0.000    0.000 
#    0.000    0.000    0.000    0.000    0.000    0.000 
#
# Total GULP energy -178661.160024 kJ/mol
# GULP energy per Si atom -5583.161251 kJ/mol
# Density = 2.229248 g / cm^3
# Si number density = 22.343331 Si / 1000 Ang^3
#
#
#
# Elastic Constant Matrix: (Units=GPa)
#
#
# Indices 1 2 3 4 5 6 
#
# 1 110.5704 1.7980 11.8865 0.0000 -2.1855 0.0000
# 2 1.7980 31.5434 -0.4737 0.0001 -5.6621 -0.0001
# 3 11.8865 -0.4737 72.2864 0.0000 -9.2961 0.0000
# 4 0.0000 0.0001 0.0000 623.9447 0.0000 -913.2038
# 5 -2.1855 -5.6621 -9.2961 0.0000 38.3114 0.0000
# 6 0.0000 -0.0001 0.0000 -913.2038 0.0000 1377.7847
#
#
#
# Elastic Compliance Matrix: (Units=1/GPa)
#
#
# Indices 1 2 3 4 5 6 
#
# 1 0.009216 -0.000534 -0.001509 0.000000 0.000081 0.000000
# 2 -0.000534 0.032649 0.000948 0.000000 0.005025 0.000000
# 3 -0.001509 0.000948 0.014549 0.000000 0.003584 0.000000
# 4 0.000000 0.000000 0.000000 0.053568 0.000000 0.035505
# 5 0.000081 0.005025 0.003584 0.000000 0.027719 0.000000
# 6 0.000000 0.000000 0.000000 0.035505 0.000000 0.024259
#
#
# Mechanical properties :
#
#
# Convention : Reuss Voigt Hill
#
# Bulk Modulus (GPa) = 18.44132 26.75797 22.59965
# Shear Modulus (GPa) = 27.43872 421.42078 224.42975
#
# Velocity S-wave (km/s) = 3.50816 13.74849 10.03315
# Velocity P-wave (km/s) = 4.96800 16.24899 12.01480
#
# Compressibility (1/GPa) = 0.05422605
#
# Stress axis : x y z
#
# Youngs Moduli (GPa) = 108.50146 30.62885 68.73280
#
# Poissons Ratio (x) = 0.01634 0.10369
# Poissons Ratio (y) = 0.05789 -0.06515
# Poissons Ratio (z) = 0.16369 -0.02903
#
# Static dielectric constant tensor:
#      x y z
#    x 1.850700 0.000000 0.012740 
#    y 0.000000 1.774180 0.000000 
#    z 0.012740 0.000000 1.893690 
# 
# From -- ./inp_files/346305.got.cif
#   From: 2010.05.17/outbox.cif.g08.bks.cpg/sg12_174_cif.got.tgz:346305.got - 2010.06.03 13:09:07.
