data_PCOD9184433
_publ_section_title
;
Structure prediction by ZEFSAII (Michael W. Deem and Ramdas Pophale) SiO2 
 PCOD9184433
Probable space group: C 2/M
;
_chemical_formula_sum "Si O2"
_cell_formula_units_Z 40
_cell_length_a 11.050839
_cell_length_b 19.072711
_cell_length_c 18.329296
_cell_angle_alpha 90.000000
_cell_angle_beta 149.470444
_cell_angle_gamma 90.000000
_cell_volume 1962.467365
_symmetry_space_group_name_H-M "C 2/M"
_symmetry_group_IT_number 12
_symmetry_cell_setting 'monoclinic'
loop_
_space_group_symop_operation_xyz
x,y,z
-x,y,-z
-x,-y,-z
x,-y,z
1/2+x,1/2+y,z
1/2-x,1/2+y,-z
1/2-x,1/2-y,-z
1/2+x,1/2-y,z
loop_
_atom_site_type_symbol
_atom_site_label
_atom_site_fract_x
_atom_site_fract_y
_atom_site_fract_z
Si Si1 0.000643 0.330160 0.588064
Si Si2 0.500037 0.157044 0.820920
Si Si3 0.258395 0.581540 0.830498
Si Si4 0.246907 0.300027 0.091663
Si Si5 0.017670 0.166910 0.642566
O O1 0.752124 0.359139 0.492727
O O2 0.000000 0.332808 0.500000
O O3 0.216254 0.371785 0.737186
O O4 0.010685 0.250022 0.620293
O O5 0.569796 0.105895 0.792826
O O6 0.572684 0.236723 0.834463
O O7 0.224789 0.143019 0.695967
O O8 0.658896 0.154486 0.977308
O O9 0.242953 0.500000 0.804163
O O10 0.500000 0.594956 0.000000
O O11 0.375113 0.342932 0.221153
O O12 0.000000 0.270864 0.000000
#
# Coordination Sequence:
#
# PCOD9184433 Si02
#       5
#     8   8   8   8   8
#     4  11  24  38  61  90 132 161 201 252 313 369
#     4  10  19  33  62  89 123 155 206 252 305 358
#     4  11  26  45  64  86 121 170 217 251 295 371
#     4   9  17  30  56  94 123 156 192 250 313 362
#     4  10  21  35  57  98 128 155 191 258 323 371
#
# _framework density 20.382503
#
# number of rings (size 3 to 8) (size 9 to 14) (size 15 to 20)
#    0.000    1.800    2.000    1.800   11.200    0.400 
#    0.000    2.000    0.000    5.400    0.000    0.000 
#    0.000    0.000    0.000    0.000    0.000    0.000 
#
# Total GULP energy -111571.168391 kJ/mol
# GULP energy per Si atom -5578.558420 kJ/mol
# Density = 2.033611 g / cm^3
# Si number density = 20.382503 Si / 1000 Ang^3
#
#
#
# Elastic Constant Matrix: (Units=GPa)
#
#
# Indices 1 2 3 4 5 6 
#
# 1 62.9365 -4.9058 27.2554 -0.0002 -16.7278 0.0002
# 2 -4.9058 25.5033 26.5037 -0.0031 -21.0353 0.0004
# 3 27.2554 26.5037 52.2266 -0.0074 -6.8624 0.0003
# 4 -0.0002 -0.0031 -0.0074 8.7912 0.0000 -3.1629
# 5 -16.7278 -21.0353 -6.8624 0.0000 39.7315 0.0008
# 6 0.0002 0.0004 0.0003 -3.1629 0.0008 10.6530
#
#
#
# Elastic Compliance Matrix: (Units=1/GPa)
#
#
# Indices 1 2 3 4 5 6 
#
# 1 -0.009650 -0.057825 0.030517 0.000008 -0.029407 0.000006
# 2 -0.057825 -0.103705 0.074073 0.000031 -0.066457 0.000017
# 3 0.030517 0.074073 -0.028167 0.000001 0.047200 -0.000006
# 4 0.000008 0.000031 0.000001 0.127354 0.000019 0.037812
# 5 -0.029407 -0.066457 0.047200 0.000019 -0.014244 0.000008
# 6 0.000006 0.000017 -0.000006 0.037812 0.000008 0.105096
#
#
# Mechanical properties :
#
#
# Convention : Reuss Voigt Hill
#
# Bulk Modulus (GPa) = -20.83636 26.48590 2.82477
# Shear Modulus (GPa) = -152.23907 17.95602 -67.14152
#
# Velocity S-wave (km/s) = -8.65177 2.97130 -5.74563
# Velocity P-wave (km/s) = 10.49043 4.97938 6.52897
#
# Compressibility (1/GPa) = -0.04799304
#
# Stress axis : x y z
#
# Youngs Moduli (GPa) = -103.62495 -9.64272 -35.50281
#
# Poissons Ratio (x) = -0.55759 1.08344
# Poissons Ratio (y) = -5.99215 2.62979
# Poissons Ratio (z) = 3.16233 0.71426
#
# Static dielectric constant tensor:
#      x y z
#    x 1.869850 0.000000 0.024380 
#    y 0.000000 1.690370 0.000000 
#    z 0.024380 0.000000 1.824580 
# 
# From -- ./inp_files/306512.got.cif
#   From: 2010.05.17/outbox.cif.g08.bks.cpg/sg12_154_cif.got.tgz:306512.got - 2010.06.03 13:09:07.
