data_PCOD9184187
_publ_section_title
;
Structure prediction by ZEFSAII (Michael W. Deem and Ramdas Pophale) SiO2 
 PCOD9184187
Probable space group: C 2/M
;
_chemical_formula_sum "Si O2"
_cell_formula_units_Z 64
_cell_length_a 26.252981
_cell_length_b 17.999091
_cell_length_c 18.874772
_cell_angle_alpha 90.000000
_cell_angle_beta 158.213104
_cell_angle_gamma 90.000000
_cell_volume 3310.295632
_symmetry_space_group_name_H-M "C 2/M"
_symmetry_group_IT_number 12
_symmetry_cell_setting 'monoclinic'
loop_
_space_group_symop_operation_xyz
x,y,z
-x,y,-z
-x,-y,-z
x,-y,z
1/2+x,1/2+y,z
1/2-x,1/2+y,-z
1/2-x,1/2-y,-z
1/2+x,1/2-y,z
loop_
_atom_site_type_symbol
_atom_site_label
_atom_site_fract_x
_atom_site_fract_y
_atom_site_fract_z
Si Si1 0.164945 0.162062 0.036135
Si Si2 0.610864 0.826608 0.928179
Si Si3 0.124936 0.914827 0.346281
Si Si4 0.801546 0.305279 0.503853
Si Si5 0.861968 0.814053 0.849593
Si Si6 0.622268 0.413295 0.507690
Si Si7 0.308518 0.410973 0.077662
Si Si8 0.395128 0.853407 0.924360
O O1 0.212114 0.149221 0.178337
O O2 0.184784 0.248241 0.041219
O O3 0.215245 0.114440 0.034231
O O4 0.003797 0.139212 0.832849
O O5 0.463727 0.803403 0.707808
O O6 0.699878 0.873537 0.988879
O O7 0.583605 0.871949 0.965946
O O8 0.249589 0.886237 0.460799
O O9 0.163839 0.908530 0.478902
O O10 0.085207 0.000000 0.281519
O O11 0.750000 0.250000 0.500000
O O12 0.731898 0.293186 0.338121
O O13 0.915478 0.735460 0.949245
O O14 0.000000 0.854772 0.000000
O O15 0.623944 0.500000 0.531091
O O16 0.463507 0.387759 0.302246
O O17 0.738558 0.371691 0.701794
O O18 0.304827 0.500000 0.076016
O O19 0.500000 0.884452 0.000000
#
# Coordination Sequence:
#
# PCOD9184187 Si02
#       8
#     8   8   8   8   8   8   8   8
#     4  10  19  39  59  85 118 154 203 255 301 354
#     4  11  23  36  61  89 118 159 205 250 300 371
#     4  10  19  33  57  88 119 154 199 241 301 369
#     4  12  20  36  61  88 125 159 189 251 314 363
#     4  10  19  34  57  90 120 150 197 248 306 370
#     4   9  19  35  57  82 115 164 201 236 297 364
#     4  10  23  42  62  83 118 165 210 250 301 368
#     4  10  20  35  55  90 125 152 192 252 311 364
#
# _framework density 19.333621999999998
#
# number of rings (size 3 to 8) (size 9 to 14) (size 15 to 20)
#    0.000    1.750    2.500    4.500    1.750    1.750 
#    0.000    3.750    0.000    0.750    0.000    0.000 
#    0.000    0.000    0.000    0.000    0.000    0.000 
#
# Total GULP energy -178367.783981 kJ/mol
# GULP energy per Si atom -5573.993249 kJ/mol
# Density = 1.928962 g / cm^3
# Si number density = 19.333622 Si / 1000 Ang^3
#
#
#
# Elastic Constant Matrix: (Units=GPa)
#
#
# Indices 1 2 3 4 5 6 
#
# 1 129.8350 38.3100 59.3390 -0.0001 -1.9361 -0.0002
# 2 38.3100 46.7377 7.5860 0.0000 2.5400 -0.0001
# 3 59.3390 7.5860 65.1490 -0.0001 -9.0334 -0.0002
# 4 -0.0001 0.0000 -0.0001 21.6753 -0.0001 5.7994
# 5 -1.9361 2.5400 -9.0334 -0.0001 29.7738 -0.0002
# 6 -0.0002 -0.0001 -0.0002 5.7994 -0.0002 18.4480
#
#
#
# Elastic Compliance Matrix: (Units=1/GPa)
#
#
# Indices 1 2 3 4 5 6 
#
# 1 0.018599 -0.012539 -0.015831 0.000000 -0.002524 0.000000
# 2 -0.012539 0.030479 0.007723 0.000000 -0.001072 0.000000
# 3 -0.015831 0.007723 0.029892 0.000000 0.007381 0.000000
# 4 0.000000 0.000000 0.000000 0.050372 0.000000 -0.015835
# 5 -0.002524 -0.001072 0.007381 0.000000 0.035753 0.000000
# 6 0.000000 0.000000 0.000000 -0.015835 0.000000 0.059184
#
#
# Mechanical properties :
#
#
# Convention : Reuss Voigt Hill
#
# Bulk Modulus (GPa) = 26.54100 50.24353 38.39227
# Shear Modulus (GPa) = 17.97703 23.07855 20.52779
#
# Velocity S-wave (km/s) = 3.05262 3.45874 3.26201
# Velocity P-wave (km/s) = 5.11687 6.48033 5.83854
#
# Compressibility (1/GPa) = 0.03767756
#
# Stress axis : x y z
#
# Youngs Moduli (GPa) = 53.76516 32.80983 33.45326
#
# Poissons Ratio (x) = 0.41140 0.52959
# Poissons Ratio (y) = 0.67416 -0.25836
# Poissons Ratio (z) = 0.85114 -0.25339
#
# Static dielectric constant tensor:
#      x y z
#    x 1.734210 0.000000 -0.020400 
#    y 0.000000 1.683900 0.000000 
#    z -0.020400 0.000000 1.683700 
# 
# From -- ./inp_files/290936.got.cif
#   From: 2010.05.17/outbox.cif.g08.bks.cpg/sg12_146_cif.got.tgz:290936.got - 2010.06.03 13:09:07.
