data_PCOD9184015
_publ_section_title
;
Structure prediction by ZEFSAII (Michael W. Deem and Ramdas Pophale) SiO2 
 PCOD9184015
Probable space group: C 2/M
;
_chemical_formula_sum "Si O2"
_cell_formula_units_Z 64
_cell_length_a 31.426566
_cell_length_b 13.436854
_cell_length_c 9.259007
_cell_angle_alpha 90.000000
_cell_angle_beta 60.334263
_cell_angle_gamma 90.000000
_cell_volume 3397.367696
_symmetry_space_group_name_H-M "C 2/M"
_symmetry_group_IT_number 12
_symmetry_cell_setting 'monoclinic'
loop_
_space_group_symop_operation_xyz
x,y,z
-x,y,-z
-x,-y,-z
x,-y,z
1/2+x,1/2+y,z
1/2-x,1/2+y,-z
1/2-x,1/2-y,-z
1/2+x,1/2-y,z
loop_
_atom_site_type_symbol
_atom_site_label
_atom_site_fract_x
_atom_site_fract_y
_atom_site_fract_z
Si Si1 0.982690 0.616973 0.867811
Si Si2 0.924131 0.119674 0.736874
Si Si3 0.130885 0.616908 0.880748
Si Si4 0.723376 0.882193 0.175519
Si Si5 0.140645 0.615293 0.524765
Si Si6 0.676567 0.267146 0.020466
Si Si7 0.988680 0.109473 0.185984
Si Si8 0.444999 0.241080 0.434524
O O1 0.994771 0.500000 0.840449
O O2 0.009962 0.669549 0.688058
O O3 0.924347 0.628680 0.965918
O O4 0.000000 0.651055 0.000000
O O5 0.871289 0.167537 0.859835
O O6 0.961976 0.131428 0.806533
O O7 0.945803 0.186466 0.570168
O O8 0.921279 0.000000 0.710996
O O9 0.144601 0.500000 0.879107
O O10 0.132349 0.636584 0.706980
O O11 0.164020 0.695761 0.907456
O O12 0.695583 0.871194 0.375287
O O13 0.693869 0.810446 0.115311
O O14 0.721416 0.000000 0.139443
O O15 0.778389 0.841265 0.085192
O O16 0.127715 0.500000 0.525935
O O17 0.103916 0.677921 0.488400
O O18 0.946228 0.184421 0.297090
O O19 0.972898 0.000000 0.257311
O O20 0.000000 0.111252 0.000000
#
# Coordination Sequence:
#
# PCOD9184015 Si02
#       8
#     8   8   8   8   8   8   8   8
#     4  10  19  33  56  90 127 166 205 243 292 353
#     4  11  24  41  60  88 123 160 206 258 302 349
#     4  10  21  37  60  91 127 159 198 248 297 359
#     4  10  22  42  64  88 118 153 199 251 305 365
#     4  10  21  38  61  90 123 157 193 246 306 359
#     4  11  22  39  65  91 115 157 201 249 309 364
#     4  10  23  40  59  83 116 162 210 252 295 347
#     4  12  20  34  59  88 120 163 205 244 295 361
#
# _framework density 18.838111999999999
#
# number of rings (size 3 to 8) (size 9 to 14) (size 15 to 20)
#    0.000    1.500    2.500    3.000    1.750    1.500 
#    0.000    0.000    0.000    4.500    0.000    0.000 
#    0.000    0.000    0.000    0.000    0.000    0.000 
#
# Total GULP energy -178526.387811 kJ/mol
# GULP energy per Si atom -5578.949619 kJ/mol
# Density = 1.879524 g / cm^3
# Si number density = 18.838112 Si / 1000 Ang^3
#
#
#
# Elastic Constant Matrix: (Units=GPa)
#
#
# Indices 1 2 3 4 5 6 
#
# 1 61.8398 49.8797 42.8860 0.0000 1.8637 0.0000
# 2 49.8797 117.7664 60.2170 0.0000 -1.3681 0.0000
# 3 42.8860 60.2170 114.3895 0.0000 -10.9500 0.0000
# 4 0.0000 0.0000 0.0000 33.3196 0.0000 -2.9739
# 5 1.8637 -1.3681 -10.9500 0.0000 24.5668 0.0000
# 6 0.0000 0.0000 0.0000 -2.9739 0.0000 19.1021
#
#
#
# Elastic Compliance Matrix: (Units=1/GPa)
#
#
# Indices 1 2 3 4 5 6 
#
# 1 0.027623 -0.008486 -0.006408 0.000000 -0.005424 0.000000
# 2 -0.008486 0.014338 -0.004417 0.000000 -0.000526 0.000000
# 3 -0.006408 -0.004417 0.014094 0.000000 0.006522 0.000000
# 4 0.000000 0.000000 0.000000 0.030435 0.000000 0.004738
# 5 -0.005424 -0.000526 0.006522 0.000000 0.043995 0.000000
# 6 0.000000 0.000000 0.000000 0.004738 0.000000 0.053088
#
#
# Mechanical properties :
#
#
# Convention : Reuss Voigt Hill
#
# Bulk Modulus (GPa) = 57.36206 66.66234 62.01220
# Shear Modulus (GPa) = 21.92924 24.79855 23.36390
#
# Velocity S-wave (km/s) = 3.41558 3.63216 3.52553
# Velocity P-wave (km/s) = 6.78756 7.28381 7.04006
#
# Compressibility (1/GPa) = 0.01743313
#
# Stress axis : x y z
#
# Youngs Moduli (GPa) = 36.20130 69.74553 70.95240
#
# Poissons Ratio (x) = 0.59186 0.45469
# Poissons Ratio (y) = 0.30721 0.31337
# Poissons Ratio (z) = 0.23199 0.30804
#
# Static dielectric constant tensor:
#      x y z
#    x 1.646930 0.000000 0.009420 
#    y 0.000000 1.681460 0.000000 
#    z 0.009420 0.000000 1.653910 
# 
# From -- ./inp_files/111967.got.cif
#   From: 2010.05.17/outbox.cif.g08.bks.cpg/sg12_56_cif.got.tgz:111967.got - 2010.06.03 13:09:07.
