data_PCOD9184902
_publ_section_title
;
Structure prediction by ZEFSAII (Michael W. Deem and Ramdas Pophale) SiO2 
 PCOD9184902
Probable space group: C 2/M
;
_chemical_formula_sum "Si O2"
_cell_formula_units_Z 56
_cell_length_a 19.465212
_cell_length_b 9.018754
_cell_length_c 19.189877
_cell_angle_alpha 90.000000
_cell_angle_beta 117.659509
_cell_angle_gamma 90.000000
_cell_volume 2983.838118
_symmetry_space_group_name_H-M "C 2/M"
_symmetry_group_IT_number 12
_symmetry_cell_setting 'monoclinic'
loop_
_space_group_symop_operation_xyz
x,y,z
-x,y,-z
-x,-y,-z
x,-y,z
1/2+x,1/2+y,z
1/2-x,1/2+y,-z
1/2-x,1/2-y,-z
1/2+x,1/2-y,z
loop_
_atom_site_type_symbol
_atom_site_label
_atom_site_fract_x
_atom_site_fract_y
_atom_site_fract_z
Si Si1 0.578025 0.319688 0.574923
Si Si2 0.670270 0.178219 0.223517
Si Si3 0.595301 0.827345 0.330822
Si Si4 0.658610 0.678955 0.751710
Si Si5 0.432684 0.826281 0.172671
Si Si6 0.328186 0.675742 0.511350
Si Si7 0.517353 0.676992 0.088548
O O1 0.500000 0.266834 0.500000
O O2 0.573575 0.500000 0.575444
O O3 0.599459 0.270617 0.662553
O O4 0.647026 0.280250 0.554526
O O5 0.657206 0.212306 0.299293
O O6 0.754681 0.215831 0.233554
O O7 0.600567 0.256994 0.149937
O O8 0.659948 0.000000 0.212982
O O9 0.511872 0.812399 0.255398
O O10 0.606383 0.726209 0.403045
O O11 0.607016 0.000000 0.355502
O O12 0.653749 0.500000 0.755100
O O13 0.634043 0.751800 0.812643
O O14 0.453422 0.747281 0.109979
O O15 0.417845 0.000000 0.154707
O O16 0.320256 0.500000 0.508885
O O17 0.250000 0.750000 0.500000
O O18 0.518154 0.500000 0.098289
O O19 0.500000 0.711062 0.000000
#
# Coordination Sequence:
#
# PCOD9184902 Si02
#       7
#     8   8   8   8   8   8   8
#     4   9  18  32  50  72 100 138 181 222 264 309
#     4   9  19  35  56  81 111 147 180 219 271 321
#     4   9  18  34  52  72 101 136 178 223 266 316
#     4  10  19  34  55  78 108 144 184 226 266 315
#     4  10  21  36  56  81 109 141 175 215 264 319
#     4  11  21  32  49  72  99 134 177 225 275 322
#     4  10  21  38  61  87 111 136 173 219 262 316
#
# _framework density 18.767775
#
# number of rings (size 3 to 8) (size 9 to 14) (size 15 to 20)
#    0.000    2.286    0.000    3.857    0.000    8.000 
#    0.000    3.571    0.000    3.857    0.000    0.000 
#    0.000    0.000    0.000    0.000    0.000    0.000 
#
# Total GULP energy -156297.855767 kJ/mol
# GULP energy per Si atom -5582.066277 kJ/mol
# Density = 1.872506 g / cm^3
# Si number density = 18.767775 Si / 1000 Ang^3
#
#
#
# Elastic Constant Matrix: (Units=GPa)
#
#
# Indices 1 2 3 4 5 6 
#
# 1 99.4391 28.6430 24.1646 0.0000 -24.8738 0.0000
# 2 28.6430 33.3587 29.6448 0.0000 -14.6848 0.0000
# 3 24.1646 29.6448 78.7646 0.0000 -23.5126 0.0000
# 4 0.0000 0.0000 0.0000 24.3777 0.0000 -0.5341
# 5 -24.8738 -14.6848 -23.5126 0.0000 28.5857 0.0000
# 6 0.0000 0.0000 0.0000 -0.5341 0.0000 27.3030
#
#
#
# Elastic Compliance Matrix: (Units=1/GPa)
#
#
# Indices 1 2 3 4 5 6 
#
# 1 0.014928 -0.010692 0.002230 0.000000 0.009332 0.000000
# 2 -0.010692 0.056149 -0.015931 0.000000 0.006437 0.000000
# 3 0.002230 -0.015931 0.021398 0.000000 0.011357 0.000000
# 4 0.000000 0.000000 0.000000 0.041039 0.000000 0.000803
# 5 0.009332 0.006437 0.011357 0.000000 0.055750 0.000000
# 6 0.000000 0.000000 0.000000 0.000803 0.000000 0.036642
#
#
# Mechanical properties :
#
#
# Convention : Reuss Voigt Hill
#
# Bulk Modulus (GPa) = 22.88903 41.82967 32.35935
# Shear Modulus (GPa) = 17.28576 24.66061 20.97319
#
# Velocity S-wave (km/s) = 3.03815 3.62883 3.34655
# Velocity P-wave (km/s) = 4.95273 6.31619 5.67555
#
# Compressibility (1/GPa) = 0.04368905
#
# Stress axis : x y z
#
# Youngs Moduli (GPa) = 66.98601 17.80991 46.73278
#
# Poissons Ratio (x) = 0.19042 -0.10420
# Poissons Ratio (y) = 0.71620 0.74450
# Poissons Ratio (z) = -0.14936 0.28373
#
# Static dielectric constant tensor:
#      x y z
#    x 1.671060 0.000000 0.009700 
#    y 0.000000 1.626470 0.000000 
#    z 0.009700 0.000000 1.647790 
# 
# From -- ./inp_files/275188.got.cif
#   From: 2010.05.17/outbox.cif.g08.bks.cpg/sg12_138_cif.got.tgz:275188.got - 2010.06.03 13:09:07.
