data_PCOD9184269
_publ_section_title
;
Structure prediction by ZEFSAII (Michael W. Deem and Ramdas Pophale) SiO2 
 PCOD9184269
Probable space group: C 2/M
;
_chemical_formula_sum "Si O2"
_cell_formula_units_Z 48
_cell_length_a 10.865899
_cell_length_b 27.438454
_cell_length_c 14.346846
_cell_angle_alpha 90.000000
_cell_angle_beta 32.549196
_cell_angle_gamma 90.000000
_cell_volume 2301.351958
_symmetry_space_group_name_H-M "C 2/M"
_symmetry_group_IT_number 12
_symmetry_cell_setting 'monoclinic'
loop_
_space_group_symop_operation_xyz
x,y,z
-x,y,-z
-x,-y,-z
x,-y,z
1/2+x,1/2+y,z
1/2-x,1/2+y,-z
1/2-x,1/2-y,-z
1/2+x,1/2-y,z
loop_
_atom_site_type_symbol
_atom_site_label
_atom_site_fract_x
_atom_site_fract_y
_atom_site_fract_z
Si Si1 0.345867 0.556732 0.447736
Si Si2 0.408670 0.650351 0.658580
Si Si3 0.974134 0.195312 0.225280
Si Si4 0.841673 0.558147 0.828081
Si Si5 0.499816 0.214305 0.102428
Si Si6 0.098695 0.091534 0.794201
O O1 0.391384 0.500000 0.436727
O O2 0.542059 0.593917 0.353439
O O3 0.324432 0.565474 0.350108
O O4 0.109469 0.571374 0.650660
O O5 0.500000 0.663140 0.500000
O O6 0.531261 0.681014 0.662616
O O7 0.148130 0.666572 0.820891
O O8 0.889281 0.247756 0.245526
O O9 0.868800 0.149412 0.239045
O O10 0.246240 0.199470 0.030007
O O11 0.828159 0.500000 0.849014
O O12 0.735295 0.571624 0.795364
O O13 0.670656 0.581837 0.012501
O O14 0.500000 0.239797 0.000000
#
# Coordination Sequence:
#
# PCOD9184269 Si02
#       6
#     8   8   8   8   8   8
#     4  10  21  38  58  83 119 160 197 242 296 346
#     4  10  22  38  58  84 116 151 193 248 287 345
#     4   9  20  37  59  84 109 154 192 235 295 353
#     4  10  20  33  55  87 119 154 193 240 297 353
#     4   9  19  38  61  83 114 148 192 236 295 349
#     4  10  19  33  58  87 117 152 194 244 292 353
#
# _framework density 20.857306000000001
#
# number of rings (size 3 to 8) (size 9 to 14) (size 15 to 20)
#    0.000    2.333    0.000    2.500    4.667    2.333 
#    0.000    3.333    0.000    5.500    0.000    0.000 
#    0.000    0.000    0.000    0.000    0.000    0.000 
#
# Total GULP energy -133870.134977 kJ/mol
# GULP energy per Si atom -5577.922291 kJ/mol
# Density = 2.080983 g / cm^3
# Si number density = 20.857306 Si / 1000 Ang^3
#
#
#
# Elastic Constant Matrix: (Units=GPa)
#
#
# Indices 1 2 3 4 5 6 
#
# 1 15.8524 19.9992 4.6742 0.0000 -6.5816 0.0000
# 2 19.9992 100.8620 26.0535 0.0000 -11.9851 0.0000
# 3 4.6742 26.0535 63.2369 0.0001 11.1793 0.0001
# 4 0.0000 0.0000 0.0001 -0.9633 0.0000 -34.9000
# 5 -6.5816 -11.9851 11.1793 0.0000 24.3463 0.0000
# 6 0.0000 0.0000 0.0001 -34.9000 0.0000 -20.9211
#
#
#
# Elastic Compliance Matrix: (Units=1/GPa)
#
#
# Indices 1 2 3 4 5 6 
#
# 1 0.090741 -0.014667 -0.004054 0.000000 0.019171 0.000000
# 2 -0.014667 0.015220 -0.006324 0.000000 0.006431 0.000000
# 3 -0.004054 -0.006324 0.021182 0.000000 -0.013935 0.000000
# 4 0.000000 0.000000 0.000000 0.017465 0.000000 -0.029135
# 5 0.019171 0.006431 -0.013935 0.000000 0.055821 0.000000
# 6 0.000000 0.000000 0.000000 -0.029135 0.000000 0.000804
#
#
# Mechanical properties :
#
#
# Convention : Reuss Voigt Hill
#
# Bulk Modulus (GPa) = 12.97781 31.26722 22.12252
# Shear Modulus (GPa) = 18.05003 9.10735 13.57869
#
# Velocity S-wave (km/s) = 2.94497 2.09188 2.55429
# Velocity P-wave (km/s) = 4.21894 4.56708 4.39646
#
# Compressibility (1/GPa) = 0.07705460
#
# Stress axis : x y z
#
# Youngs Moduli (GPa) = 11.02039 65.70107 47.20989
#
# Poissons Ratio (x) = 0.96365 0.19137
# Poissons Ratio (y) = 0.16164 0.29854
# Poissons Ratio (z) = 0.04467 0.41547
#
# Static dielectric constant tensor:
#      x y z
#    x 1.763770 0.000000 0.015420 
#    y 0.000000 1.732760 0.000000 
#    z 0.015420 0.000000 1.819600 
# 
# From -- ./inp_files/209294.got.cif
#   From: 2010.05.17/outbox.cif.g08.bks.cpg/sg12_105_cif.got.tgz:209294.got - 2010.06.03 13:09:07.
