data_PCOD9184583
_publ_section_title
;
Structure prediction by ZEFSAII (Michael W. Deem and Ramdas Pophale) SiO2 
 PCOD9184583
Probable space group: C 2/M
;
_chemical_formula_sum "Si O2"
_cell_formula_units_Z 64
_cell_length_a 29.677662
_cell_length_b 13.555065
_cell_length_c 10.253400
_cell_angle_alpha 90.000000
_cell_angle_beta 97.633182
_cell_angle_gamma 90.000000
_cell_volume 4088.214345
_symmetry_space_group_name_H-M "C 2/M"
_symmetry_group_IT_number 12
_symmetry_cell_setting 'monoclinic'
loop_
_space_group_symop_operation_xyz
x,y,z
-x,y,-z
-x,-y,-z
x,-y,z
1/2+x,1/2+y,z
1/2-x,1/2+y,-z
1/2-x,1/2-y,-z
1/2+x,1/2-y,z
loop_
_atom_site_type_symbol
_atom_site_label
_atom_site_fract_x
_atom_site_fract_y
_atom_site_fract_z
Si Si1 0.667415 0.313234 0.173746
Si Si2 0.486035 0.619892 0.138067
Si Si3 0.037872 0.880044 0.411457
Si Si4 0.308034 0.692933 0.281237
Si Si5 0.768877 0.613033 0.157102
Si Si6 0.881837 0.881221 0.101416
Si Si7 0.787256 0.613062 0.855573
Si Si8 0.141378 0.881446 0.452125
O O1 0.715598 0.363750 0.155389
O O2 0.677906 0.196470 0.178267
O O3 0.652107 0.351752 0.308152
O O4 0.632708 0.342034 0.046170
O O5 0.487365 0.500000 0.136745
O O6 0.521057 0.652239 0.262483
O O7 0.434033 0.646408 0.150103
O O8 0.500000 0.654374 0.000000
O O9 0.089318 0.851226 0.461982
O O10 0.000000 0.847498 0.500000
O O11 0.037775 0.000000 0.412403
O O12 0.296349 0.807108 0.250844
O O13 0.346959 0.659191 0.195177
O O14 0.261623 0.635149 0.228395
O O15 0.324997 0.668617 0.432037
O O16 0.778114 0.500000 0.195842
O O17 0.780411 0.627158 0.008704
O O18 0.878644 0.000000 0.099462
O O19 0.800601 0.500000 0.836815
O O20 0.144981 0.000000 0.467213
#
# Coordination Sequence:
#
# PCOD9184583 Si02
#       8
#     8   8   8   8   8   8   8   8
#     4  11  20  33  48  74  99 131 167 199 241 288
#     4   9  17  27  41  64  92 122 155 194 237 282
#     4   9  17  31  45  62  94 134 162 185 234 290
#     4  11  20  33  48  74  95 127 172 200 230 289
#     4  10  19  34  53  71  97 128 162 209 251 281
#     4  11  18  28  49  70  94 127 167 202 230 281
#     4  10  19  34  53  71  97 128 163 208 250 281
#     4  11  22  32  47  72 106 135 160 199 239 284
#
# _framework density 15.654755
#
# number of rings (size 3 to 8) (size 9 to 14) (size 15 to 20)
#    0.000    1.750    2.500    4.500    0.000    6.000 
#    0.000    1.875    0.000    0.000    0.000    0.000 
#    0.000   20.000    0.000    0.000    0.000    0.000 
#
# Total GULP energy -178569.571404 kJ/mol
# GULP energy per Si atom -5580.299106 kJ/mol
# Density = 1.561912 g / cm^3
# Si number density = 15.654755 Si / 1000 Ang^3
#
#
#
# Elastic Constant Matrix: (Units=GPa)
#
#
# Indices 1 2 3 4 5 6 
#
# 1 31.5169 14.5457 -10.1821 0.0000 10.5203 0.0000
# 2 14.5457 70.6083 6.6166 0.0000 10.6260 0.0000
# 3 -10.1821 6.6166 51.0452 0.0000 8.2227 0.0000
# 4 0.0000 0.0000 0.0000 19.5316 0.0000 -1.8940
# 5 10.5203 10.6260 8.2227 0.0000 18.2234 0.0000
# 6 0.0000 0.0000 0.0000 -1.8940 0.0000 12.6102
#
#
#
# Elastic Compliance Matrix: (Units=1/GPa)
#
#
# Indices 1 2 3 4 5 6 
#
# 1 0.051334 -0.007169 0.016466 0.000000 -0.032884 0.000000
# 2 -0.007169 0.016543 -0.002898 0.000000 -0.004200 0.000000
# 3 0.016466 -0.002898 0.026431 0.000000 -0.019742 0.000000
# 4 0.000000 0.000000 0.000000 0.051956 0.000000 0.007803
# 5 -0.032884 -0.004200 -0.019742 0.000000 0.085215 0.000000
# 6 0.000000 0.000000 0.000000 0.007803 0.000000 0.080473
#
#
# Mechanical properties :
#
#
# Convention : Reuss Voigt Hill
#
# Bulk Modulus (GPa) = 9.33652 19.45899 14.39775
# Shear Modulus (GPa) = 14.93177 19.55239 17.24208
#
# Velocity S-wave (km/s) = 3.09174 3.53792 3.32233
# Velocity P-wave (km/s) = 4.32691 5.39872 4.89226
#
# Compressibility (1/GPa) = 0.10710633
#
# Stress axis : x y z
#
# Youngs Moduli (GPa) = 19.48019 60.44792 37.83455
#
# Poissons Ratio (x) = 0.43337 -0.62299
# Poissons Ratio (y) = 0.13966 0.10964
# Poissons Ratio (z) = -0.32077 0.17517
#
# Static dielectric constant tensor:
#      x y z
#    x 1.521520 0.000000 -0.004770 
#    y 0.000000 1.506440 0.000000 
#    z -0.004770 0.000000 1.526700 
# 
# From -- ./inp_files/111256.got.cif
#   From: 2010.05.17/outbox.cif.g08.bks.cpg/sg12_56_cif.got.tgz:111256.got - 2010.06.03 13:09:07.
