data_PCOD9184287
_publ_section_title
;
Structure prediction by ZEFSAII (Michael W. Deem and Ramdas Pophale) SiO2 
 PCOD9184287
Probable space group: C 2/M
;
_chemical_formula_sum "Si O2"
_cell_formula_units_Z 44
_cell_length_a 9.123186
_cell_length_b 24.336524
_cell_length_c 10.937268
_cell_angle_alpha 90.000000
_cell_angle_beta 123.902317
_cell_angle_gamma 90.000000
_cell_volume 2015.517853
_symmetry_space_group_name_H-M "C 2/M"
_symmetry_group_IT_number 12
_symmetry_cell_setting 'monoclinic'
loop_
_space_group_symop_operation_xyz
x,y,z
-x,y,-z
-x,-y,-z
x,-y,z
1/2+x,1/2+y,z
1/2-x,1/2+y,-z
1/2-x,1/2-y,-z
1/2+x,1/2-y,z
loop_
_atom_site_type_symbol
_atom_site_label
_atom_site_fract_x
_atom_site_fract_y
_atom_site_fract_z
Si Si1 0.370974 0.830342 0.038392
Si Si2 0.690224 0.674630 0.318607
Si Si3 0.811650 0.500000 0.576168
Si Si4 0.397546 0.256320 0.246961
Si Si5 0.089377 0.000000 0.721908
Si Si6 0.000000 0.588410 0.500000
Si Si7 0.918034 0.091302 0.077477
O O1 0.243288 0.791810 0.896423
O O2 0.262104 0.879499 0.045175
O O3 0.500000 0.855352 0.000000
O O4 0.456924 0.791607 0.179903
O O5 0.561604 0.704594 0.356437
O O6 0.796613 0.723598 0.303922
O O7 0.549439 0.641950 0.169359
O O8 0.832923 0.628658 0.412974
O O9 0.736810 0.500000 0.681525
O O10 0.617392 0.500000 0.418492
O O11 0.934560 0.449805 0.583385
O O12 0.107344 0.053335 0.816842
O O13 0.000000 0.061022 0.000000
#
# Coordination Sequence:
#
# PCOD9184287 Si02
#       7
#     8   8   4   8   4   4   8
#     4  10  19  33  58  88 129 178 210 249 321 403
#     4  11  22  39  63  96 129 178 217 267 313 393
#     4  10  24  48  73  91 124 176 223 278 334 401
#     4  10  20  34  57  90 133 169 213 257 317 384
#     4  11  23  46  68 100 127 164 224 285 335 388
#     4  11  24  46  72  94 122 172 236 271 328 382
#     4  11  22  39  67 100 132 170 217 272 336 385
#
# _framework density 21.830618000000001
#
# number of rings (size 3 to 8) (size 9 to 14) (size 15 to 20)
#    0.000    1.455    5.455    0.273    0.000    2.182 
#    0.000    0.455    0.000    0.000    0.000    0.000 
#    0.000    0.000    0.000    0.000    0.000    0.000 
#
# Total GULP energy -122558.776316 kJ/mol
# GULP energy per Si atom -5570.853469 kJ/mol
# Density = 2.178093 g / cm^3
# Si number density = 21.830618 Si / 1000 Ang^3
#
#
#
# Elastic Constant Matrix: (Units=GPa)
#
#
# Indices 1 2 3 4 5 6 
#
# 1 155.1024 72.1211 22.9859 0.0000 -16.4434 0.0000
# 2 72.1211 105.1953 26.0760 0.0000 -2.4537 0.0000
# 3 22.9859 26.0760 24.4472 0.0000 -1.6618 0.0000
# 4 0.0000 0.0000 0.0000 86.0424 0.0000 20.5242
# 5 -16.4434 -2.4537 -1.6618 0.0000 33.1787 0.0000
# 6 0.0000 0.0000 0.0000 20.5242 0.0000 51.4556
#
#
#
# Elastic Compliance Matrix: (Units=1/GPa)
#
#
# Indices 1 2 3 4 5 6 
#
# 1 0.010217 -0.006246 -0.002640 0.000000 0.004469 0.000000
# 2 -0.006246 0.016743 -0.012154 0.000000 -0.002466 0.000000
# 3 -0.002640 -0.012154 0.056393 0.000000 0.000617 0.000000
# 4 0.000000 0.000000 0.000000 0.012844 0.000000 -0.005123
# 5 0.004469 -0.002466 0.000617 0.000000 0.032203 0.000000
# 6 0.000000 0.000000 0.000000 -0.005123 0.000000 0.021478
#
#
# Mechanical properties :
#
#
# Convention : Reuss Voigt Hill
#
# Bulk Modulus (GPa) = 24.22925 58.56788 41.39856
# Shear Modulus (GPa) = 24.30534 45.03947 34.67241
#
# Velocity S-wave (km/s) = 3.34033 4.54710 3.98960
# Velocity P-wave (km/s) = 5.09901 7.37934 6.34250
#
# Compressibility (1/GPa) = 0.04127243
#
# Stress axis : x y z
#
# Youngs Moduli (GPa) = 97.87933 59.72492 17.73276
#
# Poissons Ratio (x) = 0.37303 0.04682
# Poissons Ratio (y) = 0.61133 0.21553
# Poissons Ratio (z) = 0.25843 0.72591
#
# Static dielectric constant tensor:
#      x y z
#    x 1.912130 0.000000 0.032940 
#    y 0.000000 1.793860 0.000000 
#    z 0.032940 0.000000 1.838660 
# 
# From -- ./inp_files/122156.got.cif
#   From: 2010.05.17/outbox.cif.g08.bks.cpg/sg12_62_cif.got.tgz:122156.got - 2010.06.03 13:09:07.
