data_PCOD9184986
_publ_section_title
;
Structure prediction by ZEFSAII (Michael W. Deem and Ramdas Pophale) SiO2 
 PCOD9184986
Probable space group: C 2/M
;
_chemical_formula_sum "Si O2"
_cell_formula_units_Z 64
_cell_length_a 28.063442
_cell_length_b 22.408336
_cell_length_c 5.558923
_cell_angle_alpha 90.000000
_cell_angle_beta 65.199940
_cell_angle_gamma 90.000000
_cell_volume 3173.367697
_symmetry_space_group_name_H-M "C 2/M"
_symmetry_group_IT_number 12
_symmetry_cell_setting 'monoclinic'
loop_
_space_group_symop_operation_xyz
x,y,z
-x,y,-z
-x,-y,-z
x,-y,z
1/2+x,1/2+y,z
1/2-x,1/2+y,-z
1/2-x,1/2-y,-z
1/2+x,1/2-y,z
loop_
_atom_site_type_symbol
_atom_site_label
_atom_site_fract_x
_atom_site_fract_y
_atom_site_fract_z
Si Si1 0.352249 0.660055 0.154597
Si Si2 0.027668 0.191222 0.190282
Si Si3 0.487388 0.175375 0.274869
Si Si4 0.772300 0.932803 0.350745
Si Si5 0.204206 0.339616 0.806062
Si Si6 0.174865 0.567612 0.242612
Si Si7 0.366868 0.178486 0.450027
Si Si8 0.809640 0.214475 0.750375
O O1 0.330787 0.591960 0.201649
O O2 0.340262 0.685264 0.451330
O O3 0.412542 0.671041 0.960314
O O4 0.321519 0.686476 0.985824
O O5 0.000000 0.171783 0.500000
O O6 0.021802 0.263728 0.205216
O O7 0.000000 0.171756 0.000000
O O8 0.500000 0.144152 0.500000
O O9 0.426497 0.192957 0.380288
O O10 0.500000 0.142126 0.000000
O O11 0.741749 0.882162 0.563275
O O12 0.736405 0.934083 0.187440
O O13 0.769897 0.000000 0.457289
O O14 0.159380 0.306353 0.749458
O O15 0.248756 0.295797 0.815947
O O16 0.173555 0.389806 0.018888
O O17 0.156819 0.500000 0.255303
O O18 0.142400 0.607617 0.499940
O O19 0.331106 0.217936 0.702286
#
# Coordination Sequence:
#
# PCOD9184986 Si02
#       8
#     8   8   8   8   8   8   8   8
#     4  11  21  37  60  90 123 162 196 248 301 354
#     4  10  19  34  55  80 114 153 196 243 293 349
#     4  10  21  37  57  84 113 150 196 243 295 356
#     4   9  19  37  58  86 120 162 209 241 281 352
#     4  10  21  36  56  90 122 164 191 245 294 365
#     4  10  21  39  60  84 119 159 205 242 288 356
#     4  11  24  36  60  87 121 158 195 250 303 361
#     4  11  22  36  57  91 130 154 191 236 309 369
#
# _framework density 20.167850000000001
#
# number of rings (size 3 to 8) (size 9 to 14) (size 15 to 20)
#    0.000    1.750    1.250    4.500    3.500    1.000 
#    0.000    0.000    0.000    1.500    0.000    0.000 
#    0.000    0.000    0.000    0.000    0.000    0.000 
#
# Total GULP energy -178276.014102 kJ/mol
# GULP energy per Si atom -5571.125441 kJ/mol
# Density = 2.012195 g / cm^3
# Si number density = 20.167850 Si / 1000 Ang^3
#
#
#
# Elastic Constant Matrix: (Units=GPa)
#
#
# Indices 1 2 3 4 5 6 
#
# 1 98.9225 7.2743 27.3196 0.0000 1.9386 0.0000
# 2 7.2743 65.5454 -6.6607 0.0000 2.4232 0.0000
# 3 27.3196 -6.6607 102.1166 0.0000 9.5969 0.0000
# 4 0.0000 0.0000 0.0000 15.7232 0.0000 1.5868
# 5 1.9386 2.4232 9.5969 0.0000 33.7022 0.0000
# 6 0.0000 0.0000 0.0000 1.5868 0.0000 16.6818
#
#
#
# Elastic Compliance Matrix: (Units=1/GPa)
#
#
# Indices 1 2 3 4 5 6 
#
# 1 0.011072 -0.001557 -0.003097 0.000000 0.000357 0.000000
# 2 -0.001557 0.015644 0.001576 0.000000 -0.001484 0.000000
# 3 -0.003097 0.001576 0.011013 0.000000 -0.003071 0.000000
# 4 0.000000 0.000000 0.000000 0.064217 0.000000 -0.006108
# 5 0.000357 -0.001484 -0.003071 0.000000 0.030632 0.000000
# 6 0.000000 0.000000 0.000000 -0.006108 0.000000 0.060527
#
#
# Mechanical properties :
#
#
# Convention : Reuss Voigt Hill
#
# Bulk Modulus (GPa) = 31.67159 35.82786 33.74973
# Shear Modulus (GPa) = 23.83400 29.13152 26.48276
#
# Velocity S-wave (km/s) = 3.44143 3.80472 3.62763
# Velocity P-wave (km/s) = 5.61510 6.09135 5.85807
#
# Compressibility (1/GPa) = 0.03157404
#
# Stress axis : x y z
#
# Youngs Moduli (GPa) = 90.32000 63.92053 90.80371
#
# Poissons Ratio (x) = 0.09950 0.28123
# Poissons Ratio (y) = 0.14060 -0.14314
# Poissons Ratio (z) = 0.27973 -0.10076
#
# Static dielectric constant tensor:
#      x y z
#    x 1.726950 0.000000 0.049960 
#    y 0.000000 1.724050 0.000000 
#    z 0.049960 0.000000 1.875890 
# 
# From -- ./inp_files/26195.got.cif
#   From: 2010.05.17/outbox.cif.g08.bks.cpg/sg12_14_cif.got.tgz:26195.got - 2010.06.03 13:09:07.
