data_PCOD9184533
_publ_section_title
;
Structure prediction by ZEFSAII (Michael W. Deem and Ramdas Pophale) SiO2 
 PCOD9184533
Probable space group: C 2/M
;
_chemical_formula_sum "Si O2"
_cell_formula_units_Z 60
_cell_length_a 29.036214
_cell_length_b 8.571162
_cell_length_c 13.986274
_cell_angle_alpha 90.000000
_cell_angle_beta 103.777511
_cell_angle_gamma 90.000000
_cell_volume 3380.670494
_symmetry_space_group_name_H-M "C 2/M"
_symmetry_group_IT_number 12
_symmetry_cell_setting 'monoclinic'
loop_
_space_group_symop_operation_xyz
x,y,z
-x,y,-z
-x,-y,-z
x,-y,z
1/2+x,1/2+y,z
1/2-x,1/2+y,-z
1/2-x,1/2-y,-z
1/2+x,1/2-y,z
loop_
_atom_site_type_symbol
_atom_site_label
_atom_site_fract_x
_atom_site_fract_y
_atom_site_fract_z
Si Si1 0.842449 0.184000 0.423813
Si Si2 0.280731 0.314680 0.870932
Si Si3 0.107441 0.316854 0.733754
Si Si4 0.320771 0.817515 0.696835
Si Si5 0.315798 0.314720 0.099180
Si Si6 0.992668 0.188735 0.385780
Si Si7 0.250000 0.250000 0.500000
Si Si8 0.907176 0.815224 0.642342
O O1 0.859549 0.278768 0.341192
O O2 0.791666 0.234341 0.438763
O O3 0.881141 0.204467 0.526953
O O4 0.840513 0.000000 0.398730
O O5 0.284075 0.500000 0.856104
O O6 0.303457 0.225235 0.793298
O O7 0.226150 0.267758 0.861868
O O8 0.307149 0.275811 0.983677
O O9 0.104814 0.500000 0.748471
O O10 0.133611 0.236211 0.835588
O O11 0.055836 0.251371 0.681983
O O12 0.290255 0.723456 0.603603
O O13 0.375409 0.776522 0.702917
O O14 0.311436 0.000000 0.670135
O O15 0.309776 0.500000 0.106968
O O16 0.000000 0.239287 0.500000
O O17 0.038768 0.234721 0.347061
O O18 0.990706 0.000000 0.386236
O O19 0.905897 0.000000 0.664301
#
# Coordination Sequence:
#
# PCOD9184533 Si02
#       8
#     8   8   8   8   8   8   4   8
#     4  10  19  34  52  72 105 148 186 222 267 324
#     4  10  21  38  61  85 111 144 186 232 276 327
#     4  12  24  34  53  84 115 145 181 232 280 327
#     4  11  22  35  55  81 112 150 183 222 275 331
#     4  10  21  38  59  83 111 146 186 229 278 332
#     4  10  19  37  59  79 107 149 190 229 281 333
#     4  10  22  34  48  76 108 146 184 218 254 316
#     4   9  19  35  55  76 104 144 187 226 267 325
#
# _framework density 17.747958000000001
#
# number of rings (size 3 to 8) (size 9 to 14) (size 15 to 20)
#    0.000    1.733    1.333    3.600    0.000    6.667 
#    0.000    0.000    0.000    0.800    0.000    5.600 
#    0.000    0.000    0.000    0.000    0.000    0.000 
#
# Total GULP energy -167025.346247 kJ/mol
# GULP energy per Si atom -5567.511542 kJ/mol
# Density = 1.770756 g / cm^3
# Si number density = 17.747958 Si / 1000 Ang^3
#
#
#
# Elastic Constant Matrix: (Units=GPa)
#
#
# Indices 1 2 3 4 5 6 
#
# 1 105.1811 9.2018 37.1504 0.0000 10.8011 0.0000
# 2 9.2018 4.3694 4.2432 0.0000 -0.2699 0.0000
# 3 37.1504 4.2432 62.3128 0.0000 1.1580 0.0000
# 4 0.0000 0.0000 0.0000 11.1820 0.0000 0.8257
# 5 10.8011 -0.2699 1.1580 0.0000 28.7900 0.0000
# 6 0.0000 0.0000 0.0000 0.8257 0.0000 21.8152
#
#
#
# Elastic Compliance Matrix: (Units=1/GPa)
#
#
# Indices 1 2 3 4 5 6 
#
# 1 0.014673 -0.024458 -0.006981 0.000000 -0.005453 0.000000
# 2 -0.024458 0.286096 -0.005124 0.000000 0.012064 0.000000
# 3 -0.006981 -0.005124 0.020527 0.000000 0.001745 0.000000
# 4 0.000000 0.000000 0.000000 0.089680 0.000000 -0.003394
# 5 -0.005453 0.012064 0.001745 0.000000 0.036823 0.000000
# 6 0.000000 0.000000 0.000000 -0.003394 0.000000 0.045968
#
#
# Mechanical properties :
#
#
# Convention : Reuss Voigt Hill
#
# Bulk Modulus (GPa) = 4.02951 30.33934 17.18443
# Shear Modulus (GPa) = 7.69685 20.44197 14.06941
#
# Velocity S-wave (km/s) = 2.08475 3.39749 2.81861
# Velocity P-wave (km/s) = 2.84081 5.70283 4.50513
#
# Compressibility (1/GPa) = 0.24816896
#
# Stress axis : x y z
#
# Youngs Moduli (GPa) = 68.15290 3.49533 48.71734
#
# Poissons Ratio (x) = 0.08549 0.34010
# Poissons Ratio (y) = 1.66691 0.24962
# Poissons Ratio (z) = 0.47578 0.01791
#
# Static dielectric constant tensor:
#      x y z
#    x 1.596960 0.000000 0.006210 
#    y 0.000000 1.627260 0.000000 
#    z 0.006210 0.000000 1.593240 
# 
# From -- ./inp_files/186673.got.cif
#   From: 2010.05.17/outbox.cif.g08.bks.cpg/sg12_94_cif.got.tgz:186673.got - 2010.06.03 13:09:07.
