data_PCOD9184508
_publ_section_title
;
Structure prediction by ZEFSAII (Michael W. Deem and Ramdas Pophale) SiO2 
 PCOD9184508
Probable space group: C 2/M
;
_chemical_formula_sum "Si O2"
_cell_formula_units_Z 60
_cell_length_a 10.905098
_cell_length_b 17.782734
_cell_length_c 18.497218
_cell_angle_alpha 90.000000
_cell_angle_beta 43.957814
_cell_angle_gamma 90.000000
_cell_volume 2489.857106
_symmetry_space_group_name_H-M "C 2/M"
_symmetry_group_IT_number 12
_symmetry_cell_setting 'monoclinic'
loop_
_space_group_symop_operation_xyz
x,y,z
-x,y,-z
-x,-y,-z
x,-y,z
1/2+x,1/2+y,z
1/2-x,1/2+y,-z
1/2-x,1/2-y,-z
1/2+x,1/2-y,z
loop_
_atom_site_type_symbol
_atom_site_label
_atom_site_fract_x
_atom_site_fract_y
_atom_site_fract_z
Si Si1 0.288720 0.342724 0.819316
Si Si2 0.561625 0.877119 0.642917
Si Si3 0.198690 0.837586 0.020727
Si Si4 0.556541 0.416067 0.558580
Si Si5 0.519609 0.084336 0.822633
Si Si6 0.136847 0.211505 0.662057
Si Si7 0.500000 0.268107 0.500000
Si Si8 0.808097 0.183127 0.197940
O O1 0.263746 0.365487 0.912906
O O2 0.160887 0.381265 0.817387
O O3 0.495447 0.354614 0.709287
O O4 0.252235 0.253079 0.826426
O O5 0.728398 0.907818 0.527069
O O6 0.584493 0.911606 0.713170
O O7 0.590090 0.788644 0.642855
O O8 0.349928 0.875852 0.717549
O O9 0.992831 0.849568 0.091307
O O10 0.250000 0.750000 0.000000
O O11 0.333105 0.874630 0.908535
O O12 0.500000 0.430888 0.500000
O O13 0.507248 0.500000 0.614188
O O14 0.506902 0.324582 0.427252
O O15 0.490749 0.000000 0.857453
O O16 0.340803 0.209987 0.559326
O O17 0.131781 0.220184 0.751176
#
# Coordination Sequence:
#
# PCOD9184508 Si02
#       8
#     8   8   8   8   8   8   4   8
#     4  10  20  34  54  78 107 141 181 225 272 329
#     4  10  19  34  51  78 110 145 182 223 276 328
#     4  11  21  36  56  79 105 145 187 226 276 329
#     4   8  15  29  48  71 106 148 178 206 262 334
#     4  12  24  37  55  81 111 144 185 234 277 322
#     4   9  17  33  54  82 111 139 179 225 276 327
#     4   8  15  28  52  84 111 134 172 234 272 312
#     4  10  19  34  56  76 106 143 187 227 275 327
#
# _framework density 24.097767999999999
#
# number of rings (size 3 to 8) (size 9 to 14) (size 15 to 20)
#    0.400    1.733    2.667    2.400    0.000    2.667 
#    0.000    9.333    0.000    1.600    0.000    0.467 
#    0.000    0.000    0.000    1.067    0.000    0.000 
#
# Total GULP energy -167032.833442 kJ/mol
# GULP energy per Si atom -5567.761115 kJ/mol
# Density = 2.404292 g / cm^3
# Si number density = 24.097768 Si / 1000 Ang^3
#
#
#
# Elastic Constant Matrix: (Units=GPa)
#
#
# Indices 1 2 3 4 5 6 
#
# 1 54.8197 15.4168 25.9294 0.0000 -15.0413 -0.0002
# 2 15.4168 83.5945 2.3949 -0.0008 -17.5601 0.0000
# 3 25.9294 2.3949 62.8975 -0.0036 -39.0654 -0.0003
# 4 0.0000 -0.0008 -0.0036 4.2744 0.0002 -25.3277
# 5 -15.0413 -17.5601 -39.0654 0.0002 60.6769 0.0001
# 6 -0.0002 0.0000 -0.0003 -25.3277 0.0001 46.6663
#
#
#
# Elastic Compliance Matrix: (Units=1/GPa)
#
#
# Indices 1 2 3 4 5 6 
#
# 1 0.024275 -0.004733 -0.011565 0.000005 -0.002798 0.000003
# 2 -0.004733 0.014010 0.005345 -0.000003 0.006322 -0.000002
# 3 -0.011565 0.005345 0.032732 -0.000013 0.019754 -0.000007
# 4 0.000005 -0.000003 -0.000013 -0.105575 -0.000007 -0.057300
# 5 -0.002798 0.006322 0.019754 -0.000007 0.030335 -0.000004
# 6 0.000003 -0.000002 -0.000007 -0.057300 -0.000004 -0.009670
#
#
# Mechanical properties :
#
#
# Convention : Reuss Voigt Hill
#
# Bulk Modulus (GPa) = 20.36253 32.08822 26.22538
# Shear Modulus (GPa) = 205.04214 32.82823 118.93518
#
# Velocity S-wave (km/s) = 9.23430 3.69493 7.03295
# Velocity P-wave (km/s) = 11.05282 5.61677 8.76678
#
# Compressibility (1/GPa) = 0.04910982
#
# Stress axis : x y z
#
# Youngs Moduli (GPa) = 41.19417 71.37543 30.55118
#
# Poissons Ratio (x) = 0.33785 0.35333
# Poissons Ratio (y) = 0.19499 -0.16328
# Poissons Ratio (z) = 0.47642 -0.38148
#
# Static dielectric constant tensor:
#      x y z
#    x 1.921650 0.000000 -0.070940 
#    y 0.000000 1.996890 0.000000 
#    z -0.070940 0.000000 2.081900 
# 
# From -- ./inp_files/336452.got.cif
#   From: 2010.05.17/outbox.cif.g08.bks.cpg/sg12_169_cif.got.tgz:336452.got - 2010.06.03 13:09:07.
