data_PCOD9184309
_publ_section_title
;
Structure prediction by ZEFSAII (Michael W. Deem and Ramdas Pophale) SiO2 
 PCOD9184309
Probable space group: C 2/M
;
_chemical_formula_sum "Si O2"
_cell_formula_units_Z 64
_cell_length_a 14.908700
_cell_length_b 9.451250
_cell_length_c 22.071669
_cell_angle_alpha 90.000000
_cell_angle_beta 100.389629
_cell_angle_gamma 90.000000
_cell_volume 3059.035698
_symmetry_space_group_name_H-M "C 2/M"
_symmetry_group_IT_number 12
_symmetry_cell_setting 'monoclinic'
loop_
_space_group_symop_operation_xyz
x,y,z
-x,y,-z
-x,-y,-z
x,-y,z
1/2+x,1/2+y,z
1/2-x,1/2+y,-z
1/2-x,1/2-y,-z
1/2+x,1/2-y,z
loop_
_atom_site_type_symbol
_atom_site_label
_atom_site_fract_x
_atom_site_fract_y
_atom_site_fract_z
Si Si1 0.356318 0.166324 0.259204
Si Si2 0.120067 0.834788 0.855062
Si Si3 0.551830 0.332936 0.098097
Si Si4 0.448170 0.832936 0.401903
Si Si5 0.620067 0.834788 0.355062
Si Si6 0.856318 0.833676 0.759204
Si Si7 0.201574 0.833387 0.548295
Si Si8 0.298426 0.166613 0.951705
O O1 0.398015 0.250880 0.208354
O O2 0.402254 0.186318 0.329970
O O3 0.250000 0.207066 0.250000
O O4 0.360872 0.000000 0.245439
O O5 0.224382 0.820285 0.888316
O O6 0.052898 0.792304 0.901813
O O7 0.100560 0.000000 0.841802
O O8 0.557659 0.500000 0.082383
O O9 0.597746 0.313682 0.170030
O O10 0.608322 0.239925 0.058053
O O11 0.552898 0.792304 0.401813
O O12 0.391678 0.739925 0.441947
O O13 0.442341 0.000000 0.417617
O O14 0.601985 0.750880 0.291646
O O15 0.724382 0.820285 0.388316
O O16 0.600560 0.000000 0.341802
O O17 0.860872 0.000000 0.745439
O O18 0.250000 0.750000 0.500000
O O19 0.190572 0.000000 0.533385
O O20 0.309428 0.000000 0.966614
O O21 0.250000 0.250000 0.000000
#
# Coordination Sequence:
#
# PCOD9184309 Si02
#       8
#     8   8   8   8   8   8   8   8
#     4  10  19  33  58  89 119 151 184 226 281 335
#     4  10  22  38  59  86 116 151 189 231 281 337
#     4  10  21  39  60  85 118 152 186 229 282 338
#     4  10  21  39  60  85 118 152 186 229 282 338
#     4  10  22  38  59  86 116 151 189 231 281 337
#     4  10  19  33  58  89 119 151 184 226 281 335
#     4  11  24  41  60  83 111 149 194 239 285 333
#     4  11  24  41  60  83 111 149 194 239 285 333
#
# _framework density 20.921624000000001
#
# number of rings (size 3 to 8) (size 9 to 14) (size 15 to 20)
#    0.000    1.750    2.500    1.500    0.000    4.500 
#    0.000    5.000    0.000    0.000    0.000    0.000 
#    0.000    0.000    0.000    0.000    0.000    0.000 
#
# Total GULP energy -178844.659002 kJ/mol
# GULP energy per Si atom -5588.895594 kJ/mol
# Density = 2.087401 g / cm^3
# Si number density = 20.921624 Si / 1000 Ang^3
#
#
#
# Elastic Constant Matrix: (Units=GPa)
#
#
# Indices 1 2 3 4 5 6 
#
# 1 90.0576 37.1580 10.7546 0.0000 -31.5180 0.0000
# 2 37.1580 79.0676 52.6482 0.0000 -38.2654 0.0000
# 3 10.7546 52.6482 73.2620 0.0000 -31.0912 0.0000
# 4 0.0000 0.0000 0.0000 33.0620 0.0000 -15.4888
# 5 -31.5180 -38.2654 -31.0912 0.0000 43.5881 0.0000
# 6 0.0000 0.0000 0.0000 -15.4888 0.0000 30.4368
#
#
#
# Elastic Compliance Matrix: (Units=1/GPa)
#
#
# Indices 1 2 3 4 5 6 
#
# 1 0.017406 -0.008102 0.008017 0.000000 0.011192 0.000000
# 2 -0.008102 0.034174 -0.018820 0.000000 0.010718 0.000000
# 3 0.008017 -0.018820 0.030756 0.000000 0.011213 0.000000
# 4 0.000000 0.000000 0.000000 0.039714 0.000000 0.020210
# 5 0.011192 0.010718 0.011213 0.000000 0.048442 0.000000
# 6 0.000000 0.000000 0.000000 0.020210 0.000000 0.043139
#
#
# Mechanical properties :
#
#
# Convention : Reuss Voigt Hill
#
# Bulk Modulus (GPa) = 22.45889 49.27874 35.86881
# Shear Modulus (GPa) = 18.77692 30.87248 24.82470
#
# Velocity S-wave (km/s) = 2.99906 3.84555 3.44838
# Velocity P-wave (km/s) = 4.76976 6.58201 5.74776
#
# Compressibility (1/GPa) = 0.04452581
#
# Stress axis : x y z
#
# Youngs Moduli (GPa) = 57.45002 29.26241 32.51380
#
# Poissons Ratio (x) = 0.23707 -0.26065
# Poissons Ratio (y) = 0.46543 0.61192
# Poissons Ratio (z) = -0.46056 0.55073
#
# Static dielectric constant tensor:
#      x y z
#    x 1.792560 0.000000 0.017710 
#    y 0.000000 1.697020 0.000000 
#    z 0.017710 0.000000 1.741930 
# 
# From -- ./inp_files/338737.got.cif
#   From: 2010.05.17/outbox.cif.g08.bks.cpg/sg12_170_cif.got.tgz:338737.got - 2010.06.03 13:09:07.
