data_PCOD9184588
_publ_section_title
;
Structure prediction by ZEFSAII (Michael W. Deem and Ramdas Pophale) SiO2 
 PCOD9184588
Probable space group: C 2/M
;
_chemical_formula_sum "Si O2"
_cell_formula_units_Z 44
_cell_length_a 13.713751
_cell_length_b 16.858076
_cell_length_c 9.830481
_cell_angle_alpha 90.000000
_cell_angle_beta 56.941201
_cell_angle_gamma 90.000000
_cell_volume 1904.761826
_symmetry_space_group_name_H-M "C 2/M"
_symmetry_group_IT_number 12
_symmetry_cell_setting 'monoclinic'
loop_
_space_group_symop_operation_xyz
x,y,z
-x,y,-z
-x,-y,-z
x,-y,z
1/2+x,1/2+y,z
1/2-x,1/2+y,-z
1/2-x,1/2-y,-z
1/2+x,1/2-y,z
loop_
_atom_site_type_symbol
_atom_site_label
_atom_site_fract_x
_atom_site_fract_y
_atom_site_fract_z
Si Si1 0.572138 0.249827 0.211925
Si Si2 0.763354 0.411745 0.335569
Si Si3 0.792671 0.912321 0.308546
Si Si4 0.000000 0.139233 0.500000
Si Si5 0.066516 0.582898 0.306957
Si Si6 0.829456 0.248943 0.151533
O O1 0.499060 0.306324 0.365675
O O2 0.532555 0.159518 0.251859
O O3 0.698630 0.248910 0.188574
O O4 0.590405 0.266450 0.040363
O O5 0.801833 0.500000 0.262649
O O6 0.766645 0.407842 0.497810
O O7 0.623909 0.405269 0.406185
O O8 0.828739 0.336376 0.219793
O O9 0.699784 0.916811 0.256166
O O10 0.846515 0.825672 0.239271
O O11 0.854889 0.000000 0.260595
O O12 0.041921 0.500000 0.254314
O O13 0.000000 0.585093 0.500000
#
# Coordination Sequence:
#
# PCOD9184588 Si02
#       6
#     8   8   8   4   8   8
#     4   9  17  31  50  74 103 133 171 213 253 304
#     4  10  20  34  54  77 104 138 174 213 257 310
#     4   9  18  33  53  76 101 133 173 211 256 310
#     4  10  19  34  53  72 104 138 175 210 254 308
#     4   9  16  28  50  76  99 129 170 213 255 300
#     4   9  18  32  51  76 102 134 171 212 258 302
#
# _framework density 23.100000999999999
#
# number of rings (size 3 to 8) (size 9 to 14) (size 15 to 20)
#    0.000    2.727    0.909    0.818    0.000    0.727 
#    0.000   10.909    0.000    2.182    0.000    5.091 
#    0.000    0.000    0.000    0.000    0.000    0.000 
#
# Total GULP energy -122668.014377 kJ/mol
# GULP energy per Si atom -5575.818835 kJ/mol
# Density = 2.304742 g / cm^3
# Si number density = 23.100001 Si / 1000 Ang^3
#
#
#
# Elastic Constant Matrix: (Units=GPa)
#
#
# Indices 1 2 3 4 5 6 
#
# 1 96.5374 13.7637 4.5401 0.0000 14.5851 0.0000
# 2 13.7637 207.2073 70.5425 0.0000 8.3134 0.0000
# 3 4.5401 70.5425 91.3478 0.0000 11.7627 0.0000
# 4 0.0000 0.0000 0.0000 12.6748 0.0000 26.7350
# 5 14.5851 8.3134 11.7627 0.0000 28.7692 0.0000
# 6 0.0000 0.0000 0.0000 26.7350 0.0000 39.5155
#
#
#
# Elastic Compliance Matrix: (Units=1/GPa)
#
#
# Indices 1 2 3 4 5 6 
#
# 1 0.011315 -0.000789 0.000799 0.000000 -0.005835 0.000000
# 2 -0.000789 0.006603 -0.005136 0.000000 0.000592 0.000000
# 3 0.000799 -0.005136 0.015554 0.000000 -0.005280 0.000000
# 4 0.000000 0.000000 0.000000 -0.184728 0.000000 0.124981
# 5 -0.005835 0.000592 -0.005280 0.000000 0.039705 0.000000
# 6 0.000000 0.000000 0.000000 0.124981 0.000000 -0.059252
#
#
# Mechanical properties :
#
#
# Convention : Reuss Voigt Hill
#
# Bulk Modulus (GPa) = 43.06993 63.64278 53.35636
# Shear Modulus (GPa) = -32.72072 36.60831 1.94380
#
# Velocity S-wave (km/s) = -3.76770 3.98524 0.91831
# Velocity P-wave (km/s) = 0.49188 6.98477 4.92672
#
# Compressibility (1/GPa) = 0.02321805
#
# Stress axis : x y z
#
# Youngs Moduli (GPa) = 88.37655 151.43629 64.29235
#
# Poissons Ratio (x) = 0.11954 -0.05134
# Poissons Ratio (y) = 0.06976 0.33023
# Poissons Ratio (z) = -0.07057 0.77785
#
# Static dielectric constant tensor:
#      x y z
#    x 1.975980 0.000000 -0.037280 
#    y 0.000000 1.913260 0.000000 
#    z -0.037280 0.000000 1.822610 
# 
# From -- ./inp_files/87100.got.cif
#   From: 2010.05.17/outbox.cif.g08.bks.cpg/sg12_44_cif.got.tgz:87100.got - 2010.06.03 13:09:07.
