data_PCOD9184976
_publ_section_title
;
Structure prediction by ZEFSAII (Michael W. Deem and Ramdas Pophale) SiO2 
 PCOD9184976
Probable space group: C 2/M
;
_chemical_formula_sum "Si O2"
_cell_formula_units_Z 36
_cell_length_a 10.721239
_cell_length_b 12.191310
_cell_length_c 23.539082
_cell_angle_alpha 90.000000
_cell_angle_beta 30.002111
_cell_angle_gamma 90.000000
_cell_volume 1538.447186
_symmetry_space_group_name_H-M "C 2/M"
_symmetry_group_IT_number 12
_symmetry_cell_setting 'monoclinic'
loop_
_space_group_symop_operation_xyz
x,y,z
-x,y,-z
-x,-y,-z
x,-y,z
1/2+x,1/2+y,z
1/2-x,1/2+y,-z
1/2-x,1/2-y,-z
1/2+x,1/2-y,z
loop_
_atom_site_type_symbol
_atom_site_label
_atom_site_fract_x
_atom_site_fract_y
_atom_site_fract_z
Si Si1 0.160455 0.342846 0.175868
Si Si2 0.453515 0.621401 0.733226
Si Si3 0.500000 0.799260 0.500000
Si Si4 0.174372 0.121744 0.016474
Si Si5 0.103169 0.878429 0.375827
O O1 0.372502 0.378316 0.136064
O O2 0.152178 0.211145 0.182759
O O3 0.875932 0.377804 0.297477
O O4 0.239108 0.382690 0.083202
O O5 0.382742 0.500000 0.777840
O O6 0.752887 0.633267 0.611052
O O7 0.361218 0.642535 0.705176
O O8 0.546113 0.717167 0.534536
O O9 0.254574 0.000000 0.009434
O O10 0.250000 0.250000 0.000000
O O11 0.990976 0.000000 0.425864
#
# Coordination Sequence:
#
# PCOD9184976 Si02
#       5
#     8   8   4   8   8
#     4  10  21  37  58  82 112 152 195 238 286 340
#     4  10  21  36  56  82 115 152 192 241 292 341
#     4  10  20  34  54  82 114 150 188 236 292 348
#     4  11  23  40  62  88 118 153 191 237 289 344
#     4  10  19  34  55  80 110 148 194 240 286 342
#
# _framework density 23.400217000000001
#
# number of rings (size 3 to 8) (size 9 to 14) (size 15 to 20)
#    0.000    1.778    0.000    5.333    0.000    3.556 
#    0.000    2.222    0.000   17.333    0.000    0.000 
#    0.000    0.000    0.000    0.000    0.000    0.000 
#
# Total GULP energy -100378.440476 kJ/mol
# GULP energy per Si atom -5576.580026 kJ/mol
# Density = 2.334696 g / cm^3
# Si number density = 23.400217 Si / 1000 Ang^3
#
#
#
# Elastic Constant Matrix: (Units=GPa)
#
#
# Indices 1 2 3 4 5 6 
#
# 1 53.5704 31.3898 5.4784 -0.0002 -15.2266 0.0008
# 2 31.3898 205.4908 15.1760 -0.0012 17.0117 -0.0001
# 3 5.4784 15.1760 42.6118 -0.0026 -14.1921 0.0019
# 4 -0.0002 -0.0012 -0.0026 12.7978 0.0008 6.2031
# 5 -15.2266 17.0117 -14.1921 0.0008 30.4162 -0.0006
# 6 0.0008 -0.0001 0.0019 6.2031 -0.0006 5.9237
#
#
#
# Elastic Compliance Matrix: (Units=1/GPa)
#
#
# Indices 1 2 3 4 5 6 
#
# 1 0.027310 -0.006174 0.005199 0.000002 0.019551 -0.000006
# 2 -0.006174 0.006917 -0.004721 -0.000001 -0.009162 0.000002
# 3 0.005199 -0.004721 0.031053 0.000018 0.019732 -0.000027
# 4 0.000002 -0.000001 0.000018 0.158679 0.000002 -0.166164
# 5 0.019551 -0.009162 0.019732 0.000002 0.056996 -0.000005
# 6 -0.000006 0.000002 -0.000027 -0.166164 -0.000005 0.342816
#
#
# Mechanical properties :
#
#
# Convention : Reuss Voigt Hill
#
# Bulk Modulus (GPa) = 18.55719 45.08461 31.82090
# Shear Modulus (GPa) = 7.65550 26.46945 17.06247
#
# Velocity S-wave (km/s) = 1.81071 3.36692 2.70322
# Velocity P-wave (km/s) = 3.50986 5.86715 4.83439
#
# Compressibility (1/GPa) = 0.05388747
#
# Stress axis : x y z
#
# Youngs Moduli (GPa) = 36.61626 144.57701 32.20344
#
# Poissons Ratio (x) = 0.89267 -0.16744
# Poissons Ratio (y) = 0.22608 0.15204
# Poissons Ratio (z) = -0.19038 0.68256
#
# Static dielectric constant tensor:
#      x y z
#    x 1.931380 0.000000 -0.039550 
#    y 0.000000 1.938920 0.000000 
#    z -0.039550 0.000000 1.857440 
# 
# From -- ./inp_files/202513.got.cif
#   From: 2010.05.17/outbox.cif.g08.bks.cpg/sg12_102_cif.got.tgz:202513.got - 2010.06.03 13:09:07.
