data_PCOD9184934
_publ_section_title
;
Structure prediction by ZEFSAII (Michael W. Deem and Ramdas Pophale) SiO2 
 PCOD9184934
Probable space group: C 2/M
;
_chemical_formula_sum "Si O2"
_cell_formula_units_Z 56
_cell_length_a 26.967155
_cell_length_b 16.288685
_cell_length_c 11.415414
_cell_angle_alpha 90.000000
_cell_angle_beta 33.379813
_cell_angle_gamma 90.000000
_cell_volume 2758.816427
_symmetry_space_group_name_H-M "C 2/M"
_symmetry_group_IT_number 12
_symmetry_cell_setting 'monoclinic'
loop_
_space_group_symop_operation_xyz
x,y,z
-x,y,-z
-x,-y,-z
x,-y,z
1/2+x,1/2+y,z
1/2-x,1/2+y,-z
1/2-x,1/2-y,-z
1/2+x,1/2-y,z
loop_
_atom_site_type_symbol
_atom_site_label
_atom_site_fract_x
_atom_site_fract_y
_atom_site_fract_z
Si Si1 0.135755 0.910249 0.794637
Si Si2 0.846015 0.243978 0.375108
Si Si3 0.854242 0.585877 0.381871
Si Si4 0.118929 0.225475 0.425287
Si Si5 0.121243 0.590965 0.388625
Si Si6 0.807157 0.908595 0.881347
Si Si7 0.463688 0.407632 0.762659
O O1 0.108516 0.837611 0.762388
O O2 0.244879 0.910897 0.590063
O O3 0.108998 0.000000 0.802399
O O4 0.093556 0.898215 0.005542
O O5 0.750000 0.250000 0.500000
O O6 0.892182 0.330499 0.254662
O O7 0.838018 0.239907 0.531118
O O8 0.883940 0.500000 0.268633
O O9 0.876219 0.585195 0.475925
O O10 0.088768 0.314362 0.432686
O O11 0.186976 0.170572 0.213447
O O12 0.034889 0.164625 0.609461
O O13 0.083345 0.500000 0.424963
O O14 0.220632 0.594126 0.136140
O O15 0.895243 0.905020 0.789083
O O16 0.805085 0.000000 0.827855
O O17 0.504069 0.500000 0.685152
#
# Coordination Sequence:
#
# PCOD9184934 Si02
#       7
#     8   8   8   8   8   8   8
#     4   9  16  29  49  69  98 139 170 198 250 317
#     4   9  19  32  47  71 103 136 173 218 257 302
#     4   8  13  27  50  71  91 126 173 211 247 297
#     4  11  21  31  50  81 106 133 174 220 264 309
#     4   9  17  32  53  74  98 134 179 217 250 304
#     4  10  19  34  55  79 110 140 170 212 264 321
#     4  10  20  34  53  79 112 145 171 204 263 330
#
# _framework density 20.298559000000001
#
# number of rings (size 3 to 8) (size 9 to 14) (size 15 to 20)
#    0.000    2.571    1.429    1.286    0.000    2.857 
#    0.000    1.429    0.000    2.571    0.000    4.000 
#    0.000    0.000    0.000    0.000    0.000    0.000 
#
# Total GULP energy -155878.577499 kJ/mol
# GULP energy per Si atom -5567.092054 kJ/mol
# Density = 2.025236 g / cm^3
# Si number density = 20.298559 Si / 1000 Ang^3
#
#
#
# Elastic Constant Matrix: (Units=GPa)
#
#
# Indices 1 2 3 4 5 6 
#
# 1 45.1941 23.0572 5.4486 0.0000 1.5357 0.0000
# 2 23.0572 221.6273 28.2771 0.0000 8.9208 0.0000
# 3 5.4486 28.2771 26.4383 0.0000 -5.6998 0.0000
# 4 0.0000 0.0000 0.0000 21.5279 0.0000 11.4746
# 5 1.5357 8.9208 -5.6998 0.0000 16.8158 0.0000
# 6 0.0000 0.0000 0.0000 11.4746 0.0000 19.3510
#
#
#
# Elastic Compliance Matrix: (Units=1/GPa)
#
#
# Indices 1 2 3 4 5 6 
#
# 1 0.023589 -0.001949 -0.003256 0.000000 -0.002224 0.000000
# 2 -0.001949 0.005813 -0.006951 0.000000 -0.005262 0.000000
# 3 -0.003256 -0.006951 0.050476 0.000000 0.021094 0.000000
# 4 0.000000 0.000000 0.000000 0.067917 0.000000 -0.040273
# 5 -0.002224 -0.005262 0.021094 0.000000 0.069612 0.000000
# 6 0.000000 0.000000 0.000000 -0.040273 0.000000 0.075558
#
#
# Mechanical properties :
#
#
# Convention : Reuss Voigt Hill
#
# Bulk Modulus (GPa) = 17.99615 45.20284 31.59950
# Shear Modulus (GPa) = 14.88979 27.30407 21.09693
#
# Velocity S-wave (km/s) = 2.71133 3.67157 3.22736
# Velocity P-wave (km/s) = 4.32282 6.34754 5.43038
#
# Compressibility (1/GPa) = 0.05556744
#
# Stress axis : x y z
#
# Youngs Moduli (GPa) = 42.39202 172.01434 19.81125
#
# Poissons Ratio (x) = 0.33528 0.06451
# Poissons Ratio (y) = 0.08263 0.13770
# Poissons Ratio (z) = 0.13804 1.19559
#
# Static dielectric constant tensor:
#      x y z
#    x 1.706210 0.000000 -0.001490 
#    y 0.000000 1.839980 0.000000 
#    z -0.001490 0.000000 1.709480 
# 
# From -- ./inp_files/189184.got.cif
#   From: 2010.05.17/outbox.cif.g08.bks.cpg/sg12_95_cif.got.tgz:189184.got - 2010.06.03 13:09:07.
