data_PCOD9184321
_publ_section_title
;
Structure prediction by ZEFSAII (Michael W. Deem and Ramdas Pophale) SiO2 
 PCOD9184321
Probable space group: C 2/M
;
_chemical_formula_sum "Si O2"
_cell_formula_units_Z 36
_cell_length_a 22.905061
_cell_length_b 7.755400
_cell_length_c 22.068162
_cell_angle_alpha 90.000000
_cell_angle_beta 152.334867
_cell_angle_gamma 90.000000
_cell_volume 1820.134396
_symmetry_space_group_name_H-M "C 2/M"
_symmetry_group_IT_number 12
_symmetry_cell_setting 'monoclinic'
loop_
_space_group_symop_operation_xyz
x,y,z
-x,y,-z
-x,-y,-z
x,-y,z
1/2+x,1/2+y,z
1/2-x,1/2+y,-z
1/2-x,1/2-y,-z
1/2+x,1/2-y,z
loop_
_atom_site_type_symbol
_atom_site_label
_atom_site_fract_x
_atom_site_fract_y
_atom_site_fract_z
Si Si1 0.760038 0.798390 0.938494
Si Si2 0.771440 0.302305 0.450659
Si Si3 0.834714 0.500000 0.809939
Si Si4 0.828165 0.000000 0.225484
Si Si5 0.458530 0.303355 0.853129
Si Si6 0.603468 0.500000 0.504689
O O1 0.678564 0.667409 0.823602
O O2 0.727110 0.000000 0.900467
O O3 0.750000 0.750000 0.000000
O O4 0.903144 0.773844 0.046520
O O5 0.814318 0.500000 0.486237
O O6 0.750000 0.250000 0.500000
O O7 0.640982 0.288055 0.293519
O O8 0.865291 0.168584 0.506175
O O9 0.790187 0.500000 0.837939
O O10 0.913304 0.666392 0.861091
O O11 0.705217 0.500000 0.651847
O O12 0.956115 0.000000 0.381575
O O13 0.452025 0.500000 0.870310
#
# Coordination Sequence:
#
# PCOD9184321 Si02
#       6
#     8   8   4   4   8   4
#     4  11  24  41  62  94 129 165 201 255 320 375
#     4  10  19  33  58  90 119 160 204 254 314 367
#     4  10  22  44  67  89 118 172 221 250 310 368
#     4  12  26  42  63  91 130 172 209 256 310 372
#     4   9  21  39  61  88 124 157 207 268 302 365
#     4  10  23  40  58  92 126 163 209 260 306 364
#
# _framework density 19.778759999999998
#
# number of rings (size 3 to 8) (size 9 to 14) (size 15 to 20)
#    0.000    1.778    2.222    1.000    3.111    3.556 
#    0.000    2.222    0.000    6.667    0.000    0.000 
#    0.000    0.000    0.000    0.000    0.000    0.000 
#
# Total GULP energy -100588.442747 kJ/mol
# GULP energy per Si atom -5588.246819 kJ/mol
# Density = 1.973374 g / cm^3
# Si number density = 19.778760 Si / 1000 Ang^3
#
#
#
# Elastic Constant Matrix: (Units=GPa)
#
#
# Indices 1 2 3 4 5 6 
#
# 1 87.7264 50.8611 28.3396 0.0000 -9.6724 0.0000
# 2 50.8611 148.5636 49.3325 0.0000 1.5265 0.0000
# 3 28.3396 49.3325 76.1535 0.0000 10.0482 0.0000
# 4 0.0000 0.0000 0.0000 22.5166 0.0000 4.8218
# 5 -9.6724 1.5265 10.0482 0.0000 29.5171 0.0000
# 6 0.0000 0.0000 0.0000 4.8218 0.0000 10.1666
#
#
#
# Elastic Compliance Matrix: (Units=1/GPa)
#
#
# Indices 1 2 3 4 5 6 
#
# 1 0.015885 -0.004136 -0.004133 0.000000 0.006826 0.000000
# 2 -0.004136 0.009718 -0.004723 0.000000 -0.000250 0.000000
# 3 -0.004133 -0.004723 0.018716 0.000000 -0.007481 0.000000
# 4 0.000000 0.000000 0.000000 0.049432 0.000000 -0.023444
# 5 0.006826 -0.000250 -0.007481 0.000000 0.038675 0.000000
# 6 0.000000 0.000000 0.000000 -0.023444 0.000000 0.109480
#
#
# Mechanical properties :
#
#
# Convention : Reuss Voigt Hill
#
# Bulk Modulus (GPa) = 54.54013 63.27887 58.90950
# Shear Modulus (GPa) = 18.24810 24.70078 21.47444
#
# Velocity S-wave (km/s) = 3.04075 3.53775 3.29862
# Velocity P-wave (km/s) = 6.32164 6.98214 6.66009
#
# Compressibility (1/GPa) = 0.01833512
#
# Stress axis : x y z
#
# Youngs Moduli (GPa) = 62.95408 102.90103 53.42986
#
# Poissons Ratio (x) = 0.42560 0.22080
# Poissons Ratio (y) = 0.26038 0.25236
# Poissons Ratio (z) = 0.26016 0.48603
#
# Static dielectric constant tensor:
#      x y z
#    x 1.641270 0.000000 -0.000010 
#    y 0.000000 1.682690 0.000000 
#    z -0.000010 0.000000 1.711030 
# 
# From -- ./inp_files/320428.got.cif
#   From: 2010.05.17/outbox.cif.g08.bks.cpg/sg12_161_cif.got.tgz:320428.got - 2010.06.03 13:09:07.
