data_PCOD9184558
_publ_section_title
;
Structure prediction by ZEFSAII (Michael W. Deem and Ramdas Pophale) SiO2 
 PCOD9184558
Probable space group: C 2/M
;
_chemical_formula_sum "Si O2"
_cell_formula_units_Z 58
_cell_length_a 22.581247
_cell_length_b 7.564419
_cell_length_c 14.495384
_cell_angle_alpha 90.000000
_cell_angle_beta 103.030143
_cell_angle_gamma 90.000000
_cell_volume 2412.261267
_symmetry_space_group_name_H-M "C 2/M"
_symmetry_group_IT_number 12
_symmetry_cell_setting 'monoclinic'
loop_
_space_group_symop_operation_xyz
x,y,z
-x,y,-z
-x,-y,-z
x,-y,z
1/2+x,1/2+y,z
1/2-x,1/2+y,-z
1/2-x,1/2-y,-z
1/2+x,1/2-y,z
loop_
_atom_site_type_symbol
_atom_site_label
_atom_site_fract_x
_atom_site_fract_y
_atom_site_fract_z
Si Si1 0.749739 0.799329 0.275084
Si Si2 0.000000 0.000000 0.500000
Si Si3 0.857654 0.206194 0.191025
Si Si4 0.454045 0.192574 0.366876
Si Si5 0.541726 0.215098 0.145671
Si Si6 0.662249 0.796365 0.538378
Si Si7 0.869947 0.717393 0.675370
Si Si8 0.910397 0.713174 0.028241
O O1 0.797184 0.718517 0.218759
O O2 0.786393 0.800633 0.384947
O O3 0.684832 0.721885 0.277400
O O4 0.737989 0.000000 0.239392
O O5 0.003931 0.153734 0.582113
O O6 0.918130 0.289235 0.257804
O O7 0.859833 0.224353 0.082095
O O8 0.860489 0.000000 0.218479
O O9 0.397651 0.203703 0.419345
O O10 0.484024 0.000000 0.381323
O O11 0.567924 0.270790 0.253013
O O12 0.474911 0.275302 0.093582
O O13 0.539498 0.000000 0.144899
O O14 0.586826 0.266365 0.077517
O O15 0.644730 0.722453 0.432837
O O16 0.682337 0.000000 0.535297
O O17 0.869272 0.500000 0.672050
O O18 0.909171 0.500000 0.029517
#
# Coordination Sequence:
#
# PCOD9184558 Si02
#       8
#     8   2   8   8   8   8   8   8
#     4   9  18  31  52  74 104 143 180 221 277 334
#     4  12  22  36  52  78 116 150 190 236 288 318
#     4  10  19  34  52  77 106 143 188 228 271 337
#     4  10  21  36  53  78 112 152 191 233 279 337
#     4   8  16  31  52  78 105 128 178 234 282 342
#     4   9  18  31  51  76 104 140 184 225 274 328
#     4   9  16  30  51  78 105 137 179 232 282 333
#     4   9  17  32  56  79  98 137 179 229 286 339
#
# _framework density 24.043828999999999
#
# number of rings (size 3 to 8) (size 9 to 14) (size 15 to 20)
#    0.000    2.759    0.690    1.862    0.966    1.655 
#    0.000    4.828    0.000    2.483    0.000    0.000 
#    0.000    0.000    0.000    0.000    0.000    0.000 
#
# Total GULP energy -161733.674531 kJ/mol
# GULP energy per Si atom -5577.023260 kJ/mol
# Density = 2.398910 g / cm^3
# Si number density = 24.043829 Si / 1000 Ang^3
#
#
#
# Elastic Constant Matrix: (Units=GPa)
#
#
# Indices 1 2 3 4 5 6 
#
# 1 42.4872 -6.4366 19.2413 0.0000 -9.7105 0.0000
# 2 -6.4366 94.4317 -8.5413 0.0000 2.8432 0.0000
# 3 19.2413 -8.5413 90.0493 0.0000 -27.0989 0.0000
# 4 0.0000 0.0000 0.0000 15.5251 0.0000 -1.5239
# 5 -9.7105 2.8432 -27.0989 0.0000 28.8677 0.0000
# 6 0.0000 0.0000 0.0000 -1.5239 0.0000 2.7887
#
#
#
# Elastic Compliance Matrix: (Units=1/GPa)
#
#
# Indices 1 2 3 4 5 6 
#
# 1 0.026730 0.001302 -0.004071 0.000000 0.005042 0.000000
# 2 0.001302 0.010745 0.000773 0.000000 0.000105 0.000000
# 3 -0.004071 0.000773 0.016185 0.000000 0.013748 0.000000
# 4 0.000000 0.000000 0.000000 0.068063 0.000000 0.037193
# 5 0.005042 0.000105 0.013748 0.000000 0.049232 0.000000
# 6 0.000000 0.000000 0.000000 0.037193 0.000000 0.378908
#
#
# Mechanical properties :
#
#
# Convention : Reuss Voigt Hill
#
# Bulk Modulus (GPa) = 20.13382 26.16610 23.14996
# Shear Modulus (GPa) = 8.76560 24.28329 16.52445
#
# Velocity S-wave (km/s) = 1.91144 3.18143 2.62442
# Velocity P-wave (km/s) = 3.64190 4.93980 4.33965
#
# Compressibility (1/GPa) = 0.04966768
#
# Stress axis : x y z
#
# Youngs Moduli (GPa) = 37.41184 93.06542 61.78380
#
# Poissons Ratio (x) = -0.12116 0.25150
# Poissons Ratio (y) = -0.04871 -0.04773
# Poissons Ratio (z) = 0.15229 -0.07190
#
# Static dielectric constant tensor:
#      x y z
#    x 1.947310 0.000000 -0.040170 
#    y 0.000000 1.907230 0.000000 
#    z -0.040170 0.000000 1.903400 
# 
# From -- ./inp_files/237719.got.cif
#   From: 2010.05.17/outbox.cif.g08.bks.cpg/sg12_119_cif.got.tgz:237719.got - 2010.06.03 13:09:07.
