data_PCOD9184371
_publ_section_title
;
Structure prediction by ZEFSAII (Michael W. Deem and Ramdas Pophale) SiO2 
 PCOD9184371
Probable space group: C 2/M
;
_chemical_formula_sum "Si O2"
_cell_formula_units_Z 64
_cell_length_a 8.297570
_cell_length_b 31.924706
_cell_length_c 24.102117
_cell_angle_alpha 90.000000
_cell_angle_beta 149.395122
_cell_angle_gamma 90.000000
_cell_volume 3250.488653
_symmetry_space_group_name_H-M "C 2/M"
_symmetry_group_IT_number 12
_symmetry_cell_setting 'monoclinic'
loop_
_space_group_symop_operation_xyz
x,y,z
-x,y,-z
-x,-y,-z
x,-y,z
1/2+x,1/2+y,z
1/2-x,1/2+y,-z
1/2-x,1/2-y,-z
1/2+x,1/2-y,z
loop_
_atom_site_type_symbol
_atom_site_label
_atom_site_fract_x
_atom_site_fract_y
_atom_site_fract_z
Si Si1 0.214033 0.204743 0.763455
Si Si2 0.779928 0.546865 0.234064
Si Si3 0.694273 0.677049 0.000004
Si Si4 0.103270 0.295255 0.763471
Si Si5 0.805001 0.418946 0.999989
Si Si6 0.632944 0.624880 0.376108
Si Si7 0.390317 0.546864 0.234043
Si Si8 0.752404 0.624886 0.623887
O O1 0.058282 0.250000 0.723317
O O2 0.411238 0.203945 0.764497
O O3 0.974254 0.165793 0.690321
O O4 0.466700 0.197779 0.887881
O O5 0.907603 0.500000 0.263165
O O6 0.524810 0.558379 0.111010
O O7 0.586537 0.546910 0.234619
O O8 0.038818 0.582991 0.314800
O O9 0.472752 0.697787 0.887903
O O10 0.742939 0.628472 0.999993
O O11 0.500000 0.679391 0.000000
O O12 0.977421 0.334207 0.690350
O O13 0.000000 0.418266 0.000000
O O14 0.030159 0.441623 0.110981
O O15 0.535071 0.582991 0.314769
O O16 0.435870 0.625801 0.374350
O O17 0.000000 0.625707 0.500000
O O18 0.408134 0.500000 0.263140
O O19 0.500000 0.625727 0.500000
#
# Coordination Sequence:
#
# PCOD9184371 Si02
#       8
#     8   8   8   8   8   8   8   8
#     4  10  22  38  60  87 118 153 191 237 289 348
#     4  10  21  38  61  90 122 155 193 238 289 347
#     4  10  19  36  58  86 122 153 188 236 288 347
#     4  10  22  38  60  87 118 153 191 237 289 348
#     4  10  19  33  59  91 121 155 190 232 288 347
#     4  11  24  42  62  85 115 154 199 247 294 344
#     4  10  21  38  61  90 122 155 193 238 289 347
#     4  11  24  42  62  85 115 154 199 247 294 344
#
# _framework density 19.689347999999999
#
# number of rings (size 3 to 8) (size 9 to 14) (size 15 to 20)
#    0.000    1.750    2.500    1.500    0.000    6.000 
#    0.000    2.500    0.000    2.250    0.000    0.000 
#    0.000    0.000    0.000    0.000    0.000    0.000 
#
# Total GULP energy -178793.942682 kJ/mol
# GULP energy per Si atom -5587.310709 kJ/mol
# Density = 1.964453 g / cm^3
# Si number density = 19.689348 Si / 1000 Ang^3
#
#
#
# Elastic Constant Matrix: (Units=GPa)
#
#
# Indices 1 2 3 4 5 6 
#
# 1 9.0339 16.2638 19.5870 0.0011 -0.5553 0.0001
# 2 16.2638 201.1846 92.4222 0.0003 5.1241 0.0000
# 3 19.5870 92.4222 158.3182 0.0044 10.6631 -0.0001
# 4 0.0011 0.0003 0.0044 0.0457 0.0021 -2.1527
# 5 -0.5553 5.1241 10.6631 0.0021 -8.4905 0.0003
# 6 0.0001 0.0000 -0.0001 -2.1527 0.0003 31.7238
#
#
#
# Elastic Compliance Matrix: (Units=1/GPa)
#
#
# Indices 1 2 3 4 5 6 
#
# 1 0.146650 -0.005029 -0.013238 0.000370 -0.029251 0.000025
# 2 -0.005029 0.006958 -0.003453 -0.000176 0.000192 -0.000012
# 3 -0.013238 -0.003453 0.009268 0.000466 0.010421 0.000032
# 4 0.000370 -0.000176 0.000466 -9.964943 -0.002007 -0.676205
# 5 -0.029251 0.000192 0.010421 -0.002007 -0.102662 -0.000135
# 6 0.000025 -0.000012 0.000032 -0.676205 -0.000135 -0.014364
#
#
# Mechanical properties :
#
#
# Convention : Reuss Voigt Hill
#
# Bulk Modulus (GPa) = 8.37255 69.45363 38.91309
# Shear Modulus (GPa) = -0.50834 20.67340 10.08253
#
# Velocity S-wave (km/s) = -0.50867 3.24385 2.26537
# Velocity P-wave (km/s) = 1.97903 7.02719 5.16227
#
# Compressibility (1/GPa) = 0.11943789
#
# Stress axis : x y z
#
# Youngs Moduli (GPa) = 6.81893 143.71027 107.89887
#
# Poissons Ratio (x) = 0.72272 1.42832
# Poissons Ratio (y) = 0.03429 0.37256
# Poissons Ratio (z) = 0.09027 0.49622
#
# Static dielectric constant tensor:
#      x y z
#    x 1.680370 0.000000 0.000100 
#    y 0.000000 1.670970 0.000000 
#    z 0.000100 0.000000 1.681680 
# 
# From -- ./inp_files/260320.got.cif
#   From: 2010.05.17/outbox.cif.g08.bks.cpg/sg12_131_cif.got.tgz:260320.got - 2010.06.03 13:09:07.
