data_PCOD9184329
_publ_section_title
;
Structure prediction by ZEFSAII (Michael W. Deem and Ramdas Pophale) SiO2 
 PCOD9184329
Probable space group: C 2/M
;
_chemical_formula_sum "Si O2"
_cell_formula_units_Z 64
_cell_length_a 20.211161
_cell_length_b 21.614519
_cell_length_c 11.052774
_cell_angle_alpha 90.000000
_cell_angle_beta 43.508397
_cell_angle_gamma 90.000000
_cell_volume 3324.201889
_symmetry_space_group_name_H-M "C 2/M"
_symmetry_group_IT_number 12
_symmetry_cell_setting 'monoclinic'
loop_
_space_group_symop_operation_xyz
x,y,z
-x,y,-z
-x,-y,-z
x,-y,z
1/2+x,1/2+y,z
1/2-x,1/2+y,-z
1/2-x,1/2-y,-z
1/2+x,1/2-y,z
loop_
_atom_site_type_symbol
_atom_site_label
_atom_site_fract_x
_atom_site_fract_y
_atom_site_fract_z
Si Si1 0.362296 0.069829 0.498659
Si Si2 0.040982 0.573000 0.078968
Si Si3 0.387029 0.185940 0.634143
Si Si4 0.352493 0.571911 0.236783
Si Si5 0.152137 0.927315 0.026822
Si Si6 0.112823 0.819805 0.391361
Si Si7 0.294159 0.143253 0.994030
Si Si8 0.558805 0.425645 0.635035
O O1 0.451490 0.077742 0.290627
O O2 0.359678 0.124314 0.598815
O O3 0.258196 0.072935 0.573456
O O4 0.368540 0.000000 0.543799
O O5 0.070190 0.500000 0.035893
O O6 0.127336 0.615087 0.017517
O O7 0.000000 0.589515 0.000000
O O8 0.500000 0.180708 0.500000
O O9 0.368132 0.249734 0.587417
O O10 0.342122 0.186878 0.828511
O O11 0.381469 0.500000 0.186433
O O12 0.417707 0.594716 0.258872
O O13 0.356238 0.600537 0.097685
O O14 0.245862 0.909626 0.975757
O O15 0.054959 0.914814 0.230097
O O16 0.154922 0.000000 0.004784
O O17 0.200627 0.828250 0.181800
O O18 0.116415 0.879877 0.472285
O O19 0.000000 0.817891 0.500000
O O20 0.577884 0.500000 0.594581
#
# Coordination Sequence:
#
# PCOD9184329 Si02
#       8
#     8   8   8   8   8   8   8   8
#     4  10  20  37  63  92 118 152 200 252 303 362
#     4  10  23  39  59  92 130 160 195 247 307 367
#     4  11  23  42  64  88 120 158 203 261 308 354
#     4   9  18  33  59  91 126 157 194 250 309 352
#     4  10  19  33  58  92 123 154 203 255 297 351
#     4  11  25  42  60  88 124 162 204 249 309 365
#     4  12  22  39  64  87 115 166 207 248 301 363
#     4  10  21  38  60  89 126 165 202 246 299 363
#
# _framework density 19.252741
#
# number of rings (size 3 to 8) (size 9 to 14) (size 15 to 20)
#    0.000    1.625    3.750    1.125    1.750    3.500 
#    0.000    0.625    0.000    0.000    0.000    0.000 
#    0.000    0.000    0.000    0.000    0.000    0.000 
#
# Total GULP energy -178145.386040 kJ/mol
# GULP energy per Si atom -5567.043314 kJ/mol
# Density = 1.920892 g / cm^3
# Si number density = 19.252741 Si / 1000 Ang^3
#
#
#
# Elastic Constant Matrix: (Units=GPa)
#
#
# Indices 1 2 3 4 5 6 
#
# 1 84.4465 40.2014 29.9381 0.0000 -2.8787 0.0000
# 2 40.2014 87.2362 37.7132 0.0000 3.1076 0.0000
# 3 29.9381 37.7132 105.6803 0.0000 -8.0272 0.0000
# 4 0.0000 0.0000 0.0000 -14.5311 0.0000 -19.3891
# 5 -2.8787 3.1076 -8.0272 0.0000 25.9271 0.0000
# 6 0.0000 0.0000 0.0000 -19.3891 0.0000 -27.7211
#
#
#
# Elastic Compliance Matrix: (Units=1/GPa)
#
#
# Indices 1 2 3 4 5 6 
#
# 1 0.015675 -0.006424 -0.002004 0.000000 0.001890 0.000000
# 2 -0.006424 0.016451 -0.004357 0.000000 -0.004034 0.000000
# 3 -0.002004 -0.004357 0.011888 0.000000 0.003980 0.000000
# 4 0.000000 0.000000 0.000000 -1.031258 0.000000 0.721298
# 5 0.001890 -0.004034 0.003980 0.000000 0.040495 0.000000
# 6 0.000000 0.000000 0.000000 0.721298 0.000000 -0.540575
#
#
# Mechanical properties :
#
#
# Convention : Reuss Voigt Hill
#
# Bulk Modulus (GPa) = 54.22481 54.78535 54.50508
# Shear Modulus (GPa) = -3.43500 8.03568 2.30034
#
# Velocity S-wave (km/s) = -1.33717 2.04520 1.09426
# Velocity P-wave (km/s) = 5.08349 5.83907 5.47433
#
# Compressibility (1/GPa) = 0.01844174
#
# Stress axis : x y z
#
# Youngs Moduli (GPa) = 63.79473 60.78609 84.12140
#
# Poissons Ratio (x) = 0.39052 0.16862
# Poissons Ratio (y) = 0.40985 0.36653
# Poissons Ratio (z) = 0.12787 0.26486
#
# Static dielectric constant tensor:
#      x y z
#    x 1.682630 0.000000 0.024590 
#    y 0.000000 1.699050 0.000000 
#    z 0.024590 0.000000 1.737030 
# 
# From -- ./inp_files/169677.got.cif
#   From: 2010.05.17/outbox.cif.g08.bks.cpg/sg12_85_cif.got.tgz:169677.got - 2010.06.03 13:09:07.
