data_PCOD9184593
_publ_section_title
;
Structure prediction by ZEFSAII (Michael W. Deem and Ramdas Pophale) SiO2 
 PCOD9184593
Probable space group: C 2/M
;
_chemical_formula_sum "Si O2"
_cell_formula_units_Z 56
_cell_length_a 31.002216
_cell_length_b 13.648557
_cell_length_c 9.376316
_cell_angle_alpha 90.000000
_cell_angle_beta 64.728264
_cell_angle_gamma 90.000000
_cell_volume 3587.740331
_symmetry_space_group_name_H-M "C 2/M"
_symmetry_group_IT_number 12
_symmetry_cell_setting 'monoclinic'
loop_
_space_group_symop_operation_xyz
x,y,z
-x,y,-z
-x,-y,-z
x,-y,z
1/2+x,1/2+y,z
1/2-x,1/2+y,-z
1/2-x,1/2-y,-z
1/2+x,1/2-y,z
loop_
_atom_site_type_symbol
_atom_site_label
_atom_site_fract_x
_atom_site_fract_y
_atom_site_fract_z
Si Si1 0.451254 0.881762 0.485968
Si Si2 0.639402 0.196492 0.217271
Si Si3 0.046407 0.381222 0.847103
Si Si4 0.691794 0.611948 0.218787
Si Si5 0.738699 0.212986 0.673214
Si Si6 0.140095 0.617973 0.896579
Si Si7 0.258770 0.889159 0.849466
O O1 0.500000 0.858322 0.500000
O O2 0.406696 0.835764 0.630464
O O3 0.453648 0.849705 0.317538
O O4 0.445784 0.000000 0.496293
O O5 0.652221 0.309818 0.227809
O O6 0.685972 0.137603 0.206771
O O7 0.634272 0.168799 0.058666
O O8 0.043990 0.500000 0.848244
O O9 0.095186 0.356434 0.859976
O O10 0.000000 0.346611 0.000000
O O11 0.675481 0.500000 0.251615
O O12 0.718164 0.647785 0.324514
O O13 0.732644 0.617429 0.038808
O O14 0.750000 0.250000 0.500000
O O15 0.689505 0.153867 0.757452
O O16 0.736440 0.308268 0.778200
O O17 0.141227 0.500000 0.914822
O O18 0.253670 0.000000 0.803227
#
# Coordination Sequence:
#
# PCOD9184593 Si02
#       7
#     8   8   8   8   8   8   8
#     4  10  20  33  52  79 106 133 171 216 259 309
#     4  11  19  33  54  78 100 134 177 213 258 308
#     4   9  19  33  48  71 104 138 165 200 254 311
#     4  10  20  37  55  73 104 141 180 219 254 303
#     4  11  22  33  48  75 107 140 176 213 256 311
#     4  11  20  32  51  74 106 140 171 208 259 311
#     4  10  19  34  53  73 102 139 178 213 249 302
#
# _framework density 15.608711
#
# number of rings (size 3 to 8) (size 9 to 14) (size 15 to 20)
#    0.000    1.714    2.857    3.429    4.000    3.429 
#    0.000    0.000    0.000    0.429    0.000    0.000 
#    0.000    2.857    0.000    0.000    0.000    0.000 
#
# Total GULP energy -156249.088443 kJ/mol
# GULP energy per Si atom -5580.324587 kJ/mol
# Density = 1.557319 g / cm^3
# Si number density = 15.608711 Si / 1000 Ang^3
#
#
#
# Elastic Constant Matrix: (Units=GPa)
#
#
# Indices 1 2 3 4 5 6 
#
# 1 121.1799 48.3540 67.4536 0.0000 3.9034 0.0000
# 2 48.3540 86.8644 33.3933 0.0000 5.0071 0.0000
# 3 67.4536 33.3933 120.1447 0.0000 4.1989 0.0000
# 4 0.0000 0.0000 0.0000 19.8205 0.0000 -1.9915
# 5 3.9034 5.0071 4.1989 0.0000 26.9160 0.0000
# 6 0.0000 0.0000 0.0000 -1.9915 0.0000 19.1099
#
#
#
# Elastic Compliance Matrix: (Units=1/GPa)
#
#
# Indices 1 2 3 4 5 6 
#
# 1 0.013887 -0.005297 -0.006323 0.000000 -0.000042 0.000000
# 2 -0.005297 0.015002 -0.001131 0.000000 -0.001846 0.000000
# 3 -0.006323 -0.001131 0.012215 0.000000 -0.000778 0.000000
# 4 0.000000 0.000000 0.000000 0.050987 0.000000 0.005313
# 5 -0.000042 -0.001846 -0.000778 0.000000 0.037624 0.000000
# 6 0.000000 0.000000 0.000000 0.005313 0.000000 0.052882
#
#
# Mechanical properties :
#
#
# Convention : Reuss Voigt Hill
#
# Bulk Modulus (GPa) = 64.09659 69.62122 66.85891
# Shear Modulus (GPa) = 23.44126 25.10182 24.27154
#
# Velocity S-wave (km/s) = 3.87952 4.01458 3.94763
# Velocity P-wave (km/s) = 7.82441 8.13573 7.98158
#
# Compressibility (1/GPa) = 0.01560145
#
# Stress axis : x y z
#
# Youngs Moduli (GPa) = 72.01111 66.65695 81.86827
#
# Poissons Ratio (x) = 0.35309 0.51763
# Poissons Ratio (y) = 0.38145 0.09261
# Poissons Ratio (z) = 0.45531 0.07540
#
# Static dielectric constant tensor:
#      x y z
#    x 1.511940 0.000000 0.015980 
#    y 0.000000 1.518290 0.000000 
#    z 0.015980 0.000000 1.518140 
# 
# From -- ./inp_files/104102.got.cif
#   From: 2010.05.17/outbox.cif.g08.bks.cpg/sg12_53_cif.got.tgz:104102.got - 2010.06.03 13:09:07.
