data_PCOD9184754
_publ_section_title
;
Structure prediction by ZEFSAII (Michael W. Deem and Ramdas Pophale) SiO2 
 PCOD9184754
Probable space group: C 2/M
;
_chemical_formula_sum "Si O2"
_cell_formula_units_Z 56
_cell_length_a 27.560409
_cell_length_b 11.197344
_cell_length_c 15.349855
_cell_angle_alpha 90.000000
_cell_angle_beta 39.057334
_cell_angle_gamma 90.000000
_cell_volume 2984.783796
_symmetry_space_group_name_H-M "C 2/M"
_symmetry_group_IT_number 12
_symmetry_cell_setting 'monoclinic'
loop_
_space_group_symop_operation_xyz
x,y,z
-x,y,-z
-x,-y,-z
x,-y,z
1/2+x,1/2+y,z
1/2-x,1/2+y,-z
1/2-x,1/2-y,-z
1/2+x,1/2-y,z
loop_
_atom_site_type_symbol
_atom_site_label
_atom_site_fract_x
_atom_site_fract_y
_atom_site_fract_z
Si Si1 0.753618 0.632907 0.121320
Si Si2 0.858819 0.798082 0.873059
Si Si3 0.971356 0.861969 0.311197
Si Si4 0.077702 0.632582 0.360067
Si Si5 0.447336 0.358340 0.150253
Si Si6 0.837625 0.733898 0.604855
Si Si7 0.733734 0.357782 0.592326
O O1 0.787154 0.500000 0.083627
O O2 0.697891 0.631784 0.113341
O O3 0.706312 0.668237 0.273966
O O4 0.813160 0.739626 0.016981
O O5 0.884008 0.690212 0.775857
O O6 0.939037 0.858371 0.786893
O O7 0.964289 0.810841 0.223214
O O8 0.912808 0.790604 0.454305
O O9 0.945381 0.000000 0.347558
O O10 0.056377 0.500000 0.364218
O O11 0.134302 0.639138 0.362644
O O12 0.000000 0.697688 0.500000
O O13 0.465685 0.500000 0.130120
O O14 0.356733 0.347969 0.259072
O O15 0.500000 0.306987 0.000000
O O16 0.784864 0.674981 0.604857
O O17 0.746522 0.500000 0.548358
O O18 0.750000 0.250000 0.500000
#
# Coordination Sequence:
#
# PCOD9184754 Si02
#       7
#     8   8   8   8   8   8   8
#     4  10  22  38  57  84 122 161 197 248 307 363
#     4  10  21  37  56  85 115 156 202 244 297 356
#     4  11  21  36  60  87 115 153 200 248 297 353
#     4  10  19  34  54  78 114 153 193 237 285 349
#     4   9  20  38  61  86 115 151 195 247 299 352
#     4  11  22  37  58  89 118 153 199 243 300 362
#     4  11  23  41  65  92 122 158 201 252 308 364
#
# _framework density 18.761828000000001
#
# number of rings (size 3 to 8) (size 9 to 14) (size 15 to 20)
#    0.000    1.714    2.857    1.714    2.000    0.571 
#    0.000    3.571    0.000    0.429    0.000    0.000 
#    0.000    0.000    0.000    0.000    0.000    0.000 
#
# Total GULP energy -155952.626784 kJ/mol
# GULP energy per Si atom -5569.736671 kJ/mol
# Density = 1.871913 g / cm^3
# Si number density = 18.761828 Si / 1000 Ang^3
#
#
#
# Elastic Constant Matrix: (Units=GPa)
#
#
# Indices 1 2 3 4 5 6 
#
# 1 80.7728 1.9389 15.3615 0.0000 0.8654 0.0000
# 2 1.9389 68.3697 26.3699 0.0001 4.5173 0.0001
# 3 15.3615 26.3699 109.8245 0.0001 12.3386 0.0000
# 4 0.0000 0.0001 0.0001 129.8851 0.0000 -38.1927
# 5 0.8654 4.5173 12.3386 0.0000 23.1860 0.0000
# 6 0.0000 0.0001 0.0000 -38.1927 0.0000 4.0112
#
#
#
# Elastic Compliance Matrix: (Units=1/GPa)
#
#
# Indices 1 2 3 4 5 6 
#
# 1 0.012732 0.000347 -0.001918 0.000000 0.000478 0.000000
# 2 0.000347 0.016157 -0.003800 0.000000 -0.001139 0.000000
# 3 -0.001918 -0.003800 0.010843 0.000000 -0.004958 0.000000
# 4 0.000000 0.000000 0.000000 -0.004278 0.000000 -0.040731
# 5 0.000478 -0.001139 -0.004958 0.000000 0.045972 0.000000
# 6 0.000000 0.000000 0.000000 -0.040731 0.000000 -0.138517
#
#
# Mechanical properties :
#
#
# Convention : Reuss Voigt Hill
#
# Bulk Modulus (GPa) = 34.49408 38.47861 36.48634
# Shear Modulus (GPa) = -136.29424 45.76960 -45.26232
#
# Velocity S-wave (km/s) = -8.53242 4.94449 -4.91702
# Velocity P-wave (km/s) = 8.86817 7.29046 3.57026
#
# Compressibility (1/GPa) = 0.02899048
#
# Stress axis : x y z
#
# Youngs Moduli (GPa) = 78.54413 61.89092 92.22368
#
# Poissons Ratio (x) = -0.02148 0.17687
# Poissons Ratio (y) = -0.02726 0.35047
# Poissons Ratio (z) = 0.15063 0.23520
#
# Static dielectric constant tensor:
#      x y z
#    x 1.663980 0.000000 -0.014800 
#    y 0.000000 1.657830 0.000000 
#    z -0.014800 0.000000 1.679580 
# 
# From -- ./inp_files/245602.got.cif
#   From: 2010.05.17/outbox.cif.g08.bks.cpg/sg12_123_cif.got.tgz:245602.got - 2010.06.03 13:09:07.
