data_PCOD9184001
_publ_section_title
;
Structure prediction by ZEFSAII (Michael W. Deem and Ramdas Pophale) SiO2 
 PCOD9184001
Probable space group: C 2/M
;
_chemical_formula_sum "Si O2"
_cell_formula_units_Z 44
_cell_length_a 25.558750
_cell_length_b 12.793720
_cell_length_c 8.527999
_cell_angle_alpha 90.000000
_cell_angle_beta 44.672723
_cell_angle_gamma 90.000000
_cell_volume 1960.530728
_symmetry_space_group_name_H-M "C 2/M"
_symmetry_group_IT_number 12
_symmetry_cell_setting 'monoclinic'
loop_
_space_group_symop_operation_xyz
x,y,z
-x,y,-z
-x,-y,-z
x,-y,z
1/2+x,1/2+y,z
1/2-x,1/2+y,-z
1/2-x,1/2-y,-z
1/2+x,1/2-y,z
loop_
_atom_site_type_symbol
_atom_site_label
_atom_site_fract_x
_atom_site_fract_y
_atom_site_fract_z
Si Si1 0.082356 0.381214 0.746346
Si Si2 0.959219 0.000000 0.900490
Si Si3 0.845966 0.820834 0.259274
Si Si4 0.192446 0.219586 0.987642
Si Si5 0.124907 0.000000 0.214959
Si Si6 0.414304 0.117157 0.635038
Si Si7 0.865202 0.000000 0.437138
O O1 0.111299 0.500000 0.708052
O O2 0.124895 0.287819 0.738252
O O3 0.086060 0.359799 0.550911
O O4 0.000000 0.380054 0.000000
O O5 0.949882 0.000000 0.731329
O O6 0.913290 0.105637 0.044879
O O7 0.043914 0.000000 0.780356
O O8 0.825710 0.899140 0.444435
O O9 0.791021 0.790514 0.233565
O O10 0.126321 0.300795 0.166097
O O11 0.167867 0.103098 0.075706
O O12 0.250000 0.250000 0.000000
O O13 0.131195 0.000000 0.386450
O O14 0.500000 0.115075 0.500000
O O15 0.382451 0.000000 0.724488
#
# Coordination Sequence:
#
# PCOD9184001 Si02
#       7
#     8   4   8   8   4   8   4
#     4  10  19  33  56  88 127 160 202 259 314 368
#     4   9  19  33  57  91 123 160 188 241 319 383
#     4  10  20  35  56  85 119 159 204 246 310 373
#     4  11  25  43  65  87 126 173 218 263 318 386
#     4  10  23  40  58  92 119 163 215 253 317 382
#     4  10  22  40  64  96 127 168 218 263 314 379
#     4  11  19  35  63  91 127 151 194 260 319 381
#
# _framework density 22.442902
#
# number of rings (size 3 to 8) (size 9 to 14) (size 15 to 20)
#    0.000    1.818    0.000    5.182    1.273    6.545 
#    0.000    3.636    0.000    0.000    0.000    0.000 
#    0.000    0.000    0.000    0.000    0.000    0.000 
#
# Total GULP energy -122655.131819 kJ/mol
# GULP energy per Si atom -5575.233265 kJ/mol
# Density = 2.239182 g / cm^3
# Si number density = 22.442902 Si / 1000 Ang^3
#
#
#
# Elastic Constant Matrix: (Units=GPa)
#
#
# Indices 1 2 3 4 5 6 
#
# 1 139.5799 54.2410 15.2807 0.0000 35.6709 0.0000
# 2 54.2410 144.2980 28.2534 0.0000 13.7788 0.0000
# 3 15.2807 28.2534 31.9628 0.0000 22.2075 0.0000
# 4 0.0000 0.0000 0.0000 24.5082 0.0000 18.8976
# 5 35.6709 13.7788 22.2075 0.0000 41.1796 0.0000
# 6 0.0000 0.0000 0.0000 18.8976 0.0000 46.3767
#
#
#
# Elastic Compliance Matrix: (Units=1/GPa)
#
#
# Indices 1 2 3 4 5 6 
#
# 1 0.011157 -0.004390 0.006782 0.000000 -0.011853 0.000000
# 2 -0.004390 0.010202 -0.011498 0.000000 0.006590 0.000000
# 3 0.006782 -0.011498 0.063355 0.000000 -0.036193 0.000000
# 4 0.000000 0.000000 0.000000 0.059496 0.000000 -0.024244
# 5 -0.011853 0.006590 -0.036193 0.000000 0.051865 0.000000
# 6 0.000000 0.000000 0.000000 -0.024244 0.000000 0.031441
#
#
# Mechanical properties :
#
#
# Convention : Reuss Voigt Hill
#
# Bulk Modulus (GPa) = 15.03718 56.82121 35.92919
# Shear Modulus (GPa) = 18.66398 36.95060 27.80729
#
# Velocity S-wave (km/s) = 2.88691 4.06202 3.52380
# Velocity P-wave (km/s) = 4.22221 6.88281 5.70965
#
# Compressibility (1/GPa) = 0.06650185
#
# Stress axis : x y z
#
# Youngs Moduli (GPa) = 89.63030 98.01706 15.78417
#
# Poissons Ratio (x) = 0.43029 -0.10705
# Poissons Ratio (y) = 0.39347 0.18149
# Poissons Ratio (z) = -0.60786 1.12700
#
# Static dielectric constant tensor:
#      x y z
#    x 1.892330 0.000000 0.063970 
#    y 0.000000 1.797810 0.000000 
#    z 0.063970 0.000000 2.022100 
# 
# From -- ./inp_files/103045.got.cif
#   From: 2010.05.17/outbox.cif.g08.bks.cpg/sg12_52_cif.got.tgz:103045.got - 2010.06.03 13:09:07.
