data_PCOD9184627
_publ_section_title
;
Structure prediction by ZEFSAII (Michael W. Deem and Ramdas Pophale) SiO2 
 PCOD9184627
Probable space group: C 2/M
;
_chemical_formula_sum "Si O2"
_cell_formula_units_Z 58
_cell_length_a 24.489769
_cell_length_b 9.457483
_cell_length_c 27.920662
_cell_angle_alpha 90.000000
_cell_angle_beta 149.349985
_cell_angle_gamma 90.000000
_cell_volume 3296.700428
_symmetry_space_group_name_H-M "C 2/M"
_symmetry_group_IT_number 12
_symmetry_cell_setting 'monoclinic'
loop_
_space_group_symop_operation_xyz
x,y,z
-x,y,-z
-x,-y,-z
x,-y,z
1/2+x,1/2+y,z
1/2-x,1/2+y,-z
1/2-x,1/2-y,-z
1/2+x,1/2-y,z
loop_
_atom_site_type_symbol
_atom_site_label
_atom_site_fract_x
_atom_site_fract_y
_atom_site_fract_z
Si Si1 0.500000 0.000000 0.000000
Si Si2 0.608459 0.830287 0.720093
Si Si3 0.910999 0.165147 0.392495
Si Si4 0.644111 0.274092 0.090090
Si Si5 0.257171 0.334063 0.580387
Si Si6 0.546520 0.650101 0.115628
Si Si7 0.583881 0.333796 0.388386
Si Si8 0.190956 0.664588 0.285162
O O1 0.408847 0.122031 0.941305
O O2 0.581817 0.767737 0.647288
O O3 0.730409 0.785874 0.822934
O O4 0.526434 0.751719 0.693525
O O5 0.598077 0.000000 0.713528
O O6 0.794225 0.177782 0.328528
O O7 0.000000 0.195676 0.500000
O O8 0.925031 0.000000 0.388386
O O9 0.615122 0.349714 0.118329
O O10 0.574722 0.336070 0.994073
O O11 0.228651 0.500000 0.564195
O O12 0.353892 0.325036 0.615067
O O13 0.160283 0.243976 0.484554
O O14 0.289630 0.262019 0.654397
O O15 0.563770 0.500000 0.153854
O O16 0.588563 0.779195 0.178774
O O17 0.570026 0.500000 0.389555
O O18 0.180260 0.500000 0.290211
#
# Coordination Sequence:
#
# PCOD9184627 Si02
#       8
#     2   8   8   8   8   8   8   8
#     4   8  20  32  54  80 106 156 182 240 268 336
#     4  12  23  35  56  86 117 150 188 235 290 338
#     4  10  22  36  50  74 112 152 187 225 278 339
#     4  10  21  33  56  80 115 147 193 232 277 335
#     4  10  21  40  62  84 111 147 194 241 288 339
#     4  10  19  34  53  76 112 149 185 228 276 328
#     4  10  22  39  61  85 112 149 192 240 287 341
#     4  11  22  33  55  83 114 149 189 232 282 339
#
# _framework density 17.593349
#
# number of rings (size 3 to 8) (size 9 to 14) (size 15 to 20)
#    0.000    1.793    1.379    4.138    5.793    3.586 
#    0.000    0.000    0.000    0.828    0.000    0.000 
#    0.000    0.000    0.000    0.000    0.000    0.000 
#
# Total GULP energy -161588.369100 kJ/mol
# GULP energy per Si atom -5572.012728 kJ/mol
# Density = 1.755331 g / cm^3
# Si number density = 17.593349 Si / 1000 Ang^3
#
#
#
# Elastic Constant Matrix: (Units=GPa)
#
#
# Indices 1 2 3 4 5 6 
#
# 1 35.4110 27.3074 12.4438 -0.0001 12.0021 0.0000
# 2 27.3074 153.6722 24.5319 -0.0002 16.0253 -0.0001
# 3 12.4438 24.5319 63.1631 -0.0002 31.4993 0.0000
# 4 -0.0001 -0.0002 -0.0002 130.1022 0.0000 54.8394
# 5 12.0021 16.0253 31.4993 0.0000 25.8893 0.0000
# 6 0.0000 -0.0001 0.0000 54.8394 0.0000 84.3331
#
#
#
# Elastic Compliance Matrix: (Units=1/GPa)
#
#
# Indices 1 2 3 4 5 6 
#
# 1 0.037359 -0.005317 0.004325 0.000000 -0.019290 0.000000
# 2 -0.005317 0.007763 -0.002036 0.000000 0.000137 0.000000
# 3 0.004325 -0.002036 0.041049 0.000000 -0.050689 0.000000
# 4 0.000000 0.000000 0.000000 0.010589 0.000000 -0.006885
# 5 -0.019290 0.000137 -0.050689 0.000000 0.109158 0.000000
# 6 0.000000 0.000000 0.000000 -0.006885 0.000000 0.016335
#
#
# Mechanical properties :
#
#
# Convention : Reuss Voigt Hill
#
# Bulk Modulus (GPa) = 12.48207 42.31251 27.39729
# Shear Modulus (GPa) = 19.60685 60.59578 40.10132
#
# Velocity S-wave (km/s) = 3.34195 5.87513 4.77943
# Velocity P-wave (km/s) = 4.69060 8.37409 6.78702
#
# Compressibility (1/GPa) = 0.08011491
#
# Stress axis : x y z
#
# Youngs Moduli (GPa) = 26.76762 128.81673 24.36101
#
# Poissons Ratio (x) = 0.68497 -0.10536
# Poissons Ratio (y) = 0.14233 0.04959
# Poissons Ratio (z) = -0.11577 0.26221
#
# Static dielectric constant tensor:
#      x y z
#    x 1.584690 0.000000 0.002590 
#    y 0.000000 1.610300 0.000000 
#    z 0.002590 0.000000 1.611340 
# 
# From -- ./inp_files/382070.got.cif
#   From: 2010.05.17/outbox.cif.g08.bks.cpg/sg12_192_cif.got.tgz:382070.got - 2010.06.03 13:09:07.
