data_PCOD9184773
_publ_section_title
;
Structure prediction by ZEFSAII (Michael W. Deem and Ramdas Pophale) SiO2 
 PCOD9184773
Probable space group: C 2/M
;
_chemical_formula_sum "Si O2"
_cell_formula_units_Z 56
_cell_length_a 17.796797
_cell_length_b 12.184002
_cell_length_c 19.359601
_cell_angle_alpha 90.000000
_cell_angle_beta 48.477658
_cell_angle_gamma 90.000000
_cell_volume 3142.928248
_symmetry_space_group_name_H-M "C 2/M"
_symmetry_group_IT_number 12
_symmetry_cell_setting 'monoclinic'
loop_
_space_group_symop_operation_xyz
x,y,z
-x,y,-z
-x,-y,-z
x,-y,z
1/2+x,1/2+y,z
1/2-x,1/2+y,-z
1/2-x,1/2-y,-z
1/2+x,1/2-y,z
loop_
_atom_site_type_symbol
_atom_site_label
_atom_site_fract_x
_atom_site_fract_y
_atom_site_fract_z
Si Si1 0.611519 0.372313 0.418793
Si Si2 0.063501 0.876383 0.897890
Si Si3 0.059411 0.379696 0.752451
Si Si4 0.243376 0.372877 0.538439
Si Si5 0.289972 0.123615 0.058742
Si Si6 0.408722 0.707532 0.889446
Si Si7 0.208427 0.689022 0.783637
O O1 0.500000 0.327644 0.500000
O O2 0.601760 0.500000 0.402600
O O3 0.671779 0.371262 0.453935
O O4 0.683422 0.315879 0.318620
O O5 0.163063 0.809671 0.821298
O O6 0.987614 0.870037 0.880056
O O7 0.088806 0.000000 0.901351
O O8 0.000000 0.826266 0.000000
O O9 0.012831 0.500000 0.782194
O O10 0.136586 0.372669 0.642399
O O11 0.128598 0.365870 0.779189
O O12 0.975747 0.286990 0.801530
O O13 0.251724 0.500000 0.500900
O O14 0.250000 0.250000 0.500000
O O15 0.177994 0.145919 0.098626
O O16 0.291656 0.137047 0.140368
O O17 0.321735 0.000000 0.021794
O O18 0.357807 0.213252 0.978099
#
# Coordination Sequence:
#
# PCOD9184773 Si02
#       7
#     8   8   8   8   8   8   8
#     4   9  18  34  56  79 107 140 175 218 272 324
#     4  10  19  35  54  72 100 141 180 211 253 312
#     4   9  18  34  54  74 104 137 172 215 262 316
#     4   9  18  34  56  82 106 138 176 221 272 324
#     4  11  21  33  50  75 106 134 166 217 266 304
#     4  10  21  34  48  76 104 136 174 210 256 316
#     4  10  19  34  54  80 102 131 177 220 260 309
#
# _framework density 17.817779000000002
#
# number of rings (size 3 to 8) (size 9 to 14) (size 15 to 20)
#    0.000    2.286    1.429    3.000    0.000    1.143 
#    0.000   11.429    0.000    1.714    0.000    0.000 
#    0.000    0.000    0.000    0.000    0.000    0.000 
#
# Total GULP energy -155874.776307 kJ/mol
# GULP energy per Si atom -5566.956297 kJ/mol
# Density = 1.777722 g / cm^3
# Si number density = 17.817779 Si / 1000 Ang^3
#
#
#
# Elastic Constant Matrix: (Units=GPa)
#
#
# Indices 1 2 3 4 5 6 
#
# 1 30.4640 14.8171 17.6347 0.0000 -7.6701 0.0000
# 2 14.8171 85.8773 38.4843 0.0000 2.9736 0.0000
# 3 17.6347 38.4843 74.3366 0.0000 -15.6737 0.0000
# 4 0.0000 0.0000 0.0000 25.1026 0.0000 0.4817
# 5 -7.6701 2.9736 -15.6737 0.0000 29.3879 0.0000
# 6 0.0000 0.0000 0.0000 0.4817 0.0000 6.8147
#
#
#
# Elastic Compliance Matrix: (Units=1/GPa)
#
#
# Indices 1 2 3 4 5 6 
#
# 1 0.040330 -0.004852 -0.005332 0.000000 0.008173 0.000000
# 2 -0.004852 0.016913 -0.009276 0.000000 -0.007925 0.000000
# 3 -0.005332 -0.009276 0.021885 0.000000 0.011219 0.000000
# 4 0.000000 0.000000 0.000000 0.039891 0.000000 -0.002819
# 5 0.008173 -0.007925 0.011219 0.000000 0.042946 0.000000
# 6 0.000000 0.000000 0.000000 -0.002819 0.000000 0.146940
#
#
# Mechanical properties :
#
#
# Convention : Reuss Voigt Hill
#
# Bulk Modulus (GPa) = 24.87084 36.95002 30.91043
# Shear Modulus (GPa) = 13.84172 20.24384 17.04278
#
# Velocity S-wave (km/s) = 2.79022 3.37435 3.09610
# Velocity P-wave (km/s) = 4.93652 5.99703 5.49243
#
# Compressibility (1/GPa) = 0.04020773
#
# Stress axis : x y z
#
# Youngs Moduli (GPa) = 24.79549 59.12682 45.69374
#
# Poissons Ratio (x) = 0.28688 0.24365
# Poissons Ratio (y) = 0.12030 0.42384
# Poissons Ratio (z) = 0.13222 0.54844
#
# Static dielectric constant tensor:
#      x y z
#    x 1.594460 0.000000 0.002910 
#    y 0.000000 1.640530 0.000000 
#    z 0.002910 0.000000 1.612710 
# 
# From -- ./inp_files/223338.got.cif
#   From: 2010.05.17/outbox.cif.g08.bks.cpg/sg12_112_cif.got.tgz:223338.got - 2010.06.03 13:09:07.
