data_PCOD9184743
_publ_section_title
;
Structure prediction by ZEFSAII (Michael W. Deem and Ramdas Pophale) SiO2 
 PCOD9184743
Probable space group: C 2/M
;
_chemical_formula_sum "Si O2"
_cell_formula_units_Z 64
_cell_length_a 18.739069
_cell_length_b 11.248537
_cell_length_c 17.950351
_cell_angle_alpha 90.000000
_cell_angle_beta 81.780092
_cell_angle_gamma 90.000000
_cell_volume 3744.831188
_symmetry_space_group_name_H-M "C 2/M"
_symmetry_group_IT_number 12
_symmetry_cell_setting 'monoclinic'
loop_
_space_group_symop_operation_xyz
x,y,z
-x,y,-z
-x,-y,-z
x,-y,z
1/2+x,1/2+y,z
1/2-x,1/2+y,-z
1/2-x,1/2-y,-z
1/2+x,1/2-y,z
loop_
_atom_site_type_symbol
_atom_site_label
_atom_site_fract_x
_atom_site_fract_y
_atom_site_fract_z
Si Si1 0.545360 0.211804 0.687037
Si Si2 0.361746 0.360692 0.210795
Si Si3 0.299470 0.858852 0.760387
Si Si4 0.440251 0.139007 0.829788
Si Si5 0.186050 0.269981 0.407866
Si Si6 0.542294 0.361537 0.417846
Si Si7 0.495744 0.362377 0.089458
Si Si8 0.825913 0.369360 0.430863
O O1 0.596983 0.295611 0.728750
O O2 0.498167 0.139358 0.753451
O O3 0.490694 0.286771 0.644589
O O4 0.598983 0.144290 0.623387
O O5 0.355961 0.500000 0.230937
O O6 0.281080 0.312112 0.211002
O O7 0.413780 0.351204 0.131721
O O8 0.363692 0.822404 0.805555
O O9 0.316868 0.830294 0.672052
O O10 0.296837 0.000000 0.769096
O O11 0.463768 0.247778 0.880693
O O12 0.436583 0.000000 0.858331
O O13 0.126312 0.166695 0.415928
O O14 0.165783 0.349924 0.482014
O O15 0.266818 0.223827 0.410532
O O16 0.500000 0.330080 0.500000
O O17 0.530613 0.500000 0.405149
O O18 0.518850 0.500000 0.107757
O O19 0.500000 0.355826 0.000000
O O20 0.796153 0.500000 0.421210
#
# Coordination Sequence:
#
# PCOD9184743 Si02
#       8
#     8   8   8   8   8   8   8   8
#     4  11  19  35  52  74 107 136 181 226 273 320
#     4   9  18  33  56  80 104 141 177 214 263 319
#     4  10  19  34  54  78 109 142 180 221 268 329
#     4  10  21  35  57  85 115 145 179 221 270 329
#     4  11  21  38  50  70 102 140 183 228 279 326
#     4  11  22  35  51  73 100 136 185 239 284 325
#     4   9  19  38  63  88 114 144 181 220 262 319
#     4  11  23  35  50  71  98 139 185 231 278 325
#
# _framework density 17.090223000000002
#
# number of rings (size 3 to 8) (size 9 to 14) (size 15 to 20)
#    0.000    1.750    3.750    1.500    0.000    0.750 
#    0.000    1.250    0.000    0.000    0.000    0.000 
#    0.000    0.000    0.000    0.000    0.000    0.000 
#
# Total GULP energy -178245.920447 kJ/mol
# GULP energy per Si atom -5570.185014 kJ/mol
# Density = 1.705132 g / cm^3
# Si number density = 17.090223 Si / 1000 Ang^3
#
#
#
# Elastic Constant Matrix: (Units=GPa)
#
#
# Indices 1 2 3 4 5 6 
#
# 1 84.9423 27.2578 29.7920 0.0000 7.2072 0.0000
# 2 27.2578 55.3779 28.4324 0.0000 9.3427 0.0000
# 3 29.7920 28.4324 74.3370 0.0000 -1.4604 0.0000
# 4 0.0000 0.0000 0.0000 113.7284 0.0000 -7.5907
# 5 7.2072 9.3427 -1.4604 0.0000 16.7965 0.0000
# 6 0.0000 0.0000 0.0000 -7.5907 0.0000 24.5761
#
#
#
# Elastic Compliance Matrix: (Units=1/GPa)
#
#
# Indices 1 2 3 4 5 6 
#
# 1 0.015128 -0.004407 -0.004464 0.000000 -0.004428 0.000000
# 2 -0.004407 0.027153 -0.008894 0.000000 -0.013985 0.000000
# 3 -0.004464 -0.008894 0.018810 0.000000 0.008498 0.000000
# 4 0.000000 0.000000 0.000000 0.008978 0.000000 0.002773
# 5 -0.004428 -0.013985 0.008498 0.000000 0.069954 0.000000
# 6 0.000000 0.000000 0.000000 0.002773 0.000000 0.041546
#
#
# Mechanical properties :
#
#
# Convention : Reuss Voigt Hill
#
# Bulk Modulus (GPa) = 39.12286 42.84681 40.98484
# Shear Modulus (GPa) = 22.16104 39.63187 30.89646
#
# Velocity S-wave (km/s) = 3.60489 4.82080 4.25649
# Velocity P-wave (km/s) = 6.34576 7.49081 6.94193
#
# Compressibility (1/GPa) = 0.02556050
#
# Stress axis : x y z
#
# Youngs Moduli (GPa) = 66.10047 36.82849 53.16305
#
# Poissons Ratio (x) = 0.16231 0.23734
# Poissons Ratio (y) = 0.29132 0.47282
# Poissons Ratio (z) = 0.29509 0.32755
#
# Static dielectric constant tensor:
#      x y z
#    x 1.592730 0.000000 -0.015580 
#    y 0.000000 1.587380 0.000000 
#    z -0.015580 0.000000 1.557850 
# 
# From -- ./inp_files/223830.got.cif
#   From: 2010.05.17/outbox.cif.g08.bks.cpg/sg12_112_cif.got.tgz:223830.got - 2010.06.03 13:09:07.
