data_PCOD9184300
_publ_section_title
;
Structure prediction by ZEFSAII (Michael W. Deem and Ramdas Pophale) SiO2 
 PCOD9184300
Probable space group: C 2/M
;
_chemical_formula_sum "Si O2"
_cell_formula_units_Z 56
_cell_length_a 19.579779
_cell_length_b 8.879151
_cell_length_c 24.924719
_cell_angle_alpha 90.000000
_cell_angle_beta 44.880790
_cell_angle_gamma 90.000000
_cell_volume 3057.658800
_symmetry_space_group_name_H-M "C 2/M"
_symmetry_group_IT_number 12
_symmetry_cell_setting 'monoclinic'
loop_
_space_group_symop_operation_xyz
x,y,z
-x,y,-z
-x,-y,-z
x,-y,z
1/2+x,1/2+y,z
1/2-x,1/2+y,-z
1/2-x,1/2-y,-z
1/2+x,1/2-y,z
loop_
_atom_site_type_symbol
_atom_site_label
_atom_site_fract_x
_atom_site_fract_y
_atom_site_fract_z
Si Si1 0.679066 0.820160 0.994757
Si Si2 0.797163 0.819470 0.135254
Si Si3 0.031304 0.179812 0.877236
Si Si4 0.810118 0.818776 0.298330
Si Si5 0.236872 0.676462 0.450039
Si Si6 0.161935 0.820098 0.298002
Si Si7 0.461015 0.327083 0.461160
O O1 0.568499 0.768301 0.066124
O O2 0.686859 0.000000 0.991535
O O3 0.750000 0.750000 0.000000
O O4 0.704143 0.757390 0.921731
O O5 0.488183 0.500000 0.108873
O O6 0.895534 0.783127 0.114241
O O7 0.708737 0.761606 0.220986
O O8 0.092124 0.210581 0.789174
O O9 0.206202 0.000000 0.868088
O O10 0.805814 0.771714 0.362715
O O11 0.724720 0.736684 0.313643
O O12 0.793603 0.000000 0.304524
O O13 0.251270 0.500000 0.447589
O O14 0.250000 0.750000 0.500000
O O15 0.128216 0.716127 0.493228
O O16 0.049892 0.787803 0.372575
O O17 0.172563 0.000000 0.286885
O O18 0.500000 0.325587 0.500000
O O19 0.429910 0.500000 0.466725
#
# Coordination Sequence:
#
# PCOD9184300 Si02
#       7
#     8   8   8   8   8   8   8
#     4  12  25  41  61  87 119 154 192 235 287 344
#     4  10  21  39  63  89 120 153 190 235 285 342
#     4   9  19  38  63  88 115 150 189 236 290 343
#     4   9  19  36  58  84 115 152 192 238 291 343
#     4  11  23  38  57  82 115 157 200 244 291 345
#     4  10  19  33  58  89 118 150 191 241 289 335
#     4  10  20  36  58  85 117 154 193 239 291 342
#
# _framework density 18.314667
#
# number of rings (size 3 to 8) (size 9 to 14) (size 15 to 20)
#    0.000    1.857    1.429    3.857    0.000    6.571 
#    2.571    0.000    0.000    0.000    0.000    0.000 
#    0.000    0.000    0.000    0.000    0.000    0.000 
#
# Total GULP energy -156325.871077 kJ/mol
# GULP energy per Si atom -5583.066824 kJ/mol
# Density = 1.827298 g / cm^3
# Si number density = 18.314667 Si / 1000 Ang^3
#
#
#
# Elastic Constant Matrix: (Units=GPa)
#
#
# Indices 1 2 3 4 5 6 
#
# 1 78.6417 41.3103 68.7330 0.0000 24.7295 0.0000
# 2 41.3103 63.8340 58.1993 0.0000 13.1429 0.0000
# 3 68.7330 58.1993 135.3439 0.0000 26.6296 0.0000
# 4 0.0000 0.0000 0.0000 30.7285 0.0000 1.2279
# 5 24.7295 13.1429 26.6296 0.0000 28.3341 0.0000
# 6 0.0000 0.0000 0.0000 1.2279 0.0000 32.8955
#
#
#
# Elastic Compliance Matrix: (Units=1/GPa)
#
#
# Indices 1 2 3 4 5 6 
#
# 1 0.028402 -0.008027 -0.008376 0.000000 -0.013193 0.000000
# 2 -0.008027 0.028120 -0.008376 0.000000 0.001835 0.000000
# 3 -0.008376 -0.008376 0.016000 0.000000 -0.003842 0.000000
# 4 0.000000 0.000000 0.000000 0.032592 0.000000 -0.001217
# 5 -0.013193 0.001835 -0.003842 0.000000 0.049567 0.000000
# 6 0.000000 0.000000 0.000000 -0.001217 0.000000 0.030445
#
#
# Mechanical properties :
#
#
# Convention : Reuss Voigt Hill
#
# Bulk Modulus (GPa) = 43.54939 68.25609 55.90274
# Shear Modulus (GPa) = 20.63233 25.69675 23.16454
#
# Velocity S-wave (km/s) = 3.36005 3.74982 3.56027
# Velocity P-wave (km/s) = 6.23565 7.48984 6.89133
#
# Compressibility (1/GPa) = 0.02296243
#
# Stress axis : x y z
#
# Youngs Moduli (GPa) = 35.20886 35.56247 62.50042
#
# Poissons Ratio (x) = 0.28548 0.52350
# Poissons Ratio (y) = 0.28264 0.52351
# Poissons Ratio (z) = 0.29491 0.29787
#
# Static dielectric constant tensor:
#      x y z
#    x 1.628440 0.000000 0.015240 
#    y 0.000000 1.616020 0.000000 
#    z 0.015240 0.000000 1.645890 
# 
# From -- ./inp_files/342212.got.cif
#   From: 2010.05.17/outbox.cif.g08.bks.cpg/sg12_172_cif.got.tgz:342212.got - 2010.06.03 13:09:07.
