data_PCOD9184017
_publ_section_title
;
Structure prediction by ZEFSAII (Michael W. Deem and Ramdas Pophale) SiO2 
 PCOD9184017
Probable space group: C 2/M
;
_chemical_formula_sum "Si O2"
_cell_formula_units_Z 48
_cell_length_a 7.975384
_cell_length_b 20.869894
_cell_length_c 18.296768
_cell_angle_alpha 90.000000
_cell_angle_beta 47.073273
_cell_angle_gamma 90.000000
_cell_volume 2229.928542
_symmetry_space_group_name_H-M "C 2/M"
_symmetry_group_IT_number 12
_symmetry_cell_setting 'monoclinic'
loop_
_space_group_symop_operation_xyz
x,y,z
-x,y,-z
-x,-y,-z
x,-y,z
1/2+x,1/2+y,z
1/2-x,1/2+y,-z
1/2-x,1/2-y,-z
1/2+x,1/2-y,z
loop_
_atom_site_type_symbol
_atom_site_label
_atom_site_fract_x
_atom_site_fract_y
_atom_site_fract_z
Si Si1 0.167229 0.876045 0.270083
Si Si2 0.974741 0.374046 0.311938
Si Si3 0.280406 0.175131 0.512934
Si Si4 0.850753 0.248588 0.801556
Si Si5 0.919768 0.193420 0.928389
Si Si6 0.003985 0.073642 0.831993
O O1 0.339969 0.900866 0.281118
O O2 0.267375 0.810403 0.205422
O O3 0.939705 0.851118 0.378688
O O4 0.097825 0.917666 0.220039
O O5 0.829335 0.371320 0.429299
O O6 0.002864 0.297451 0.288144
O O7 0.226168 0.405149 0.246968
O O8 0.500000 0.172059 0.500000
O O9 0.250000 0.250000 0.500000
O O10 0.983273 0.210497 0.824461
O O11 0.661446 0.294879 0.894688
O O12 0.868679 0.119118 0.931081
O O13 0.750000 0.250000 0.000000
O O14 0.987381 0.000000 0.857824
#
# Coordination Sequence:
#
# PCOD9184017 Si02
#       6
#     8   8   8   8   8   8
#     4  11  21  37  59  90 128 170 214 268 325 380
#     4  11  21  37  59  90 128 170 214 268 325 380
#     4  12  22  32  54  94 137 163 214 278 331 380
#     4  10  19  33  56  92 122 154 202 261 329 384
#     4  10  20  36  63  91 124 154 205 271 330 380
#     4  10  24  43  64  90 129 175 219 259 320 399
#
# _framework density 21.525352999999999
#
# number of rings (size 3 to 8) (size 9 to 14) (size 15 to 20)
#    0.000    1.333    5.000    2.000    0.000    0.667 
#    0.000    1.667    0.000   18.000    0.000    0.000 
#    0.000    0.000    0.000    0.000    0.000    0.000 
#
# Total GULP energy -133633.810833 kJ/mol
# GULP energy per Si atom -5568.075451 kJ/mol
# Density = 2.147636 g / cm^3
# Si number density = 21.525353 Si / 1000 Ang^3
#
#
#
# Elastic Constant Matrix: (Units=GPa)
#
#
# Indices 1 2 3 4 5 6 
#
# 1 138.3581 24.7521 3.8944 0.0000 17.9971 0.0000
# 2 24.7521 121.9138 24.2664 0.0000 4.5270 0.0000
# 3 3.8944 24.2664 35.8812 0.0000 -4.3011 0.0000
# 4 0.0000 0.0000 0.0000 20.5562 0.0000 2.7692
# 5 17.9971 4.5270 -4.3011 0.0000 27.8878 0.0000
# 6 0.0000 0.0000 0.0000 2.7692 0.0000 19.3921
#
#
#
# Elastic Compliance Matrix: (Units=1/GPa)
#
#
# Indices 1 2 3 4 5 6 
#
# 1 0.008153 -0.001347 -0.000589 0.000000 -0.005134 0.000000
# 2 -0.001347 0.009886 -0.006753 0.000000 -0.001777 0.000000
# 3 -0.000589 -0.006753 0.033293 0.000000 0.006611 0.000000
# 4 0.000000 0.000000 0.000000 0.049601 0.000000 -0.007083
# 5 -0.005134 -0.001777 0.006611 0.000000 0.040479 0.000000
# 6 0.000000 0.000000 0.000000 -0.007083 0.000000 0.052579
#
#
# Mechanical properties :
#
#
# Convention : Reuss Voigt Hill
#
# Bulk Modulus (GPa) = 29.45171 44.66433 37.05802
# Shear Modulus (GPa) = 22.45298 29.78322 26.11810
#
# Velocity S-wave (km/s) = 3.23320 3.72376 3.48712
# Velocity P-wave (km/s) = 5.25834 6.26763 5.78504
#
# Compressibility (1/GPa) = 0.03395388
#
# Stress axis : x y z
#
# Youngs Moduli (GPa) = 122.65404 101.15150 30.03631
#
# Poissons Ratio (x) = 0.13630 0.01769
# Poissons Ratio (y) = 0.16527 0.20283
# Poissons Ratio (z) = 0.07224 0.68305
#
# Static dielectric constant tensor:
#      x y z
#    x 1.904540 0.000000 0.069460 
#    y 0.000000 1.803370 0.000000 
#    z 0.069460 0.000000 1.884660 
# 
# From -- ./inp_files/257893.got.cif
#   From: 2010.05.17/outbox.cif.g08.bks.cpg/sg12_129_cif.got.tgz:257893.got - 2010.06.03 13:09:07.
