data_PCOD9184586
_publ_section_title
;
Structure prediction by ZEFSAII (Michael W. Deem and Ramdas Pophale) SiO2 
 PCOD9184586
Probable space group: C 2/M
;
_chemical_formula_sum "Si O2"
_cell_formula_units_Z 60
_cell_length_a 29.317667
_cell_length_b 14.559270
_cell_length_c 11.568673
_cell_angle_alpha 90.000000
_cell_angle_beta 134.147959
_cell_angle_gamma 90.000000
_cell_volume 3543.241963
_symmetry_space_group_name_H-M "C 2/M"
_symmetry_group_IT_number 12
_symmetry_cell_setting 'monoclinic'
loop_
_space_group_symop_operation_xyz
x,y,z
-x,y,-z
-x,-y,-z
x,-y,z
1/2+x,1/2+y,z
1/2-x,1/2+y,-z
1/2-x,1/2-y,-z
1/2+x,1/2-y,z
loop_
_atom_site_type_symbol
_atom_site_label
_atom_site_fract_x
_atom_site_fract_y
_atom_site_fract_z
Si Si1 0.145425 0.295963 0.653889
Si Si2 0.104742 0.896495 0.077240
Si Si3 0.474359 0.790378 0.701798
Si Si4 0.980234 0.100465 0.305053
Si Si5 0.359307 0.606336 0.244302
Si Si6 0.780335 0.110099 0.869057
Si Si7 0.562144 0.894807 0.692452
Si Si8 0.500000 0.270861 0.000000
O O1 0.093831 0.323687 0.464919
O O2 0.152414 0.186581 0.684962
O O3 0.213233 0.340336 0.749795
O O4 0.115523 0.336641 0.720394
O O5 0.172866 0.861146 0.153224
O O6 0.110840 0.000000 0.135410
O O7 0.065294 0.903599 0.887928
O O8 0.061583 0.833723 0.081585
O O9 0.479274 0.689745 0.650492
O O10 0.533839 0.847153 0.755928
O O11 0.483098 0.783463 0.853858
O O12 0.932324 0.112854 0.327711
O O13 0.011800 0.000000 0.368216
O O14 0.348046 0.500000 0.258948
O O15 0.315660 0.625587 0.054272
O O16 0.772740 0.000000 0.845676
O O17 0.500000 0.895355 0.500000
O O18 0.582462 0.000000 0.746154
#
# Coordination Sequence:
#
# PCOD9184586 Si02
#       8
#     8   8   8   8   8   8   8   4
#     4  11  19  30  50  76 106 139 168 205 253 304
#     4   8  15  29  51  75  97 126 168 210 249 296
#     4  10  20  32  48  75 101 136 175 213 252 295
#     4   8  14  27  46  70 102 131 159 201 249 302
#     4   9  17  29  46  72 107 138 162 195 249 312
#     4   9  18  32  50  76 102 132 170 207 252 305
#     4   9  18  32  49  71 100 130 168 214 250 289
#     4  10  19  34  53  72 102 132 168 214 256 302
#
# _framework density 16.933644999999999
#
# number of rings (size 3 to 8) (size 9 to 14) (size 15 to 20)
#    0.000    2.800    1.333    2.600    0.000    1.600 
#    0.000    2.333    0.000    0.000    0.000    0.000 
#    0.000    0.000    0.000    0.000    0.000    0.000 
#
# Total GULP energy -167136.047391 kJ/mol
# GULP energy per Si atom -5571.201580 kJ/mol
# Density = 1.689510 g / cm^3
# Si number density = 16.933645 Si / 1000 Ang^3
#
#
#
# Elastic Constant Matrix: (Units=GPa)
#
#
# Indices 1 2 3 4 5 6 
#
# 1 104.7501 35.5936 45.2024 0.0000 5.9457 0.0000
# 2 35.5936 59.0875 21.6677 0.0000 1.3199 0.0000
# 3 45.2024 21.6677 62.2020 0.0000 4.9771 0.0000
# 4 0.0000 0.0000 0.0000 17.5729 0.0000 2.6158
# 5 5.9457 1.3199 4.9771 0.0000 33.2880 0.0000
# 6 0.0000 0.0000 0.0000 2.6158 0.0000 19.9893
#
#
#
# Elastic Compliance Matrix: (Units=1/GPa)
#
#
# Indices 1 2 3 4 5 6 
#
# 1 0.015608 -0.006020 -0.009151 0.000000 -0.001181 0.000000
# 2 -0.006020 0.021726 -0.003249 0.000000 0.000700 0.000000
# 3 -0.009151 -0.003249 0.024005 0.000000 -0.001826 0.000000
# 4 0.000000 0.000000 0.000000 0.058036 0.000000 -0.007595
# 5 -0.001181 0.000700 -0.001826 0.000000 0.030497 0.000000
# 6 0.000000 0.000000 0.000000 -0.007595 0.000000 0.051021
#
#
# Mechanical properties :
#
#
# Convention : Reuss Voigt Hill
#
# Bulk Modulus (GPa) = 40.81910 47.88522 44.35216
# Shear Modulus (GPa) = 20.33351 22.40844 21.37097
#
# Velocity S-wave (km/s) = 3.46898 3.64168 3.55638
# Velocity P-wave (km/s) = 6.34056 6.78395 6.56600
#
# Compressibility (1/GPa) = 0.02449834
#
# Stress axis : x y z
#
# Youngs Moduli (GPa) = 64.06991 46.02695 41.65869
#
# Poissons Ratio (x) = 0.27708 0.38121
# Poissons Ratio (y) = 0.38570 0.13537
# Poissons Ratio (z) = 0.58629 0.14956
#
# Static dielectric constant tensor:
#      x y z
#    x 1.571240 0.000000 0.003860 
#    y 0.000000 1.607160 0.000000 
#    z 0.003860 0.000000 1.596570 
# 
# From -- ./inp_files/183253.got.cif
#   From: 2010.05.17/outbox.cif.g08.bks.cpg/sg12_92_cif.got.tgz:183253.got - 2010.06.03 13:09:07.
