data_PCOD9184602
_publ_section_title
;
Structure prediction by ZEFSAII (Michael W. Deem and Ramdas Pophale) SiO2 
 PCOD9184602
Probable space group: C 2/M
;
_chemical_formula_sum "Si O2"
_cell_formula_units_Z 56
_cell_length_a 30.563596
_cell_length_b 11.292596
_cell_length_c 8.997128
_cell_angle_alpha 90.000000
_cell_angle_beta 114.723238
_cell_angle_gamma 90.000000
_cell_volume 2820.654691
_symmetry_space_group_name_H-M "C 2/M"
_symmetry_group_IT_number 12
_symmetry_cell_setting 'monoclinic'
loop_
_space_group_symop_operation_xyz
x,y,z
-x,y,-z
-x,-y,-z
x,-y,z
1/2+x,1/2+y,z
1/2-x,1/2+y,-z
1/2-x,1/2-y,-z
1/2+x,1/2-y,z
loop_
_atom_site_type_symbol
_atom_site_label
_atom_site_fract_x
_atom_site_fract_y
_atom_site_fract_z
Si Si1 0.561831 0.863353 0.248581
Si Si2 0.309528 0.634993 0.853313
Si Si3 0.889347 0.128933 0.541357
Si Si4 0.199903 0.366770 0.742994
Si Si5 0.622608 0.295595 0.796368
Si Si6 0.307004 0.749015 0.556024
Si Si7 0.947731 0.634037 0.119051
O O1 0.587883 0.748906 0.356740
O O2 0.505457 0.854649 0.211509
O O3 0.577231 0.000000 0.309666
O O4 0.564589 0.853411 0.073427
O O5 0.304466 0.500000 0.785446
O O6 0.255958 0.671540 0.831144
O O7 0.325985 0.727122 0.749349
O O8 0.347862 0.633384 0.038527
O O9 0.895960 0.135258 0.373987
O O10 0.832503 0.143666 0.499925
O O11 0.906163 0.000000 0.621514
O O12 0.197917 0.500000 0.792186
O O13 0.162595 0.292392 0.784449
O O14 0.185440 0.356567 0.547534
O O15 0.580388 0.225492 0.818857
O O16 0.250000 0.750000 0.500000
O O17 0.934598 0.500000 0.145083
#
# Coordination Sequence:
#
# PCOD9184602 Si02
#       7
#     8   8   8   8   8   8   8
#     4   9  20  41  65  86 110 146 191 241 292 346
#     4  10  19  34  53  74 105 146 186 226 273 328
#     4  11  23  38  56  85 123 157 189 232 286 344
#     4   9  19  34  52  76 108 142 182 230 277 328
#     4  11  21  34  53  81 113 149 186 228 282 342
#     4   9  19  35  56  79 105 144 190 231 272 323
#     4   9  19  38  63  87 109 139 190 247 293 340
#
# _framework density 19.853546000000001
#
# number of rings (size 3 to 8) (size 9 to 14) (size 15 to 20)
#    0.000    2.286    0.000    3.429    0.000    4.000 
#    0.000    7.143    0.000    2.571    0.000    0.000 
#    0.000    0.000    0.000    0.000    0.000    0.000 
#
# Total GULP energy -155873.780744 kJ/mol
# GULP energy per Si atom -5566.920741 kJ/mol
# Density = 1.980836 g / cm^3
# Si number density = 19.853546 Si / 1000 Ang^3
#
#
#
# Elastic Constant Matrix: (Units=GPa)
#
#
# Indices 1 2 3 4 5 6 
#
# 1 97.0914 49.6691 21.4889 0.0000 -10.4245 0.0000
# 2 49.6691 105.9550 36.7311 0.0000 4.6506 0.0000
# 3 21.4889 36.7311 67.3002 0.0000 -1.6174 0.0000
# 4 0.0000 0.0000 0.0000 20.7259 0.0000 7.7315
# 5 -10.4245 4.6506 -1.6174 0.0000 26.6656 0.0000
# 6 0.0000 0.0000 0.0000 7.7315 0.0000 18.5615
#
#
#
# Elastic Compliance Matrix: (Units=1/GPa)
#
#
# Indices 1 2 3 4 5 6 
#
# 1 0.014778 -0.006974 -0.000745 0.000000 0.006949 0.000000
# 2 -0.006974 0.015090 -0.006146 0.000000 -0.005731 0.000000
# 3 -0.000745 -0.006146 0.018497 0.000000 0.001903 0.000000
# 4 0.000000 0.000000 0.000000 0.057125 0.000000 -0.023794
# 5 0.006949 -0.005731 0.001903 0.000000 0.041333 0.000000
# 6 0.000000 0.000000 0.000000 -0.023794 0.000000 0.063786
#
#
# Mechanical properties :
#
#
# Convention : Reuss Voigt Hill
#
# Bulk Modulus (GPa) = 48.46608 54.01386 51.23997
# Shear Modulus (GPa) = 20.38992 24.02110 22.20551
#
# Velocity S-wave (km/s) = 3.20819 3.48216 3.34798
# Velocity P-wave (km/s) = 6.17965 6.59033 6.38829
#
# Compressibility (1/GPa) = 0.02063299
#
# Stress axis : x y z
#
# Youngs Moduli (GPa) = 67.66599 66.27030 54.06249
#
# Poissons Ratio (x) = 0.46220 0.04029
# Poissons Ratio (y) = 0.47193 0.33229
# Poissons Ratio (z) = 0.05043 0.40733
#
# Static dielectric constant tensor:
#      x y z
#    x 1.711180 0.000000 0.020190 
#    y 0.000000 1.699800 0.000000 
#    z 0.020190 0.000000 1.740220 
# 
# From -- ./inp_files/110070.got.cif
#   From: 2010.05.17/outbox.cif.g08.bks.cpg/sg12_56_cif.got.tgz:110070.got - 2010.06.03 13:09:07.
