data_PCOD9184026
_publ_section_title
;
Structure prediction by ZEFSAII (Michael W. Deem and Ramdas Pophale) SiO2 
 PCOD9184026
Probable space group: C 2/M
;
_chemical_formula_sum "Si O2"
_cell_formula_units_Z 56
_cell_length_a 25.116360
_cell_length_b 13.942696
_cell_length_c 8.336342
_cell_angle_alpha 90.000000
_cell_angle_beta 93.589563
_cell_angle_gamma 90.000000
_cell_volume 2913.574473
_symmetry_space_group_name_H-M "C 2/M"
_symmetry_group_IT_number 12
_symmetry_cell_setting 'monoclinic'
loop_
_space_group_symop_operation_xyz
x,y,z
-x,y,-z
-x,-y,-z
x,-y,z
1/2+x,1/2+y,z
1/2-x,1/2+y,-z
1/2-x,1/2-y,-z
1/2+x,1/2-y,z
loop_
_atom_site_type_symbol
_atom_site_label
_atom_site_fract_x
_atom_site_fract_y
_atom_site_fract_z
Si Si1 0.679606 0.311305 0.352616
Si Si2 0.971788 0.113994 0.335473
Si Si3 0.333571 0.898228 0.190006
Si Si4 0.228719 0.144167 0.022214
Si Si5 0.720082 0.889284 0.465195
Si Si6 0.625253 0.312431 0.862010
Si Si7 0.920392 0.885165 0.812195
O O1 0.700243 0.357231 0.189611
O O2 0.692370 0.197075 0.360302
O O3 0.718219 0.357660 0.494001
O O4 0.617555 0.338977 0.333011
O O5 0.915139 0.157274 0.282529
O O6 0.000000 0.151746 0.500000
O O7 0.017237 0.128934 0.210055
O O8 0.964058 0.000000 0.351953
O O9 0.284269 0.907568 0.057001
O O10 0.308191 0.886397 0.363867
O O11 0.363287 0.800496 0.152443
O O12 0.363662 0.000000 0.193498
O O13 0.250000 0.250000 0.000000
O O14 0.182010 0.130825 0.883771
O O15 0.716645 0.000000 0.407255
O O16 0.596369 0.338114 0.023458
O O17 0.910682 0.000000 0.814397
#
# Coordination Sequence:
#
# PCOD9184026 Si02
#       7
#     8   8   8   8   8   8   8
#     4   9  17  29  51  74 103 142 179 212 258 314
#     4  10  22  37  54  80 107 134 174 223 273 321
#     4   9  18  32  53  79 110 144 177 216 261 311
#     4   8  16  31  48  75 104 135 176 212 255 306
#     4   9  17  30  49  76 110 144 176 212 261 315
#     4  10  19  33  57  80 104 142 181 215 262 316
#     4  10  20  35  55  77 105 138 174 215 269 322
#
# _framework density 19.220376000000002
#
# number of rings (size 3 to 8) (size 9 to 14) (size 15 to 20)
#    0.000    2.714    0.000    1.286    2.000    5.143 
#    0.000    6.429    0.000   11.571    0.000    0.000 
#    0.000    0.000    0.000    0.000    0.000    0.000 
#
# Total GULP energy -155908.277096 kJ/mol
# GULP energy per Si atom -5568.152753 kJ/mol
# Density = 1.917663 g / cm^3
# Si number density = 19.220376 Si / 1000 Ang^3
#
#
#
# Elastic Constant Matrix: (Units=GPa)
#
#
# Indices 1 2 3 4 5 6 
#
# 1 65.8241 26.2940 33.8787 0.0000 32.1643 0.0000
# 2 26.2940 93.8557 12.0372 0.0000 15.4725 0.0000
# 3 33.8787 12.0372 65.9025 0.0000 21.9607 0.0000
# 4 0.0000 0.0000 0.0000 16.9934 0.0000 -3.8548
# 5 32.1643 15.4725 21.9607 0.0000 32.3881 0.0000
# 6 0.0000 0.0000 0.0000 -3.8548 0.0000 5.7849
#
#
#
# Elastic Compliance Matrix: (Units=1/GPa)
#
#
# Indices 1 2 3 4 5 6 
#
# 1 0.033630 -0.004111 -0.007832 0.000000 -0.026123 0.000000
# 2 -0.004111 0.012074 0.000607 0.000000 -0.002097 0.000000
# 3 -0.007832 0.000607 0.021438 0.000000 -0.007047 0.000000
# 4 0.000000 0.000000 0.000000 0.069326 0.000000 0.046196
# 5 -0.026123 -0.002097 -0.007047 0.000000 0.062599 0.000000
# 6 0.000000 0.000000 0.000000 0.046196 0.000000 0.203648
#
#
# Mechanical properties :
#
#
# Convention : Reuss Voigt Hill
#
# Bulk Modulus (GPa) = 22.48733 41.11137 31.79935
# Shear Modulus (GPa) = 11.35820 21.25809 16.30814
#
# Velocity S-wave (km/s) = 2.43357 3.32929 2.91603
# Velocity P-wave (km/s) = 4.42962 6.01788 5.28377
#
# Compressibility (1/GPa) = 0.04446948
#
# Stress axis : x y z
#
# Youngs Moduli (GPa) = 29.73526 82.82133 46.64611
#
# Poissons Ratio (x) = 0.34044 0.36536
# Poissons Ratio (y) = 0.12223 -0.02830
# Poissons Ratio (z) = 0.23290 -0.05024
#
# Static dielectric constant tensor:
#      x y z
#    x 1.588970 0.000000 0.183010 
#    y 0.000000 1.802050 0.000000 
#    z 0.183010 0.000000 1.396070 
# 
# From -- ./inp_files/104113.got.cif
#   From: 2010.05.17/outbox.cif.g08.bks.cpg/sg12_53_cif.got.tgz:104113.got - 2010.06.03 13:09:07.
