data_PCOD9184950
_publ_section_title
;
Structure prediction by ZEFSAII (Michael W. Deem and Ramdas Pophale) SiO2 
 PCOD9184950
Probable space group: C 2/M
;
_chemical_formula_sum "Si O2"
_cell_formula_units_Z 40
_cell_length_a 16.060217
_cell_length_b 14.416734
_cell_length_c 8.955793
_cell_angle_alpha 90.000000
_cell_angle_beta 95.267336
_cell_angle_gamma 90.000000
_cell_volume 2064.831029
_symmetry_space_group_name_H-M "C 2/M"
_symmetry_group_IT_number 12
_symmetry_cell_setting 'monoclinic'
loop_
_space_group_symop_operation_xyz
x,y,z
-x,y,-z
-x,-y,-z
x,-y,z
1/2+x,1/2+y,z
1/2-x,1/2+y,-z
1/2-x,1/2-y,-z
1/2+x,1/2-y,z
loop_
_atom_site_type_symbol
_atom_site_label
_atom_site_fract_x
_atom_site_fract_y
_atom_site_fract_z
Si Si1 0.298167 0.393693 0.202277
Si Si2 0.906093 0.773285 0.421394
Si Si3 0.405932 0.395922 0.921448
Si Si4 0.478814 0.897137 0.318050
Si Si5 0.137036 0.714903 0.269529
O O1 0.273299 0.500000 0.225012
O O2 0.366118 0.360161 0.334422
O O3 0.219023 0.327273 0.209552
O O4 0.341852 0.387689 0.048708
O O5 0.913937 0.687961 0.304796
O O6 0.853253 0.736986 0.553087
O O7 0.000000 0.791872 0.500000
O O8 0.396655 0.500000 0.854232
O O9 0.389875 0.311347 0.808673
O O10 0.500000 0.389144 0.000000
O O11 0.500000 0.903143 0.500000
O O12 0.561646 0.860007 0.250124
O O13 0.453011 0.000000 0.265153
#
# Coordination Sequence:
#
# PCOD9184950 Si02
#       5
#     8   8   8   8   8
#     4  11  22  35  53  77 106 140 175 215 265 311
#     4   9  19  34  54  79 105 137 174 214 259 310
#     4  10  21  37  56  76 103 142 178 210 257 312
#     4   8  15  30  52  75 100 132 167 205 252 306
#     4  10  19  34  55  80 107 133 171 218 260 306
#
# _framework density 19.372046000000001
#
# number of rings (size 3 to 8) (size 9 to 14) (size 15 to 20)
#    0.000    2.800    0.000    4.200    0.000    2.000 
#    0.000    1.000    0.000   13.800    0.000    0.000 
#    0.000    0.000    0.000    0.000    0.000    0.000 
#
# Total GULP energy -111510.864364 kJ/mol
# GULP energy per Si atom -5575.543218 kJ/mol
# Density = 1.932795 g / cm^3
# Si number density = 19.372046 Si / 1000 Ang^3
#
#
#
# Elastic Constant Matrix: (Units=GPa)
#
#
# Indices 1 2 3 4 5 6 
#
# 1 84.0316 49.1897 22.4716 0.0000 -20.6627 0.0000
# 2 49.1897 114.8751 27.0270 0.0000 3.3857 0.0000
# 3 22.4716 27.0270 18.4295 0.0000 -11.2140 0.0000
# 4 0.0000 0.0000 0.0000 27.1532 0.0000 -2.9254
# 5 -20.6627 3.3857 -11.2140 0.0000 19.6813 0.0000
# 6 0.0000 0.0000 0.0000 -2.9254 0.0000 34.8750
#
#
#
# Elastic Compliance Matrix: (Units=1/GPa)
#
#
# Indices 1 2 3 4 5 6 
#
# 1 0.027406 -0.016580 0.015522 0.000000 0.040469 0.000000
# 2 -0.016580 0.032425 -0.063249 0.000000 -0.059022 0.000000
# 3 0.015522 -0.063249 0.221376 0.000000 0.153312 0.000000
# 4 0.000000 0.000000 0.000000 0.037164 0.000000 0.003117
# 5 0.040469 -0.059022 0.153312 0.000000 0.190803 0.000000
# 6 0.000000 0.000000 0.000000 0.003117 0.000000 0.028935
#
#
# Mechanical properties :
#
#
# Convention : Reuss Voigt Hill
#
# Bulk Modulus (GPa) = 6.55336 46.07921 26.31628
# Shear Modulus (GPa) = 6.96780 24.25176 15.60978
#
# Velocity S-wave (km/s) = 1.89859 3.54205 2.84172
# Velocity P-wave (km/s) = 2.86294 6.36916 4.93775
#
# Compressibility (1/GPa) = 0.15259355
#
# Stress axis : x y z
#
# Youngs Moduli (GPa) = 36.48893 30.84043 4.51720
#
# Poissons Ratio (x) = 0.51133 -0.07012
# Poissons Ratio (y) = 0.60498 0.28571
# Poissons Ratio (z) = -0.56639 1.95063
#
# Static dielectric constant tensor:
#      x y z
#    x 1.683570 0.000000 -0.005630 
#    y 0.000000 1.690770 0.000000 
#    z -0.005630 0.000000 1.681790 
# 
# From -- ./inp_files/59104.got.cif
#   From: 2010.05.17/outbox.cif.g08.bks.cpg/sg12_30_cif.got.tgz:59104.got - 2010.06.03 13:09:07.
