data_PCOD9184500
_publ_section_title
;
Structure prediction by ZEFSAII (Michael W. Deem and Ramdas Pophale) SiO2 
 PCOD9184500
Probable space group: C 2/M
;
_chemical_formula_sum "Si O2"
_cell_formula_units_Z 50
_cell_length_a 17.214475
_cell_length_b 12.537100
_cell_length_c 14.337405
_cell_angle_alpha 90.000000
_cell_angle_beta 129.809969
_cell_angle_gamma 90.000000
_cell_volume 2376.949619
_symmetry_space_group_name_H-M "C 2/M"
_symmetry_group_IT_number 12
_symmetry_cell_setting 'monoclinic'
loop_
_space_group_symop_operation_xyz
x,y,z
-x,y,-z
-x,-y,-z
x,-y,z
1/2+x,1/2+y,z
1/2-x,1/2+y,-z
1/2-x,1/2-y,-z
1/2+x,1/2-y,z
loop_
_atom_site_type_symbol
_atom_site_label
_atom_site_fract_x
_atom_site_fract_y
_atom_site_fract_z
Si Si1 0.579816 0.877019 0.872160
Si Si2 0.320842 0.121153 0.248877
Si Si3 0.184475 0.117395 0.468397
Si Si4 0.111881 0.789636 0.062300
Si Si5 0.632992 0.817772 0.520834
Si Si6 0.500000 0.000000 0.500000
Si Si7 0.644116 0.884686 0.243699
O O1 0.626209 0.855646 0.807289
O O2 0.458465 0.877609 0.775896
O O3 0.609393 0.000000 0.921733
O O4 0.609944 0.784782 0.968513
O O5 0.201828 0.125824 0.134765
O O6 0.345138 0.200175 0.352232
O O7 0.353317 0.000000 0.308554
O O8 0.260064 0.139297 0.439908
O O9 0.111412 0.214339 0.440555
O O10 0.261756 0.117916 0.615163
O O11 0.138565 0.000000 0.422987
O O12 0.137389 0.707183 0.164176
O O13 0.000000 0.832315 0.000000
O O14 0.546421 0.905545 0.462878
O O15 0.642714 0.000000 0.194002
#
# Coordination Sequence:
#
# PCOD9184500 Si02
#       7
#     8   8   8   8   8   2   8
#     4   9  19  31  52  79 109 141 183 238 287 333
#     4  11  21  35  51  78 112 145 188 238 289 341
#     4  10  20  38  59  87 118 158 194 241 297 363
#     4  10  19  34  51  75 107 148 187 232 276 340
#     4  11  23  36  60  89 122 150 197 246 297 356
#     4  12  24  40  62  96 114 156 196 254 292 360
#     4   9  17  30  55  81 106 136 184 231 282 336
#
# _framework density 21.035364000000001
#
# number of rings (size 3 to 8) (size 9 to 14) (size 15 to 20)
#    0.000    1.920    3.200    0.960    2.240    2.240 
#    0.000    0.400    0.000    0.000    0.000    0.000 
#    0.000    0.000    0.000    0.000    0.000    0.000 
#
# Total GULP energy -139278.529848 kJ/mol
# GULP energy per Si atom -5571.141194 kJ/mol
# Density = 2.098749 g / cm^3
# Si number density = 21.035364 Si / 1000 Ang^3
#
#
#
# Elastic Constant Matrix: (Units=GPa)
#
#
# Indices 1 2 3 4 5 6 
#
# 1 122.1351 55.6543 18.8577 0.0000 -20.5584 0.0000
# 2 55.6543 113.7203 -1.5615 0.0000 -1.1100 0.0000
# 3 18.8577 -1.5615 33.8866 0.0000 -6.7354 0.0000
# 4 0.0000 0.0000 0.0000 24.7347 0.0000 7.6543
# 5 -20.5584 -1.1100 -6.7354 0.0000 31.8078 0.0000
# 6 0.0000 0.0000 0.0000 7.6543 0.0000 34.1389
#
#
#
# Elastic Compliance Matrix: (Units=1/GPa)
#
#
# Indices 1 2 3 4 5 6 
#
# 1 0.013331 -0.006542 -0.006319 0.000000 0.007050 0.000000
# 2 -0.006542 0.012015 0.003588 0.000000 -0.003049 0.000000
# 3 -0.006319 0.003588 0.033829 0.000000 0.003205 0.000000
# 4 0.000000 0.000000 0.000000 0.043443 0.000000 -0.009740
# 5 0.007050 -0.003049 0.003205 0.000000 0.036568 0.000000
# 6 0.000000 0.000000 0.000000 -0.009740 0.000000 0.031476
#
#
# Mechanical properties :
#
#
# Convention : Reuss Voigt Hill
#
# Bulk Modulus (GPa) = 24.61290 46.18256 35.39773
# Shear Modulus (GPa) = 24.66089 31.25571 27.95830
#
# Velocity S-wave (km/s) = 3.42768 3.85887 3.64965
# Velocity P-wave (km/s) = 5.23368 6.46969 5.88423
#
# Compressibility (1/GPa) = 0.04062909
#
# Stress axis : x y z
#
# Youngs Moduli (GPa) = 75.01269 83.23125 29.56056
#
# Poissons Ratio (x) = 0.54451 0.18679
# Poissons Ratio (y) = 0.49074 -0.10607
# Poissons Ratio (z) = 0.47399 -0.29865
#
# Static dielectric constant tensor:
#      x y z
#    x 1.716960 0.000000 -0.031070 
#    y 0.000000 1.828120 0.000000 
#    z -0.031070 0.000000 1.626110 
# 
# From -- ./inp_files/214389.got.cif
#   From: 2010.05.17/outbox.cif.g08.bks.cpg/sg12_108_cif.got.tgz:214389.got - 2010.06.03 13:09:07.
