data_PCOD9184561
_publ_section_title
;
Structure prediction by ZEFSAII (Michael W. Deem and Ramdas Pophale) SiO2 
 PCOD9184561
Probable space group: C 2/M
;
_chemical_formula_sum "Si O2"
_cell_formula_units_Z 60
_cell_length_a 8.807335
_cell_length_b 26.069618
_cell_length_c 20.812833
_cell_angle_alpha 90.000000
_cell_angle_beta 47.462964
_cell_angle_gamma 90.000000
_cell_volume 3521.144599
_symmetry_space_group_name_H-M "C 2/M"
_symmetry_group_IT_number 12
_symmetry_cell_setting 'monoclinic'
loop_
_space_group_symop_operation_xyz
x,y,z
-x,y,-z
-x,-y,-z
x,-y,z
1/2+x,1/2+y,z
1/2-x,1/2+y,-z
1/2-x,1/2-y,-z
1/2+x,1/2-y,z
loop_
_atom_site_type_symbol
_atom_site_label
_atom_site_fract_x
_atom_site_fract_y
_atom_site_fract_z
Si Si1 0.301670 0.638770 0.307683
Si Si2 0.130137 0.060952 0.261607
Si Si3 0.000000 0.392785 0.500000
Si Si4 0.718238 0.306751 0.038288
Si Si5 0.406998 0.438776 0.456999
Si Si6 0.251597 0.834196 0.819020
Si Si7 0.013528 0.361567 0.859518
Si Si8 0.165423 0.215823 0.202072
O O1 0.443079 0.588534 0.277835
O O2 0.227517 0.640258 0.256057
O O3 0.450034 0.687741 0.274658
O O4 0.124234 0.638184 0.410836
O O5 0.336185 0.089928 0.179805
O O6 0.075173 0.071508 0.352445
O O7 0.137006 0.000000 0.250206
O O8 0.185183 0.420700 0.489146
O O9 0.486859 0.326338 0.093768
O O10 0.733902 0.298649 0.109940
O O11 0.750000 0.250000 0.000000
O O12 0.874526 0.346153 0.960346
O O13 0.500000 0.420028 0.500000
O O14 0.385631 0.500000 0.469558
O O15 0.365405 0.865163 0.841335
O O16 0.335872 0.776147 0.789768
O O17 0.162686 0.312405 0.804728
#
# Coordination Sequence:
#
# PCOD9184561 Si02
#       8
#     8   8   4   8   8   8   8   8
#     4   9  21  36  55  79 108 148 187 222 281 339
#     4   9  20  39  55  76 111 148 183 226 276 339
#     4  10  19  36  56  78 118 148 186 238 281 340
#     4  11  19  31  51  82 113 141 172 225 280 328
#     4   9  18  33  58  86 107 137 190 246 296 336
#     4  11  20  32  52  82 113 139 180 234 282 323
#     4  11  20  29  54  81 111 140 178 221 278 327
#     4  10  19  34  52  77 115 143 176 224 279 329
#
# _framework density 17.039914
#
# number of rings (size 3 to 8) (size 9 to 14) (size 15 to 20)
#    0.000    2.000    2.667    1.800    1.867    0.533 
#    0.000    1.333    0.000   16.000    0.000    0.000 
#    0.000    0.000    0.000    0.000    0.000    0.000 
#
# Total GULP energy -167101.981217 kJ/mol
# GULP energy per Si atom -5570.066041 kJ/mol
# Density = 1.700113 g / cm^3
# Si number density = 17.039914 Si / 1000 Ang^3
#
#
#
# Elastic Constant Matrix: (Units=GPa)
#
#
# Indices 1 2 3 4 5 6 
#
# 1 105.5622 23.5055 52.0494 0.0000 10.2103 0.0000
# 2 23.5055 76.4907 54.0450 0.0000 5.2031 0.0000
# 3 52.0494 54.0450 133.4005 -0.0001 4.6407 0.0000
# 4 0.0000 0.0000 -0.0001 22.5492 0.0000 7.1759
# 5 10.2103 5.2031 4.6407 0.0000 19.5386 0.0000
# 6 0.0000 0.0000 0.0000 7.1759 0.0000 14.5634
#
#
#
# Elastic Compliance Matrix: (Units=1/GPa)
#
#
# Indices 1 2 3 4 5 6 
#
# 1 0.012256 -0.000222 -0.004508 0.000000 -0.005275 0.000000
# 2 -0.000222 0.018514 -0.007307 0.000000 -0.003079 0.000000
# 3 -0.004508 -0.007307 0.012166 0.000000 0.001412 0.000000
# 4 0.000000 0.000000 0.000000 0.052595 0.000000 -0.025915
# 5 -0.005275 -0.003079 0.001412 0.000000 0.054421 0.000000
# 6 0.000000 0.000000 0.000000 -0.025915 0.000000 0.081435
#
#
# Mechanical properties :
#
#
# Convention : Reuss Voigt Hill
#
# Bulk Modulus (GPa) = 53.01816 63.85036 58.43426
# Shear Modulus (GPa) = 19.10231 23.72048 21.41139
#
# Velocity S-wave (km/s) = 3.35182 3.73507 3.54862
# Velocity P-wave (km/s) = 6.79420 7.49356 7.15243
#
# Compressibility (1/GPa) = 0.01886146
#
# Stress axis : x y z
#
# Youngs Moduli (GPa) = 81.59506 54.01369 82.19327
#
# Poissons Ratio (x) = 0.01198 0.37056
# Poissons Ratio (y) = 0.01810 0.60058
# Poissons Ratio (z) = 0.36787 0.39467
#
# Static dielectric constant tensor:
#      x y z
#    x 1.645420 0.000000 0.002920 
#    y 0.000000 1.548010 0.000000 
#    z 0.002920 0.000000 1.585220 
# 
# From -- ./inp_files/302758.got.cif
#   From: 2010.05.17/outbox.cif.g08.bks.cpg/sg12_152_cif.got.tgz:302758.got - 2010.06.03 13:09:07.
