data_PCOD9184964
_publ_section_title
;
Structure prediction by ZEFSAII (Michael W. Deem and Ramdas Pophale) SiO2 
 PCOD9184964
Probable space group: C 2/M
;
_chemical_formula_sum "Si O2"
_cell_formula_units_Z 64
_cell_length_a 14.907847
_cell_length_b 8.219217
_cell_length_c 29.143082
_cell_angle_alpha 90.000000
_cell_angle_beta 115.822101
_cell_angle_gamma 90.000000
_cell_volume 3214.371979
_symmetry_space_group_name_H-M "C 2/M"
_symmetry_group_IT_number 12
_symmetry_cell_setting 'monoclinic'
loop_
_space_group_symop_operation_xyz
x,y,z
-x,y,-z
-x,-y,-z
x,-y,z
1/2+x,1/2+y,z
1/2-x,1/2+y,-z
1/2-x,1/2-y,-z
1/2+x,1/2-y,z
loop_
_atom_site_type_symbol
_atom_site_label
_atom_site_fract_x
_atom_site_fract_y
_atom_site_fract_z
Si Si1 0.556119 0.195517 0.282352
Si Si2 0.270394 0.301389 0.360334
Si Si3 0.026178 0.690857 0.907598
Si Si4 0.191227 0.305103 0.442114
Si Si5 0.520112 0.694531 0.636049
Si Si6 0.400983 0.198745 0.173116
Si Si7 0.818969 0.802700 0.878201
Si Si8 0.838353 0.808847 0.986904
O O1 0.670890 0.252653 0.310767
O O2 0.502327 0.236103 0.318391
O O3 0.488398 0.258039 0.225650
O O4 0.560063 0.000000 0.279395
O O5 0.271996 0.500000 0.360058
O O6 0.248586 0.252268 0.408210
O O7 0.375772 0.246314 0.362917
O O8 0.045546 0.500000 0.916951
O O9 0.910980 0.724977 0.872633
O O10 0.085200 0.752639 0.876330
O O11 0.061676 0.771964 0.962601
O O12 0.185753 0.500000 0.439690
O O13 0.250000 0.250000 0.500000
O O14 0.078316 0.239325 0.414960
O O15 0.525705 0.500000 0.640808
O O16 0.290038 0.242825 0.163967
O O17 0.405110 0.000000 0.173063
O O18 0.827899 0.000000 0.878878
O O19 0.829913 0.743546 0.933531
O O20 0.827600 0.000000 0.979677
O O21 0.750000 0.750000 0.000000
#
# Coordination Sequence:
#
# PCOD9184964 Si02
#       8
#     8   8   8   8   8   8   8   8
#     4   9  18  36  58  77 102 143 183 220 269 325
#     4   8  17  33  54  77 105 143 182 216 265 323
#     4  11  22  37  56  82 108 139 181 222 265 328
#     4  10  20  36  55  80 113 149 185 221 266 320
#     4  10  19  34  55  80 109 142 182 229 270 314
#     4   9  19  37  57  76 107 143 176 217 273 329
#     4  10  21  38  55  77 108 143 176 218 275 329
#     4  11  21  36  58  79 107 143 178 218 270 327
#
# _framework density 19.910575999999999
#
# number of rings (size 3 to 8) (size 9 to 14) (size 15 to 20)
#    0.000    2.250    1.250    2.625    0.000    4.000 
#    0.000   11.875    0.000    0.000    0.000    0.000 
#    0.000    0.000    0.000    0.000    0.000    0.000 
#
# Total GULP energy -178561.874608 kJ/mol
# GULP energy per Si atom -5580.058582 kJ/mol
# Density = 1.986526 g / cm^3
# Si number density = 19.910576 Si / 1000 Ang^3
#
#
#
# Elastic Constant Matrix: (Units=GPa)
#
#
# Indices 1 2 3 4 5 6 
#
# 1 116.4330 -6.2171 17.2506 0.0000 23.2072 0.0000
# 2 -6.2171 7.3547 -7.0919 0.0000 0.8531 0.0000
# 3 17.2506 -7.0919 86.4791 0.0000 21.5434 0.0000
# 4 0.0000 0.0000 0.0000 19.7839 0.0000 2.9302
# 5 23.2072 0.8531 21.5434 0.0000 17.9519 0.0000
# 6 0.0000 0.0000 0.0000 2.9302 0.0000 27.3955
#
#
#
# Elastic Compliance Matrix: (Units=1/GPa)
#
#
# Indices 1 2 3 4 5 6 
#
# 1 0.013828 0.019404 0.005015 0.000000 -0.024817 0.000000
# 2 0.019404 0.187798 0.028532 0.000000 -0.068249 0.000000
# 3 0.005015 0.028532 0.021191 0.000000 -0.033270 0.000000
# 4 0.000000 0.000000 0.000000 0.051360 0.000000 -0.005493
# 5 -0.024817 -0.068249 -0.033270 0.000000 0.130955 0.000000
# 6 0.000000 0.000000 0.000000 -0.005493 0.000000 0.037090
#
#
# Mechanical properties :
#
#
# Convention : Reuss Voigt Hill
#
# Bulk Modulus (GPa) = 3.04211 24.23890 13.64050
# Shear Modulus (GPa) = 11.21345 26.78129 18.99737
#
# Velocity S-wave (km/s) = 2.37574 3.67151 3.09226
# Velocity P-wave (km/s) = 3.00944 5.49305 4.42890
#
# Compressibility (1/GPa) = 0.32871963
#
# Stress axis : x y z
#
# Youngs Moduli (GPa) = 72.31647 5.32486 47.18985
#
# Poissons Ratio (x) = -0.10332 -0.23666
# Poissons Ratio (y) = -1.40321 -1.34643
# Poissons Ratio (z) = -0.36268 -0.15193
#
# Static dielectric constant tensor:
#      x y z
#    x 1.718760 0.000000 0.013080 
#    y 0.000000 1.698460 0.000000 
#    z 0.013080 0.000000 1.726380 
# 
# From -- ./inp_files/375104.got.cif
#   From: 2010.05.17/outbox.cif.g08.bks.cpg/sg12_188_cif.got.tgz:375104.got - 2010.06.03 13:09:07.
