data_PCOD9184131
_publ_section_title
;
Structure prediction by ZEFSAII (Michael W. Deem and Ramdas Pophale) SiO2 
 PCOD9184131
Probable space group: C 2/M
;
_chemical_formula_sum "Si O2"
_cell_formula_units_Z 64
_cell_length_a 21.015463
_cell_length_b 8.650778
_cell_length_c 32.775110
_cell_angle_alpha 90.000000
_cell_angle_beta 36.595772
_cell_angle_gamma 90.000000
_cell_volume 3552.263907
_symmetry_space_group_name_H-M "C 2/M"
_symmetry_group_IT_number 12
_symmetry_cell_setting 'monoclinic'
loop_
_space_group_symop_operation_xyz
x,y,z
-x,y,-z
-x,-y,-z
x,-y,z
1/2+x,1/2+y,z
1/2-x,1/2+y,-z
1/2-x,1/2-y,-z
1/2+x,1/2-y,z
loop_
_atom_site_type_symbol
_atom_site_label
_atom_site_fract_x
_atom_site_fract_y
_atom_site_fract_z
Si Si1 0.557828 0.816111 0.295525
Si Si2 0.655157 0.686779 0.076762
Si Si3 0.573863 0.313796 0.840151
Si Si4 0.632151 0.314269 0.553790
Si Si5 0.823685 0.184614 0.840094
Si Si6 0.703493 0.684987 0.291410
Si Si7 0.488297 0.687767 0.552203
Si Si8 0.603017 0.685861 0.919920
O O1 0.449871 0.744363 0.369475
O O2 0.588670 0.758929 0.234774
O O3 0.652182 0.760302 0.277362
O O4 0.551474 0.000000 0.299865
O O5 0.659207 0.500000 0.073213
O O6 0.539782 0.735656 0.119142
O O7 0.667048 0.734967 0.117702
O O8 0.750000 0.750000 0.000000
O O9 0.580834 0.500000 0.833371
O O10 0.676059 0.240604 0.765684
O O11 0.581982 0.272789 0.883768
O O12 0.633992 0.500000 0.553491
O O13 0.750000 0.250000 0.500000
O O14 0.579923 0.264356 0.537228
O O15 0.708244 0.233489 0.882662
O O16 0.834713 0.000000 0.832583
O O17 0.699332 0.500000 0.288884
O O18 0.624539 0.729454 0.368986
O O19 0.500000 0.745064 0.500000
O O20 0.491994 0.500000 0.548976
O O21 0.618868 0.500000 0.913872
O O22 0.500000 0.724808 0.000000
#
# Coordination Sequence:
#
# PCOD9184131 Si02
#       8
#     8   8   8   8   8   8   8   8
#     4  11  21  36  59  84 113 151 193 235 283 337
#     4  10  23  41  59  80 112 153 188 231 287 343
#     4  10  20  36  56  79 111 148 185 225 278 337
#     4  10  20  36  59  86 118 151 187 232 282 336
#     4  11  22  37  57  83 115 147 187 236 286 334
#     4  10  19  33  57  86 113 145 184 232 283 329
#     4   8  16  33  56  81 112 146 182 225 270 320
#     4  10  20  34  56  83 108 141 185 230 275 330
#
# _framework density 18.016679
#
# number of rings (size 3 to 8) (size 9 to 14) (size 15 to 20)
#    0.000    2.000    1.250    3.750    0.000    2.750 
#    2.250    0.000    0.000   12.750    0.000    0.000 
#    0.000    0.000    0.000    0.000    0.000    0.000 
#
# Total GULP energy -178670.833687 kJ/mol
# GULP energy per Si atom -5583.463553 kJ/mol
# Density = 1.797567 g / cm^3
# Si number density = 18.016679 Si / 1000 Ang^3
#
#
#
# Elastic Constant Matrix: (Units=GPa)
#
#
# Indices 1 2 3 4 5 6 
#
# 1 145.1955 43.3679 105.7706 -0.0013 2.0319 0.0403
# 2 43.3679 48.6183 45.6948 0.0047 -0.1132 0.0066
# 3 105.7706 45.6948 165.7897 0.0008 1.0697 0.0029
# 4 -0.0013 0.0047 0.0008 33.4587 -0.0026 -6.5123
# 5 2.0319 -0.1132 1.0697 -0.0026 38.2107 -0.0007
# 6 0.0403 0.0066 0.0029 -6.5123 -0.0007 21.1853
#
#
#
# Elastic Compliance Matrix: (Units=1/GPa)
#
#
# Indices 1 2 3 4 5 6 
#
# 1 0.013880 -0.005483 -0.007340 -0.000003 -0.000549 -0.000025
# 2 -0.005483 0.029929 -0.004754 -0.000004 0.000513 0.000001
# 3 -0.007340 -0.004754 0.012025 0.000003 0.000040 0.000015
# 4 -0.000003 -0.000004 0.000003 0.031790 0.000002 0.009772
# 5 -0.000549 0.000513 0.000040 0.000002 0.026200 0.000002
# 6 -0.000025 0.000001 0.000015 0.009772 0.000002 0.050207
#
#
# Mechanical properties :
#
#
# Convention : Reuss Voigt Hill
#
# Bulk Modulus (GPa) = 48.35990 83.25222 65.80606
# Shear Modulus (GPa) = 24.26264 29.55560 26.90912
#
# Velocity S-wave (km/s) = 3.67369 4.05465 3.86886
# Velocity P-wave (km/s) = 6.70035 8.26008 7.52076
#
# Compressibility (1/GPa) = 0.02067829
#
# Stress axis : x y z
#
# Youngs Moduli (GPa) = 72.04641 33.41245 83.16210
#
# Poissons Ratio (x) = 0.18322 0.61043
# Poissons Ratio (y) = 0.39506 0.39535
# Poissons Ratio (z) = 0.52884 0.15884
#
# Static dielectric constant tensor:
#      x y z
#    x 1.592970 0.000000 0.010400 
#    y 0.000000 1.613900 0.000000 
#    z 0.010400 0.000000 1.604370 
# 
# From -- ./inp_files/378222.got.cif
#   From: 2010.05.17/outbox.cif.g08.bks.cpg/sg12_190_cif.got.tgz:378222.got - 2010.06.03 13:09:07.
