data_PCOD9184196
_publ_section_title
;
Structure prediction by ZEFSAII (Michael W. Deem and Ramdas Pophale) SiO2 
 PCOD9184196
Probable space group: C 2/M
;
_chemical_formula_sum "Si O2"
_cell_formula_units_Z 56
_cell_length_a 11.826378
_cell_length_b 19.728466
_cell_length_c 14.032643
_cell_angle_alpha 90.000000
_cell_angle_beta 71.369009
_cell_angle_gamma 90.000000
_cell_volume 3102.470449
_symmetry_space_group_name_H-M "C 2/M"
_symmetry_group_IT_number 12
_symmetry_cell_setting 'monoclinic'
loop_
_space_group_symop_operation_xyz
x,y,z
-x,y,-z
-x,-y,-z
x,-y,z
1/2+x,1/2+y,z
1/2-x,1/2+y,-z
1/2-x,1/2-y,-z
1/2+x,1/2-y,z
loop_
_atom_site_type_symbol
_atom_site_label
_atom_site_fract_x
_atom_site_fract_y
_atom_site_fract_z
Si Si1 0.418381 0.785598 0.146282
Si Si2 0.616759 0.370903 0.912161
Si Si3 0.254227 0.687747 0.633774
Si Si4 0.639773 0.171797 0.458177
Si Si5 0.948048 0.921256 0.621069
Si Si6 0.821975 0.679839 0.977715
Si Si7 0.169857 0.921279 0.691306
O O1 0.409876 0.707226 0.114010
O O2 0.346446 0.793011 0.262674
O O3 0.556308 0.807514 0.113446
O O4 0.359966 0.830664 0.077175
O O5 0.731517 0.370634 0.950546
O O6 0.643973 0.411319 0.809239
O O7 0.500000 0.394530 0.000000
O O8 0.336739 0.752814 0.589059
O O9 0.194384 0.668227 0.549637
O O10 0.335047 0.627615 0.653199
O O11 0.500000 0.157055 0.500000
O O12 0.716508 0.121515 0.372218
O O13 0.000000 0.918271 0.500000
O O14 0.052953 0.897953 0.663755
O O15 0.919042 0.000000 0.649942
O O16 0.750000 0.750000 0.000000
O O17 0.187764 0.000000 0.662803
#
# Coordination Sequence:
#
# PCOD9184196 Si02
#       7
#     8   8   8   8   8   8   8
#     4  10  19  33  57  89 118 153 193 248 303 358
#     4  11  21  36  59  86 119 156 197 252 304 356
#     4  11  23  36  62  93 123 154 202 253 303 360
#     4  11  25  38  57  94 128 158 196 251 310 360
#     4  10  21  41  65  85 116 160 206 248 291 357
#     4   9  18  33  53  84 116 154 192 236 304 360
#     4  11  25  43  62  87 121 167 208 249 305 364
#
# _framework density 18.050132000000001
#
# number of rings (size 3 to 8) (size 9 to 14) (size 15 to 20)
#    0.000    1.571    5.714    0.429    6.000    0.571 
#    0.000    0.000    0.000    0.000    0.000    2.000 
#    0.000    0.000    0.000    0.000    0.000    0.000 
#
# Total GULP energy -156297.749179 kJ/mol
# GULP energy per Si atom -5582.062471 kJ/mol
# Density = 1.800905 g / cm^3
# Si number density = 18.050132 Si / 1000 Ang^3
#
#
#
# Elastic Constant Matrix: (Units=GPa)
#
#
# Indices 1 2 3 4 5 6 
#
# 1 130.4516 35.3480 41.0396 0.0000 -17.0351 0.0000
# 2 35.3480 40.2559 11.1013 0.0000 -8.4869 0.0000
# 3 41.0396 11.1013 105.0578 0.0000 -20.1047 0.0000
# 4 0.0000 0.0000 0.0000 17.1554 0.0000 3.3687
# 5 -17.0351 -8.4869 -20.1047 0.0000 27.7146 0.0000
# 6 0.0000 0.0000 0.0000 3.3687 0.0000 13.6713
#
#
#
# Elastic Compliance Matrix: (Units=1/GPa)
#
#
# Indices 1 2 3 4 5 6 
#
# 1 0.011228 -0.008578 -0.003091 0.000000 0.002032 0.000000
# 2 -0.008578 0.033301 0.000899 0.000000 0.005578 0.000000
# 3 -0.003091 0.000899 0.011984 0.000000 0.007069 0.000000
# 4 0.000000 0.000000 0.000000 0.061255 0.000000 -0.015094
# 5 0.002032 0.005578 0.007069 0.000000 0.044167 0.000000
# 6 0.000000 0.000000 0.000000 -0.015094 0.000000 0.076865
#
#
# Mechanical properties :
#
#
# Convention : Reuss Voigt Hill
#
# Bulk Modulus (GPa) = 28.59271 50.08256 39.33764
# Shear Modulus (GPa) = 18.38261 24.26001 21.32131
#
# Velocity S-wave (km/s) = 3.19473 3.67009 3.44063
# Velocity P-wave (km/s) = 5.42987 6.76506 6.13390
#
# Compressibility (1/GPa) = 0.03497395
#
# Stress axis : x y z
#
# Youngs Moduli (GPa) = 89.06494 30.02889 83.44740
#
# Poissons Ratio (x) = 0.25759 0.25790
# Poissons Ratio (y) = 0.76401 -0.07505
# Poissons Ratio (z) = 0.27526 -0.02701
#
# Static dielectric constant tensor:
#      x y z
#    x 1.615370 0.000000 0.020950 
#    y 0.000000 1.612570 0.000000 
#    z 0.020950 0.000000 1.607690 
# 
# From -- ./inp_files/206122.got.cif
#   From: 2010.05.17/outbox.cif.g08.bks.cpg/sg12_104_cif.got.tgz:206122.got - 2010.06.03 13:09:07.
