data_PCOD9184392
_publ_section_title
;
Structure prediction by ZEFSAII (Michael W. Deem and Ramdas Pophale) SiO2 
 PCOD9184392
Probable space group: C 2/M
;
_chemical_formula_sum "Si O2"
_cell_formula_units_Z 64
_cell_length_a 8.925818
_cell_length_b 30.436989
_cell_length_c 17.055889
_cell_angle_alpha 90.000000
_cell_angle_beta 41.956318
_cell_angle_gamma 90.000000
_cell_volume 3097.896904
_symmetry_space_group_name_H-M "C 2/M"
_symmetry_group_IT_number 12
_symmetry_cell_setting 'monoclinic'
loop_
_space_group_symop_operation_xyz
x,y,z
-x,y,-z
-x,-y,-z
x,-y,z
1/2+x,1/2+y,z
1/2-x,1/2+y,-z
1/2-x,1/2-y,-z
1/2+x,1/2-y,z
loop_
_atom_site_type_symbol
_atom_site_label
_atom_site_fract_x
_atom_site_fract_y
_atom_site_fract_z
Si Si1 0.977979 0.450731 0.598762
Si Si2 0.259059 0.763083 0.874421
Si Si3 0.531905 0.363170 0.678158
Si Si4 0.744611 0.377083 0.436036
Si Si5 0.559722 0.842098 0.795962
Si Si6 0.542457 0.550102 0.203073
Si Si7 0.653532 0.395530 0.011768
Si Si8 0.931562 0.813448 0.186819
O O1 0.072271 0.500000 0.563065
O O2 0.717787 0.452184 0.720718
O O3 0.000000 0.435065 0.500000
O O4 0.105985 0.419166 0.606339
O O5 0.408871 0.798936 0.861718
O O6 0.376852 0.717886 0.851674
O O7 0.240415 0.782317 0.793088
O O8 0.000000 0.762085 0.000000
O O9 0.688096 0.356652 0.542340
O O10 0.289433 0.341851 0.754901
O O11 0.469009 0.414113 0.722187
O O12 0.650225 0.342022 0.707623
O O13 0.500000 0.390004 0.500000
O O14 0.863795 0.348155 0.323838
O O15 0.397133 0.881471 0.886090
O O16 0.613788 0.500000 0.194185
O O17 0.668309 0.572059 0.080358
O O18 0.530025 0.350790 0.090394
O O19 0.500000 0.412635 0.000000
#
# Coordination Sequence:
#
# PCOD9184392 Si02
#       8
#     8   8   8   8   8   8   8   8
#     4  10  19  33  60  89 116 154 206 258 301 360
#     4  12  23  38  62  97 127 156 202 254 304 375
#     4  10  23  40  61  90 123 164 209 258 306 367
#     4  10  22  39  61  87 121 163 209 258 312 362
#     4  11  22  40  60  88 122 166 205 253 309 366
#     4  10  22  39  63  92 126 164 206 256 308 368
#     4  11  21  39  61  91 127 159 202 250 309 373
#     4  11  23  37  61  93 125 155 196 252 311 358
#
# _framework density 20.659175999999999
#
# number of rings (size 3 to 8) (size 9 to 14) (size 15 to 20)
#    0.000    1.375    3.750    1.875    3.500    2.000 
#    0.000    4.375    0.000    0.000    0.000    0.000 
#    0.000    0.000    0.000    0.000    0.000    0.000 
#
# Total GULP energy -178605.836801 kJ/mol
# GULP energy per Si atom -5581.432400 kJ/mol
# Density = 2.061215 g / cm^3
# Si number density = 20.659176 Si / 1000 Ang^3
#
#
#
# Elastic Constant Matrix: (Units=GPa)
#
#
# Indices 1 2 3 4 5 6 
#
# 1 47.4149 16.6479 9.6041 0.0000 10.4497 0.0000
# 2 16.6479 77.4610 3.0751 0.0000 1.7263 0.0000
# 3 9.6041 3.0751 78.3549 0.0000 9.6552 0.0000
# 4 0.0000 0.0000 0.0000 6.9787 0.0000 -12.1358
# 5 10.4497 1.7263 9.6552 0.0000 32.9491 0.0000
# 6 0.0000 0.0000 0.0000 -12.1358 0.0000 17.6551
#
#
#
# Elastic Compliance Matrix: (Units=1/GPa)
#
#
# Indices 1 2 3 4 5 6 
#
# 1 0.024831 -0.005102 -0.001977 0.000000 -0.007028 0.000000
# 2 -0.005102 0.013988 -0.000034 0.000000 0.000895 0.000000
# 3 -0.001977 -0.000034 0.013413 0.000000 -0.003302 0.000000
# 4 0.000000 0.000000 0.000000 -0.733575 0.000000 -0.504246
# 5 -0.007028 0.000895 -0.003302 0.000000 0.033499 0.000000
# 6 0.000000 0.000000 0.000000 -0.504246 0.000000 -0.289968
#
#
# Mechanical properties :
#
#
# Convention : Reuss Voigt Hill
#
# Bulk Modulus (GPa) = 26.31163 29.09834 27.70498
# Shear Modulus (GPa) = -5.48897 23.11017 8.81060
#
# Velocity S-wave (km/s) = -1.63177 3.34824 2.06737
# Velocity P-wave (km/s) = 3.03537 5.39102 4.37473
#
# Compressibility (1/GPa) = 0.03800601
#
# Stress axis : x y z
#
# Youngs Moduli (GPa) = 40.27203 71.49211 74.55467
#
# Poissons Ratio (x) = 0.36472 0.14742
# Poissons Ratio (y) = 0.20545 0.00253
# Poissons Ratio (z) = 0.07963 0.00243
#
# Static dielectric constant tensor:
#      x y z
#    x 1.763950 0.000000 0.031070 
#    y 0.000000 1.757170 0.000000 
#    z 0.031070 0.000000 1.760770 
# 
# From -- ./inp_files/260335.got.cif
#   From: 2010.05.17/outbox.cif.g08.bks.cpg/sg12_131_cif.got.tgz:260335.got - 2010.06.03 13:09:07.
