data_PCOD9184624
_publ_section_title
;
Structure prediction by ZEFSAII (Michael W. Deem and Ramdas Pophale) SiO2 
 PCOD9184624
Probable space group: C 2/M
;
_chemical_formula_sum "Si O2"
_cell_formula_units_Z 56
_cell_length_a 33.665105
_cell_length_b 8.180601
_cell_length_c 24.629399
_cell_angle_alpha 90.000000
_cell_angle_beta 157.303321
_cell_angle_gamma 90.000000
_cell_volume 2617.220992
_symmetry_space_group_name_H-M "C 2/M"
_symmetry_group_IT_number 12
_symmetry_cell_setting 'monoclinic'
loop_
_space_group_symop_operation_xyz
x,y,z
-x,y,-z
-x,-y,-z
x,-y,z
1/2+x,1/2+y,z
1/2-x,1/2+y,-z
1/2-x,1/2-y,-z
1/2+x,1/2-y,z
loop_
_atom_site_type_symbol
_atom_site_label
_atom_site_fract_x
_atom_site_fract_y
_atom_site_fract_z
Si Si1 0.804235 0.691465 0.896120
Si Si2 0.639506 0.195970 0.337704
Si Si3 0.284874 0.804799 0.680574
Si Si4 0.052773 0.803280 0.403520
Si Si5 0.092834 0.199109 0.576235
Si Si6 0.416401 0.689661 0.936813
Si Si7 0.553838 0.306361 0.834484
O O1 0.789041 0.500000 0.882999
O O2 0.699026 0.760919 0.737436
O O3 0.893470 0.722550 0.964038
O O4 0.845277 0.754030 0.005350
O O5 0.750000 0.250000 0.500000
O O6 0.644755 0.248028 0.281115
O O7 0.544849 0.263111 0.252614
O O8 0.634299 0.000000 0.331933
O O9 0.164806 0.778169 0.517475
O O10 0.314277 0.709873 0.771693
O O11 0.297633 0.000000 0.706132
O O12 0.063729 0.741145 0.478991
O O13 0.969117 0.738494 0.255012
O O14 0.037670 0.000000 0.388984
O O15 0.000000 0.232691 0.500000
O O16 0.104022 0.000000 0.585530
O O17 0.439911 0.500000 0.976750
O O18 0.500000 0.760415 0.000000
O O19 0.557232 0.500000 0.834099
#
# Coordination Sequence:
#
# PCOD9184624 Si02
#       7
#     8   8   8   8   8   8   8
#     4  11  22  38  60  87 119 152 194 245 296 354
#     4  11  21  33  51  78 115 159 206 247 287 339
#     4  10  19  34  53  76 107 148 197 241 284 335
#     4   9  17  34  57  82 111 147 188 232 287 344
#     4   9  18  36  65  93 112 141 193 249 295 351
#     4  11  23  36  52  79 115 155 197 239 287 343
#     4  11  22  37  56  81 120 160 196 239 291 351
#
# _framework density 21.396740999999999
#
# number of rings (size 3 to 8) (size 9 to 14) (size 15 to 20)
#    0.000    1.714    2.857    2.571    0.000    4.571 
#    0.000    0.714    0.000    1.714    0.000    0.000 
#    0.000    0.000    0.000    0.000    0.000    0.000 
#
# Total GULP energy -156290.828303 kJ/mol
# GULP energy per Si atom -5581.815297 kJ/mol
# Density = 2.134804 g / cm^3
# Si number density = 21.396741 Si / 1000 Ang^3
#
#
#
# Elastic Constant Matrix: (Units=GPa)
#
#
# Indices 1 2 3 4 5 6 
#
# 1 93.0930 5.6040 70.0922 0.0000 -25.9691 0.0000
# 2 5.6040 20.0050 16.8882 0.0000 -6.4903 0.0000
# 3 70.0922 16.8882 150.4070 0.0000 -40.0301 0.0000
# 4 0.0000 0.0000 0.0000 28.1853 0.0000 -6.2617
# 5 -25.9691 -6.4903 -40.0301 0.0000 32.9480 0.0000
# 6 0.0000 0.0000 0.0000 -6.2617 0.0000 8.7458
#
#
#
# Elastic Compliance Matrix: (Units=1/GPa)
#
#
# Indices 1 2 3 4 5 6 
#
# 1 0.017375 0.002830 -0.006830 0.000000 0.005954 0.000000
# 2 0.002830 0.056233 -0.006046 0.000000 0.005962 0.000000
# 3 -0.006830 -0.006046 0.012947 0.000000 0.009156 0.000000
# 4 0.000000 0.000000 0.000000 0.042190 0.000000 0.030207
# 5 0.005954 0.005962 0.009156 0.000000 0.047342 0.000000
# 6 0.000000 0.000000 0.000000 0.030207 0.000000 0.135967
#
#
# Mechanical properties :
#
#
# Convention : Reuss Voigt Hill
#
# Bulk Modulus (GPa) = 15.04588 49.85263 32.44926
# Shear Modulus (GPa) = 14.11225 25.37053 19.74139
#
# Velocity S-wave (km/s) = 2.57096 3.44716 3.04079
# Velocity P-wave (km/s) = 3.98249 6.26048 5.24661
#
# Compressibility (1/GPa) = 0.06646338
#
# Stress axis : x y z
#
# Youngs Moduli (GPa) = 57.55329 17.78310 77.23600
#
# Poissons Ratio (x) = -0.05033 0.52755
# Poissons Ratio (y) = -0.16290 0.46699
# Poissons Ratio (z) = 0.39311 0.10752
#
# Static dielectric constant tensor:
#      x y z
#    x 1.764570 0.000000 -0.027030 
#    y 0.000000 1.751000 0.000000 
#    z -0.027030 0.000000 1.864800 
# 
# From -- ./inp_files/329683.got.cif
#   From: 2010.05.17/outbox.cif.g08.bks.cpg/sg12_165_cif.got.tgz:329683.got - 2010.06.03 13:09:07.
