data_PCOD9184872
_publ_section_title
;
Structure prediction by ZEFSAII (Michael W. Deem and Ramdas Pophale) SiO2 
 PCOD9184872
Probable space group: C 2/M
;
_chemical_formula_sum "Si O2"
_cell_formula_units_Z 56
_cell_length_a 19.653886
_cell_length_b 8.178840
_cell_length_c 26.562464
_cell_angle_alpha 90.000000
_cell_angle_beta 39.724674
_cell_angle_gamma 90.000000
_cell_volume 2728.831414
_symmetry_space_group_name_H-M "C 2/M"
_symmetry_group_IT_number 12
_symmetry_cell_setting 'monoclinic'
loop_
_space_group_symop_operation_xyz
x,y,z
-x,y,-z
-x,-y,-z
x,-y,z
1/2+x,1/2+y,z
1/2-x,1/2+y,-z
1/2-x,1/2-y,-z
1/2+x,1/2-y,z
loop_
_atom_site_type_symbol
_atom_site_label
_atom_site_fract_x
_atom_site_fract_y
_atom_site_fract_z
Si Si1 0.863376 0.695557 0.414903
Si Si2 0.962288 0.190614 0.075738
Si Si3 0.828760 0.687702 0.998526
Si Si4 0.708612 0.805691 0.750883
Si Si5 0.655375 0.192509 0.164735
Si Si6 0.425151 0.199600 0.267254
Si Si7 0.086962 0.804308 0.313268
O O1 0.869076 0.500000 0.411657
O O2 0.750000 0.750000 0.500000
O O3 0.881397 0.751719 0.346760
O O4 0.963441 0.761146 0.389903
O O5 0.862141 0.272979 0.159379
O O6 0.936365 0.000000 0.083559
O O7 0.000000 0.257579 0.000000
O O8 0.063516 0.212716 0.054737
O O9 0.857575 0.500000 0.972882
O O10 0.757698 0.708749 0.089076
O O11 0.750000 0.750000 0.000000
O O12 0.645755 0.737760 0.738394
O O13 0.828848 0.748380 0.692508
O O14 0.714025 0.000000 0.740225
O O15 0.549805 0.244397 0.193834
O O16 0.624304 0.221353 0.240035
O O17 0.675863 0.000000 0.144484
O O18 0.424478 0.000000 0.267193
O O19 0.096190 0.000000 0.302355
#
# Coordination Sequence:
#
# PCOD9184872 Si02
#       7
#     8   8   8   8   8   8   8
#     4  10  20  37  61  85 112 143 178 222 270 327
#     4  11  24  39  55  78 111 151 193 238 289 339
#     4  12  24  37  54  77 107 143 188 240 291 340
#     4  10  20  36  57  80 108 143 186 231 275 329
#     4  10  19  34  55  77 105 142 185 231 277 328
#     4   8  17  34  56  80 105 139 179 221 269 320
#     4  10  20  34  56  84 111 142 179 219 268 329
#
# _framework density 20.521604
#
# number of rings (size 3 to 8) (size 9 to 14) (size 15 to 20)
#    0.000    1.857    0.000    5.571    0.000    5.714 
#    0.000    4.286    0.000    4.286    0.000    0.000 
#    0.000    0.000    0.000    0.000    0.000    0.000 
#
# Total GULP energy -156440.078282 kJ/mol
# GULP energy per Si atom -5587.145653 kJ/mol
# Density = 2.047490 g / cm^3
# Si number density = 20.521604 Si / 1000 Ang^3
#
#
#
# Elastic Constant Matrix: (Units=GPa)
#
#
# Indices 1 2 3 4 5 6 
#
# 1 118.8908 6.5825 27.4949 -0.0002 -27.6617 0.0003
# 2 6.5825 21.9164 -6.2023 -0.0002 0.1822 0.0005
# 3 27.4949 -6.2023 80.7528 -0.0001 -24.9383 0.0002
# 4 -0.0002 -0.0002 -0.0001 28.0176 0.0000 -1.7120
# 5 -27.6617 0.1822 -24.9383 0.0000 30.0407 -0.0002
# 6 0.0003 0.0005 0.0002 -1.7120 -0.0002 20.4081
#
#
#
# Elastic Compliance Matrix: (Units=1/GPa)
#
#
# Indices 1 2 3 4 5 6 
#
# 1 0.011033 -0.003732 -0.001209 0.000000 0.009178 0.000000
# 2 -0.003732 0.048198 0.005138 0.000000 0.000537 -0.000001
# 3 -0.001209 0.005138 0.017262 0.000000 0.013186 0.000000
# 4 0.000000 0.000000 0.000000 0.035876 0.000000 0.003010
# 5 0.009178 0.000537 0.013186 0.000000 0.052682 0.000000
# 6 0.000000 -0.000001 0.000000 0.003010 0.000000 0.049253
#
#
# Mechanical properties :
#
#
# Convention : Reuss Voigt Hill
#
# Bulk Modulus (GPa) = 13.00584 30.81224 21.90904
# Shear Modulus (GPa) = 20.87358 28.60563 24.73960
#
# Velocity S-wave (km/s) = 3.19274 3.73758 3.47585
# Velocity P-wave (km/s) = 4.46574 5.80286 5.17765
#
# Compressibility (1/GPa) = 0.07688851
#
# Stress axis : x y z
#
# Youngs Moduli (GPa) = 90.63997 20.74758 57.93171
#
# Poissons Ratio (x) = 0.07743 0.07002
# Poissons Ratio (y) = 0.33826 -0.29768
# Poissons Ratio (z) = 0.10955 -0.10661
#
# Static dielectric constant tensor:
#      x y z
#    x 1.787450 0.000000 0.007140 
#    y 0.000000 1.725910 0.000000 
#    z 0.007140 0.000000 1.710830 
# 
# From -- ./inp_files/363019.got.cif
#   From: 2010.05.17/outbox.cif.g08.bks.cpg/sg12_182_cif.got.tgz:363019.got - 2010.06.03 13:09:07.
