data_PCOD9184362
_publ_section_title
;
Structure prediction by ZEFSAII (Michael W. Deem and Ramdas Pophale) SiO2 
 PCOD9184362
Probable space group: C 2/M
;
_chemical_formula_sum "Si O2"
_cell_formula_units_Z 64
_cell_length_a 9.030724
_cell_length_b 16.111319
_cell_length_c 23.073274
_cell_angle_alpha 90.000000
_cell_angle_beta 93.761534
_cell_angle_gamma 90.000000
_cell_volume 3349.857213
_symmetry_space_group_name_H-M "C 2/M"
_symmetry_group_IT_number 12
_symmetry_cell_setting 'monoclinic'
loop_
_space_group_symop_operation_xyz
x,y,z
-x,y,-z
-x,-y,-z
x,-y,z
1/2+x,1/2+y,z
1/2-x,1/2+y,-z
1/2-x,1/2-y,-z
1/2+x,1/2-y,z
loop_
_atom_site_type_symbol
_atom_site_label
_atom_site_fract_x
_atom_site_fract_y
_atom_site_fract_z
Si Si1 0.756792 0.408545 0.607666
Si Si2 0.158133 0.738372 0.773770
Si Si3 0.581032 0.317852 0.147325
Si Si4 0.673742 0.339075 0.488482
Si Si5 0.410874 0.403017 0.636896
Si Si6 0.082862 0.906913 0.945925
Si Si7 0.357564 0.800469 0.959287
Si Si8 0.892397 0.276719 0.692574
O O1 0.814325 0.500000 0.624885
O O2 0.745592 0.398430 0.538407
O O3 0.587028 0.402226 0.626399
O O4 0.848631 0.332778 0.637131
O O5 0.262764 0.680049 0.815535
O O6 0.273504 0.793358 0.740275
O O7 0.047084 0.789221 0.811968
O O8 0.051741 0.699374 0.722485
O O9 0.526530 0.397643 0.111114
O O10 0.592767 0.250132 0.095986
O O11 0.500000 0.330075 0.500000
O O12 0.750000 0.250000 0.500000
O O13 0.676382 0.377312 0.424203
O O14 0.376325 0.500000 0.652838
O O15 0.388778 0.322623 0.678297
O O16 0.241202 0.868736 0.935171
O O17 0.112790 0.000000 0.963164
O O18 0.000000 0.867759 0.000000
O O19 0.500000 0.828761 0.000000
O O20 0.250000 0.750000 0.000000
#
# Coordination Sequence:
#
# PCOD9184362 Si02
#       8
#     8   8   8   8   8   8   8   8
#     4  10  20  36  60  86 117 152 190 240 300 364
#     4  10  23  35  62  83 111 153 207 243 286 328
#     4  11  19  39  61  88 112 157 195 242 276 351
#     4  10  19  33  59  89 116 148 187 238 299 367
#     4  10  20  36  61  87 115 153 196 237 298 371
#     4  11  23  38  59  94 129 153 184 242 301 349
#     4  12  19  34  65  94 115 153 200 229 282 364
#     4  11  20  39  58  86 112 154 201 255 290 347
#
# _framework density 19.105291000000001
#
# number of rings (size 3 to 8) (size 9 to 14) (size 15 to 20)
#    0.000    1.375    6.250    0.375    0.000    1.750 
#    0.000    4.375    0.000    1.500    0.000    0.000 
#    0.000    0.000    0.000    0.000    0.000    0.000 
#
# Total GULP energy -178249.109947 kJ/mol
# GULP energy per Si atom -5570.284686 kJ/mol
# Density = 1.906181 g / cm^3
# Si number density = 19.105291 Si / 1000 Ang^3
#
#
#
# Elastic Constant Matrix: (Units=GPa)
#
#
# Indices 1 2 3 4 5 6 
#
# 1 80.6127 14.7929 27.3516 0.0000 22.5097 0.0000
# 2 14.7929 85.6773 16.5244 0.0000 6.3420 0.0000
# 3 27.3516 16.5244 82.0140 0.0000 18.6664 0.0000
# 4 0.0000 0.0000 0.0000 11.2091 0.0000 0.1686
# 5 22.5097 6.3420 18.6664 0.0000 40.2504 0.0000
# 6 0.0000 0.0000 0.0000 0.1686 0.0000 15.4251
#
#
#
# Elastic Compliance Matrix: (Units=1/GPa)
#
#
# Indices 1 2 3 4 5 6 
#
# 1 0.015792 -0.001560 -0.003352 0.000000 -0.007031 0.000000
# 2 -0.001560 0.012325 -0.001923 0.000000 -0.000178 0.000000
# 3 -0.003352 -0.001923 0.014761 0.000000 -0.004668 0.000000
# 4 0.000000 0.000000 0.000000 0.089228 0.000000 -0.000975
# 5 -0.007031 -0.000178 -0.004668 0.000000 0.030969 0.000000
# 6 0.000000 0.000000 0.000000 -0.000975 0.000000 0.064840
#
#
# Mechanical properties :
#
#
# Convention : Reuss Voigt Hill
#
# Bulk Modulus (GPa) = 34.23597 40.62685 37.43141
# Shear Modulus (GPa) = 19.89498 26.01927 22.95712
#
# Velocity S-wave (km/s) = 3.23047 3.69438 3.47019
# Velocity P-wave (km/s) = 5.64563 6.28560 5.97419
#
# Compressibility (1/GPa) = 0.02920905
#
# Stress axis : x y z
#
# Youngs Moduli (GPa) = 63.32375 81.13609 67.74740
#
# Poissons Ratio (x) = 0.12654 0.22709
# Poissons Ratio (y) = 0.09876 0.13025
# Poissons Ratio (z) = 0.21226 0.15599
#
# Static dielectric constant tensor:
#      x y z
#    x 1.689950 0.000000 0.011650 
#    y 0.000000 1.687030 0.000000 
#    z 0.011650 0.000000 1.696180 
# 
# From -- ./inp_files/332933.got.cif
#   From: 2010.05.17/outbox.cif.g08.bks.cpg/sg12_167_cif.got.tgz:332933.got - 2010.06.03 13:09:07.
