data_PCOD9184232
_publ_section_title
;
Structure prediction by ZEFSAII (Michael W. Deem and Ramdas Pophale) SiO2 
 PCOD9184232
Probable space group: C 2/M
;
_chemical_formula_sum "Si O2"
_cell_formula_units_Z 48
_cell_length_a 17.421097
_cell_length_b 17.601309
_cell_length_c 6.976138
_cell_angle_alpha 90.000000
_cell_angle_beta 115.983053
_cell_angle_gamma 90.000000
_cell_volume 1922.907285
_symmetry_space_group_name_H-M "C 2/M"
_symmetry_group_IT_number 12
_symmetry_cell_setting 'monoclinic'
loop_
_space_group_symop_operation_xyz
x,y,z
-x,y,-z
-x,-y,-z
x,-y,z
1/2+x,1/2+y,z
1/2-x,1/2+y,-z
1/2-x,1/2-y,-z
1/2+x,1/2-y,z
loop_
_atom_site_type_symbol
_atom_site_label
_atom_site_fract_x
_atom_site_fract_y
_atom_site_fract_z
Si Si1 0.018279 0.360592 0.249483
Si Si2 0.022961 0.808359 0.796351
Si Si3 0.152370 0.586309 0.945175
Si Si4 0.294522 0.828215 0.638120
Si Si5 0.374774 0.416177 0.589744
Si Si6 0.334180 0.583207 0.992318
O O1 0.987585 0.277199 0.273355
O O2 0.121120 0.356689 0.385278
O O3 0.941595 0.410764 0.251304
O O4 0.000000 0.375706 0.000000
O O5 0.948799 0.858330 0.623827
O O6 0.113462 0.847850 0.860877
O O7 0.000000 0.806776 0.000000
O O8 0.158451 0.500000 0.041879
O O9 0.167839 0.659903 0.103704
O O10 0.232951 0.591688 0.892372
O O11 0.250000 0.750000 0.500000
O O12 0.217448 0.887174 0.569690
O O13 0.395351 0.500000 0.546659
O O14 0.366159 0.418242 0.810377
O O15 0.355639 0.500000 0.097595
#
# Coordination Sequence:
#
# PCOD9184232 Si02
#       6
#     8   8   8   8   8   8
#     4   9  19  34  56  80 108 146 188 233 278 332
#     4   9  16  31  54  82 110 144 184 230 274 335
#     4  10  22  39  59  84 113 150 194 235 279 337
#     4  11  21  37  57  82 114 146 184 239 285 336
#     4  10  19  33  58  84 110 148 189 233 286 339
#     4   9  19  35  56  83 113 146 188 233 278 336
#
# _framework density 24.962199999999999
#
# number of rings (size 3 to 8) (size 9 to 14) (size 15 to 20)
#    0.000    2.333    1.667    1.000    2.333    6.333 
#    0.000    1.667    0.000    6.000    0.000    0.000 
#    0.000    0.000    0.000    0.000    0.000    0.000 
#
# Total GULP energy -133741.594861 kJ/mol
# GULP energy per Si atom -5572.566453 kJ/mol
# Density = 2.490539 g / cm^3
# Si number density = 24.962200 Si / 1000 Ang^3
#
#
#
# Elastic Constant Matrix: (Units=GPa)
#
#
# Indices 1 2 3 4 5 6 
#
# 1 127.1331 50.8523 22.2885 0.0000 30.9992 0.0000
# 2 50.8523 80.2185 7.4810 0.0000 26.6097 0.0000
# 3 22.2885 7.4810 83.5920 0.0000 6.7482 0.0000
# 4 0.0000 0.0000 0.0000 5.3501 0.0000 20.3418
# 5 30.9992 26.6097 6.7482 0.0000 53.9754 0.0000
# 6 0.0000 0.0000 0.0000 20.3418 0.0000 35.3115
#
#
#
# Elastic Compliance Matrix: (Units=1/GPa)
#
#
# Indices 1 2 3 4 5 6 
#
# 1 0.011456 -0.005934 -0.002251 0.000000 -0.003373 0.000000
# 2 -0.005934 0.018023 0.000416 0.000000 -0.005529 0.000000
# 3 -0.002251 0.000416 0.012565 0.000000 -0.000483 0.000000
# 4 0.000000 0.000000 0.000000 -0.157033 0.000000 0.090461
# 5 -0.003373 -0.005529 -0.000483 0.000000 0.023250 0.000000
# 6 0.000000 0.000000 0.000000 0.090461 0.000000 -0.023792
#
#
# Mechanical properties :
#
#
# Convention : Reuss Voigt Hill
#
# Bulk Modulus (GPa) = 37.72840 50.24303 43.98572
# Shear Modulus (GPa) = -54.85030 32.94886 -10.95072
#
# Velocity S-wave (km/s) = -4.69266 3.63705 -2.09677
# Velocity P-wave (km/s) = 3.77019 6.14889 3.43471
#
# Compressibility (1/GPa) = 0.02650523
#
# Stress axis : x y z
#
# Youngs Moduli (GPa) = 87.28835 55.48521 79.58655
#
# Poissons Ratio (x) = 0.32923 0.17918
# Poissons Ratio (y) = 0.51794 -0.03307
# Poissons Ratio (z) = 0.19651 -0.02306
#
# Static dielectric constant tensor:
#      x y z
#    x 2.002450 0.000000 -0.050160 
#    y 0.000000 1.964910 0.000000 
#    z -0.050160 0.000000 2.204890 
# 
# From -- ./inp_files/75427.got.cif
#   From: 2010.05.17/outbox.cif.g08.bks.cpg/sg12_38_cif.got.tgz:75427.got - 2010.06.03 13:09:07.
