data_PCOD9184458
_publ_section_title
;
Structure prediction by ZEFSAII (Michael W. Deem and Ramdas Pophale) SiO2 
 PCOD9184458
Probable space group: C 2/M
;
_chemical_formula_sum "Si O2"
_cell_formula_units_Z 44
_cell_length_a 5.219698
_cell_length_b 30.713082
_cell_length_c 19.897616
_cell_angle_alpha 90.000000
_cell_angle_beta 59.996928
_cell_angle_gamma 90.000000
_cell_volume 2762.402816
_symmetry_space_group_name_H-M "C 2/M"
_symmetry_group_IT_number 12
_symmetry_cell_setting 'monoclinic'
loop_
_space_group_symop_operation_xyz
x,y,z
-x,y,-z
-x,-y,-z
x,-y,z
1/2+x,1/2+y,z
1/2-x,1/2+y,-z
1/2-x,1/2-y,-z
1/2+x,1/2-y,z
loop_
_atom_site_type_symbol
_atom_site_label
_atom_site_fract_x
_atom_site_fract_y
_atom_site_fract_z
Si Si1 0.220727 0.552784 0.412820
Si Si2 0.769701 0.870955 0.914669
Si Si3 0.090532 0.586216 0.148622
Si Si4 0.351494 0.000000 0.946191
Si Si5 0.897818 0.230998 0.911990
Si Si6 0.402598 0.947249 0.318043
O O1 0.207572 0.500000 0.416013
O O2 0.562302 0.564134 0.378606
O O3 0.000000 0.568565 0.500000
O O4 0.106502 0.565574 0.354118
O O5 0.636361 0.881144 0.858704
O O6 0.836259 0.819882 0.914970
O O7 0.071019 0.896356 0.893727
O O8 0.500000 0.882765 0.000000
O O9 0.066032 0.542549 0.107259
O O10 0.000346 0.574736 0.236118
O O11 0.500000 0.000000 0.000000
O O12 0.000000 0.000000 0.000000
O O13 0.738477 0.257168 0.874041
O O14 0.750000 0.250000 0.000000
O O15 0.421134 0.000000 0.307482
#
# Coordination Sequence:
#
# PCOD9184458 Si02
#       6
#     8   8   8   4   8   8
#     4   9  17  29  51  75  91 116 163 213 248 287
#     4  12  23  35  53  74  95 122 174 229 249 298
#     4  12  24  36  50  70  97 137 175 210 268 283
#     4  12  24  40  48  62  89 134 187 228 246 272
#     4  10  19  34  54  73  93 113 150 210 268 321
#     4  10  19  34  49  65  99 133 164 204 251 304
#
# _framework density 15.928164000000001
#
# number of rings (size 3 to 8) (size 9 to 14) (size 15 to 20)
#    0.000    1.273    2.727    6.000    2.545    2.182 
#    0.000    0.000    0.000    0.000    0.000    0.000 
#    0.000    0.000    0.000    0.000    0.000  229.091 
#
# Total GULP energy -122784.164576 kJ/mol
# GULP energy per Si atom -5581.098390 kJ/mol
# Density = 1.589191 g / cm^3
# Si number density = 15.928164 Si / 1000 Ang^3
#
#
#
# Elastic Constant Matrix: (Units=GPa)
#
#
# Indices 1 2 3 4 5 6 
#
# 1 103.8246 22.9612 -3.2866 0.0000 2.3509 0.0000
# 2 22.9612 67.0363 18.9099 0.0000 -0.9462 0.0000
# 3 -3.2866 18.9099 40.9216 0.0000 4.3150 0.0000
# 4 0.0000 0.0000 0.0000 7.8000 0.0000 5.9704
# 5 2.3509 -0.9462 4.3150 0.0000 22.3239 0.0000
# 6 0.0000 0.0000 0.0000 5.9704 0.0000 24.9174
#
#
#
# Elastic Compliance Matrix: (Units=1/GPa)
#
#
# Indices 1 2 3 4 5 6 
#
# 1 0.010803 -0.004635 0.003216 0.000000 -0.001956 0.000000
# 2 -0.004635 0.019259 -0.009605 0.000000 0.003161 0.000000
# 3 0.003216 -0.009605 0.029820 0.000000 -0.006510 0.000000
# 4 0.000000 0.000000 0.000000 0.157000 0.000000 -0.037618
# 5 -0.001956 0.003161 -0.006510 0.000000 0.046393 0.000000
# 6 0.000000 0.000000 0.000000 -0.037618 0.000000 0.049146
#
#
# Mechanical properties :
#
#
# Convention : Reuss Voigt Hill
#
# Bulk Modulus (GPa) = 26.43188 32.10572 29.26880
# Shear Modulus (GPa) = 14.40587 22.55478 18.48033
#
# Velocity S-wave (km/s) = 3.01063 3.76710 3.40991
# Velocity P-wave (km/s) = 5.35870 6.25474 5.82398
#
# Compressibility (1/GPa) = 0.03783311
#
# Stress axis : x y z
#
# Youngs Moduli (GPa) = 92.56949 51.92418 33.53437
#
# Poissons Ratio (x) = 0.24066 -0.10783
# Poissons Ratio (y) = 0.42904 0.32210
# Poissons Ratio (z) = -0.29766 0.49874
#
# Static dielectric constant tensor:
#      x y z
#    x 1.588310 0.000000 0.002900 
#    y 0.000000 1.532620 0.000000 
#    z 0.002900 0.000000 1.506640 
# 
# From -- ./inp_files/191970.got.cif
#   From: 2010.05.17/outbox.cif.g08.bks.cpg/sg12_96_cif.got.tgz:191970.got - 2010.06.03 13:09:07.
