data_PCOD9184221
_publ_section_title
;
Structure prediction by ZEFSAII (Michael W. Deem and Ramdas Pophale) SiO2 
 PCOD9184221
Probable space group: C 2/M
;
_chemical_formula_sum "Si O2"
_cell_formula_units_Z 56
_cell_length_a 20.965788
_cell_length_b 29.191080
_cell_length_c 8.957244
_cell_angle_alpha 90.000000
_cell_angle_beta 153.181835
_cell_angle_gamma 90.000000
_cell_volume 2473.243234
_symmetry_space_group_name_H-M "C 2/M"
_symmetry_group_IT_number 12
_symmetry_cell_setting 'monoclinic'
loop_
_space_group_symop_operation_xyz
x,y,z
-x,y,-z
-x,-y,-z
x,-y,z
1/2+x,1/2+y,z
1/2-x,1/2+y,-z
1/2-x,1/2-y,-z
1/2+x,1/2-y,z
loop_
_atom_site_type_symbol
_atom_site_label
_atom_site_fract_x
_atom_site_fract_y
_atom_site_fract_z
Si Si1 0.748783 0.553020 0.710463
Si Si2 0.585299 0.049800 0.370862
Si Si3 0.343913 0.207378 0.752132
Si Si4 0.126811 0.742205 0.862831
Si Si5 0.602324 0.347399 0.849777
Si Si6 0.339551 0.899332 0.193784
Si Si7 0.204273 0.886071 0.354097
O O1 0.705266 0.500000 0.640996
O O2 0.666182 0.579071 0.406775
O O3 0.754208 0.583180 0.872029
O O4 0.916543 0.552371 0.018493
O O5 0.640127 0.057275 0.653597
O O6 0.660484 0.089721 0.439327
O O7 0.629233 0.000000 0.405234
O O8 0.250000 0.250000 0.500000
O O9 0.260724 0.161481 0.536859
O O10 0.500000 0.208073 0.000000
O O11 0.349134 0.211527 0.942387
O O12 0.086963 0.793103 0.840663
O O13 0.000000 0.723758 0.500000
O O14 0.250000 0.750000 0.000000
O O15 0.500000 0.360894 0.500000
O O16 0.755813 0.359822 0.104142
O O17 0.596078 0.374004 0.993968
O O18 0.500000 0.884736 0.500000
#
# Coordination Sequence:
#
# PCOD9184221 Si02
#       7
#     8   8   8   8   8   8   8
#     4  10  19  33  57  96 132 162 206 267 328 383
#     4   9  17  33  58  90 132 170 204 256 324 391
#     4  12  25  45  68  99 137 172 219 279 331 387
#     4  11  25  45  68  95 129 175 221 271 331 395
#     4  10  23  44  62  86 123 170 221 259 320 395
#     4   9  19  35  62  94 126 164 213 264 316 378
#     4  11  22  38  61  93 127 168 215 265 325 387
#
# _framework density 22.642333000000001
#
# number of rings (size 3 to 8) (size 9 to 14) (size 15 to 20)
#    0.000    1.714    1.429    3.000    2.000    3.429 
#    0.000    0.714    0.000   16.286    0.000    0.000 
#    0.000    0.000    0.000    0.000    0.000    0.000 
#
# Total GULP energy -156493.599173 kJ/mol
# GULP energy per Si atom -5589.057113 kJ/mol
# Density = 2.259080 g / cm^3
# Si number density = 22.642333 Si / 1000 Ang^3
#
#
#
# Elastic Constant Matrix: (Units=GPa)
#
#
# Indices 1 2 3 4 5 6 
#
# 1 90.0799 17.7372 44.0259 0.0000 -27.3440 0.0000
# 2 17.7372 119.3778 22.7063 0.0000 -17.8584 0.0000
# 3 44.0259 22.7063 98.3830 0.0000 -38.3514 0.0000
# 4 0.0000 0.0000 0.0000 15.4128 0.0000 -10.8215
# 5 -27.3440 -17.8584 -38.3514 0.0000 52.9530 0.0000
# 6 0.0000 0.0000 0.0000 -10.8215 0.0000 24.7752
#
#
#
# Elastic Compliance Matrix: (Units=1/GPa)
#
#
# Indices 1 2 3 4 5 6 
#
# 1 0.014834 -0.000684 -0.004994 0.000000 0.003812 0.000000
# 2 -0.000684 0.008960 -0.001006 0.000000 0.001940 0.000000
# 3 -0.004994 -0.001006 0.016015 0.000000 0.008681 0.000000
# 4 0.000000 0.000000 0.000000 0.093580 0.000000 0.040875
# 5 0.003812 0.001940 0.008681 0.000000 0.027795 0.000000
# 6 0.000000 0.000000 0.000000 0.040875 0.000000 0.058217
#
#
# Mechanical properties :
#
#
# Convention : Reuss Voigt Hill
#
# Bulk Modulus (GPa) = 37.81828 52.97551 45.39690
# Shear Modulus (GPa) = 20.69689 33.51960 27.10825
#
# Velocity S-wave (km/s) = 3.02665 3.85176 3.46387
# Velocity P-wave (km/s) = 5.38079 6.57487 6.00757
#
# Compressibility (1/GPa) = 0.02644224
#
# Stress axis : x y z
#
# Youngs Moduli (GPa) = 67.41245 111.60844 62.43991
#
# Poissons Ratio (x) = 0.07632 0.31184
# Poissons Ratio (y) = 0.04610 0.06278
# Poissons Ratio (z) = 0.33667 0.11222
#
# Static dielectric constant tensor:
#      x y z
#    x 1.857200 0.000000 -0.041570 
#    y 0.000000 1.798220 0.000000 
#    z -0.041570 0.000000 1.838910 
# 
# From -- ./inp_files/91615.got.cif
#   From: 2010.05.17/outbox.cif.g08.bks.cpg/sg12_46_cif.got.tgz:91615.got - 2010.06.03 13:09:07.
