data_PCOD9184444
_publ_section_title
;
Structure prediction by ZEFSAII (Michael W. Deem and Ramdas Pophale) SiO2 
 PCOD9184444
Probable space group: C 2/M
;
_chemical_formula_sum "Si O2"
_cell_formula_units_Z 56
_cell_length_a 14.864596
_cell_length_b 24.145975
_cell_length_c 14.212366
_cell_angle_alpha 90.000000
_cell_angle_beta 143.790936
_cell_angle_gamma 90.000000
_cell_volume 3013.392524
_symmetry_space_group_name_H-M "C 2/M"
_symmetry_group_IT_number 12
_symmetry_cell_setting 'monoclinic'
loop_
_space_group_symop_operation_xyz
x,y,z
-x,y,-z
-x,-y,-z
x,-y,z
1/2+x,1/2+y,z
1/2-x,1/2+y,-z
1/2-x,1/2-y,-z
1/2+x,1/2-y,z
loop_
_atom_site_type_symbol
_atom_site_label
_atom_site_fract_x
_atom_site_fract_y
_atom_site_fract_z
Si Si1 0.049166 0.275792 0.807515
Si Si2 0.166353 0.065556 0.178264
Si Si3 0.988262 0.826898 0.337475
Si Si4 0.267463 0.372977 0.580062
Si Si5 0.557101 0.861713 0.655355
Si Si6 0.245652 0.246969 0.637785
Si Si7 0.662618 0.186338 0.104349
O O1 0.059093 0.211278 0.791387
O O2 0.098780 0.311008 0.759021
O O3 0.868848 0.284046 0.675355
O O4 0.128545 0.291928 0.971171
O O5 0.172255 0.085436 0.290597
O O6 0.300707 0.098178 0.238545
O O7 0.190249 0.000000 0.190211
O O8 0.000000 0.079901 0.000000
O O9 0.825556 0.845853 0.241679
O O10 0.113310 0.869798 0.404896
O O11 0.085791 0.783176 0.482612
O O12 0.090053 0.388293 0.417100
O O13 0.255988 0.310961 0.617238
O O14 0.500000 0.847482 0.500000
O O15 0.302578 0.235311 0.791266
O O16 0.500000 0.160246 0.000000
#
# Coordination Sequence:
#
# PCOD9184444 Si02
#       7
#     8   8   8   8   8   8   8
#     4  10  19  34  46  76 106 140 190 231 261 326
#     4  10  24  40  55  79 112 142 185 237 284 332
#     4  11  19  32  52  73 111 147 191 225 266 325
#     4  10  20  34  56  79 100 148 193 223 274 328
#     4  10  20  34  57  75 102 144 183 222 275 324
#     4  10  19  35  51  74 112 153 185 224 270 323
#     4  10  23  31  44  71 111 146 183 223 267 311
#
# _framework density 18.583707
#
# number of rings (size 3 to 8) (size 9 to 14) (size 15 to 20)
#    0.000    1.857    2.857    1.714    6.000    5.429 
#    0.000    0.000    0.000    0.000    0.000    0.000 
#    0.000   13.714    0.000    0.000    0.000    0.000 
#
# Total GULP energy -155911.357323 kJ/mol
# GULP energy per Si atom -5568.262762 kJ/mol
# Density = 1.854141 g / cm^3
# Si number density = 18.583707 Si / 1000 Ang^3
#
#
#
# Elastic Constant Matrix: (Units=GPa)
#
#
# Indices 1 2 3 4 5 6 
#
# 1 116.5881 23.6766 49.5425 0.0000 32.8103 0.0000
# 2 23.6766 19.3532 24.3398 0.0000 6.1371 0.0000
# 3 49.5425 24.3398 85.1166 0.0000 24.2088 0.0000
# 4 0.0000 0.0000 0.0000 16.9145 0.0000 4.7566
# 5 32.8103 6.1371 24.2088 0.0000 44.4567 0.0000
# 6 0.0000 0.0000 0.0000 4.7566 0.0000 15.6739
#
#
#
# Elastic Compliance Matrix: (Units=1/GPa)
#
#
# Indices 1 2 3 4 5 6 
#
# 1 0.014184 -0.011346 -0.002934 0.000000 -0.007304 0.000000
# 2 -0.011346 0.089875 -0.021239 0.000000 0.007533 0.000000
# 3 -0.002934 -0.021239 0.021393 0.000000 -0.006553 0.000000
# 4 0.000000 0.000000 0.000000 0.064637 0.000000 -0.019615
# 5 -0.007304 0.007533 -0.006553 0.000000 0.030413 0.000000
# 6 0.000000 0.000000 0.000000 -0.019615 0.000000 0.069753
#
#
# Mechanical properties :
#
#
# Convention : Reuss Voigt Hill
#
# Bulk Modulus (GPa) = 18.37755 46.24173 32.30964
# Shear Modulus (GPa) = 13.17767 23.64229 18.40998
#
# Velocity S-wave (km/s) = 2.66578 3.57067 3.15088
# Velocity P-wave (km/s) = 4.40292 6.47584 5.53725
#
# Compressibility (1/GPa) = 0.05441421
#
# Stress axis : x y z
#
# Youngs Moduli (GPa) = 70.50446 11.12658 46.74394
#
# Poissons Ratio (x) = 0.12625 0.13713
# Poissons Ratio (y) = 0.79997 0.99278
# Poissons Ratio (z) = 0.20683 0.23631
#
# Static dielectric constant tensor:
#      x y z
#    x 1.757540 0.000000 0.044000 
#    y 0.000000 1.601790 0.000000 
#    z 0.044000 0.000000 1.734920 
# 
# From -- ./inp_files/66502.got.cif
#   From: 2010.05.17/outbox.cif.g08.bks.cpg/sg12_34_cif.got.tgz:66502.got - 2010.06.03 13:09:07.
