data_PCOD9184696
_publ_section_title
;
Structure prediction by ZEFSAII (Michael W. Deem and Ramdas Pophale) SiO2 
 PCOD9184696
Probable space group: C 2/M
;
_chemical_formula_sum "Si O2"
_cell_formula_units_Z 40
_cell_length_a 22.434372
_cell_length_b 11.650410
_cell_length_c 10.742679
_cell_angle_alpha 90.000000
_cell_angle_beta 35.143699
_cell_angle_gamma 90.000000
_cell_volume 1616.257121
_symmetry_space_group_name_H-M "C 2/M"
_symmetry_group_IT_number 12
_symmetry_cell_setting 'monoclinic'
loop_
_space_group_symop_operation_xyz
x,y,z
-x,y,-z
-x,-y,-z
x,-y,z
1/2+x,1/2+y,z
1/2-x,1/2+y,-z
1/2-x,1/2-y,-z
1/2+x,1/2-y,z
loop_
_atom_site_type_symbol
_atom_site_label
_atom_site_fract_x
_atom_site_fract_y
_atom_site_fract_z
Si Si1 0.428049 0.128275 0.776585
Si Si2 0.624125 0.621935 0.706547
Si Si3 0.983026 0.126885 0.711868
Si Si4 0.763903 0.375491 0.835849
Si Si5 0.194668 0.693024 0.772884
O O1 0.499293 0.241459 0.636802
O O2 0.473732 0.000000 0.683216
O O3 0.334041 0.137680 0.838001
O O4 0.378237 0.134775 0.000098
O O5 0.619108 0.500000 0.783163
O O6 0.531698 0.629513 0.765887
O O7 0.728394 0.622616 0.445143
O O8 0.630787 0.726770 0.788663
O O9 0.858327 0.122422 0.921172
O O10 0.020109 0.000000 0.598498
O O11 0.787878 0.500000 0.738902
O O12 0.769530 0.275175 0.726511
#
# Coordination Sequence:
#
# PCOD9184696 Si02
#       5
#     8   8   8   8   8
#     4  10  20  36  56  79 106 138 178 220 261 308
#     4  10  21  35  52  77 108 140 175 216 262 314
#     4   9  18  34  54  78 106 137 175 217 262 310
#     4   9  18  34  56  78 103 138 178 218 261 310
#     4  10  19  34  54  76 104 139 175 214 264 315
#
# _framework density 24.748536999999999
#
# number of rings (size 3 to 8) (size 9 to 14) (size 15 to 20)
#    0.000    2.400    0.000    3.600    0.000    4.000 
#    0.000   21.000    0.000   14.400    0.000    0.000 
#    0.000    0.000    0.000    0.000    0.000    0.000 
#
# Total GULP energy -111668.668894 kJ/mol
# GULP energy per Si atom -5583.433445 kJ/mol
# Density = 2.469221 g / cm^3
# Si number density = 24.748537 Si / 1000 Ang^3
#
#
#
# Elastic Constant Matrix: (Units=GPa)
#
#
# Indices 1 2 3 4 5 6 
#
# 1 132.1094 50.8750 14.2374 0.0000 6.3014 0.0000
# 2 50.8750 217.6762 15.0796 0.0000 5.1642 0.0000
# 3 14.2374 15.0796 87.4268 0.0000 19.1555 0.0000
# 4 0.0000 0.0000 0.0000 -104.3020 0.0000 -75.8060
# 5 6.3014 5.1642 19.1555 0.0000 33.3999 0.0000
# 6 0.0000 0.0000 0.0000 -75.8060 0.0000 -49.1534
#
#
#
# Elastic Compliance Matrix: (Units=1/GPa)
#
#
# Indices 1 2 3 4 5 6 
#
# 1 0.008430 -0.001891 -0.000872 0.000000 -0.000798 0.000000
# 2 -0.001891 0.005076 -0.000542 0.000000 -0.000117 0.000000
# 3 -0.000872 -0.000542 0.013289 0.000000 -0.007373 0.000000
# 4 0.000000 0.000000 0.000000 0.079311 0.000000 -0.122317
# 5 -0.000798 -0.000117 -0.007373 0.000000 0.034338 0.000000
# 6 0.000000 0.000000 0.000000 -0.122317 0.000000 0.168296
#
#
# Mechanical properties :
#
#
# Convention : Reuss Voigt Hill
#
# Bulk Modulus (GPa) = 49.53959 66.39959 57.96959
# Shear Modulus (GPa) = 15.52420 -0.20973 7.65723
#
# Velocity S-wave (km/s) = 2.50727 -0.29142 1.76089
# Velocity P-wave (km/s) = 5.33315 5.17443 5.25439
#
# Compressibility (1/GPa) = 0.02018587
#
# Stress axis : x y z
#
# Youngs Moduli (GPa) = 118.62874 196.99658 75.24977
#
# Poissons Ratio (x) = 0.37249 0.06560
# Poissons Ratio (y) = 0.22431 0.04078
# Poissons Ratio (z) = 0.10342 0.10676
#
# Static dielectric constant tensor:
#      x y z
#    x 1.878940 0.000000 -0.001310 
#    y 0.000000 2.053340 0.000000 
#    z -0.001310 0.000000 1.979090 
# 
# From -- ./inp_files/174322.got.cif
#   From: 2010.05.17/outbox.cif.g08.bks.cpg/sg12_88_cif.got.tgz:174322.got - 2010.06.03 13:09:07.
