data_PCOD9184009
_publ_section_title
;
Structure prediction by ZEFSAII (Michael W. Deem and Ramdas Pophale) SiO2 
 PCOD9184009
Probable space group: C 2/M
;
_chemical_formula_sum "Si O2"
_cell_formula_units_Z 48
_cell_length_a 10.704975
_cell_length_b 24.044996
_cell_length_c 12.298360
_cell_angle_alpha 90.000000
_cell_angle_beta 127.871319
_cell_angle_gamma 90.000000
_cell_volume 2498.906489
_symmetry_space_group_name_H-M "C 2/M"
_symmetry_group_IT_number 12
_symmetry_cell_setting 'monoclinic'
loop_
_space_group_symop_operation_xyz
x,y,z
-x,y,-z
-x,-y,-z
x,-y,z
1/2+x,1/2+y,z
1/2-x,1/2+y,-z
1/2-x,1/2-y,-z
1/2+x,1/2-y,z
loop_
_atom_site_type_symbol
_atom_site_label
_atom_site_fract_x
_atom_site_fract_y
_atom_site_fract_z
Si Si1 0.811941 0.235984 0.412540
Si Si2 0.675167 0.842459 0.968673
Si Si3 0.635025 0.433634 0.826071
Si Si4 0.321317 0.737350 0.878093
Si Si5 0.174575 0.617115 0.271714
Si Si6 0.878208 0.065975 0.532680
O O1 0.750000 0.250000 0.500000
O O2 0.718627 0.269045 0.269119
O O3 0.768284 0.173352 0.353253
O O4 0.000000 0.244422 0.500000
O O5 0.707141 0.801342 0.886318
O O6 0.502005 0.867683 0.857956
O O7 0.799228 0.892628 0.047038
O O8 0.692345 0.800787 0.082023
O O9 0.638486 0.500000 0.850858
O O10 0.751340 0.419575 0.786217
O O11 0.462124 0.415277 0.688666
O O12 0.500000 0.721051 0.000000
O O13 0.205903 0.583975 0.400791
O O14 0.000000 0.082016 0.500000
O O15 0.882234 0.000000 0.539896
#
# Coordination Sequence:
#
# PCOD9184009 Si02
#       6
#     8   8   8   8   8   8
#     4  12  25  39  59  89 120 160 211 257 302 366
#     4  11  22  36  58  86 122 161 205 246 312 374
#     4  10  19  33  56  89 122 155 197 251 310 365
#     4  11  23  41  59  81 123 169 202 251 311 371
#     4  11  19  33  52  84 119 157 191 250 301 365
#     4   8  16  29  47  75 116 156 188 236 305 362
#
# _framework density 19.208403000000001
#
# number of rings (size 3 to 8) (size 9 to 14) (size 15 to 20)
#    0.000    1.500    3.333    4.500    2.333    2.000 
#    0.000    0.000    0.000    0.500    0.000    2.333 
#    0.000   12.667    0.000    0.000    0.000    0.000 
#
# Total GULP energy -133702.508496 kJ/mol
# GULP energy per Si atom -5570.937854 kJ/mol
# Density = 1.916468 g / cm^3
# Si number density = 19.208403 Si / 1000 Ang^3
#
#
#
# Elastic Constant Matrix: (Units=GPa)
#
#
# Indices 1 2 3 4 5 6 
#
# 1 26.8719 -3.4122 30.1812 0.0000 -15.7736 0.0000
# 2 -3.4122 52.0302 32.7297 0.0000 -0.6182 0.0000
# 3 30.1812 32.7297 148.9693 0.0000 -0.6281 0.0000
# 4 0.0000 0.0000 0.0000 7.8444 0.0000 7.0936
# 5 -15.7736 -0.6182 -0.6281 0.0000 21.5575 0.0000
# 6 0.0000 0.0000 0.0000 7.0936 0.0000 16.9517
#
#
#
# Elastic Compliance Matrix: (Units=1/GPa)
#
#
# Indices 1 2 3 4 5 6 
#
# 1 0.143046 0.033160 -0.035826 0.000000 0.104574 0.000000
# 2 0.033160 0.029994 -0.013204 0.000000 0.024739 0.000000
# 3 -0.035826 -0.013204 0.016762 0.000000 -0.026104 0.000000
# 4 0.000000 0.000000 0.000000 0.205085 0.000000 -0.085820
# 5 0.104574 0.024739 -0.026104 0.000000 0.122854 0.000000
# 6 0.000000 0.000000 0.000000 -0.085820 0.000000 0.094903
#
#
# Mechanical properties :
#
#
# Convention : Reuss Voigt Hill
#
# Bulk Modulus (GPa) = 6.32659 38.54096 22.43377
# Shear Modulus (GPa) = 7.17287 20.49556 13.83421
#
# Velocity S-wave (km/s) = 1.93451 3.27006 2.68660
# Velocity P-wave (km/s) = 2.87934 5.86224 4.61825
#
# Compressibility (1/GPa) = 0.15806308
#
# Stress axis : x y z
#
# Youngs Moduli (GPa) = 6.99075 33.33984 59.65866
#
# Poissons Ratio (x) = -1.10555 2.13732
# Poissons Ratio (y) = -0.23181 0.78772
# Poissons Ratio (z) = 0.25045 0.44021
#
# Static dielectric constant tensor:
#      x y z
#    x 1.697590 0.000000 0.013550 
#    y 0.000000 1.702110 0.000000 
#    z 0.013550 0.000000 1.751430 
# 
# From -- ./inp_files/135521.got.cif
#   From: 2010.05.17/outbox.cif.g08.bks.cpg/sg12_68_cif.got.tgz:135521.got - 2010.06.03 13:09:07.
