data_PCOD9184571
_publ_section_title
;
Structure prediction by ZEFSAII (Michael W. Deem and Ramdas Pophale) SiO2 
 PCOD9184571
Probable space group: C 2/M
;
_chemical_formula_sum "Si O2"
_cell_formula_units_Z 48
_cell_length_a 29.773783
_cell_length_b 16.929820
_cell_length_c 10.139160
_cell_angle_alpha 90.000000
_cell_angle_beta 29.154156
_cell_angle_gamma 90.000000
_cell_volume 2489.779555
_symmetry_space_group_name_H-M "C 2/M"
_symmetry_group_IT_number 12
_symmetry_cell_setting 'monoclinic'
loop_
_space_group_symop_operation_xyz
x,y,z
-x,y,-z
-x,-y,-z
x,-y,z
1/2+x,1/2+y,z
1/2-x,1/2+y,-z
1/2-x,1/2-y,-z
1/2+x,1/2-y,z
loop_
_atom_site_type_symbol
_atom_site_label
_atom_site_fract_x
_atom_site_fract_y
_atom_site_fract_z
Si Si1 0.649191 0.748258 0.598060
Si Si2 0.651186 0.712144 0.291960
Si Si3 0.623073 0.085956 0.566687
Si Si4 0.988540 0.349797 0.387100
Si Si5 0.367545 0.273723 0.072924
Si Si6 0.657416 0.410007 0.061241
O O1 0.635648 0.710515 0.488899
O O2 0.609436 0.837313 0.691406
O O3 0.611835 0.708678 0.826394
O O4 0.759137 0.756454 0.333892
O O5 0.579412 0.775046 0.418637
O O6 0.750000 0.750000 0.000000
O O7 0.641725 0.629153 0.243700
O O8 0.559509 0.097713 0.601294
O O9 0.731225 0.089972 0.247444
O O10 0.607214 0.000000 0.668283
O O11 0.000000 0.389260 0.500000
O O12 0.079922 0.306075 0.101975
O O13 0.386154 0.348918 0.932148
O O14 0.625511 0.500000 0.131286
#
# Coordination Sequence:
#
# PCOD9184571 Si02
#       6
#     8   8   8   8   8   8
#     4   9  19  34  57  73 105 146 185 213 252 328
#     4  11  17  34  53  79 103 141 183 214 255 323
#     4   9  19  33  52  78 110 144 174 216 269 315
#     4  11  19  30  55  80 108 138 182 224 258 318
#     4  10  19  34  52  82 102 140 182 219 264 309
#     4  10  19  35  57  79 107 142 180 220 268 316
#
# _framework density 19.278814000000001
#
# number of rings (size 3 to 8) (size 9 to 14) (size 15 to 20)
#    0.000    2.000    6.667    0.000    0.000    3.000 
#    0.000    4.167    0.000    2.000    0.000    5.833 
#    0.000    0.000    0.000    0.000    0.000    0.000 
#
# Total GULP energy -133843.995092 kJ/mol
# GULP energy per Si atom -5576.833129 kJ/mol
# Density = 1.923493 g / cm^3
# Si number density = 19.278814 Si / 1000 Ang^3
#
#
#
# Elastic Constant Matrix: (Units=GPa)
#
#
# Indices 1 2 3 4 5 6 
#
# 1 121.0233 34.0265 14.8269 0.0000 24.9049 0.0000
# 2 34.0265 95.5961 9.6080 0.0000 14.3930 0.0000
# 3 14.8269 9.6080 42.3750 0.0000 -1.1842 0.0000
# 4 0.0000 0.0000 0.0000 3.7302 0.0000 -2.0438
# 5 24.9049 14.3930 -1.1842 0.0000 29.0079 0.0000
# 6 0.0000 0.0000 0.0000 -2.0438 0.0000 19.2647
#
#
#
# Elastic Compliance Matrix: (Units=1/GPa)
#
#
# Indices 1 2 3 4 5 6 
#
# 1 0.011111 -0.002307 -0.003603 0.000000 -0.008542 0.000000
# 2 -0.002307 0.012107 -0.002053 0.000000 -0.004111 0.000000
# 3 -0.003603 -0.002053 0.025469 0.000000 0.005152 0.000000
# 4 0.000000 0.000000 0.000000 0.284628 0.000000 0.030196
# 5 -0.008542 -0.004111 0.005152 0.000000 0.044057 0.000000
# 6 0.000000 0.000000 0.000000 0.030196 0.000000 0.055112
#
#
# Mechanical properties :
#
#
# Convention : Reuss Voigt Hill
#
# Bulk Modulus (GPa) = 30.52399 41.76856 36.14628
# Shear Modulus (GPa) = 10.88544 23.76942 17.32743
#
# Velocity S-wave (km/s) = 2.37878 3.51512 3.00122
# Velocity P-wave (km/s) = 4.83860 6.17959 5.54975
#
# Compressibility (1/GPa) = 0.03276111
#
# Stress axis : x y z
#
# Youngs Moduli (GPa) = 90.00444 82.59757 39.26334
#
# Poissons Ratio (x) = 0.19051 0.14148
# Poissons Ratio (y) = 0.20760 0.08060
# Poissons Ratio (z) = 0.32431 0.16957
#
# Static dielectric constant tensor:
#      x y z
#    x 1.707120 0.000000 -0.008790 
#    y 0.000000 1.656120 0.000000 
#    z -0.008790 0.000000 1.741980 
# 
# From -- ./inp_files/189361.got.cif
#   From: 2010.05.17/outbox.cif.g08.bks.cpg/sg12_95_cif.got.tgz:189361.got - 2010.06.03 13:09:07.
