data_PCOD9184014
_publ_section_title
;
Structure prediction by ZEFSAII (Michael W. Deem and Ramdas Pophale) SiO2 
 PCOD9184014
Probable space group: C 2/M
;
_chemical_formula_sum "Si O2"
_cell_formula_units_Z 56
_cell_length_a 18.075769
_cell_length_b 21.086483
_cell_length_c 15.506195
_cell_angle_alpha 90.000000
_cell_angle_beta 150.696583
_cell_angle_gamma 90.000000
_cell_volume 2892.682159
_symmetry_space_group_name_H-M "C 2/M"
_symmetry_group_IT_number 12
_symmetry_cell_setting 'monoclinic'
loop_
_space_group_symop_operation_xyz
x,y,z
-x,y,-z
-x,-y,-z
x,-y,z
1/2+x,1/2+y,z
1/2-x,1/2+y,-z
1/2-x,1/2-y,-z
1/2+x,1/2-y,z
loop_
_atom_site_type_symbol
_atom_site_label
_atom_site_fract_x
_atom_site_fract_y
_atom_site_fract_z
Si Si1 0.975049 0.688418 0.701825
Si Si2 0.689093 0.926428 0.879255
Si Si3 0.925061 0.731526 0.832459
Si Si4 0.567311 0.300773 0.472059
Si Si5 0.681311 0.572790 0.176443
Si Si6 0.492132 0.426905 0.291094
Si Si7 0.827566 0.859938 0.670187
O O1 0.006209 0.699209 0.834024
O O2 0.000790 0.748803 0.665098
O O3 0.796473 0.674446 0.513728
O O4 0.062440 0.625800 0.763033
O O5 0.765653 0.912125 0.864959
O O6 0.636642 0.000000 0.825112
O O7 0.818623 0.921308 0.083778
O O8 0.747901 0.712489 0.658222
O O9 0.935091 0.805457 0.816349
O O10 0.000000 0.719398 0.000000
O O11 0.500000 0.293394 0.500000
O O12 0.533373 0.371192 0.400059
O O13 0.719563 0.500000 0.231402
O O14 0.751175 0.612725 0.324699
O O15 0.500000 0.578908 0.000000
O O16 0.519486 0.500000 0.346368
O O17 0.589066 0.411660 0.302990
#
# Coordination Sequence:
#
# PCOD9184014 Si02
#       7
#     8   8   8   8   8   8   8
#     4  11  24  43  63  91 133 162 205 261 317 374
#     4  10  24  39  60  96 131 165 209 259 312 375
#     4  11  24  42  65  95 125 161 207 265 314 373
#     4  11  25  43  65  96 126 164 215 260 308 369
#     4  10  19  33  56  90 126 161 204 249 303 376
#     4  11  22  41  65  89 125 172 215 257 307 367
#     4  11  20  38  63  90 123 166 208 249 313 381
#
# _framework density 19.359195
#
# number of rings (size 3 to 8) (size 9 to 14) (size 15 to 20)
#    0.000    1.286    4.286    1.714    6.000    2.000 
#    0.000    1.429    0.000    0.857    0.000    0.000 
#    0.000    0.000    0.000    0.000    0.000    0.000 
#
# Total GULP energy -156287.918520 kJ/mol
# GULP energy per Si atom -5581.711376 kJ/mol
# Density = 1.931513 g / cm^3
# Si number density = 19.359195 Si / 1000 Ang^3
#
#
#
# Elastic Constant Matrix: (Units=GPa)
#
#
# Indices 1 2 3 4 5 6 
#
# 1 119.9772 59.4919 32.0475 0.0000 -20.0863 0.0000
# 2 59.4919 110.0877 49.2162 0.0000 -3.1861 0.0000
# 3 32.0475 49.2162 59.6966 0.0000 -23.4585 0.0000
# 4 0.0000 0.0000 0.0000 20.7088 0.0000 -1.2594
# 5 -20.0863 -3.1861 -23.4585 0.0000 24.9058 0.0000
# 6 0.0000 0.0000 0.0000 -1.2594 0.0000 30.5951
#
#
#
# Elastic Compliance Matrix: (Units=1/GPa)
#
#
# Indices 1 2 3 4 5 6 
#
# 1 0.014764 -0.011388 0.008842 0.000000 0.018778 0.000000
# 2 -0.011388 0.027696 -0.030064 0.000000 -0.033959 0.000000
# 3 0.008842 -0.030064 0.060460 0.000000 0.060231 0.000000
# 4 0.000000 0.000000 0.000000 0.048410 0.000000 0.001993
# 5 0.018778 -0.033959 0.060231 0.000000 0.107683 0.000000
# 6 0.000000 0.000000 0.000000 0.001993 0.000000 0.032767
#
#
# Mechanical properties :
#
#
# Convention : Reuss Voigt Hill
#
# Bulk Modulus (GPa) = 26.52630 63.47474 45.00052
# Shear Modulus (GPa) = 13.52940 25.17565 19.35253
#
# Velocity S-wave (km/s) = 2.64647 3.61009 3.16516
# Velocity P-wave (km/s) = 4.80316 7.08774 6.05419
#
# Compressibility (1/GPa) = 0.03769844
#
# Stress axis : x y z
#
# Youngs Moduli (GPa) = 67.73390 36.10682 16.53995
#
# Poissons Ratio (x) = 0.41118 -0.14625
# Poissons Ratio (y) = 0.77134 0.49726
# Poissons Ratio (z) = -0.59890 1.08553
#
# Static dielectric constant tensor:
#      x y z
#    x 1.717380 0.000000 -0.019150 
#    y 0.000000 1.688970 0.000000 
#    z -0.019150 0.000000 1.704880 
# 
# From -- ./inp_files/227561.got.cif
#   From: 2010.05.17/outbox.cif.g08.bks.cpg/sg12_114_cif.got.tgz:227561.got - 2010.06.03 13:09:07.
