data_PCOD9184899
_publ_section_title
;
Structure prediction by ZEFSAII (Michael W. Deem and Ramdas Pophale) SiO2 
 PCOD9184899
Probable space group: C 2/M
;
_chemical_formula_sum "Si O2"
_cell_formula_units_Z 64
_cell_length_a 14.447659
_cell_length_b 28.932524
_cell_length_c 7.012142
_cell_angle_alpha 90.000000
_cell_angle_beta 51.394490
_cell_angle_gamma 90.000000
_cell_volume 2290.559208
_symmetry_space_group_name_H-M "C 2/M"
_symmetry_group_IT_number 12
_symmetry_cell_setting 'monoclinic'
loop_
_space_group_symop_operation_xyz
x,y,z
-x,y,-z
-x,-y,-z
x,-y,z
1/2+x,1/2+y,z
1/2-x,1/2+y,-z
1/2-x,1/2-y,-z
1/2+x,1/2-y,z
loop_
_atom_site_type_symbol
_atom_site_label
_atom_site_fract_x
_atom_site_fract_y
_atom_site_fract_z
Si Si1 0.284777 0.074871 0.482636
Si Si2 0.041253 0.553443 0.233606
Si Si3 0.231963 0.304590 0.988501
Si Si4 0.719363 0.408837 0.001878
Si Si5 0.236501 0.317417 0.531871
Si Si6 0.025583 0.932835 0.753968
Si Si7 0.017664 0.824979 0.707205
Si Si8 0.504059 0.222293 0.769935
O O1 0.416353 0.055357 0.280282
O O2 0.250803 0.072285 0.751155
O O3 0.297394 0.129507 0.435734
O O4 0.164387 0.056546 0.534939
O O5 0.077482 0.500000 0.197926
O O6 0.161717 0.581190 0.028847
O O7 0.000000 0.568766 0.500000
O O8 0.293686 0.351817 0.990005
O O9 0.090842 0.311086 0.204250
O O10 0.250000 0.250000 0.000000
O O11 0.250614 0.308127 0.737674
O O12 0.597311 0.436519 0.209703
O O13 0.369593 0.309585 0.297390
O O14 0.140276 0.287486 0.546596
O O15 0.022215 0.877343 0.769442
O O16 0.000000 0.950772 0.000000
O O17 0.962522 0.774214 0.785937
O O18 0.000000 0.832947 0.500000
O O19 0.500000 0.212063 0.000000
#
# Coordination Sequence:
#
# PCOD9184899 Si02
#       8
#     8   8   8   8   8   8   8   8
#     4   9  19  34  54  78 104 140 180 223 276 329
#     4   9  18  35  60  88 114 141 179 231 289 343
#     4  11  22  35  50  73 106 144 185 229 277 326
#     4  10  19  34  55  78 107 143 182 225 272 331
#     4  10  21  34  49  70  99 137 179 224 273 321
#     4   9  18  32  49  71 102 136 168 207 260 317
#     4  11  20  31  47  68  94 129 178 222 260 310
#     4  10  21  33  44  62  93 132 173 221 273 316
#
# _framework density 27.940776
#
# number of rings (size 3 to 8) (size 9 to 14) (size 15 to 20)
#    0.000    2.125    0.000    3.750    0.000    7.000 
#    0.000    0.625    0.000    5.250    0.000    0.000 
#    0.000    5.500    0.000    0.000    0.000    0.000 
#
# Total GULP energy -178244.685703 kJ/mol
# GULP energy per Si atom -5570.146428 kJ/mol
# Density = 2.787718 g / cm^3
# Si number density = 27.940776 Si / 1000 Ang^3
#
#
#
# Elastic Constant Matrix: (Units=GPa)
#
#
# Indices 1 2 3 4 5 6 
#
# 1 134.5479 31.9438 43.2234 0.0000 -10.6336 0.0000
# 2 31.9438 99.4374 13.2193 0.0000 -29.3060 0.0000
# 3 43.2234 13.2193 48.7216 0.0000 -13.5587 0.0000
# 4 0.0000 0.0000 0.0000 -15.1934 0.0000 -0.2264
# 5 -10.6336 -29.3060 -13.5587 0.0000 53.9298 0.0000
# 6 0.0000 0.0000 0.0000 -0.2264 0.0000 17.7613
#
#
#
# Elastic Compliance Matrix: (Units=1/GPa)
#
#
# Indices 1 2 3 4 5 6 
#
# 1 0.011005 -0.002783 -0.009489 0.000000 -0.001728 0.000000
# 2 -0.002783 0.012787 0.000839 0.000000 0.006611 0.000000
# 3 -0.009489 0.000839 0.030452 0.000000 0.006241 0.000000
# 4 0.000000 0.000000 0.000000 -0.065806 0.000000 -0.000839
# 5 -0.001728 0.006611 0.006241 0.000000 0.023364 0.000000
# 6 0.000000 0.000000 0.000000 -0.000839 0.000000 0.056291
#
#
# Mechanical properties :
#
#
# Convention : Reuss Voigt Hill
#
# Bulk Modulus (GPa) = 31.86842 51.05334 41.46088
# Shear Modulus (GPa) = 49.30103 24.25423 36.77763
#
# Velocity S-wave (km/s) = 4.20513 2.94948 3.63198
# Velocity P-wave (km/s) = 5.91675 5.46908 5.69732
#
# Compressibility (1/GPa) = 0.03137903
#
# Stress axis : x y z
#
# Youngs Moduli (GPa) = 90.87041 78.20164 32.83884
#
# Poissons Ratio (x) = 0.21764 0.31160
# Poissons Ratio (y) = 0.25290 -0.02756
# Poissons Ratio (z) = 0.86223 -0.06563
#
# Static dielectric constant tensor:
#      x y z
#    x 2.343080 0.000000 -0.366880 
#    y 0.000000 2.061780 0.000000 
#    z -0.366880 0.000000 3.377070 
# 
# From -- ./inp_files/68600.got.cif
#   From: 2010.05.17/outbox.cif.g08.bks.cpg/sg12_35_cif.got.tgz:68600.got - 2010.06.03 13:09:07.
