data_PCOD9184714
_publ_section_title
;
Structure prediction by ZEFSAII (Michael W. Deem and Ramdas Pophale) SiO2 
 PCOD9184714
Probable space group: C 2/M
;
_chemical_formula_sum "Si O2"
_cell_formula_units_Z 64
_cell_length_a 23.014796
_cell_length_b 22.243114
_cell_length_c 8.743916
_cell_angle_alpha 90.000000
_cell_angle_beta 130.036399
_cell_angle_gamma 90.000000
_cell_volume 3427.133357
_symmetry_space_group_name_H-M "C 2/M"
_symmetry_group_IT_number 12
_symmetry_cell_setting 'monoclinic'
loop_
_space_group_symop_operation_xyz
x,y,z
-x,y,-z
-x,-y,-z
x,-y,z
1/2+x,1/2+y,z
1/2-x,1/2+y,-z
1/2-x,1/2-y,-z
1/2+x,1/2-y,z
loop_
_atom_site_type_symbol
_atom_site_label
_atom_site_fract_x
_atom_site_fract_y
_atom_site_fract_z
Si Si1 0.670616 0.638003 0.063989
Si Si2 0.752325 0.823202 0.267657
Si Si3 0.331217 0.803515 0.338194
Si Si4 0.041674 0.067805 0.414264
Si Si5 0.541997 0.216844 0.216529
Si Si6 0.109874 0.151983 0.284344
Si Si7 0.614440 0.768442 0.895862
Si Si8 0.296928 0.435238 0.158908
O O1 0.758714 0.654537 0.239874
O O2 0.623758 0.628041 0.138280
O O3 0.637666 0.698204 0.927552
O O4 0.671507 0.581921 0.953522
O O5 0.799577 0.764898 0.293925
O O6 0.804523 0.844036 0.498013
O O7 0.752082 0.878463 0.149115
O O8 0.666633 0.797464 0.120512
O O9 0.391744 0.814316 0.574667
O O10 0.366076 0.803333 0.227393
O O11 0.051505 0.113630 0.289930
O O12 0.129065 0.061438 0.611077
O O13 0.000000 0.089552 0.500000
O O14 0.012677 0.000000 0.329343
O O15 0.576925 0.280611 0.221562
O O16 0.473577 0.228661 0.217583
O O17 0.500000 0.187352 0.000000
O O18 0.257713 0.500000 0.093547
#
# Coordination Sequence:
#
# PCOD9184714 Si02
#       8
#     8   8   8   8   8   8   8   8
#     4  11  20  34  52  80 107 141 174 217 272 309
#     4   9  18  34  53  75  98 143 172 213 262 310
#     4  10  20  34  54  74 108 142 176 210 259 332
#     4   9  20  36  53  72 101 147 191 221 254 300
#     4  11  23  32  47  80 109 138 168 218 261 318
#     4  10  22  32  51  75 110 142 174 217 264 311
#     4  11  19  34  54  74 109 136 179 211 259 328
#     4  10  19  34  54  77 102 132 184 228 255 302
#
# _framework density 18.674499999999998
#
# number of rings (size 3 to 8) (size 9 to 14) (size 15 to 20)
#    0.000    1.875    3.750    1.125    3.500    2.000 
#    0.000    0.000    0.000    2.625    0.000    1.750 
#    0.000    1.000    0.000    0.000    0.000    0.000 
#
# Total GULP energy -178283.162574 kJ/mol
# GULP energy per Si atom -5571.348830 kJ/mol
# Density = 1.863200 g / cm^3
# Si number density = 18.674500 Si / 1000 Ang^3
#
#
#
# Elastic Constant Matrix: (Units=GPa)
#
#
# Indices 1 2 3 4 5 6 
#
# 1 64.9668 7.1631 14.4187 0.0000 -5.6405 0.0000
# 2 7.1631 46.1696 7.1203 0.0000 -3.3596 0.0000
# 3 14.4187 7.1203 71.8219 0.0000 1.1583 0.0000
# 4 0.0000 0.0000 0.0000 2.2466 0.0000 4.4877
# 5 -5.6405 -3.3596 1.1583 0.0000 30.1620 0.0000
# 6 0.0000 0.0000 0.0000 4.4877 0.0000 15.1065
#
#
#
# Elastic Compliance Matrix: (Units=1/GPa)
#
#
# Indices 1 2 3 4 5 6 
#
# 1 0.016567 -0.001859 -0.003190 0.000000 0.003014 0.000000
# 2 -0.001859 0.022400 -0.001883 0.000000 0.002220 0.000000
# 3 -0.003190 -0.001883 0.014773 0.000000 -0.001374 0.000000
# 4 0.000000 0.000000 0.000000 1.094832 0.000000 -0.325244
# 5 0.003014 0.002220 -0.001374 0.000000 0.034018 0.000000
# 6 0.000000 0.000000 0.000000 -0.325244 0.000000 0.162818
#
#
# Mechanical properties :
#
#
# Convention : Reuss Voigt Hill
#
# Bulk Modulus (GPa) = 25.07878 26.70692 25.89285
# Shear Modulus (GPa) = 3.64282 19.78675 11.71478
#
# Velocity S-wave (km/s) = 1.39819 3.25862 2.50734
# Velocity P-wave (km/s) = 4.00814 5.33765 4.71994
#
# Compressibility (1/GPa) = 0.03987435
#
# Stress axis : x y z
#
# Youngs Moduli (GPa) = 60.36040 44.64356 67.69268
#
# Poissons Ratio (x) = 0.08299 0.21596
# Poissons Ratio (y) = 0.11221 0.12748
# Poissons Ratio (z) = 0.19256 0.08407
#
# Static dielectric constant tensor:
#      x y z
#    x 1.668310 0.000000 -0.012210 
#    y 0.000000 1.654330 0.000000 
#    z -0.012210 0.000000 1.729720 
# 
# From -- ./inp_files/99113.got.cif
#   From: 2010.05.17/outbox.cif.g08.bks.cpg/sg12_50_cif.got.tgz:99113.got - 2010.06.03 13:09:07.
