data_PCOD9184027
_publ_section_title
;
Structure prediction by ZEFSAII (Michael W. Deem and Ramdas Pophale) SiO2 
 PCOD9184027
Probable space group: C 2/M
;
_chemical_formula_sum "Si O2"
_cell_formula_units_Z 50
_cell_length_a 14.231305
_cell_length_b 20.752665
_cell_length_c 13.827007
_cell_angle_alpha 90.000000
_cell_angle_beta 150.901665
_cell_angle_gamma 90.000000
_cell_volume 1985.911883
_symmetry_space_group_name_H-M "C 2/M"
_symmetry_group_IT_number 12
_symmetry_cell_setting 'monoclinic'
loop_
_space_group_symop_operation_xyz
x,y,z
-x,y,-z
-x,-y,-z
x,-y,z
1/2+x,1/2+y,z
1/2-x,1/2+y,-z
1/2-x,1/2-y,-z
1/2+x,1/2-y,z
loop_
_atom_site_type_symbol
_atom_site_label
_atom_site_fract_x
_atom_site_fract_y
_atom_site_fract_z
Si Si1 0.965453 0.253597 0.232083
Si Si2 0.500000 0.500000 0.000000
Si Si3 0.885814 0.863889 0.510207
Si Si4 0.981873 0.604626 0.693826
Si Si5 0.404106 0.427855 0.146956
Si Si6 0.272085 0.389114 0.705264
Si Si7 0.687771 0.241966 0.234565
O O1 0.019548 0.196374 0.349434
O O2 0.984737 0.320939 0.301146
O O3 0.110803 0.256028 0.274393
O O4 0.750000 0.250000 0.000000
O O5 0.335699 0.441903 0.839821
O O6 0.690455 0.894382 0.381751
O O7 0.810291 0.825575 0.345568
O O8 0.041341 0.917014 0.690804
O O9 0.893235 0.581328 0.513102
O O10 0.179714 0.580623 0.919312
O O11 0.459734 0.500000 0.164479
O O12 0.541890 0.384575 0.202169
O O13 0.238540 0.315963 0.713934
O O14 0.500000 0.233591 0.000000
#
# Coordination Sequence:
#
# PCOD9184027 Si02
#       7
#     8   2   8   8   8   8   8
#     4  11  17  34  62  85 112 149 194 252 299 340
#     4  12  24  36  54  72 136 178 184 228 298 336
#     4  10  20  36  60  85 115 149 194 252 302 339
#     4  10  19  33  57  80 105 145 201 242 284 332
#     4  11  22  35  57  84 112 149 209 244 286 351
#     4  11  21  37  54  79 118 168 198 235 278 347
#     4  11  20  35  59  88 120 153 195 247 302 351
#
# _framework density 25.177351000000002
#
# number of rings (size 3 to 8) (size 9 to 14) (size 15 to 20)
#    0.000    1.280    8.000    0.960    1.120    0.640 
#    0.000    2.400    0.000    0.480    0.000    4.480 
#    0.000    0.000    0.000    0.000    0.000    0.000 
#
# Total GULP energy -139180.558220 kJ/mol
# GULP energy per Si atom -5567.222329 kJ/mol
# Density = 2.512005 g / cm^3
# Si number density = 25.177351 Si / 1000 Ang^3
#
#
#
# Elastic Constant Matrix: (Units=GPa)
#
#
# Indices 1 2 3 4 5 6 
#
# 1 78.6040 1.7788 23.8849 0.0000 -0.8636 0.0000
# 2 1.7788 67.4720 31.6844 0.0000 -1.7205 0.0000
# 3 23.8849 31.6844 213.1852 0.0000 14.8433 0.0001
# 4 0.0000 0.0000 0.0000 12.1518 0.0000 -56.9715
# 5 -0.8636 -1.7205 14.8433 0.0000 35.7336 0.0000
# 6 0.0000 0.0000 0.0001 -56.9715 0.0000 -55.2362
#
#
#
# Elastic Compliance Matrix: (Units=1/GPa)
#
#
# Indices 1 2 3 4 5 6 
#
# 1 0.013214 0.000436 -0.001616 0.000000 0.001012 0.000000
# 2 0.000436 0.016061 -0.002565 0.000000 0.001849 0.000000
# 3 -0.001616 -0.002565 0.005421 0.000000 -0.002414 0.000000
# 4 0.000000 0.000000 0.000000 0.014102 0.000000 -0.014545
# 5 0.001012 0.001849 -0.002414 0.000000 0.029101 0.000000
# 6 0.000000 0.000000 0.000000 -0.014545 0.000000 -0.003102
#
#
# Mechanical properties :
#
#
# Convention : Reuss Voigt Hill
#
# Bulk Modulus (GPa) = 36.75425 52.66193 44.70809
# Shear Modulus (GPa) = 54.73174 18.65736 36.69455
#
# Velocity S-wave (km/s) = 4.66751 2.72515 3.82179
# Velocity P-wave (km/s) = 6.60889 5.55552 6.10496
#
# Compressibility (1/GPa) = 0.02720774
#
# Stress axis : x y z
#
# Youngs Moduli (GPa) = 75.67612 62.26273 184.46587
#
# Poissons Ratio (x) = -0.02716 0.29805
# Poissons Ratio (y) = -0.03301 0.47309
# Poissons Ratio (z) = 0.12227 0.15968
#
# Static dielectric constant tensor:
#      x y z
#    x 2.217240 0.000000 -0.060080 
#    y 0.000000 2.100670 0.000000 
#    z -0.060080 0.000000 2.189280 
# 
# From -- ./inp_files/286288.got.cif
#   From: 2010.05.17/outbox.cif.g08.bks.cpg/sg12_144_cif.got.tgz:286288.got - 2010.06.03 13:09:07.
