data_PCOD9184738
_publ_section_title
;
Structure prediction by ZEFSAII (Michael W. Deem and Ramdas Pophale) SiO2 
 PCOD9184738
Probable space group: C 2/M
;
_chemical_formula_sum "Si O2"
_cell_formula_units_Z 64
_cell_length_a 23.530855
_cell_length_b 14.804788
_cell_length_c 9.152075
_cell_angle_alpha 90.000000
_cell_angle_beta 92.142239
_cell_angle_gamma 90.000000
_cell_volume 3186.073863
_symmetry_space_group_name_H-M "C 2/M"
_symmetry_group_IT_number 12
_symmetry_cell_setting 'monoclinic'
loop_
_space_group_symop_operation_xyz
x,y,z
-x,y,-z
-x,-y,-z
x,-y,z
1/2+x,1/2+y,z
1/2-x,1/2+y,-z
1/2-x,1/2-y,-z
1/2+x,1/2-y,z
loop_
_atom_site_type_symbol
_atom_site_label
_atom_site_fract_x
_atom_site_fract_y
_atom_site_fract_z
Si Si1 0.073923 0.343319 0.375551
Si Si2 0.023307 0.853535 0.352236
Si Si3 0.685483 0.755595 0.307680
Si Si4 0.625669 0.895876 0.682237
Si Si5 0.022258 0.605449 0.854223
Si Si6 0.625203 0.399160 0.146916
Si Si7 0.591884 0.391889 0.808716
Si Si8 0.811225 0.216813 0.353514
O O1 0.048633 0.243549 0.400949
O O2 0.133835 0.326903 0.300175
O O3 0.089300 0.390719 0.528364
O O4 0.027000 0.389301 0.270986
O O5 0.073998 0.895481 0.261048
O O6 0.000000 0.897001 0.500000
O O7 0.967945 0.849083 0.245265
O O8 0.670210 0.677226 0.193564
O O9 0.746950 0.800099 0.297000
O O10 0.684672 0.710530 0.470143
O O11 0.581888 0.860211 0.799947
O O12 0.675002 0.822583 0.674779
O O13 0.642636 0.000000 0.707516
O O14 0.033833 0.500000 0.884028
O O15 0.000000 0.650016 0.000000
O O16 0.649718 0.500000 0.151456
O O17 0.601584 0.381282 0.982583
O O18 0.589817 0.500000 0.778451
O O19 0.642365 0.344913 0.721667
#
# Coordination Sequence:
#
# PCOD9184738 Si02
#       8
#     8   8   8   8   8   8   8   8
#     4  10  19  34  54  78 107 142 179 221 274 331
#     4  11  21  34  56  85 114 147 186 231 281 335
#     4   9  21  38  58  80 108 143 187 236 280 328
#     4  10  20  35  57  82 109 143 180 224 280 334
#     4  10  20  32  48  75 107 136 172 218 267 325
#     4  10  22  38  56  83 116 150 189 231 283 344
#     4  11  23  38  57  83 117 154 189 231 284 341
#     4  10  21  40  59  83 112 144 192 240 279 332
#
# _framework density 20.087418
#
# number of rings (size 3 to 8) (size 9 to 14) (size 15 to 20)
#    0.000    1.875    0.000    5.250    0.000    9.500 
#    0.000    5.625    0.000    3.000    0.000    0.000 
#    0.000    0.000    0.000    0.000    0.000    0.000 
#
# Total GULP energy -178629.009556 kJ/mol
# GULP energy per Si atom -5582.156549 kJ/mol
# Density = 2.004170 g / cm^3
# Si number density = 20.087418 Si / 1000 Ang^3
#
#
#
# Elastic Constant Matrix: (Units=GPa)
#
#
# Indices 1 2 3 4 5 6 
#
# 1 78.3413 3.8299 -14.4010 0.0000 4.0970 0.0000
# 2 3.8299 51.2881 -4.2315 0.0000 0.6113 0.0000
# 3 -14.4010 -4.2315 34.1991 0.0000 -6.1456 0.0000
# 4 0.0000 0.0000 0.0000 23.7332 0.0000 4.7412
# 5 4.0970 0.6113 -6.1456 0.0000 16.6082 0.0000
# 6 0.0000 0.0000 0.0000 4.7412 0.0000 14.0572
#
#
#
# Elastic Compliance Matrix: (Units=1/GPa)
#
#
# Indices 1 2 3 4 5 6 
#
# 1 0.013880 -0.000564 0.005531 0.000000 -0.001356 0.000000
# 2 -0.000564 0.019722 0.002247 0.000000 0.000245 0.000000
# 3 0.005531 0.002247 0.033838 0.000000 0.011074 0.000000
# 4 0.000000 0.000000 0.000000 0.045179 0.000000 -0.015238
# 5 -0.001356 0.000245 0.011074 0.000000 0.064635 0.000000
# 6 0.000000 0.000000 0.000000 -0.015238 0.000000 0.076277
#
#
# Mechanical properties :
#
#
# Convention : Reuss Voigt Hill
#
# Bulk Modulus (GPa) = 12.21481 14.91369 13.56425
# Shear Modulus (GPa) = 18.76932 22.78846 20.77889
#
# Velocity S-wave (km/s) = 3.06008 3.37184 3.21973
# Velocity P-wave (km/s) = 4.31039 4.75390 4.53757
#
# Compressibility (1/GPa) = 0.08186781
#
# Stress axis : x y z
#
# Youngs Moduli (GPa) = 72.04644 50.70407 29.55288
#
# Poissons Ratio (x) = 0.02859 -0.16346
# Poissons Ratio (y) = 0.04063 -0.06640
# Poissons Ratio (z) = -0.39850 -0.11392
#
# Static dielectric constant tensor:
#      x y z
#    x 1.699870 0.000000 -0.030600 
#    y 0.000000 1.732350 0.000000 
#    z -0.030600 0.000000 1.737450 
# 
# From -- ./inp_files/96879.got.cif
#   From: 2010.05.17/outbox.cif.g08.bks.cpg/sg12_49_cif.got.tgz:96879.got - 2010.06.03 13:09:07.
