data_PCOD9184709
_publ_section_title
;
Structure prediction by ZEFSAII (Michael W. Deem and Ramdas Pophale) SiO2 
 PCOD9184709
Probable space group: C 2/M
;
_chemical_formula_sum "Si O2"
_cell_formula_units_Z 56
_cell_length_a 25.818159
_cell_length_b 20.622008
_cell_length_c 5.141535
_cell_angle_alpha 90.000000
_cell_angle_beta 94.587095
_cell_angle_gamma 90.000000
_cell_volume 2728.699458
_symmetry_space_group_name_H-M "C 2/M"
_symmetry_group_IT_number 12
_symmetry_cell_setting 'monoclinic'
loop_
_space_group_symop_operation_xyz
x,y,z
-x,y,-z
-x,-y,-z
x,-y,z
1/2+x,1/2+y,z
1/2-x,1/2+y,-z
1/2-x,1/2-y,-z
1/2+x,1/2-y,z
loop_
_atom_site_type_symbol
_atom_site_label
_atom_site_fract_x
_atom_site_fract_y
_atom_site_fract_z
Si Si1 0.126052 0.179250 0.702936
Si Si2 0.293593 0.836044 0.963242
Si Si3 0.950461 0.568383 0.162334
Si Si4 0.645967 0.929434 0.267789
Si Si5 0.105344 0.677947 0.642427
Si Si6 0.963859 0.924814 0.231622
Si Si7 0.696209 0.698336 0.240198
O O1 0.097138 0.245974 0.600820
O O2 0.084914 0.121684 0.726509
O O3 0.170839 0.174181 0.498149
O O4 0.154416 0.187991 0.991911
O O5 0.348504 0.823874 0.127319
O O6 0.248336 0.835129 0.156593
O O7 0.300106 0.905411 0.832002
O O8 0.288581 0.775246 0.762955
O O9 0.951604 0.500000 0.318656
O O10 0.945174 0.636706 0.301512
O O11 0.898778 0.564911 0.966864
O O12 0.000000 0.569057 0.000000
O O13 0.628191 0.868359 0.429643
O O14 0.650381 0.000000 0.399295
O O15 0.000000 0.923926 0.500000
O O16 0.947561 0.000000 0.177140
O O17 0.000000 0.904530 0.000000
#
# Coordination Sequence:
#
# PCOD9184709 Si02
#       7
#     8   8   8   8   8   8   8
#     4  11  22  38  61  93 120 148 193 246 291 346
#     4   9  20  35  55  80 113 156 199 234 295 351
#     4   9  19  35  51  73 107 151 198 242 290 338
#     4  10  19  34  54  76 110 154 198 239 283 346
#     4  10  20  33  54  80 114 147 196 242 291 340
#     4  10  22  43  68  90 119 159 193 230 297 376
#     4  10  21  36  62  87 119 153 194 245 296 344
#
# _framework density 20.522597999999999
#
# number of rings (size 3 to 8) (size 9 to 14) (size 15 to 20)
#    0.000    2.143    1.429    1.286    2.000    3.429 
#    2.571    3.571    0.000    0.000    0.000    0.000 
#    0.000    0.000    0.000    0.000    0.000    0.000 
#
# Total GULP energy -156000.177496 kJ/mol
# GULP energy per Si atom -5571.434911 kJ/mol
# Density = 2.047589 g / cm^3
# Si number density = 20.522598 Si / 1000 Ang^3
#
#
#
# Elastic Constant Matrix: (Units=GPa)
#
#
# Indices 1 2 3 4 5 6 
#
# 1 68.5533 52.6565 18.9041 0.0000 -29.9639 0.0000
# 2 52.6565 124.8108 34.4464 0.0000 -35.7876 0.0000
# 3 18.9041 34.4464 82.4796 0.0000 -24.0349 0.0000
# 4 0.0000 0.0000 0.0000 59.5331 0.0000 15.2629
# 5 -29.9639 -35.7876 -24.0349 0.0000 45.4527 0.0000
# 6 0.0000 0.0000 0.0000 15.2629 0.0000 74.2245
#
#
#
# Elastic Compliance Matrix: (Units=1/GPa)
#
#
# Indices 1 2 3 4 5 6 
#
# 1 0.024987 -0.007611 0.000598 0.000000 0.010796 0.000000
# 2 -0.007611 0.013050 -0.002570 0.000000 0.003899 0.000000
# 3 0.000598 -0.002570 0.014878 0.000000 0.006238 0.000000
# 4 0.000000 0.000000 0.000000 0.017732 0.000000 -0.003646
# 5 0.010796 0.003899 0.006238 0.000000 0.035486 0.000000
# 6 0.000000 0.000000 0.000000 -0.003646 0.000000 0.014222
#
#
# Mechanical properties :
#
#
# Convention : Reuss Voigt Hill
#
# Bulk Modulus (GPa) = 29.63022 54.20639 41.91830
# Shear Modulus (GPa) = 33.16227 47.16451 40.16339
#
# Velocity S-wave (km/s) = 4.02417 4.79913 4.42864
# Velocity P-wave (km/s) = 6.00510 7.56169 6.82790
#
# Compressibility (1/GPa) = 0.03374933
#
# Stress axis : x y z
#
# Youngs Moduli (GPa) = 40.02004 76.62569 67.21216
#
# Poissons Ratio (x) = 0.58323 -0.04017
# Poissons Ratio (y) = 0.30461 0.17271
# Poissons Ratio (z) = -0.02392 0.19690
#
# Static dielectric constant tensor:
#      x y z
#    x 1.717020 0.000000 -0.009170 
#    y 0.000000 1.824190 0.000000 
#    z -0.009170 0.000000 1.840890 
# 
# From -- ./inp_files/25615.got.cif
#   From: 2010.05.17/outbox.cif.g08.bks.cpg/sg12_13_cif.got.tgz:25615.got - 2010.06.03 13:09:07.
