data_PCOD9184668
_publ_section_title
;
Structure prediction by ZEFSAII (Michael W. Deem and Ramdas Pophale) SiO2 
 PCOD9184668
Probable space group: C 2/M
;
_chemical_formula_sum "Si O2"
_cell_formula_units_Z 58
_cell_length_a 27.168785
_cell_length_b 12.762235
_cell_length_c 15.024034
_cell_angle_alpha 90.000000
_cell_angle_beta 148.678929
_cell_angle_gamma 90.000000
_cell_volume 2707.993502
_symmetry_space_group_name_H-M "C 2/M"
_symmetry_group_IT_number 12
_symmetry_cell_setting 'monoclinic'
loop_
_space_group_symop_operation_xyz
x,y,z
-x,y,-z
-x,-y,-z
x,-y,z
1/2+x,1/2+y,z
1/2-x,1/2+y,-z
1/2-x,1/2-y,-z
1/2+x,1/2-y,z
loop_
_atom_site_type_symbol
_atom_site_label
_atom_site_fract_x
_atom_site_fract_y
_atom_site_fract_z
Si Si1 0.500000 0.000000 0.000000
Si Si2 0.683420 0.336791 0.008602
Si Si3 0.875893 0.383780 0.412026
Si Si4 0.694214 0.113419 0.321287
Si Si5 0.331029 0.208573 0.527391
Si Si6 0.928717 0.154475 0.464787
Si Si7 0.744932 0.888211 0.074974
Si Si8 0.023419 0.114215 0.258286
O O1 0.414727 0.090158 0.870835
O O2 0.700639 0.380602 0.935589
O O3 0.589316 0.370234 0.913596
O O4 0.775930 0.369503 0.206757
O O5 0.679216 0.211909 0.985338
O O6 0.913503 0.500000 0.451368
O O7 0.860733 0.366900 0.493727
O O8 0.934504 0.281199 0.475753
O O9 0.698312 0.141850 0.432486
O O10 0.748802 0.212413 0.364686
O O11 0.741911 0.000000 0.376634
O O12 0.415819 0.288799 0.685142
O O13 0.824505 0.122139 0.273259
O O14 0.951178 0.115889 0.597398
O O15 0.000000 0.116159 0.500000
O O16 0.695400 0.000000 0.004091
O O17 0.044999 0.000000 0.252448
#
# Coordination Sequence:
#
# PCOD9184668 Si02
#       8
#     2   8   8   8   8   8   8   8
#     4   8  20  36  68  92 122 142 188 224 296 330
#     4  10  21  34  50  77 108 144 194 232 293 336
#     4  10  21  36  52  76 113 154 183 234 287 343
#     4   9  19  40  63  90 114 152 179 232 284 347
#     4  10  21  36  62  86 117 145 194 223 278 362
#     4  10  20  33  52  77 103 144 205 244 284 340
#     4  10  19  34  54  72 102 147 196 251 288 336
#     4  11  21  34  54  82 113 149 185 245 285 333
#
# _framework density 21.418071999999999
#
# number of rings (size 3 to 8) (size 9 to 14) (size 15 to 20)
#    0.414    1.655    1.379    2.483    0.000    1.931 
#    0.000    4.138    0.000    0.000    0.000    7.724 
#    0.000    0.000    0.000    0.000    0.000    0.000 
#
# Total GULP energy -161532.557636 kJ/mol
# GULP energy per Si atom -5570.088194 kJ/mol
# Density = 2.136932 g / cm^3
# Si number density = 21.418072 Si / 1000 Ang^3
#
#
#
# Elastic Constant Matrix: (Units=GPa)
#
#
# Indices 1 2 3 4 5 6 
#
# 1 25.2402 -6.7408 -9.9466 0.0000 0.8511 0.0000
# 2 -6.7408 159.6636 0.4754 0.0000 4.3084 0.0000
# 3 -9.9466 0.4754 17.7275 0.0000 11.5916 0.0000
# 4 0.0000 0.0000 0.0000 8.9456 0.0000 -11.8212
# 5 0.8511 4.3084 11.5916 0.0000 24.8226 0.0000
# 6 0.0000 0.0000 0.0000 -11.8212 0.0000 14.8169
#
#
#
# Elastic Compliance Matrix: (Units=1/GPa)
#
#
# Indices 1 2 3 4 5 6 
#
# 1 0.062109 0.003201 0.052571 0.000000 -0.027235 0.000000
# 2 0.003201 0.006465 0.003495 0.000000 -0.002864 0.000000
# 3 0.052571 0.003495 0.125800 0.000000 -0.061155 0.000000
# 4 0.000000 0.000000 0.000000 -2.059804 0.000000 -1.643338
# 5 -0.027235 -0.002864 -0.061155 0.000000 0.070275 0.000000
# 6 0.000000 0.000000 0.000000 -1.643338 0.000000 -1.243586
#
#
# Mechanical properties :
#
#
# Convention : Reuss Voigt Hill
#
# Bulk Modulus (GPa) = 3.19583 18.91193 11.05388
# Shear Modulus (GPa) = -1.63775 24.30658 11.33441
#
# Velocity S-wave (km/s) = -0.87540 3.37243 2.30293
# Velocity P-wave (km/s) = 0.68819 4.90035 3.49907
#
# Compressibility (1/GPa) = 0.31290746
#
# Stress axis : x y z
#
# Youngs Moduli (GPa) = 16.10063 154.67506 7.94910
#
# Poissons Ratio (x) = -0.49504 -0.41789
# Poissons Ratio (y) = -0.05153 -0.02778
# Poissons Ratio (z) = -0.84642 -0.54061
#
# Static dielectric constant tensor:
#      x y z
#    x 1.748560 0.000000 0.010950 
#    y 0.000000 1.848300 0.000000 
#    z 0.010950 0.000000 1.764610 
# 
# From -- ./inp_files/296314.got.cif
#   From: 2010.05.17/outbox.cif.g08.bks.cpg/sg12_149_cif.got.tgz:296314.got - 2010.06.03 13:09:07.
