data_PCOD9184252
_publ_section_title
;
Structure prediction by ZEFSAII (Michael W. Deem and Ramdas Pophale) SiO2 
 PCOD9184252
Probable space group: C 2/M
;
_chemical_formula_sum "Si O2"
_cell_formula_units_Z 42
_cell_length_a 19.146435
_cell_length_b 12.533327
_cell_length_c 10.441705
_cell_angle_alpha 90.000000
_cell_angle_beta 125.921851
_cell_angle_gamma 90.000000
_cell_volume 2029.145147
_symmetry_space_group_name_H-M "C 2/M"
_symmetry_group_IT_number 12
_symmetry_cell_setting 'monoclinic'
loop_
_space_group_symop_operation_xyz
x,y,z
-x,y,-z
-x,-y,-z
x,-y,z
1/2+x,1/2+y,z
1/2-x,1/2+y,-z
1/2-x,1/2-y,-z
1/2+x,1/2-y,z
loop_
_atom_site_type_symbol
_atom_site_label
_atom_site_fract_x
_atom_site_fract_y
_atom_site_fract_z
Si Si1 0.372942 0.156299 0.994426
Si Si2 0.103776 0.118834 0.095700
Si Si3 0.109149 0.877278 0.389100
Si Si4 0.462456 0.215738 0.327681
Si Si5 0.500000 0.000000 0.000000
Si Si6 0.678832 0.617524 0.732357
O O1 0.426042 0.136727 0.181948
O O2 0.373126 0.283058 0.968541
O O3 0.425853 0.093151 0.944165
O O4 0.274008 0.123430 0.890492
O O5 0.140631 0.138380 0.278201
O O6 0.129269 0.000000 0.078887
O O7 0.000000 0.119102 0.000000
O O8 0.178943 0.870197 0.577609
O O9 0.035695 0.791846 0.344562
O O10 0.074843 0.000000 0.355329
O O11 0.500000 0.168816 0.500000
O O12 0.383736 0.292492 0.282284
O O13 0.641334 0.500000 0.718477
#
# Coordination Sequence:
#
# PCOD9184252 Si02
#       6
#     8   8   8   8   2   8
#     4  12  22  39  58  88 116 162 201 234 291 349
#     4  10  19  33  58  86 114 149 194 251 291 345
#     4   9  17  33  56  87 116 147 189 241 305 344
#     4  10  20  36  59  84 114 152 194 247 295 343
#     4  12  24  40  64  80 118 164 202 226 276 374
#     4  10  21  35  57  87 122 153 192 244 291 352
#
# _framework density 20.698371000000002
#
# number of rings (size 3 to 8) (size 9 to 14) (size 15 to 20)
#    0.000    1.714    3.810    1.143    0.000    3.810 
#    0.000    0.476    0.000    0.000    0.000    0.000 
#    0.000    0.000    0.000    0.000    0.000    0.000 
#
# Total GULP energy -116955.925343 kJ/mol
# GULP energy per Si atom -5569.329778 kJ/mol
# Density = 2.065126 g / cm^3
# Si number density = 20.698371 Si / 1000 Ang^3
#
#
#
# Elastic Constant Matrix: (Units=GPa)
#
#
# Indices 1 2 3 4 5 6 
#
# 1 19.9137 3.6374 7.1280 0.0000 6.3607 0.0000
# 2 3.6374 66.1022 13.4249 0.0000 -6.4188 0.0000
# 3 7.1280 13.4249 109.4484 0.0000 -3.4160 0.0000
# 4 0.0000 0.0000 0.0000 11.6400 0.0000 19.9821
# 5 6.3607 -6.4188 -3.4160 0.0000 28.0469 0.0000
# 6 0.0000 0.0000 0.0000 19.9821 0.0000 5.6123
#
#
#
# Elastic Compliance Matrix: (Units=1/GPa)
#
#
# Indices 1 2 3 4 5 6 
#
# 1 0.056747 -0.003752 -0.003678 0.000000 -0.014176 0.000000
# 2 -0.003752 0.016079 -0.001593 0.000000 0.004337 0.000000
# 3 -0.003678 -0.001593 0.009623 0.000000 0.001642 0.000000
# 4 0.000000 0.000000 0.000000 -0.016806 0.000000 0.059834
# 5 -0.014176 0.004337 0.001642 0.000000 0.040062 0.000000
# 6 0.000000 0.000000 0.000000 0.059834 0.000000 -0.034855
#
#
# Mechanical properties :
#
#
# Convention : Reuss Voigt Hill
#
# Bulk Modulus (GPa) = 15.52716 27.09389 21.31052
# Shear Modulus (GPa) = 45.30493 20.47812 32.89153
#
# Velocity S-wave (km/s) = 4.68355 3.14882 3.99066
# Velocity P-wave (km/s) = 6.06346 5.13209 5.61711
#
# Compressibility (1/GPa) = 0.06440326
#
# Stress axis : x y z
#
# Youngs Moduli (GPa) = 17.62220 62.19248 103.91953
#
# Poissons Ratio (x) = 0.23336 0.38221
# Poissons Ratio (y) = 0.06612 0.16550
# Poissons Ratio (z) = 0.06481 0.09904
#
# Static dielectric constant tensor:
#      x y z
#    x 1.707020 0.000000 -0.052730 
#    y 0.000000 1.616780 0.000000 
#    z -0.052730 0.000000 1.809780 
# 
# From -- ./inp_files/165250.got.cif
#   From: 2010.05.17/outbox.cif.g08.bks.cpg/sg12_83_cif.got.tgz:165250.got - 2010.06.03 13:09:07.
