data_PCOD9184452
_publ_section_title
;
Structure prediction by ZEFSAII (Michael W. Deem and Ramdas Pophale) SiO2 
 PCOD9184452
Probable space group: C 2/M
;
_chemical_formula_sum "Si O2"
_cell_formula_units_Z 64
_cell_length_a 25.751665
_cell_length_b 24.834131
_cell_length_c 18.918148
_cell_angle_alpha 90.000000
_cell_angle_beta 18.936295
_cell_angle_gamma 90.000000
_cell_volume 3926.177299
_symmetry_space_group_name_H-M "C 2/M"
_symmetry_group_IT_number 12
_symmetry_cell_setting 'monoclinic'
loop_
_space_group_symop_operation_xyz
x,y,z
-x,y,-z
-x,-y,-z
x,-y,z
1/2+x,1/2+y,z
1/2-x,1/2+y,-z
1/2-x,1/2-y,-z
1/2+x,1/2-y,z
loop_
_atom_site_type_symbol
_atom_site_label
_atom_site_fract_x
_atom_site_fract_y
_atom_site_fract_z
Si Si1 0.821651 0.935849 0.758414
Si Si2 0.738319 0.159252 0.964781
Si Si3 0.493310 0.064038 0.926046
Si Si4 0.185760 0.752733 0.254019
Si Si5 0.252435 0.354171 0.548013
Si Si6 0.310276 0.227528 0.245318
Si Si7 0.901493 0.705240 0.386107
Si Si8 0.418527 0.317138 0.877931
O O1 0.785538 0.898019 0.871425
O O2 0.000000 0.924004 0.500000
O O3 0.814780 0.000000 0.782168
O O4 0.679856 0.923117 0.884903
O O5 0.792268 0.204808 0.838412
O O6 0.824921 0.170216 0.926811
O O7 0.547888 0.166771 0.218875
O O8 0.637239 0.094643 0.702005
O O9 0.514781 0.000000 0.893081
O O10 0.500000 0.078896 0.000000
O O11 0.247511 0.779502 0.246801
O O12 0.000000 0.739564 0.500000
O O13 0.291772 0.699901 0.100705
O O14 0.230731 0.322028 0.649937
O O15 0.185002 0.318142 0.571003
O O16 0.441765 0.360764 0.290461
O O17 0.221472 0.279022 0.394090
O O18 0.500000 0.234414 0.000000
O O19 0.983729 0.761602 0.259004
#
# Coordination Sequence:
#
# PCOD9184452 Si02
#       8
#     8   8   8   8   8   8   8   8
#     4  10  22  37  53  75 102 131 170 213 246 289
#     4  11  20  34  50  71  99 140 169 201 249 296
#     4  10  22  36  53  76 102 132 169 213 249 285
#     4  11  20  32  48  72 102 134 169 209 240 295
#     4  11  20  34  51  70 103 140 168 201 245 300
#     4  11  20  29  48  72  99 132 171 201 243 294
#     4  10  19  34  48  68 101 135 168 209 241 293
#     4  10  21  32  48  71 100 132 172 202 248 294
#
# _framework density 16.300843
#
# number of rings (size 3 to 8) (size 9 to 14) (size 15 to 20)
#    0.000    1.500    1.250    8.250    3.500    0.000 
#    0.000    0.000    0.000    0.000    0.000    0.000 
#    0.000   20.000    0.000    0.000    0.000    0.000 
#
# Total GULP energy -178563.477777 kJ/mol
# GULP energy per Si atom -5580.108681 kJ/mol
# Density = 1.626374 g / cm^3
# Si number density = 16.300843 Si / 1000 Ang^3
#
#
#
# Elastic Constant Matrix: (Units=GPa)
#
#
# Indices 1 2 3 4 5 6 
#
# 1 70.3801 5.6326 9.7398 0.0130 -20.2246 -0.0077
# 2 5.6326 33.3464 18.9026 0.0085 -0.6314 0.0016
# 3 9.7398 18.9026 115.1076 -0.0152 -16.3657 -0.0069
# 4 0.0130 0.0085 -0.0152 14.9588 0.0067 -0.6306
# 5 -20.2246 -0.6314 -16.3657 0.0067 25.7944 0.0039
# 6 -0.0077 0.0016 -0.0069 -0.6306 0.0039 14.8334
#
#
#
# Elastic Compliance Matrix: (Units=1/GPa)
#
#
# Indices 1 2 3 4 5 6 
#
# 1 0.018742 -0.003543 0.001179 -0.000020 0.015356 0.000006
# 2 -0.003543 0.033934 -0.006100 -0.000020 -0.005818 -0.000008
# 3 0.001179 -0.006100 0.010661 0.000010 0.007540 0.000005
# 4 -0.000020 -0.000020 0.000010 0.066970 -0.000027 0.002847
# 5 0.015356 -0.005818 0.007540 -0.000027 0.055450 -0.000003
# 6 0.000006 -0.000008 0.000005 0.002847 -0.000003 0.067536
#
#
# Mechanical properties :
#
#
# Convention : Reuss Voigt Hill
#
# Bulk Modulus (GPa) = 21.54727 31.93154 26.73941
# Shear Modulus (GPa) = 17.50136 23.42127 20.46132
#
# Velocity S-wave (km/s) = 3.28021 3.79464 3.54677
# Velocity P-wave (km/s) = 5.25296 6.23141 5.76299
#
# Compressibility (1/GPa) = 0.04640959
#
# Stress axis : x y z
#
# Youngs Moduli (GPa) = 53.35668 29.46861 93.79614
#
# Poissons Ratio (x) = 0.10442 -0.11062
# Poissons Ratio (y) = 0.18907 0.57215
# Poissons Ratio (z) = -0.06293 0.17976
#
# Static dielectric constant tensor:
#      x y z
#    x 1.563040 0.000000 -0.010710 
#    y 0.000000 1.545920 0.000010 
#    z -0.010710 0.000010 1.590110 
# 
# From -- ./inp_files/272843.got.cif
#   From: 2010.05.17/outbox.cif.g08.bks.cpg/sg12_137_cif.got.tgz:272843.got - 2010.06.03 13:09:07.
