data_PCOD9184402
_publ_section_title
;
Structure prediction by ZEFSAII (Michael W. Deem and Ramdas Pophale) SiO2 
 PCOD9184402
Probable space group: C 2/M
;
_chemical_formula_sum "Si O2"
_cell_formula_units_Z 48
_cell_length_a 16.752195
_cell_length_b 14.649006
_cell_length_c 10.736320
_cell_angle_alpha 90.000000
_cell_angle_beta 59.158491
_cell_angle_gamma 90.000000
_cell_volume 2262.145310
_symmetry_space_group_name_H-M "C 2/M"
_symmetry_group_IT_number 12
_symmetry_cell_setting 'monoclinic'
loop_
_space_group_symop_operation_xyz
x,y,z
-x,y,-z
-x,-y,-z
x,-y,z
1/2+x,1/2+y,z
1/2-x,1/2+y,-z
1/2-x,1/2-y,-z
1/2+x,1/2-y,z
loop_
_atom_site_type_symbol
_atom_site_label
_atom_site_fract_x
_atom_site_fract_y
_atom_site_fract_z
Si Si1 0.588092 0.396613 0.508363
Si Si2 0.557936 0.650711 0.068191
Si Si3 0.761442 0.226087 0.198587
Si Si4 0.182975 0.096939 0.175283
Si Si5 0.893515 0.393295 0.539976
Si Si6 0.397777 0.238554 0.308411
O O1 0.500000 0.359815 0.500000
O O2 0.570429 0.500000 0.565893
O O3 0.662441 0.404016 0.338845
O O4 0.615146 0.328160 0.594756
O O5 0.586816 0.603004 0.174104
O O6 0.495149 0.738474 0.159088
O O7 0.500000 0.607459 0.000000
O O8 0.659288 0.666432 0.929531
O O9 0.736163 0.308107 0.125611
O O10 0.673905 0.167205 0.317292
O O11 0.815557 0.265232 0.275338
O O12 0.228279 0.000000 0.103956
O O13 0.864707 0.500000 0.561238
O O14 0.894521 0.347079 0.402785
O O15 0.000000 0.388425 0.500000
#
# Coordination Sequence:
#
# PCOD9184402 Si02
#       6
#     8   8   8   8   8   8
#     4  10  19  33  60  93 122 155 200 254 317 374
#     4  10  23  41  65  90 125 167 209 258 320 378
#     4  11  24  42  63  94 127 168 208 259 316 375
#     4  11  22  37  61  91 123 162 205 257 314 373
#     4  11  24  41  63  90 125 170 214 257 304 366
#     4  11  21  41  65  92 126 164 209 261 313 370
#
# _framework density 21.218796000000001
#
# number of rings (size 3 to 8) (size 9 to 14) (size 15 to 20)
#    0.000    1.333    3.333    2.500    0.000    2.333 
#    0.000    5.833    0.000    3.000    0.000    0.000 
#    0.000    0.000    0.000    0.000    0.000    0.000 
#
# Total GULP energy -133822.438561 kJ/mol
# GULP energy per Si atom -5575.934940 kJ/mol
# Density = 2.117050 g / cm^3
# Si number density = 21.218796 Si / 1000 Ang^3
#
#
#
# Elastic Constant Matrix: (Units=GPa)
#
#
# Indices 1 2 3 4 5 6 
#
# 1 110.1971 54.9452 29.9016 0.0000 18.2597 0.0000
# 2 54.9452 118.0296 30.6377 0.0000 3.5693 0.0000
# 3 29.9016 30.6377 89.4095 0.0000 -5.5346 0.0000
# 4 0.0000 0.0000 0.0000 3.5542 0.0000 -11.7951
# 5 18.2597 3.5693 -5.5346 0.0000 46.8235 0.0000
# 6 0.0000 0.0000 0.0000 -11.7951 0.0000 -7.7707
#
#
#
# Elastic Compliance Matrix: (Units=1/GPa)
#
#
# Indices 1 2 3 4 5 6 
#
# 1 0.013382 -0.005300 -0.002979 0.000000 -0.005167 0.000000
# 2 -0.005300 0.011455 -0.002094 0.000000 0.000946 0.000000
# 3 -0.002979 -0.002094 0.013076 0.000000 0.002867 0.000000
# 4 0.000000 0.000000 0.000000 0.046603 0.000000 -0.070738
# 5 -0.005167 0.000946 0.002867 0.000000 0.023638 0.000000
# 6 0.000000 0.000000 0.000000 -0.070738 0.000000 -0.021316
#
#
# Mechanical properties :
#
#
# Convention : Reuss Voigt Hill
#
# Bulk Modulus (GPa) = 58.25432 60.95614 59.60523
# Shear Modulus (GPa) = 44.12831 21.99819 33.06325
#
# Velocity S-wave (km/s) = 4.56530 3.22332 3.95169
# Velocity P-wave (km/s) = 7.43660 6.53015 6.99807
#
# Compressibility (1/GPa) = 0.01716611
#
# Stress axis : x y z
#
# Youngs Moduli (GPa) = 74.72905 87.30088 76.47705
#
# Poissons Ratio (x) = 0.46269 0.22782
# Poissons Ratio (y) = 0.39606 0.16015
# Poissons Ratio (z) = 0.22262 0.18282
#
# Static dielectric constant tensor:
#      x y z
#    x 1.756110 0.000000 0.011040 
#    y 0.000000 1.821330 0.000000 
#    z 0.011040 0.000000 1.877790 
# 
# From -- ./inp_files/143545.got.cif
#   From: 2010.05.17/outbox.cif.g08.bks.cpg/sg12_72_cif.got.tgz:143545.got - 2010.06.03 13:09:07.
