data_PCOD9184687
_publ_section_title
;
Structure prediction by ZEFSAII (Michael W. Deem and Ramdas Pophale) SiO2 
 PCOD9184687
Probable space group: C 2/M
;
_chemical_formula_sum "Si O2"
_cell_formula_units_Z 48
_cell_length_a 17.665601
_cell_length_b 19.185005
_cell_length_c 9.055696
_cell_angle_alpha 90.000000
_cell_angle_beta 51.893302
_cell_angle_gamma 90.000000
_cell_volume 2414.967157
_symmetry_space_group_name_H-M "C 2/M"
_symmetry_group_IT_number 12
_symmetry_cell_setting 'monoclinic'
loop_
_space_group_symop_operation_xyz
x,y,z
-x,y,-z
-x,-y,-z
x,-y,z
1/2+x,1/2+y,z
1/2-x,1/2+y,-z
1/2-x,1/2-y,-z
1/2+x,1/2-y,z
loop_
_atom_site_type_symbol
_atom_site_label
_atom_site_fract_x
_atom_site_fract_y
_atom_site_fract_z
Si Si1 0.834320 0.291271 0.984965
Si Si2 0.282892 0.581886 0.935297
Si Si3 0.376510 0.628833 0.520002
Si Si4 0.959561 0.916847 0.896873
Si Si5 0.964020 0.281719 0.391018
Si Si6 0.694815 0.815066 0.634392
O O1 0.938075 0.264426 0.812647
O O2 0.750000 0.250000 0.000000
O O3 0.811307 0.370955 0.964372
O O4 0.829576 0.293904 0.168023
O O5 0.263166 0.500000 0.971067
O O6 0.348014 0.595842 0.710420
O O7 0.352911 0.607254 0.982343
O O8 0.463411 0.595846 0.325121
O O9 0.408502 0.709944 0.500903
O O10 0.276938 0.626205 0.547471
O O11 0.950620 0.000000 0.924479
O O12 0.000000 0.885798 0.000000
O O13 0.895780 0.325421 0.363724
O O14 0.000000 0.315689 0.500000
O O15 0.750000 0.750000 0.500000
#
# Coordination Sequence:
#
# PCOD9184687 Si02
#       6
#     8   8   8   8   8   8
#     4  11  21  35  56  81 110 142 182 227 273 322
#     4  10  21  37  56  78 108 146 183 219 265 323
#     4  10  19  34  54  75 104 138 178 216 266 320
#     4  10  20  31  47  75 106 135 170 214 264 317
#     4  11  21  34  53  80 108 137 177 225 273 322
#     4   9  20  34  50  77 108 138 176 224 272 321
#
# _framework density 19.876047
#
# number of rings (size 3 to 8) (size 9 to 14) (size 15 to 20)
#    0.000    1.833    0.000    6.500    0.000    8.000 
#    0.000    0.000    0.000    9.500    0.000    0.000 
#    0.000    0.000    0.000    0.000    0.000    0.000 
#
# Total GULP energy -133851.776865 kJ/mol
# GULP energy per Si atom -5577.157369 kJ/mol
# Density = 1.983081 g / cm^3
# Si number density = 19.876047 Si / 1000 Ang^3
#
#
#
# Elastic Constant Matrix: (Units=GPa)
#
#
# Indices 1 2 3 4 5 6 
#
# 1 165.1056 19.5305 13.0990 0.0000 10.8924 0.0000
# 2 19.5305 44.8601 -3.6786 0.0000 2.9870 0.0000
# 3 13.0990 -3.6786 25.8925 0.0000 -4.5938 0.0000
# 4 0.0000 0.0000 0.0000 22.3657 0.0000 -1.1893
# 5 10.8924 2.9870 -4.5938 0.0000 30.2860 0.0000
# 6 0.0000 0.0000 0.0000 -1.1893 0.0000 20.1479
#
#
#
# Elastic Compliance Matrix: (Units=1/GPa)
#
#
# Indices 1 2 3 4 5 6 
#
# 1 0.006984 -0.003218 -0.004501 0.000000 -0.002877 0.000000
# 2 -0.003218 0.024132 0.004973 0.000000 -0.000468 0.000000
# 3 -0.004501 0.004973 0.042961 0.000000 0.007645 0.000000
# 4 0.000000 0.000000 0.000000 0.044852 0.000000 0.002648
# 5 -0.002877 -0.000468 0.007645 0.000000 0.035259 0.000000
# 6 0.000000 0.000000 0.000000 0.002648 0.000000 0.049789
#
#
# Mechanical properties :
#
#
# Convention : Reuss Voigt Hill
#
# Bulk Modulus (GPa) = 14.58035 32.64000 23.61018
# Shear Modulus (GPa) = 21.52100 28.35372 24.93736
#
# Velocity S-wave (km/s) = 3.29410 3.78104 3.54594
# Velocity P-wave (km/s) = 4.67116 5.95979 5.35438
#
# Compressibility (1/GPa) = 0.06858544
#
# Stress axis : x y z
#
# Youngs Moduli (GPa) = 143.17743 41.43938 23.27685
#
# Poissons Ratio (x) = 0.13336 0.10477
# Poissons Ratio (y) = 0.46078 -0.11577
# Poissons Ratio (z) = 0.64445 -0.20610
#
# Static dielectric constant tensor:
#      x y z
#    x 1.804610 0.000000 0.015830 
#    y 0.000000 1.721430 0.000000 
#    z 0.015830 0.000000 1.712330 
# 
# From -- ./inp_files/78661.got.cif
#   From: 2010.05.17/outbox.cif.g08.bks.cpg/sg12_40_cif.got.tgz:78661.got - 2010.06.03 13:09:07.
