data_PCOD9184294
_publ_section_title
;
Structure prediction by ZEFSAII (Michael W. Deem and Ramdas Pophale) SiO2 
 PCOD9184294
Probable space group: C 2/M
;
_chemical_formula_sum "Si O2"
_cell_formula_units_Z 56
_cell_length_a 21.175378
_cell_length_b 14.053386
_cell_length_c 19.559257
_cell_angle_alpha 90.000000
_cell_angle_beta 152.328777
_cell_angle_gamma 90.000000
_cell_volume 2703.050636
_symmetry_space_group_name_H-M "C 2/M"
_symmetry_group_IT_number 12
_symmetry_cell_setting 'monoclinic'
loop_
_space_group_symop_operation_xyz
x,y,z
-x,y,-z
-x,-y,-z
x,-y,z
1/2+x,1/2+y,z
1/2-x,1/2+y,-z
1/2-x,1/2-y,-z
1/2+x,1/2-y,z
loop_
_atom_site_type_symbol
_atom_site_label
_atom_site_fract_x
_atom_site_fract_y
_atom_site_fract_z
Si Si1 0.832771 0.115475 0.151617
Si Si2 0.266282 0.723145 0.672515
Si Si3 0.498098 0.112222 0.608321
Si Si4 0.559357 0.111686 0.820687
Si Si5 0.937142 0.889625 0.740289
Si Si6 0.254683 0.893898 0.568591
Si Si7 0.867293 0.218178 0.329330
O O1 0.854184 0.158533 0.247405
O O2 0.943850 0.138152 0.198887
O O3 0.835955 0.000000 0.161185
O O4 0.687609 0.150936 0.983883
O O5 0.153997 0.640187 0.559579
O O6 0.403014 0.679317 0.770765
O O7 0.206399 0.806538 0.566766
O O8 0.260193 0.771302 0.741367
O O9 0.528979 0.145969 0.715335
O O10 0.598536 0.174008 0.659380
O O11 0.516904 0.000000 0.620959
O O12 0.417055 0.115356 0.723473
O O13 0.591872 0.000000 0.843025
O O14 0.803330 0.886157 0.563442
O O15 0.958798 0.000000 0.781728
O O16 0.215548 0.000000 0.555442
O O17 0.000000 0.184693 0.500000
#
# Coordination Sequence:
#
# PCOD9184294 Si02
#       7
#     8   8   8   8   8   8   8
#     4  10  22  40  62  89 119 154 198 247 295 349
#     4  11  21  34  57  87 121 151 194 240 294 351
#     4  10  20  37  60  87 118 153 196 245 291 347
#     4   9  19  37  61  87 113 150 200 242 289 348
#     4  10  19  33  58  89 117 146 192 253 301 335
#     4  10  20  35  58  87 116 152 194 244 295 341
#     4  10  23  37  54  87 122 159 198 232 291 358
#
# _framework density 20.717333
#
# number of rings (size 3 to 8) (size 9 to 14) (size 15 to 20)
#    0.000    2.000    1.429    2.571    2.000    4.571 
#    0.000    0.714    0.000    2.571    0.000    4.000 
#    0.000    0.000    0.000    0.000    0.000    0.000 
#
# Total GULP energy -156183.948565 kJ/mol
# GULP energy per Si atom -5577.998163 kJ/mol
# Density = 2.067018 g / cm^3
# Si number density = 20.717333 Si / 1000 Ang^3
#
#
#
# Elastic Constant Matrix: (Units=GPa)
#
#
# Indices 1 2 3 4 5 6 
#
# 1 100.2835 34.1557 26.4708 0.0001 -7.4038 0.0000
# 2 34.1557 68.9892 5.0066 0.0003 1.8772 0.0002
# 3 26.4708 5.0066 82.6973 0.0004 5.2587 0.0003
# 4 0.0001 0.0003 0.0004 15.2181 0.0002 -5.7724
# 5 -7.4038 1.8772 5.2587 0.0002 16.8706 0.0001
# 6 0.0000 0.0002 0.0003 -5.7724 0.0001 21.6432
#
#
#
# Elastic Compliance Matrix: (Units=1/GPa)
#
#
# Indices 1 2 3 4 5 6 
#
# 1 0.014178 -0.006911 -0.004657 0.000000 0.008443 0.000000
# 2 -0.006911 0.017959 0.001474 0.000000 -0.005491 0.000000
# 3 -0.004657 0.001474 0.013910 0.000000 -0.006543 0.000000
# 4 0.000000 0.000000 0.000000 0.073107 -0.000001 0.019498
# 5 0.008443 -0.005491 -0.006543 -0.000001 0.065630 0.000000
# 6 0.000000 0.000000 0.000000 0.019498 0.000000 0.051404
#
#
# Mechanical properties :
#
#
# Convention : Reuss Voigt Hill
#
# Bulk Modulus (GPa) = 38.67084 42.58178 40.62631
# Shear Modulus (GPa) = 18.86820 23.16885 21.01853
#
# Velocity S-wave (km/s) = 3.02113 3.34777 3.18864
# Velocity P-wave (km/s) = 5.55663 5.96169 5.76272
#
# Compressibility (1/GPa) = 0.02585928
#
# Stress axis : x y z
#
# Youngs Moduli (GPa) = 70.53117 55.68210 71.89203
#
# Poissons Ratio (x) = 0.38483 0.33478
# Poissons Ratio (y) = 0.48745 -0.10598
# Poissons Ratio (z) = 0.32845 -0.08208
#
# Static dielectric constant tensor:
#      x y z
#    x 1.804300 0.000000 0.011640 
#    y 0.000000 1.775980 0.000000 
#    z 0.011640 0.000000 1.735450 
# 
# From -- ./inp_files/284604.got.cif
#   From: 2010.05.17/outbox.cif.g08.bks.cpg/sg12_143_cif.got.tgz:284604.got - 2010.06.03 13:09:07.
