data_PCOD9184360
_publ_section_title
;
Structure prediction by ZEFSAII (Michael W. Deem and Ramdas Pophale) SiO2 
 PCOD9184360
Probable space group: C 2/M
;
_chemical_formula_sum "Si O2"
_cell_formula_units_Z 44
_cell_length_a 13.209657
_cell_length_b 19.942326
_cell_length_c 9.208337
_cell_angle_alpha 90.000000
_cell_angle_beta 63.372131
_cell_angle_gamma 90.000000
_cell_volume 2168.478642
_symmetry_space_group_name_H-M "C 2/M"
_symmetry_group_IT_number 12
_symmetry_cell_setting 'monoclinic'
loop_
_space_group_symop_operation_xyz
x,y,z
-x,y,-z
-x,-y,-z
x,-y,z
1/2+x,1/2+y,z
1/2-x,1/2+y,-z
1/2-x,1/2-y,-z
1/2+x,1/2-y,z
loop_
_atom_site_type_symbol
_atom_site_label
_atom_site_fract_x
_atom_site_fract_y
_atom_site_fract_z
Si Si1 0.309123 0.077864 0.120406
Si Si2 0.961621 0.924004 0.691892
Si Si3 0.707211 0.924034 0.196799
Si Si4 0.000000 0.623424 0.500000
Si Si5 0.649957 0.331725 0.695230
Si Si6 0.643850 0.177488 0.661120
O O1 0.172756 0.086097 0.215992
O O2 0.365170 0.124700 0.203605
O O3 0.336124 0.000000 0.132787
O O4 0.336245 0.093192 0.935876
O O5 0.000000 0.921324 0.500000
O O6 0.033969 0.868748 0.729415
O O7 0.986466 0.000000 0.729564
O O8 0.601873 0.920486 0.373406
O O9 0.795428 0.871028 0.204635
O O10 0.753570 0.000000 0.161248
O O11 0.048627 0.667948 0.599664
O O12 0.639830 0.252535 0.725000
O O13 0.738102 0.336268 0.501974
#
# Coordination Sequence:
#
# PCOD9184360 Si02
#       6
#     8   8   8   4   8   8
#     4  10  22  39  60  87 118 148 194 247 291 340
#     4  10  19  33  59  89 114 149 188 232 287 346
#     4  10  22  40  60  86 117 152 193 243 290 341
#     4  10  23  40  60  82 113 154 200 240 287 346
#     4  10  21  36  60  86 120 155 190 234 286 355
#     4  10  22  38  59  86 116 157 195 240 285 340
#
# _framework density 20.290723
#
# number of rings (size 3 to 8) (size 9 to 14) (size 15 to 20)
#    0.000    2.000    1.818    0.818    1.273    7.273 
#    0.000    6.364    0.000    0.000    0.000    0.000 
#    0.000    0.000    0.000    0.000    0.000    0.000 
#
# Total GULP energy -122897.462089 kJ/mol
# GULP energy per Si atom -5586.248277 kJ/mol
# Density = 2.024454 g / cm^3
# Si number density = 20.290723 Si / 1000 Ang^3
#
#
#
# Elastic Constant Matrix: (Units=GPa)
#
#
# Indices 1 2 3 4 5 6 
#
# 1 79.6857 64.3159 25.0678 0.0000 29.5230 0.0000
# 2 64.3159 131.4077 51.7519 0.0000 45.0392 0.0000
# 3 25.0678 51.7519 66.8926 0.0000 26.3896 0.0000
# 4 0.0000 0.0000 0.0000 12.4786 0.0000 2.9594
# 5 29.5230 45.0392 26.3896 0.0000 36.5762 0.0000
# 6 0.0000 0.0000 0.0000 2.9594 0.0000 14.2896
#
#
#
# Elastic Compliance Matrix: (Units=1/GPa)
#
#
# Indices 1 2 3 4 5 6 
#
# 1 0.022073 -0.008559 0.001707 0.000000 -0.008508 0.000000
# 2 -0.008559 0.017982 -0.006562 0.000000 -0.010499 0.000000
# 3 0.001707 -0.006562 0.023404 0.000000 -0.010183 0.000000
# 4 0.000000 0.000000 0.000000 0.084277 0.000000 -0.017454
# 5 -0.008508 -0.010499 -0.010183 0.000000 0.054483 0.000000
# 6 0.000000 0.000000 0.000000 -0.017454 0.000000 0.073596
#
#
# Mechanical properties :
#
#
# Convention : Reuss Voigt Hill
#
# Bulk Modulus (GPa) = 27.30070 62.25077 44.77574
# Shear Modulus (GPa) = 15.88035 21.79224 18.83629
#
# Velocity S-wave (km/s) = 2.80061 3.28075 3.05014
# Velocity P-wave (km/s) = 4.89304 6.71544 5.87533
#
# Compressibility (1/GPa) = 0.03662910
#
# Stress axis : x y z
#
# Youngs Moduli (GPa) = 45.30407 55.61020 42.72789
#
# Poissons Ratio (x) = 0.47599 -0.07293
# Poissons Ratio (y) = 0.38778 0.28040
# Poissons Ratio (z) = -0.07732 0.36494
#
# Static dielectric constant tensor:
#      x y z
#    x 1.712250 0.000000 -0.022850 
#    y 0.000000 1.693570 0.000000 
#    z -0.022850 0.000000 1.716450 
# 
# From -- ./inp_files/49193.got.cif
#   From: 2010.05.17/outbox.cif.g08.bks.cpg/sg12_25_cif.got.tgz:49193.got - 2010.06.03 13:09:07.
