data_PCOD9184801
_publ_section_title
;
Structure prediction by ZEFSAII (Michael W. Deem and Ramdas Pophale) SiO2 
 PCOD9184801
Probable space group: C 2/M
;
_chemical_formula_sum "Si O2"
_cell_formula_units_Z 56
_cell_length_a 21.268540
_cell_length_b 18.097747
_cell_length_c 7.961729
_cell_angle_alpha 90.000000
_cell_angle_beta 60.080621
_cell_angle_gamma 90.000000
_cell_volume 2656.149146
_symmetry_space_group_name_H-M "C 2/M"
_symmetry_group_IT_number 12
_symmetry_cell_setting 'monoclinic'
loop_
_space_group_symop_operation_xyz
x,y,z
-x,y,-z
-x,-y,-z
x,-y,z
1/2+x,1/2+y,z
1/2-x,1/2+y,-z
1/2-x,1/2-y,-z
1/2+x,1/2-y,z
loop_
_atom_site_type_symbol
_atom_site_label
_atom_site_fract_x
_atom_site_fract_y
_atom_site_fract_z
Si Si1 0.491718 0.918321 0.311528
Si Si2 0.794521 0.351732 0.485095
Si Si3 0.778941 0.362281 0.864102
Si Si4 0.360182 0.709567 0.844419
Si Si5 0.986239 0.741818 0.210698
Si Si6 0.155008 0.185949 0.511254
Si Si7 0.147516 0.581111 0.919967
O O1 0.500000 0.922559 0.500000
O O2 0.459538 0.836270 0.325899
O O3 0.461495 0.000000 0.299284
O O4 0.568772 0.911968 0.111587
O O5 0.805486 0.392960 0.648891
O O6 0.807793 0.267231 0.524404
O O7 0.712144 0.364431 0.531351
O O8 0.839261 0.365350 0.254409
O O9 0.824255 0.289501 0.858788
O O10 0.695434 0.335211 0.963228
O O11 0.795318 0.411685 0.004214
O O12 0.440578 0.727298 0.801464
O O13 0.357016 0.669636 0.668363
O O14 0.923517 0.802366 0.306466
O O15 0.000000 0.725427 0.000000
O O16 0.154133 0.500000 0.836876
#
# Coordination Sequence:
#
# PCOD9184801 Si02
#       7
#     8   8   8   8   8   8   8
#     4  10  22  39  54  73 111 157 199 231 270 332
#     4  10  21  37  56  85 111 147 193 241 290 338
#     4  10  20  35  59  81 113 149 189 239 292 335
#     4  10  19  34  54  82 114 148 184 240 294 338
#     4  12  22  32  53  84 116 150 194 232 285 348
#     4  10  20  34  56  82 115 147 188 239 293 341
#     4  11  22  39  59  81 115 157 197 235 279 339
#
# _framework density 21.083154
#
# number of rings (size 3 to 8) (size 9 to 14) (size 15 to 20)
#    0.000    1.571    2.857    3.000    4.000    0.857 
#    0.000    0.714    0.000    0.000    0.000    2.000 
#    0.000    3.429    0.000    0.000    0.000    0.000 
#
# Total GULP energy -156174.386869 kJ/mol
# GULP energy per Si atom -5577.656674 kJ/mol
# Density = 2.103517 g / cm^3
# Si number density = 21.083154 Si / 1000 Ang^3
#
#
#
# Elastic Constant Matrix: (Units=GPa)
#
#
# Indices 1 2 3 4 5 6 
#
# 1 129.1456 7.3535 36.7079 0.0000 4.1686 0.0000
# 2 7.3535 12.9139 9.2898 0.0000 4.1786 0.0000
# 3 36.7079 9.2898 116.7255 0.0000 22.5732 0.0000
# 4 0.0000 0.0000 0.0000 -3.9359 0.0000 -10.5440
# 5 4.1686 4.1786 22.5732 0.0000 44.8724 0.0000
# 6 0.0000 0.0000 0.0000 -10.5440 0.0000 -8.0331
#
#
#
# Elastic Compliance Matrix: (Units=1/GPa)
#
#
# Indices 1 2 3 4 5 6 
#
# 1 0.008648 -0.003309 -0.002615 0.000000 0.000820 0.000000
# 2 -0.003309 0.084361 -0.004668 0.000000 -0.005200 0.000000
# 3 -0.002615 -0.004668 0.010668 0.000000 -0.004689 0.000000
# 4 0.000000 0.000000 0.000000 0.100971 0.000000 -0.132531
# 5 0.000820 -0.005200 -0.004689 0.000000 0.025052 0.000000
# 6 0.000000 0.000000 0.000000 -0.132531 0.000000 0.049472
#
#
# Mechanical properties :
#
#
# Convention : Reuss Voigt Hill
#
# Bulk Modulus (GPa) = 12.12216 40.60972 26.36594
# Shear Modulus (GPa) = 15.25075 20.27627 17.76351
#
# Velocity S-wave (km/s) = 2.69246 3.10454 2.90581
# Velocity P-wave (km/s) = 3.92784 5.67048 4.87762
#
# Compressibility (1/GPa) = 0.08249355
#
# Stress axis : x y z
#
# Youngs Moduli (GPa) = 115.62810 11.85387 93.74070
#
# Poissons Ratio (x) = 0.03922 0.24514
# Poissons Ratio (y) = 0.38260 0.43755
# Poissons Ratio (z) = 0.30237 0.05533
#
# Static dielectric constant tensor:
#      x y z
#    x 1.818240 0.000000 -0.024730 
#    y 0.000000 1.796830 0.000000 
#    z -0.024730 0.000000 1.797610 
# 
# From -- ./inp_files/98798.got.cif
#   From: 2010.05.17/outbox.cif.g08.bks.cpg/sg12_50_cif.got.tgz:98798.got - 2010.06.03 13:09:07.
