data_PCOD9184800
_publ_section_title
;
Structure prediction by ZEFSAII (Michael W. Deem and Ramdas Pophale) SiO2 
 PCOD9184800
Probable space group: C 2/M
;
_chemical_formula_sum "Si O2"
_cell_formula_units_Z 48
_cell_length_a 9.804482
_cell_length_b 19.738274
_cell_length_c 16.197352
_cell_angle_alpha 90.000000
_cell_angle_beta 121.194228
_cell_angle_gamma 90.000000
_cell_volume 2681.361942
_symmetry_space_group_name_H-M "C 2/M"
_symmetry_group_IT_number 12
_symmetry_cell_setting 'monoclinic'
loop_
_space_group_symop_operation_xyz
x,y,z
-x,y,-z
-x,-y,-z
x,-y,z
1/2+x,1/2+y,z
1/2-x,1/2+y,-z
1/2-x,1/2-y,-z
1/2+x,1/2-y,z
loop_
_atom_site_type_symbol
_atom_site_label
_atom_site_fract_x
_atom_site_fract_y
_atom_site_fract_z
Si Si1 0.692087 0.712800 0.873052
Si Si2 0.663637 0.925894 0.604476
Si Si3 0.861480 0.296626 0.755914
Si Si4 0.434777 0.078946 0.234849
Si Si5 0.823074 0.855885 0.965920
Si Si6 0.690104 0.215084 0.563334
O O1 0.764211 0.690287 0.808848
O O2 0.514557 0.746075 0.815684
O O3 0.800818 0.777673 0.930716
O O4 0.702165 0.653316 0.943974
O O5 0.500000 0.929847 0.500000
O O6 0.625556 0.912704 0.689334
O O7 0.754042 0.861214 0.596779
O O8 0.741295 0.000000 0.622497
O O9 0.744659 0.259288 0.657104
O O10 0.927793 0.366233 0.738482
O O11 0.300817 0.099833 0.125481
O O12 0.478965 0.000000 0.239324
O O13 0.000000 0.879035 0.000000
O O14 0.500000 0.211114 0.500000
O O15 0.750000 0.250000 0.500000
#
# Coordination Sequence:
#
# PCOD9184800 Si02
#       6
#     8   8   8   8   8   8
#     4  10  20  32  55  82 111 148 191 236 296 351
#     4   9  18  35  57  82 111 148 188 228 279 347
#     4  11  20  36  57  83 115 154 193 246 291 351
#     4  10  22  37  57  83 114 156 199 239 293 352
#     4  10  19  34  54  82 114 145 193 245 289 345
#     4  11  21  35  58  91 119 146 192 246 290 338
#
# _framework density 17.901349
#
# number of rings (size 3 to 8) (size 9 to 14) (size 15 to 20)
#    0.000    1.833    1.667    5.000    0.000    0.333 
#    0.000    1.667    0.000    5.000    0.000    0.000 
#    0.000    0.000    0.000    0.000    0.000    0.000 
#
# Total GULP energy -133787.983935 kJ/mol
# GULP energy per Si atom -5574.499331 kJ/mol
# Density = 1.786060 g / cm^3
# Si number density = 17.901349 Si / 1000 Ang^3
#
#
#
# Elastic Constant Matrix: (Units=GPa)
#
#
# Indices 1 2 3 4 5 6 
#
# 1 59.7998 35.8039 27.8591 0.0000 -11.8831 0.0000
# 2 35.8039 127.3451 47.8878 0.0000 -18.7695 0.0000
# 3 27.8591 47.8878 97.1117 0.0000 -13.5178 0.0000
# 4 0.0000 0.0000 0.0000 -17.2351 0.0000 -1.6996
# 5 -11.8831 -18.7695 -13.5178 0.0000 37.2606 0.0000
# 6 0.0000 0.0000 0.0000 -1.6996 0.0000 15.9970
#
#
#
# Elastic Compliance Matrix: (Units=1/GPa)
#
#
# Indices 1 2 3 4 5 6 
#
# 1 0.021624 -0.004196 -0.003653 0.000000 0.003457 0.000000
# 2 -0.004196 0.010856 -0.003764 0.000000 0.002764 0.000000
# 3 -0.003653 -0.003764 0.013455 0.000000 0.001820 0.000000
# 4 0.000000 0.000000 0.000000 -0.057420 0.000000 -0.006100
# 5 0.003457 0.002764 0.001820 0.000000 0.029993 0.000000
# 6 0.000000 0.000000 0.000000 -0.006100 0.000000 0.061864
#
#
# Mechanical properties :
#
#
# Convention : Reuss Voigt Hill
#
# Bulk Modulus (GPa) = 44.03946 56.37313 50.20629
# Shear Modulus (GPa) = 44.97695 18.71822 31.84759
#
# Velocity S-wave (km/s) = 5.01791 3.23713 4.22247
# Velocity P-wave (km/s) = 7.63067 6.74769 7.20273
#
# Compressibility (1/GPa) = 0.02270691
#
# Stress axis : x y z
#
# Youngs Moduli (GPa) = 46.24558 92.11845 74.32185
#
# Poissons Ratio (x) = 0.38657 0.27148
# Poissons Ratio (y) = 0.19407 0.27978
# Poissons Ratio (z) = 0.16892 0.34678
#
# Static dielectric constant tensor:
#      x y z
#    x 1.609120 0.000000 -0.007580 
#    y 0.000000 1.628020 0.000000 
#    z -0.007580 0.000000 1.659650 
# 
# From -- ./inp_files/196940.got.cif
#   From: 2010.05.17/outbox.cif.g08.bks.cpg/sg12_99_cif.got.tgz:196940.got - 2010.06.03 13:09:07.
