data_PCOD9184587
_publ_section_title
;
Structure prediction by ZEFSAII (Michael W. Deem and Ramdas Pophale) SiO2 
 PCOD9184587
Probable space group: C 2/M
;
_chemical_formula_sum "Si O2"
_cell_formula_units_Z 44
_cell_length_a 26.647338
_cell_length_b 13.644371
_cell_length_c 6.357044
_cell_angle_alpha 90.000000
_cell_angle_beta 96.646833
_cell_angle_gamma 90.000000
_cell_volume 2295.797594
_symmetry_space_group_name_H-M "C 2/M"
_symmetry_group_IT_number 12
_symmetry_cell_setting 'monoclinic'
loop_
_space_group_symop_operation_xyz
x,y,z
-x,y,-z
-x,-y,-z
x,-y,z
1/2+x,1/2+y,z
1/2-x,1/2+y,-z
1/2-x,1/2-y,-z
1/2+x,1/2-y,z
loop_
_atom_site_type_symbol
_atom_site_label
_atom_site_fract_x
_atom_site_fract_y
_atom_site_fract_z
Si Si1 0.051358 0.208096 0.904504
Si Si2 0.178362 0.294133 0.395954
Si Si3 0.847880 0.108410 0.911905
Si Si4 0.924397 0.386764 0.791141
Si Si5 0.500000 0.792006 0.500000
Si Si6 0.223870 0.191047 0.799201
O O1 0.037563 0.225102 0.655815
O O2 0.096337 0.134963 0.978958
O O3 0.067828 0.313493 0.009377
O O4 0.000000 0.179191 0.000000
O O5 0.167731 0.193183 0.260968
O O6 0.130015 0.361716 0.335998
O O7 0.189463 0.262187 0.639442
O O8 0.229764 0.341280 0.327098
O O9 0.845601 0.000000 0.817649
O O10 0.811129 0.115100 0.096144
O O11 0.928217 0.500000 0.850898
O O12 0.967333 0.356560 0.644593
O O13 0.250000 0.250000 0.000000
#
# Coordination Sequence:
#
# PCOD9184587 Si02
#       6
#     8   8   8   8   4   8
#     4   9  20  36  52  73 103 135 169 212 257 303
#     4   9  19  36  54  75 107 138 168 213 261 304
#     4  10  20  34  54  78 103 137 177 212 252 304
#     4  10  20  33  52  77 102 132 170 209 254 309
#     4  10  19  34  53  72 102 136 167 210 261 304
#     4   9  18  35  55  74 101 136 171 211 256 304
#
# _framework density 19.165451000000001
#
# number of rings (size 3 to 8) (size 9 to 14) (size 15 to 20)
#    0.000    2.545    0.000    1.364    0.000    5.818 
#    0.000    7.727    0.000    0.000    0.000    0.000 
#    0.000    0.000    0.000    0.000    0.000    0.000 
#
# Total GULP energy -122702.715083 kJ/mol
# GULP energy per Si atom -5577.396140 kJ/mol
# Density = 1.912183 g / cm^3
# Si number density = 19.165451 Si / 1000 Ang^3
#
#
#
# Elastic Constant Matrix: (Units=GPa)
#
#
# Indices 1 2 3 4 5 6 
#
# 1 85.5368 20.0755 -0.0495 0.0000 15.8801 0.0000
# 2 20.0755 57.7100 4.7251 0.0000 -11.6438 0.0000
# 3 -0.0495 4.7251 74.7402 0.0000 22.1345 0.0000
# 4 0.0000 0.0000 0.0000 9.6818 0.0000 -4.8588
# 5 15.8801 -11.6438 22.1345 0.0000 23.9638 0.0000
# 6 0.0000 0.0000 0.0000 -4.8588 0.0000 -9.0269
#
#
#
# Elastic Compliance Matrix: (Units=1/GPa)
#
#
# Indices 1 2 3 4 5 6 
#
# 1 0.020183 -0.013552 0.009335 0.000000 -0.028582 0.000000
# 2 -0.013552 0.030091 -0.012253 0.000000 0.034919 0.000000
# 3 0.009335 -0.012253 0.024441 0.000000 -0.034715 0.000000
# 4 0.000000 0.000000 0.000000 0.081320 0.000000 -0.043771
# 5 -0.028582 0.034919 -0.034715 0.000000 0.109702 0.000000
# 6 0.000000 0.000000 0.000000 -0.043771 0.000000 -0.087220
#
#
# Mechanical properties :
#
#
# Convention : Reuss Voigt Hill
#
# Bulk Modulus (GPa) = 23.93753 29.72103 26.82928
# Shear Modulus (GPa) = 22.18450 17.80615 19.99532
#
# Velocity S-wave (km/s) = 3.40593 3.05138 3.23352
# Velocity P-wave (km/s) = 5.29001 5.28733 5.28867
#
# Compressibility (1/GPa) = 0.04177541
#
# Stress axis : x y z
#
# Youngs Moduli (GPa) = 49.54590 33.23248 40.91414
#
# Poissons Ratio (x) = 0.45038 -0.38192
# Poissons Ratio (y) = 0.67146 0.50131
# Poissons Ratio (z) = -0.46250 0.40719
#
# Static dielectric constant tensor:
#      x y z
#    x 1.695080 0.000000 -0.007900 
#    y 0.000000 1.635280 0.000000 
#    z -0.007900 0.000000 1.672650 
# 
# From -- ./inp_files/27952.got.cif
#   From: 2010.05.17/outbox.cif.g08.bks.cpg/sg12_14_cif.got.tgz:27952.got - 2010.06.03 13:09:07.
