data_PCOD9184737
_publ_section_title
;
Structure prediction by ZEFSAII (Michael W. Deem and Ramdas Pophale) SiO2 
 PCOD9184737
Probable space group: C 2/M
;
_chemical_formula_sum "Si O2"
_cell_formula_units_Z 48
_cell_length_a 8.026700
_cell_length_b 28.148888
_cell_length_c 11.553143
_cell_angle_alpha 90.000000
_cell_angle_beta 67.637842
_cell_angle_gamma 90.000000
_cell_volume 2414.043425
_symmetry_space_group_name_H-M "C 2/M"
_symmetry_group_IT_number 12
_symmetry_cell_setting 'monoclinic'
loop_
_space_group_symop_operation_xyz
x,y,z
-x,y,-z
-x,-y,-z
x,-y,z
1/2+x,1/2+y,z
1/2-x,1/2+y,-z
1/2-x,1/2-y,-z
1/2+x,1/2-y,z
loop_
_atom_site_type_symbol
_atom_site_label
_atom_site_fract_x
_atom_site_fract_y
_atom_site_fract_z
Si Si1 0.780279 0.811733 0.432536
Si Si2 0.183589 0.000000 0.790783
Si Si3 0.341811 0.602426 0.280798
Si Si4 0.731898 0.103550 0.873530
Si Si5 0.100304 0.648023 0.141456
Si Si6 0.243476 0.000000 0.038144
Si Si7 0.489231 0.225616 0.325653
O O1 0.795927 0.867326 0.406525
O O2 0.696325 0.797947 0.577627
O O3 0.637899 0.792043 0.376534
O O4 0.956491 0.781510 0.351194
O O5 0.215316 0.047744 0.710893
O O6 0.972255 0.000000 0.882380
O O7 0.279935 0.000000 0.890666
O O8 0.557199 0.606035 0.209691
O O9 0.236342 0.627258 0.201760
O O10 0.589078 0.119469 0.814503
O O11 0.693704 0.049269 0.922446
O O12 0.691134 0.137849 0.993912
O O13 0.048599 0.702032 0.189662
#
# Coordination Sequence:
#
# PCOD9184737 Si02
#       7
#     8   4   8   8   8   4   8
#     4   9  19  35  59  77 102 135 181 220 266 306
#     4   9  16  29  54  78 105 139 177 214 258 305
#     4  10  19  34  54  78 107 140 172 222 261 308
#     4  10  20  32  52  77 107 142 175 211 263 308
#     4  10  20  32  51  77 111 132 174 218 259 313
#     4   9  16  30  51  76 102 140 189 213 237 316
#     4   9  19  36  55  80 101 134 181 222 257 317
#
# _framework density 19.883651
#
# number of rings (size 3 to 8) (size 9 to 14) (size 15 to 20)
#    0.000    2.500    1.667    0.500    2.333    2.000 
#    0.000    0.833    3.667   10.000    0.000    3.500 
#    0.000    0.000    0.000    0.000    0.000    0.000 
#
# Total GULP energy -133678.828720 kJ/mol
# GULP energy per Si atom -5569.951197 kJ/mol
# Density = 1.983840 g / cm^3
# Si number density = 19.883651 Si / 1000 Ang^3
#
#
#
# Elastic Constant Matrix: (Units=GPa)
#
#
# Indices 1 2 3 4 5 6 
#
# 1 98.1624 -5.5084 -10.9305 0.0000 -2.9331 0.0000
# 2 -5.5084 83.7088 14.0227 0.0000 -8.0608 0.0000
# 3 -10.9305 14.0227 21.6915 0.0000 -3.6071 0.0000
# 4 0.0000 0.0000 0.0000 32.0474 0.0000 2.3054
# 5 -2.9331 -8.0608 -3.6071 0.0000 2.3932 0.0000
# 6 0.0000 0.0000 0.0000 2.3054 0.0000 16.6378
#
#
#
# Elastic Compliance Matrix: (Units=1/GPa)
#
#
# Indices 1 2 3 4 5 6 
#
# 1 0.013025 0.003148 0.011938 0.000000 0.044559 0.000000
# 2 0.003148 0.018509 0.000840 0.000000 0.067468 0.000000
# 3 0.011938 0.000840 0.072697 0.000000 0.127031 0.000000
# 4 0.000000 0.000000 0.000000 0.031518 0.000000 -0.004367
# 5 0.044559 0.067468 0.127031 0.000000 0.891173 0.000000
# 6 0.000000 0.000000 0.000000 -0.004367 0.000000 0.060709
#
#
# Mechanical properties :
#
#
# Convention : Reuss Voigt Hill
#
# Bulk Modulus (GPa) = 7.34844 22.08114 14.71479
# Shear Modulus (GPa) = 4.54074 23.94760 14.24417
#
# Velocity S-wave (km/s) = 1.51282 3.47419 2.67942
# Velocity P-wave (km/s) = 2.59908 5.21753 4.12176
#
# Compressibility (1/GPa) = 0.13608336
#
# Stress axis : x y z
#
# Youngs Moduli (GPa) = 76.77784 54.02633 13.75564
#
# Poissons Ratio (x) = -0.17008 -0.16421
# Poissons Ratio (y) = -0.24171 -0.01155
# Poissons Ratio (z) = -0.91656 -0.04538
#
# Static dielectric constant tensor:
#      x y z
#    x 1.765950 0.000000 -0.016180 
#    y 0.000000 1.732290 0.000000 
#    z -0.016180 0.000000 1.695130 
# 
# From -- ./inp_files/124778.got.cif
#   From: 2010.05.17/outbox.cif.g08.bks.cpg/sg12_63_cif.got.tgz:124778.got - 2010.06.03 13:09:07.
