data_PCOD9184922
_publ_section_title
;
Structure prediction by ZEFSAII (Michael W. Deem and Ramdas Pophale) SiO2 
 PCOD9184922
Probable space group: C 2/M
;
_chemical_formula_sum "Si O2"
_cell_formula_units_Z 64
_cell_length_a 20.011126
_cell_length_b 7.368152
_cell_length_c 34.709624
_cell_angle_alpha 90.000000
_cell_angle_beta 150.235760
_cell_angle_gamma 90.000000
_cell_volume 2540.621759
_symmetry_space_group_name_H-M "C 2/M"
_symmetry_group_IT_number 12
_symmetry_cell_setting 'monoclinic'
loop_
_space_group_symop_operation_xyz
x,y,z
-x,y,-z
-x,-y,-z
x,-y,z
1/2+x,1/2+y,z
1/2-x,1/2+y,-z
1/2-x,1/2-y,-z
1/2+x,1/2-y,z
loop_
_atom_site_type_symbol
_atom_site_label
_atom_site_fract_x
_atom_site_fract_y
_atom_site_fract_z
Si Si1 0.434864 0.718472 0.267258
Si Si2 0.868797 0.278153 0.768654
Si Si3 0.573918 0.721072 0.497557
Si Si4 0.328497 0.212083 0.665901
Si Si5 0.821851 0.717139 0.076789
Si Si6 0.588569 0.292214 0.010317
Si Si7 0.338434 0.780472 0.837687
Si Si8 0.410487 0.283140 0.579051
O O1 0.434085 0.500000 0.267674
O O2 0.519170 0.771782 0.272116
O O3 0.280702 0.778240 0.193592
O O4 0.514565 0.785432 0.345248
O O5 0.866100 0.500000 0.766535
O O6 0.806282 0.212867 0.697382
O O7 0.804755 0.226042 0.777143
O O8 0.024903 0.219621 0.846792
O O9 0.500000 0.776624 0.500000
O O10 0.562736 0.500000 0.490375
O O11 0.727724 0.781104 0.582894
O O12 0.535751 0.783575 0.435652
O O13 0.296623 0.000000 0.652691
O O14 0.827246 0.500000 0.084384
O O15 0.750000 0.750000 0.000000
O O16 0.726087 0.789656 0.062986
O O17 0.616538 0.500000 0.035913
O O18 0.483019 0.291552 0.922242
O O19 0.500000 0.205548 0.000000
O O20 0.347290 0.000000 0.843052
O O21 0.430623 0.500000 0.589500
O O22 0.250000 0.250000 0.500000
#
# Coordination Sequence:
#
# PCOD9184922 Si02
#       8
#     8   8   8   8   8   8   8   8
#     4  10  22  36  53  78 112 145 174 219 273 321
#     4   9  19  34  55  79 104 135 177 224 263 311
#     4   9  18  31  52  82 108 133 177 227 263 304
#     4  10  20  35  57  81 105 140 183 221 262 317
#     4  10  19  35  56  78 103 137 176 219 270 314
#     4  10  22  37  56  82 111 140 177 225 273 316
#     4  10  21  38  56  78 108 144 182 218 268 322
#     4  10  19  34  55  79 107 140 178 222 268 314
#
# _framework density 25.190684999999998
#
# number of rings (size 3 to 8) (size 9 to 14) (size 15 to 20)
#    0.000    2.250    2.500    0.000    3.500    0.750 
#    0.000    1.250    0.000    1.500    0.000    0.000 
#    0.000    0.000    0.000    0.000    0.000    0.000 
#
# Total GULP energy -178876.696195 kJ/mol
# GULP energy per Si atom -5589.896756 kJ/mol
# Density = 2.513335 g / cm^3
# Si number density = 25.190685 Si / 1000 Ang^3
#
#
#
# Elastic Constant Matrix: (Units=GPa)
#
#
# Indices 1 2 3 4 5 6 
#
# 1 124.1218 -4.9757 -16.0607 0.0021 -3.4607 -0.0022
# 2 -4.9757 93.8856 -5.1770 0.0059 -4.2124 -0.0029
# 3 -16.0607 -5.1770 31.0239 0.0010 -4.4639 -0.0015
# 4 0.0021 0.0059 0.0010 9.9184 -0.0027 1.0975
# 5 -3.4607 -4.2124 -4.4639 -0.0027 45.6635 0.0032
# 6 -0.0022 -0.0029 -0.0015 1.0975 0.0032 -3.6579
#
#
#
# Elastic Compliance Matrix: (Units=1/GPa)
#
#
# Indices 1 2 3 4 5 6 
#
# 1 0.008747 0.000784 0.004833 -0.000002 0.001208 -0.000007
# 2 0.000784 0.010884 0.002409 -0.000005 0.001299 -0.000011
# 3 0.004833 0.002409 0.035724 -0.000003 0.004081 -0.000017
# 4 -0.000002 -0.000005 -0.000003 0.097583 0.000003 0.029278
# 5 0.001208 0.001299 0.004081 0.000003 0.022510 0.000017
# 6 -0.000007 -0.000011 -0.000017 0.029278 0.000017 -0.264597
#
#
# Mechanical properties :
#
#
# Convention : Reuss Voigt Hill
#
# Bulk Modulus (GPa) = 14.00404 21.84494 17.92449
# Shear Modulus (GPa) = -61.42640 28.73445 -16.34598
#
# Velocity S-wave (km/s) = -4.94343 3.38106 -2.55009
# Velocity P-wave (km/s) = 5.19731 4.89211 1.24084
#
# Compressibility (1/GPa) = 0.07140796
#
# Stress axis : x y z
#
# Youngs Moduli (GPa) = 114.32403 91.87842 27.99210
#
# Poissons Ratio (x) = -0.07206 -0.13528
# Poissons Ratio (y) = -0.08966 -0.06744
# Poissons Ratio (z) = -0.55252 -0.22135
#
# Static dielectric constant tensor:
#      x y z
#    x 1.993770 0.000000 -0.010500 
#    y 0.000000 1.977130 0.000020 
#    z -0.010500 0.000020 2.012330 
# 
# From -- ./inp_files/376117.got.cif
#   From: 2010.05.17/outbox.cif.g08.bks.cpg/sg12_189_cif.got.tgz:376117.got - 2010.06.03 13:09:07.
