data_PCOD9184614
_publ_section_title
;
Structure prediction by ZEFSAII (Michael W. Deem and Ramdas Pophale) SiO2 
 PCOD9184614
Probable space group: C 2/M
;
_chemical_formula_sum "Si O2"
_cell_formula_units_Z 56
_cell_length_a 19.909388
_cell_length_b 8.511502
_cell_length_c 25.304797
_cell_angle_alpha 90.000000
_cell_angle_beta 46.842904
_cell_angle_gamma 90.000000
_cell_volume 3128.102475
_symmetry_space_group_name_H-M "C 2/M"
_symmetry_group_IT_number 12
_symmetry_cell_setting 'monoclinic'
loop_
_space_group_symop_operation_xyz
x,y,z
-x,y,-z
-x,-y,-z
x,-y,z
1/2+x,1/2+y,z
1/2-x,1/2+y,-z
1/2-x,1/2-y,-z
1/2+x,1/2-y,z
loop_
_atom_site_type_symbol
_atom_site_label
_atom_site_fract_x
_atom_site_fract_y
_atom_site_fract_z
Si Si1 0.195013 0.189622 0.451600
Si Si2 0.888720 0.310926 0.401365
Si Si3 0.945517 0.310215 0.762318
Si Si4 0.453490 0.189631 0.187033
Si Si5 0.760891 0.190615 0.685891
Si Si6 0.271489 0.311902 0.798033
Si Si7 0.434469 0.687965 0.082945
O O1 0.121936 0.251291 0.533231
O O2 0.295909 0.237139 0.419772
O O3 0.188659 0.245106 0.394426
O O4 0.191769 0.000000 0.453699
O O5 0.889488 0.500000 0.401344
O O6 0.978269 0.256192 0.321499
O O7 0.946255 0.500000 0.761810
O O8 0.979614 0.259407 0.801876
O O9 0.846358 0.251763 0.798134
O O10 0.347781 0.230518 0.258906
O O11 0.472802 0.260344 0.119364
O O12 0.456600 0.000000 0.181379
O O13 0.793961 0.244180 0.725781
O O14 0.765787 0.000000 0.683060
O O15 0.273359 0.500000 0.796903
O O16 0.168071 0.257571 0.866090
O O17 0.427863 0.500000 0.084907
O O18 0.500000 0.740994 0.000000
#
# Coordination Sequence:
#
# PCOD9184614 Si02
#       7
#     8   8   8   8   8   8   8
#     4   9  15  27  47  69  95 129 174 221 261 303
#     4   9  17  28  45  70 100 134 170 214 264 306
#     4  10  19  34  53  75 108 143 173 213 265 309
#     4   9  17  32  56  80 102 136 177 212 251 304
#     4   8  14  29  50  71  95 130 175 218 257 301
#     4  10  21  35  55  79 105 137 175 214 254 308
#     4  10  21  38  59  83 109 134 163 204 254 307
#
# _framework density 17.902228000000001
#
# number of rings (size 3 to 8) (size 9 to 14) (size 15 to 20)
#    0.000    2.714    1.429    1.714    0.000    2.286 
#    0.000    5.000    0.000    4.286    0.000    0.000 
#    0.000    0.000    0.000    0.000    0.000    0.000 
#
# Total GULP energy -156085.160777 kJ/mol
# GULP energy per Si atom -5574.470028 kJ/mol
# Density = 1.786148 g / cm^3
# Si number density = 17.902228 Si / 1000 Ang^3
#
#
#
# Elastic Constant Matrix: (Units=GPa)
#
#
# Indices 1 2 3 4 5 6 
#
# 1 124.7521 19.3754 58.9540 0.0000 14.9055 0.0004
# 2 19.3754 12.1565 18.6591 0.0001 3.8267 0.0007
# 3 58.9540 18.6591 127.8219 0.0000 24.4536 0.0000
# 4 0.0000 0.0001 0.0000 25.8275 0.0000 2.6404
# 5 14.9055 3.8267 24.4536 0.0000 20.5679 0.0000
# 6 0.0004 0.0007 0.0000 2.6404 0.0000 21.7627
#
#
#
# Elastic Compliance Matrix: (Units=1/GPa)
#
#
# Indices 1 2 3 4 5 6 
#
# 1 0.011825 -0.013433 -0.003018 0.000000 -0.002482 0.000000
# 2 -0.013433 0.121321 -0.011726 0.000000 0.001104 -0.000004
# 3 -0.003018 -0.011726 0.013062 0.000000 -0.011161 0.000000
# 4 0.000000 0.000000 0.000000 0.039205 0.000000 -0.004757
# 5 -0.002482 0.001104 -0.011161 0.000000 0.063483 0.000000
# 6 0.000000 -0.000004 0.000000 -0.004757 0.000000 0.046527
#
#
# Mechanical properties :
#
#
# Convention : Reuss Voigt Hill
#
# Bulk Modulus (GPa) = 11.12915 50.96750 31.04832
# Shear Modulus (GPa) = 13.09834 24.81443 18.95639
#
# Velocity S-wave (km/s) = 2.70786 3.72709 3.25758
# Velocity P-wave (km/s) = 4.00085 6.85954 5.61516
#
# Compressibility (1/GPa) = 0.08985411
#
# Stress axis : x y z
#
# Youngs Moduli (GPa) = 84.56615 8.24263 76.55585
#
# Poissons Ratio (x) = 0.11072 0.23106
# Poissons Ratio (y) = 1.13599 0.89766
# Poissons Ratio (z) = 0.25524 0.09665
#
# Static dielectric constant tensor:
#      x y z
#    x 1.607130 0.000000 0.021930 
#    y 0.000000 1.613930 0.000000 
#    z 0.021930 0.000000 1.612630 
# 
# From -- ./inp_files/342301.got.cif
#   From: 2010.05.17/outbox.cif.g08.bks.cpg/sg12_172_cif.got.tgz:342301.got - 2010.06.03 13:09:07.
