data_PCOD9184224
_publ_section_title
;
Structure prediction by ZEFSAII (Michael W. Deem and Ramdas Pophale) SiO2 
 PCOD9184224
Probable space group: C 2/M
;
_chemical_formula_sum "Si O2"
_cell_formula_units_Z 56
_cell_length_a 30.573085
_cell_length_b 17.160158
_cell_length_c 9.634597
_cell_angle_alpha 90.000000
_cell_angle_beta 142.680138
_cell_angle_gamma 90.000000
_cell_volume 3064.474179
_symmetry_space_group_name_H-M "C 2/M"
_symmetry_group_IT_number 12
_symmetry_cell_setting 'monoclinic'
loop_
_space_group_symop_operation_xyz
x,y,z
-x,y,-z
-x,-y,-z
x,-y,z
1/2+x,1/2+y,z
1/2-x,1/2+y,-z
1/2-x,1/2-y,-z
1/2+x,1/2-y,z
loop_
_atom_site_type_symbol
_atom_site_label
_atom_site_fract_x
_atom_site_fract_y
_atom_site_fract_z
Si Si1 0.090436 0.915651 0.801315
Si Si2 0.789364 0.829650 0.556213
Si Si3 0.242753 0.413221 0.704512
Si Si4 0.289449 0.592676 0.263327
Si Si5 0.957657 0.146806 0.033917
Si Si6 0.919817 0.803353 0.470649
Si Si7 0.306098 0.180619 0.177417
O O1 0.058831 0.911120 0.877766
O O2 0.068304 0.846026 0.645570
O O3 0.074354 0.000000 0.698060
O O4 0.176797 0.910635 0.028940
O O5 0.750000 0.750000 0.500000
O O6 0.757700 0.892263 0.584103
O O7 0.772188 0.862169 0.361598
O O8 0.876962 0.823839 0.792045
O O9 0.213030 0.500000 0.646352
O O10 0.199324 0.348051 0.678143
O O11 0.300689 0.500000 0.308325
O O12 0.361830 0.636497 0.393423
O O13 0.223839 0.610405 0.991936
O O14 0.013325 0.203638 0.255096
O O15 0.000000 0.120484 0.000000
O O16 0.882680 0.720599 0.348495
O O17 0.250000 0.250000 0.000000
#
# Coordination Sequence:
#
# PCOD9184224 Si02
#       7
#     8   8   8   8   8   8   8
#     4  10  21  36  54  77 115 159 193 225 273 343
#     4  11  23  39  60  82 115 154 193 238 283 347
#     4  10  19  34  54  82 113 148 192 233 280 338
#     4  11  21  35  57  86 120 154 191 236 290 342
#     4  11  24  39  53  82 118 151 195 231 290 345
#     4  11  21  37  55  82 116 155 197 238 284 342
#     4  10  19  33  58  81 110 151 198 241 279 325
#
# _framework density 18.273934000000001
#
# number of rings (size 3 to 8) (size 9 to 14) (size 15 to 20)
#    0.000    1.429    4.286    3.429    2.000    2.571 
#    0.000    0.000    0.000    0.000    0.000    6.000 
#    0.000    0.000    0.000    0.000    0.000    0.000 
#
# Total GULP energy -155965.381466 kJ/mol
# GULP energy per Si atom -5570.192195 kJ/mol
# Density = 1.823234 g / cm^3
# Si number density = 18.273934 Si / 1000 Ang^3
#
#
#
# Elastic Constant Matrix: (Units=GPa)
#
#
# Indices 1 2 3 4 5 6 
#
# 1 107.6188 39.4431 21.8325 0.0000 -14.8947 0.0000
# 2 39.4431 66.6079 0.7147 0.0000 6.6336 0.0000
# 3 21.8325 0.7147 51.8993 0.0000 -1.5757 0.0000
# 4 0.0000 0.0000 0.0000 26.0600 0.0000 -5.4639
# 5 -14.8947 6.6336 -1.5757 0.0000 27.2330 0.0000
# 6 0.0000 0.0000 0.0000 -5.4639 0.0000 14.2586
#
#
#
# Elastic Compliance Matrix: (Units=1/GPa)
#
#
# Indices 1 2 3 4 5 6 
#
# 1 0.015869 -0.010412 -0.006203 0.000000 0.010857 0.000000
# 2 -0.010412 0.022223 0.003743 0.000000 -0.010891 0.000000
# 3 -0.006203 0.003743 0.021733 0.000000 -0.003047 0.000000
# 4 0.000000 0.000000 0.000000 0.041725 0.000000 0.015989
# 5 0.010857 -0.010891 -0.003047 0.000000 0.045135 0.000000
# 6 0.000000 0.000000 0.000000 0.015989 0.000000 0.076260
#
#
# Mechanical properties :
#
#
# Convention : Reuss Voigt Hill
#
# Bulk Modulus (GPa) = 29.33993 38.90073 34.12033
# Shear Modulus (GPa) = 19.22717 24.45270 21.83993
#
# Velocity S-wave (km/s) = 3.24723 3.66200 3.46083
# Velocity P-wave (km/s) = 5.49088 6.26212 5.88914
#
# Compressibility (1/GPa) = 0.03408324
#
# Stress axis : x y z
#
# Youngs Moduli (GPa) = 63.01623 44.99792 46.01232
#
# Poissons Ratio (x) = 0.46851 0.28540
# Poissons Ratio (y) = 0.65611 -0.17223
# Poissons Ratio (z) = 0.39087 -0.16844
#
# Static dielectric constant tensor:
#      x y z
#    x 1.681380 0.000000 -0.009960 
#    y 0.000000 1.631610 0.000000 
#    z -0.009960 0.000000 1.662650 
# 
# From -- ./inp_files/112655.got.cif
#   From: 2010.05.17/outbox.cif.g08.bks.cpg/sg12_57_cif.got.tgz:112655.got - 2010.06.03 13:09:07.
