data_PCOD9184472
_publ_section_title
;
Structure prediction by ZEFSAII (Michael W. Deem and Ramdas Pophale) SiO2 
 PCOD9184472
Probable space group: C 2/M
;
_chemical_formula_sum "Si O2"
_cell_formula_units_Z 52
_cell_length_a 12.863160
_cell_length_b 14.159275
_cell_length_c 18.754092
_cell_angle_alpha 90.000000
_cell_angle_beta 40.838858
_cell_angle_gamma 90.000000
_cell_volume 2233.667615
_symmetry_space_group_name_H-M "C 2/M"
_symmetry_group_IT_number 12
_symmetry_cell_setting 'monoclinic'
loop_
_space_group_symop_operation_xyz
x,y,z
-x,y,-z
-x,-y,-z
x,-y,z
1/2+x,1/2+y,z
1/2-x,1/2+y,-z
1/2-x,1/2-y,-z
1/2+x,1/2-y,z
loop_
_atom_site_type_symbol
_atom_site_label
_atom_site_fract_x
_atom_site_fract_y
_atom_site_fract_z
Si Si1 0.829913 0.610251 0.603103
Si Si2 0.282945 0.360322 0.976488
Si Si3 0.008360 0.886424 0.273082
Si Si4 0.965290 0.392366 0.217536
Si Si5 0.613100 0.615255 0.374051
Si Si6 0.198558 0.613071 0.214634
Si Si7 0.500000 0.357359 0.000000
O O1 0.837638 0.500000 0.574275
O O2 0.666799 0.649951 0.656754
O O3 0.821294 0.611126 0.692226
O O4 0.000000 0.655298 0.500000
O O5 0.367172 0.374729 0.856850
O O6 0.250000 0.250000 0.000000
O O7 0.403045 0.394073 0.978077
O O8 0.103698 0.396554 0.085490
O O9 0.055435 0.850240 0.326659
O O10 0.994850 0.000000 0.286013
O O11 0.929067 0.500000 0.256328
O O12 0.795080 0.350077 0.288141
O O13 0.053180 0.353636 0.241893
O O14 0.500000 0.637177 0.500000
O O15 0.614987 0.500000 0.369076
O O16 0.236980 0.500000 0.176422
O O17 0.345785 0.680677 0.118893
#
# Coordination Sequence:
#
# PCOD9184472 Si02
#       7
#     8   8   8   8   8   8   4
#     4   9  17  27  46  79 111 138 169 217 273 324
#     4  11  23  37  56  81 110 145 185 232 283 334
#     4  10  20  35  56  83 115 149 186 230 280 331
#     4   9  19  34  54  80 107 143 183 226 275 329
#     4   9  19  34  55  83 114 149 191 235 275 322
#     4   9  16  27  49  76 106 135 170 218 270 324
#     4  10  19  34  50  74 103 140 178 222 276 334
#
# _framework density 23.280096
#
# number of rings (size 3 to 8) (size 9 to 14) (size 15 to 20)
#    0.000    2.462    1.538    0.692    2.154    3.077 
#    0.000    2.308    0.000    1.846    0.000    0.000 
#    0.000    0.000    0.000    0.000    0.000    0.154 
#
# Total GULP energy -144761.470493 kJ/mol
# GULP energy per Si atom -5567.748865 kJ/mol
# Density = 2.322711 g / cm^3
# Si number density = 23.280096 Si / 1000 Ang^3
#
#
#
# Elastic Constant Matrix: (Units=GPa)
#
#
# Indices 1 2 3 4 5 6 
#
# 1 211.6085 17.6037 152.8350 0.0000 -18.8121 0.0000
# 2 17.6037 69.9667 -0.0421 -0.0001 -1.5735 0.0000
# 3 152.8350 -0.0421 155.0755 -0.0003 -24.7937 0.0001
# 4 0.0000 -0.0001 -0.0003 27.5261 0.0001 -6.6555
# 5 -18.8121 -1.5735 -24.7937 0.0001 39.1506 0.0000
# 6 0.0000 0.0000 0.0001 -6.6555 0.0000 10.7036
#
#
#
# Elastic Compliance Matrix: (Units=1/GPa)
#
#
# Indices 1 2 3 4 5 6 
#
# 1 0.018018 -0.004614 -0.018252 0.000000 -0.003087 0.000000
# 2 -0.004614 0.015488 0.004780 0.000000 0.001433 0.000000
# 3 -0.018252 0.004780 0.025666 0.000000 0.007676 0.000000
# 4 0.000000 0.000000 0.000000 0.042758 0.000000 0.026587
# 5 -0.003087 0.001433 0.007676 0.000000 0.028978 0.000000
# 6 0.000000 0.000000 0.000000 0.026587 0.000000 0.109958
#
#
# Mechanical properties :
#
#
# Convention : Reuss Voigt Hill
#
# Bulk Modulus (GPa) = 43.47729 86.38265 64.92997
# Shear Modulus (GPa) = 17.56211 33.22634 25.39422
#
# Velocity S-wave (km/s) = 2.74958 3.78198 3.30633
# Velocity P-wave (km/s) = 5.36624 7.50050 6.52128
#
# Compressibility (1/GPa) = 0.02300051
#
# Stress axis : x y z
#
# Youngs Moduli (GPa) = 55.50004 64.56433 38.96252
#
# Poissons Ratio (x) = 0.29788 0.71116
# Poissons Ratio (y) = 0.25606 -0.18626
# Poissons Ratio (z) = 1.01301 -0.30864
#
# Static dielectric constant tensor:
#      x y z
#    x 1.864820 0.000000 -0.068090 
#    y 0.000000 2.061500 0.000000 
#    z -0.068090 0.000000 1.721280 
# 
# From -- ./inp_files/265007.got.cif
#   From: 2010.05.17/outbox.cif.g08.bks.cpg/sg12_133_cif.got.tgz:265007.got - 2010.06.03 13:09:07.
