data_PCOD9184576
_publ_section_title
;
Structure prediction by ZEFSAII (Michael W. Deem and Ramdas Pophale) SiO2 
 PCOD9184576
Probable space group: C 2/M
;
_chemical_formula_sum "Si O2"
_cell_formula_units_Z 44
_cell_length_a 19.077313
_cell_length_b 13.639876
_cell_length_c 31.005489
_cell_angle_alpha 90.000000
_cell_angle_beta 162.713376
_cell_angle_gamma 90.000000
_cell_volume 2397.423894
_symmetry_space_group_name_H-M "C 2/M"
_symmetry_group_IT_number 12
_symmetry_cell_setting 'monoclinic'
loop_
_space_group_symop_operation_xyz
x,y,z
-x,y,-z
-x,-y,-z
x,-y,z
1/2+x,1/2+y,z
1/2-x,1/2+y,-z
1/2-x,1/2-y,-z
1/2+x,1/2-y,z
loop_
_atom_site_type_symbol
_atom_site_label
_atom_site_fract_x
_atom_site_fract_y
_atom_site_fract_z
Si Si1 0.448657 0.318016 0.096975
Si Si2 0.469021 0.290000 0.687997
Si Si3 0.940242 0.715677 0.350662
Si Si4 0.487614 0.000000 0.380755
Si Si5 0.858217 0.000000 0.742767
Si Si6 0.781227 0.113936 0.904496
Si Si7 0.948366 0.000000 0.699408
O O1 0.701177 0.266100 0.236236
O O2 0.497925 0.404232 0.159591
O O3 0.250000 0.250000 0.000000
O O4 0.368566 0.364190 0.004372
O O5 0.529068 0.284546 0.672390
O O6 0.586079 0.195723 0.778751
O O7 0.564094 0.392724 0.763182
O O8 0.181703 0.284959 0.520439
O O9 0.918877 0.603221 0.320000
O O10 0.764300 0.000000 0.551714
O O11 0.360169 0.000000 0.352499
O O12 0.816093 0.000000 0.667518
O O13 0.704409 0.000000 0.856136
O O14 0.000000 0.127549 0.000000
#
# Coordination Sequence:
#
# PCOD9184576 Si02
#       7
#     8   8   8   4   4   8   4
#     4  11  21  37  59  83 117 151 193 240 288 350
#     4  10  20  36  58  85 122 147 193 239 293 350
#     4   9  19  35  57  88 112 153 190 242 293 339
#     4   8  17  30  57  81 108 137 197 251 286 321
#     4  10  19  34  53  78 108 144 194 240 286 322
#     4  11  22  37  63  91 114 148 203 255 288 327
#     4  10  19  34  52  85 113 155 183 229 292 356
#
# _framework density 18.353033
#
# number of rings (size 3 to 8) (size 9 to 14) (size 15 to 20)
#    0.000    2.000    2.727    1.364    1.273    0.000 
#    1.636    4.091    0.000    1.091    0.000    0.000 
#    0.000    0.000    0.000    0.000    0.000    0.000 
#
# Total GULP energy -122602.966565 kJ/mol
# GULP energy per Si atom -5572.862117 kJ/mol
# Density = 1.831126 g / cm^3
# Si number density = 18.353033 Si / 1000 Ang^3
#
#
#
# Elastic Constant Matrix: (Units=GPa)
#
#
# Indices 1 2 3 4 5 6 
#
# 1 55.8686 36.1407 11.9582 -0.0051 5.5966 0.0100
# 2 36.1407 124.8631 52.0531 0.0373 10.7920 -0.0159
# 3 11.9582 52.0531 91.3148 0.0568 12.4498 -0.0170
# 4 -0.0051 0.0373 0.0568 30.0837 -0.0091 -4.9457
# 5 5.5966 10.7920 12.4498 -0.0091 32.5053 0.0009
# 6 0.0100 -0.0159 -0.0170 -4.9457 0.0009 29.4223
#
#
#
# Elastic Compliance Matrix: (Units=1/GPa)
#
#
# Indices 1 2 3 4 5 6 
#
# 1 0.022218 -0.006765 0.001226 0.000008 -0.002049 -0.000009
# 2 -0.006765 0.012614 -0.006217 -0.000004 -0.000642 0.000005
# 3 0.001226 -0.006217 0.014858 -0.000021 -0.003838 0.000001
# 4 0.000008 -0.000004 -0.000021 0.034185 0.000018 0.005746
# 5 -0.002049 -0.000642 -0.003838 0.000018 0.032800 0.000000
# 6 -0.000009 0.000005 0.000001 0.005746 0.000000 0.034954
#
#
# Mechanical properties :
#
#
# Convention : Reuss Voigt Hill
#
# Bulk Modulus (GPa) = 38.19994 52.48339 45.34166
# Shear Modulus (GPa) = 27.19355 29.86188 28.52771
#
# Velocity S-wave (km/s) = 3.85345 4.03809 3.94685
# Velocity P-wave (km/s) = 6.37636 7.09931 6.74752
#
# Compressibility (1/GPa) = 0.02617805
#
# Stress axis : x y z
#
# Youngs Moduli (GPa) = 45.00836 79.27636 67.30470
#
# Poissons Ratio (x) = 0.53629 -0.08252
# Poissons Ratio (y) = 0.30448 0.41844
# Poissons Ratio (z) = -0.05518 0.49287
#
# Static dielectric constant tensor:
#      x y z
#    x 1.615800 0.000010 -0.014490 
#    y 0.000010 1.670720 0.000000 
#    z -0.014490 0.000000 1.666580 
# 
# From -- ./inp_files/154436.got.cif
#   From: 2010.05.17/outbox.cif.g08.bks.cpg/sg12_78_cif.got.tgz:154436.got - 2010.06.03 13:09:07.
