data_PCOD9184485
_publ_section_title
;
Structure prediction by ZEFSAII (Michael W. Deem and Ramdas Pophale) SiO2 
 PCOD9184485
Probable space group: C 2/M
;
_chemical_formula_sum "Si O2"
_cell_formula_units_Z 56
_cell_length_a 21.019921
_cell_length_b 18.402127
_cell_length_c 18.236771
_cell_angle_alpha 90.000000
_cell_angle_beta 152.391033
_cell_angle_gamma 90.000000
_cell_volume 3269.155801
_symmetry_space_group_name_H-M "C 2/M"
_symmetry_group_IT_number 12
_symmetry_cell_setting 'monoclinic'
loop_
_space_group_symop_operation_xyz
x,y,z
-x,y,-z
-x,-y,-z
x,-y,z
1/2+x,1/2+y,z
1/2-x,1/2+y,-z
1/2-x,1/2-y,-z
1/2+x,1/2-y,z
loop_
_atom_site_type_symbol
_atom_site_label
_atom_site_fract_x
_atom_site_fract_y
_atom_site_fract_z
Si Si1 0.160352 0.082913 0.350445
Si Si2 0.937928 0.290323 0.859039
Si Si3 0.612516 0.841082 0.823922
Si Si4 0.072083 0.201486 0.868022
Si Si5 0.343682 0.643485 0.811853
Si Si6 0.614238 0.083075 0.679033
Si Si7 0.589176 0.084319 0.281660
O O1 0.185904 0.095121 0.289985
O O2 0.295032 0.095014 0.537419
O O3 0.042844 0.139954 0.251661
O O4 0.115508 0.000000 0.316240
O O5 0.830592 0.226969 0.771418
O O6 0.887478 0.357992 0.759615
O O7 0.046628 0.246380 0.917940
O O8 0.000000 0.314692 0.000000
O O9 0.555744 0.762036 0.788215
O O10 0.563951 0.872064 0.697195
O O11 0.555630 0.894773 0.828359
O O12 0.776765 0.832024 0.985746
O O13 0.245837 0.620657 0.777468
O O14 0.500000 0.634645 0.000000
O O15 0.500000 0.081537 0.500000
O O16 0.645856 0.000000 0.733363
O O17 0.591792 0.000000 0.261726
#
# Coordination Sequence:
#
# PCOD9184485 Si02
#       7
#     8   8   8   8   8   8   8
#     4  10  20  34  50  73 104 132 165 206 244 290
#     4   9  18  34  54  74  98 125 164 212 250 289
#     4  10  19  34  51  70 102 132 164 202 240 292
#     4   9  20  34  52  75  97 129 167 202 244 295
#     4  10  20  33  51  74  98 131 168 198 237 292
#     4  11  22  32  46  73 105 132 158 193 240 292
#     4  10  21  34  51  75 100 130 167 207 250 292
#
# _framework density 17.129804
#
# number of rings (size 3 to 8) (size 9 to 14) (size 15 to 20)
#    0.000    2.143    0.000    4.286    0.000   12.286 
#    0.000    0.000    0.000    0.000    0.000    0.000 
#    0.000   34.286    0.000    0.000    0.000    0.000 
#
# Total GULP energy -156124.204244 kJ/mol
# GULP energy per Si atom -5575.864437 kJ/mol
# Density = 1.709082 g / cm^3
# Si number density = 17.129804 Si / 1000 Ang^3
#
#
#
# Elastic Constant Matrix: (Units=GPa)
#
#
# Indices 1 2 3 4 5 6 
#
# 1 85.3012 48.2330 27.7071 0.0003 -12.8584 -0.0019
# 2 48.2330 105.2197 48.9839 0.0007 -16.2301 -0.0020
# 3 27.7071 48.9839 48.6038 0.0009 -12.7260 -0.0015
# 4 0.0003 0.0007 0.0009 26.6105 0.0007 -11.7768
# 5 -12.8584 -16.2301 -12.7260 0.0007 27.7342 -0.0008
# 6 -0.0019 -0.0020 -0.0015 -11.7768 -0.0008 38.8803
#
#
#
# Elastic Compliance Matrix: (Units=1/GPa)
#
#
# Indices 1 2 3 4 5 6 
#
# 1 0.016304 -0.005749 -0.002730 0.000000 0.002942 0.000001
# 2 -0.005749 0.020085 -0.016577 0.000000 0.001482 0.000000
# 3 -0.002730 -0.016577 0.040877 -0.000001 0.007790 0.000000
# 4 0.000000 0.000000 -0.000001 0.043396 -0.000001 0.013145
# 5 0.002942 0.001482 0.007790 -0.000001 0.041862 0.000001
# 6 0.000001 0.000000 0.000000 0.013145 0.000001 0.029701
#
#
# Mechanical properties :
#
#
# Convention : Reuss Voigt Hill
#
# Bulk Modulus (GPa) = 36.82643 54.33031 45.57837
# Shear Modulus (GPa) = 19.88946 26.25840 23.07393
#
# Velocity S-wave (km/s) = 3.41119 3.91948 3.67414
# Velocity P-wave (km/s) = 6.08770 7.22972 6.68315
#
# Compressibility (1/GPa) = 0.02715441
#
# Stress axis : x y z
#
# Youngs Moduli (GPa) = 61.33384 49.78815 24.46377
#
# Poissons Ratio (x) = 0.28624 0.06678
# Poissons Ratio (y) = 0.35262 0.40553
# Poissons Ratio (z) = 0.16743 0.82533
#
# Static dielectric constant tensor:
#      x y z
#    x 1.588960 0.000000 -0.000050 
#    y 0.000000 1.591740 0.000000 
#    z -0.000050 0.000000 1.582230 
# 
# From -- ./inp_files/284960.got.cif
#   From: 2010.05.17/outbox.cif.g08.bks.cpg/sg12_143_cif.got.tgz:284960.got - 2010.06.03 13:09:07.
