data_PCOD9184166
_publ_section_title
;
Structure prediction by ZEFSAII (Michael W. Deem and Ramdas Pophale) SiO2 
 PCOD9184166
Probable space group: C 2/M
;
_chemical_formula_sum "Si O2"
_cell_formula_units_Z 64
_cell_length_a 11.412306
_cell_length_b 22.295506
_cell_length_c 23.463534
_cell_angle_alpha 90.000000
_cell_angle_beta 151.689871
_cell_angle_gamma 90.000000
_cell_volume 2831.299937
_symmetry_space_group_name_H-M "C 2/M"
_symmetry_group_IT_number 12
_symmetry_cell_setting 'monoclinic'
loop_
_space_group_symop_operation_xyz
x,y,z
-x,y,-z
-x,-y,-z
x,-y,z
1/2+x,1/2+y,z
1/2-x,1/2+y,-z
1/2-x,1/2-y,-z
1/2+x,1/2-y,z
loop_
_atom_site_type_symbol
_atom_site_label
_atom_site_fract_x
_atom_site_fract_y
_atom_site_fract_z
Si Si1 0.552575 0.748554 0.360008
Si Si2 0.481025 0.933185 0.423340
Si Si3 0.566385 0.647778 0.271429
Si Si4 0.531053 0.432890 0.606863
Si Si5 0.926402 0.197991 0.418142
Si Si6 0.576125 0.291573 0.097474
Si Si7 0.710145 0.169748 0.023667
Si Si8 0.178937 0.433474 0.153053
O O1 0.600000 0.686070 0.343396
O O2 0.809908 0.786822 0.432538
O O3 0.344787 0.728379 0.325769
O O4 0.355952 0.788675 0.238388
O O5 0.500000 0.935100 0.500000
O O6 0.310710 0.874161 0.342874
O O7 0.752383 0.926411 0.512395
O O8 0.389814 0.000000 0.366050
O O9 0.368599 0.682131 0.148155
O O10 0.426084 0.586210 0.226066
O O11 0.546372 0.500000 0.587460
O O12 0.578565 0.372710 0.591950
O O13 0.730527 0.431247 0.742900
O O14 0.250000 0.250000 0.500000
O O15 0.417364 0.338706 0.065192
O O16 0.500000 0.302586 0.000000
O O17 0.462143 0.226082 0.062169
O O18 0.535709 0.112749 0.951817
O O19 0.102741 0.500000 0.106319
#
# Coordination Sequence:
#
# PCOD9184166 Si02
#       8
#     8   8   8   8   8   8   8   8
#     4  11  24  40  60  92 127 159 211 255 317 375
#     4  10  19  33  57  87 118 160 200 240 306 369
#     4  12  21  37  61  91 128 160 199 255 308 379
#     4  10  21  40  62  88 123 166 215 257 304 374
#     4  11  25  40  62  92 126 162 206 263 316 374
#     4  11  22  43  64  85 123 167 208 254 303 372
#     4  11  24  36  62  94 121 161 208 252 309 369
#     4  11  21  39  64  92 128 161 204 265 315 369
#
# _framework density 22.604458000000001
#
# number of rings (size 3 to 8) (size 9 to 14) (size 15 to 20)
#    0.000    1.125    5.000    0.750    3.500    4.250 
#    0.000    0.000    0.000    0.375    0.000    0.000 
#    0.000    0.000    0.000    0.000    0.000    0.000 
#
# Total GULP energy -178180.653753 kJ/mol
# GULP energy per Si atom -5568.145430 kJ/mol
# Density = 2.255301 g / cm^3
# Si number density = 22.604458 Si / 1000 Ang^3
#
#
#
# Elastic Constant Matrix: (Units=GPa)
#
#
# Indices 1 2 3 4 5 6 
#
# 1 117.5492 31.5787 59.5986 0.0005 -20.5336 0.0000
# 2 31.5787 103.9113 37.6645 -0.0004 9.1194 0.0000
# 3 59.5986 37.6645 153.2509 0.0044 -6.1791 -0.0001
# 4 0.0005 -0.0004 0.0044 30.6930 -0.0001 3.3727
# 5 -20.5336 9.1194 -6.1791 -0.0001 36.2975 0.0004
# 6 0.0000 0.0000 -0.0001 3.3727 0.0004 24.8780
#
#
#
# Elastic Compliance Matrix: (Units=1/GPa)
#
#
# Indices 1 2 3 4 5 6 
#
# 1 0.012527 -0.003050 -0.003832 0.000000 0.007201 0.000000
# 2 -0.003050 0.011670 -0.001883 0.000000 -0.004978 0.000000
# 3 -0.003832 -0.001883 0.008468 -0.000001 -0.000253 0.000000
# 4 0.000000 0.000000 -0.000001 0.033073 0.000000 -0.004484
# 5 0.007201 -0.004978 -0.000253 0.000000 0.032831 0.000000
# 6 0.000000 0.000000 0.000000 -0.004484 0.000000 0.040804
#
#
# Mechanical properties :
#
#
# Convention : Reuss Voigt Hill
#
# Bulk Modulus (GPa) = 66.06853 70.26612 68.16732
# Shear Modulus (GPa) = 30.87426 34.76499 32.81963
#
# Velocity S-wave (km/s) = 3.69975 3.92595 3.81453
# Velocity P-wave (km/s) = 6.89510 7.19050 7.04435
#
# Compressibility (1/GPa) = 0.01513580
#
# Stress axis : x y z
#
# Youngs Moduli (GPa) = 79.82780 85.69166 118.09305
#
# Poissons Ratio (x) = 0.26136 0.45250
# Poissons Ratio (y) = 0.24347 0.22233
# Poissons Ratio (z) = 0.30588 0.16133
#
# Static dielectric constant tensor:
#      x y z
#    x 2.691910 0.000000 0.731720 
#    y 0.000000 1.811080 0.000000 
#    z 0.731720 0.000000 2.476350 
# 
# From -- ./inp_files/359032.got.cif
#   From: 2010.05.17/outbox.cif.g08.bks.cpg/sg12_180_cif.got.tgz:359032.got - 2010.06.03 13:09:07.
