data_PCOD9184087
_publ_section_title
;
Structure prediction by ZEFSAII (Michael W. Deem and Ramdas Pophale) SiO2 
 PCOD9184087
Probable space group: C 2/M
;
_chemical_formula_sum "Si O2"
_cell_formula_units_Z 56
_cell_length_a 19.947839
_cell_length_b 8.564265
_cell_length_c 21.593212
_cell_angle_alpha 90.000000
_cell_angle_beta 124.429689
_cell_angle_gamma 90.000000
_cell_volume 3042.725114
_symmetry_space_group_name_H-M "C 2/M"
_symmetry_group_IT_number 12
_symmetry_cell_setting 'monoclinic'
loop_
_space_group_symop_operation_xyz
x,y,z
-x,y,-z
-x,-y,-z
x,-y,z
1/2+x,1/2+y,z
1/2-x,1/2+y,-z
1/2-x,1/2-y,-z
1/2+x,1/2-y,z
loop_
_atom_site_type_symbol
_atom_site_label
_atom_site_fract_x
_atom_site_fract_y
_atom_site_fract_z
Si Si1 0.578140 0.188977 0.501003
Si Si2 0.132008 0.810949 0.196166
Si Si3 0.256410 0.689481 0.633706
Si Si4 0.403257 0.681422 0.958714
Si Si5 0.339420 0.182990 0.049984
Si Si6 0.591147 0.687063 0.369466
Si Si7 0.012186 0.687452 0.795595
O O1 0.500000 0.241872 0.500000
O O2 0.665054 0.243989 0.573705
O O3 0.576080 0.242813 0.428902
O O4 0.578058 0.000000 0.502234
O O5 0.206455 0.767403 0.280041
O O6 0.137913 0.768550 0.127359
O O7 0.052530 0.735703 0.185412
O O8 0.122292 0.000000 0.193630
O O9 0.255281 0.500000 0.631055
O O10 0.322688 0.739719 0.616524
O O11 0.381044 0.500000 0.959340
O O12 0.500000 0.686999 0.000000
O O13 0.379829 0.782128 0.005099
O O14 0.400046 0.244733 0.134975
O O15 0.333387 0.000000 0.057193
O O16 0.250000 0.250000 0.000000
O O17 0.593188 0.500000 0.374289
O O18 0.521692 0.738545 0.284972
O O19 0.012754 0.500000 0.789742
#
# Coordination Sequence:
#
# PCOD9184087 Si02
#       7
#     8   8   8   8   8   8   8
#     4  10  20  35  54  78 111 145 178 219 269 324
#     4   9  17  32  55  82 110 142 182 228 275 325
#     4   8  16  32  54  79 105 139 181 221 264 314
#     4  10  19  33  57  84 111 146 185 227 280 333
#     4  11  24  39  56  79 112 150 189 231 276 331
#     4  10  20  35  58  81 104 138 180 226 273 326
#     4  10  20  35  56  82 109 140 182 230 275 323
#
# _framework density 18.404555999999999
#
# number of rings (size 3 to 8) (size 9 to 14) (size 15 to 20)
#    0.000    2.286    1.429    2.571    0.000    2.857 
#    2.571    2.857    0.000    0.000    0.000    0.000 
#    0.000    0.000    0.000    0.000    0.000    0.000 
#
# Total GULP energy -156185.187673 kJ/mol
# GULP energy per Si atom -5578.042417 kJ/mol
# Density = 1.836267 g / cm^3
# Si number density = 18.404556 Si / 1000 Ang^3
#
#
#
# Elastic Constant Matrix: (Units=GPa)
#
#
# Indices 1 2 3 4 5 6 
#
# 1 89.8366 15.3135 79.4623 0.0000 20.2661 0.0000
# 2 15.3135 11.7460 13.7423 0.0000 7.4017 0.0000
# 3 79.4623 13.7423 150.2378 0.0000 17.7135 0.0000
# 4 0.0000 0.0000 0.0000 24.0705 0.0000 -6.6506
# 5 20.2661 7.4017 17.7135 0.0000 26.6925 0.0000
# 6 0.0000 0.0000 0.0000 -6.6506 0.0000 17.2768
#
#
#
# Elastic Compliance Matrix: (Units=1/GPa)
#
#
# Indices 1 2 3 4 5 6 
#
# 1 0.025197 -0.015135 -0.011046 0.000000 -0.007603 0.000000
# 2 -0.015135 0.118615 -0.000349 0.000000 -0.021169 0.000000
# 3 -0.011046 -0.000349 0.012509 0.000000 0.000182 0.000000
# 4 0.000000 0.000000 0.000000 0.046489 0.000000 0.017896
# 5 -0.007603 -0.021169 0.000182 0.000000 0.048986 0.000000
# 6 0.000000 0.000000 0.000000 0.017896 0.000000 0.064770
#
#
# Mechanical properties :
#
#
# Convention : Reuss Voigt Hill
#
# Bulk Modulus (GPa) = 9.68417 52.09518 30.88968
# Shear Modulus (GPa) = 12.37482 23.16146 17.76814
#
# Velocity S-wave (km/s) = 2.59584 3.55133 3.11049
# Velocity P-wave (km/s) = 3.77594 6.72183 5.45164
#
# Compressibility (1/GPa) = 0.10326127
#
# Stress axis : x y z
#
# Youngs Moduli (GPa) = 39.68741 8.43060 79.94329
#
# Poissons Ratio (x) = 0.12760 0.88305
# Poissons Ratio (y) = 0.60068 0.02788
# Poissons Ratio (z) = 0.43839 0.00294
#
# Static dielectric constant tensor:
#      x y z
#    x 1.619460 0.000000 0.018290 
#    y 0.000000 1.628970 0.000000 
#    z 0.018290 0.000000 1.658900 
# 
# From -- ./inp_files/314369.got.cif
#   From: 2010.05.17/outbox.cif.g08.bks.cpg/sg12_158_cif.got.tgz:314369.got - 2010.06.03 13:09:07.
