data_PCOD9184194
_publ_section_title
;
Structure prediction by ZEFSAII (Michael W. Deem and Ramdas Pophale) SiO2 
 PCOD9184194
Probable space group: C 2/M
;
_chemical_formula_sum "Si O2"
_cell_formula_units_Z 50
_cell_length_a 15.325076
_cell_length_b 8.699832
_cell_length_c 25.405204
_cell_angle_alpha 90.000000
_cell_angle_beta 54.365616
_cell_angle_gamma 90.000000
_cell_volume 2752.921635
_symmetry_space_group_name_H-M "C 2/M"
_symmetry_group_IT_number 12
_symmetry_cell_setting 'monoclinic'
loop_
_space_group_symop_operation_xyz
x,y,z
-x,y,-z
-x,-y,-z
x,-y,z
1/2+x,1/2+y,z
1/2-x,1/2+y,-z
1/2-x,1/2-y,-z
1/2+x,1/2-y,z
loop_
_atom_site_type_symbol
_atom_site_label
_atom_site_fract_x
_atom_site_fract_y
_atom_site_fract_z
Si Si1 0.783708 0.683805 0.931811
Si Si2 0.500000 0.500000 0.500000
Si Si3 0.311846 0.815411 0.137969
Si Si4 0.111361 0.812762 0.283512
Si Si5 0.604231 0.315905 0.696032
Si Si6 0.978259 0.815024 0.160287
Si Si7 0.179940 0.830138 0.373184
O O1 0.783123 0.500000 0.932908
O O2 0.705939 0.745146 0.913215
O O3 0.902938 0.746478 0.878145
O O4 0.750000 0.750000 0.000000
O O5 0.580489 0.368261 0.445812
O O6 0.206615 0.773742 0.209845
O O7 0.413787 0.750219 0.133278
O O8 0.317706 0.000000 0.132671
O O9 0.139388 0.759491 0.332451
O O10 0.996480 0.757495 0.302608
O O11 0.105160 0.000000 0.287464
O O12 0.601550 0.500000 0.694807
O O13 0.584251 0.272327 0.764018
O O14 0.720940 0.260661 0.637615
O O15 0.984855 0.000000 0.155211
O O16 0.225944 0.000000 0.343201
#
# Coordination Sequence:
#
# PCOD9184194 Si02
#       7
#     8   2   8   8   8   8   8
#     4  12  26  44  63  87 122 164 206 255 314 378
#     4   8  20  36  62  80 124 158 208 236 292 368
#     4  11  21  38  62  91 120 159 202 254 311 368
#     4   9  17  32  57  84 115 152 191 243 302 352
#     4  10  19  33  57  89 117 148 196 253 302 348
#     4  11  22  38  60  92 124 156 202 260 309 367
#     4   9  18  36  58  81 114 159 196 236 292 355
#
# _framework density 18.162521999999999
#
# number of rings (size 3 to 8) (size 9 to 14) (size 15 to 20)
#    0.480    1.280    3.200    2.400    0.000    1.280 
#    0.000    5.200    0.000    0.000    0.000    0.000 
#    0.000    0.000    0.000    0.000    0.000    0.000 
#
# Total GULP energy -139176.680229 kJ/mol
# GULP energy per Si atom -5567.067209 kJ/mol
# Density = 1.812118 g / cm^3
# Si number density = 18.162522 Si / 1000 Ang^3
#
#
#
# Elastic Constant Matrix: (Units=GPa)
#
#
# Indices 1 2 3 4 5 6 
#
# 1 74.2803 11.3641 -27.9230 0.0000 -0.2585 0.0000
# 2 11.3641 53.1239 6.9402 0.0000 -3.3844 0.0000
# 3 -27.9230 6.9402 25.6151 0.0000 -5.7454 0.0000
# 4 0.0000 0.0000 0.0000 22.5539 0.0000 -5.6670
# 5 -0.2585 -3.3844 -5.7454 0.0000 7.6318 0.0000
# 6 0.0000 0.0000 0.0000 -5.6670 0.0000 29.3552
#
#
#
# Elastic Compliance Matrix: (Units=1/GPa)
#
#
# Indices 1 2 3 4 5 6 
#
# 1 0.031843 -0.010705 0.044263 0.000000 0.029653 0.000000
# 2 -0.010705 0.023316 -0.018949 0.000000 -0.004288 0.000000
# 3 0.044263 -0.018949 0.109338 0.000000 0.075407 0.000000
# 4 0.000000 0.000000 0.000000 0.046599 0.000000 0.008996
# 5 0.029653 -0.004288 0.075407 0.000000 0.186901 0.000000
# 6 0.000000 0.000000 0.000000 0.008996 0.000000 0.035802
#
#
# Mechanical properties :
#
#
# Convention : Reuss Voigt Hill
#
# Bulk Modulus (GPa) = 5.16222 14.86465 10.01344
# Shear Modulus (GPa) = 10.65755 22.75073 16.70414
#
# Velocity S-wave (km/s) = 2.42500 3.54308 3.03595
# Velocity P-wave (km/s) = 3.26944 4.99398 4.22073
#
# Compressibility (1/GPa) = 0.19371497
#
# Stress axis : x y z
#
# Youngs Moduli (GPa) = 31.40457 42.88855 9.14597
#
# Poissons Ratio (x) = 0.45913 -0.40483
# Poissons Ratio (y) = 0.33619 0.17330
# Poissons Ratio (z) = -1.39006 0.81268
#
# Static dielectric constant tensor:
#      x y z
#    x 1.634800 0.000000 0.008470 
#    y 0.000000 1.620530 0.000000 
#    z 0.008470 0.000000 1.611080 
# 
# From -- ./inp_files/359614.got.cif
#   From: 2010.05.17/outbox.cif.g08.bks.cpg/sg12_180_cif.got.tgz:359614.got - 2010.06.03 13:09:07.
