data_PCOD9184364
_publ_section_title
;
Structure prediction by ZEFSAII (Michael W. Deem and Ramdas Pophale) SiO2 
 PCOD9184364
Probable space group: C 2/M
;
_chemical_formula_sum "Si O2"
_cell_formula_units_Z 48
_cell_length_a 13.066289
_cell_length_b 21.320960
_cell_length_c 11.386929
_cell_angle_alpha 90.000000
_cell_angle_beta 137.319680
_cell_angle_gamma 90.000000
_cell_volume 2150.482312
_symmetry_space_group_name_H-M "C 2/M"
_symmetry_group_IT_number 12
_symmetry_cell_setting 'monoclinic'
loop_
_space_group_symop_operation_xyz
x,y,z
-x,y,-z
-x,-y,-z
x,-y,z
1/2+x,1/2+y,z
1/2-x,1/2+y,-z
1/2-x,1/2-y,-z
1/2+x,1/2-y,z
loop_
_atom_site_type_symbol
_atom_site_label
_atom_site_fract_x
_atom_site_fract_y
_atom_site_fract_z
Si Si1 0.389495 0.747080 0.516484
Si Si2 0.353723 0.682140 0.824036
Si Si3 0.541586 0.567271 0.239266
Si Si4 0.353417 0.808848 0.129108
Si Si5 0.791636 0.572964 0.924520
Si Si6 0.341837 0.601163 0.430177
O O1 0.500000 0.756707 0.500000
O O2 0.237916 0.782345 0.353962
O O3 0.513135 0.778687 0.299042
O O4 0.356739 0.673409 0.481826
O O5 0.421225 0.621343 0.819234
O O6 0.237218 0.668144 0.831042
O O7 0.500000 0.717801 0.000000
O O8 0.543292 0.500000 0.181856
O O9 0.377711 0.576361 0.161592
O O10 0.660967 0.567481 0.447492
O O11 0.250000 0.750000 0.000000
O O12 0.369295 0.867600 0.054206
O O13 0.843075 0.500000 0.984339
O O14 0.777894 0.587008 0.773083
O O15 0.500000 0.583546 0.500000
#
# Coordination Sequence:
#
# PCOD9184364 Si02
#       6
#     8   8   8   8   8   8
#     4   9  20  36  58  83 117 154 193 239 296 354
#     4  11  22  37  57  88 116 149 194 246 297 344
#     4  10  20  34  55  84 118 151 190 247 297 344
#     4  11  21  39  61  85 122 161 197 244 299 362
#     4  10  19  33  59  89 118 156 199 243 299 364
#     4   9  17  35  56  84 114 154 197 242 290 354
#
# _framework density 22.320574000000001
#
# number of rings (size 3 to 8) (size 9 to 14) (size 15 to 20)
#    0.000    2.000    1.667    4.500    0.000    3.667 
#    0.000    0.833    0.000    3.000    0.000    2.333 
#    0.000    0.000    0.000    0.000    0.000    0.000 
#
# Total GULP energy -133973.685124 kJ/mol
# GULP energy per Si atom -5582.236880 kJ/mol
# Density = 2.226977 g / cm^3
# Si number density = 22.320574 Si / 1000 Ang^3
#
#
#
# Elastic Constant Matrix: (Units=GPa)
#
#
# Indices 1 2 3 4 5 6 
#
# 1 69.7534 23.2925 14.6148 0.0000 -6.5777 0.0000
# 2 23.2925 153.3624 87.4248 0.0000 6.6605 0.0000
# 3 14.6148 87.4248 147.9555 0.0000 3.1177 0.0000
# 4 0.0000 0.0000 0.0000 -4.0527 0.0000 25.3929
# 5 -6.5777 6.6605 3.1177 0.0000 29.0537 0.0000
# 6 0.0000 0.0000 0.0000 25.3929 0.0000 -13.2529
#
#
#
# Elastic Compliance Matrix: (Units=1/GPa)
#
#
# Indices 1 2 3 4 5 6 
#
# 1 0.015576 -0.002439 -0.000184 0.000000 0.004105 0.000000
# 2 -0.002439 0.010292 -0.005792 0.000000 -0.002290 0.000000
# 3 -0.000184 -0.005792 0.010196 0.000000 0.000192 0.000000
# 4 0.000000 0.000000 0.000000 0.022421 0.000000 0.042959
# 5 0.004105 -0.002290 0.000192 0.000000 0.035853 0.000000
# 6 0.000000 0.000000 0.000000 0.042959 0.000000 0.006856
#
#
# Mechanical properties :
#
#
# Convention : Reuss Voigt Hill
#
# Bulk Modulus (GPa) = 51.99289 69.08173 60.53731
# Shear Modulus (GPa) = 40.18105 18.73223 29.45664
#
# Velocity S-wave (km/s) = 4.24746 2.90010 3.63672
# Velocity P-wave (km/s) = 6.88468 6.49855 6.69440
#
# Compressibility (1/GPa) = 0.01923340
#
# Stress axis : x y z
#
# Youngs Moduli (GPa) = 64.19972 97.15866 98.08179
#
# Poissons Ratio (x) = 0.23699 0.01803
# Poissons Ratio (y) = 0.15660 0.56813
# Poissons Ratio (z) = 0.01180 0.56279
#
# Static dielectric constant tensor:
#      x y z
#    x 1.845710 0.000000 0.003260 
#    y 0.000000 1.817360 0.000000 
#    z 0.003260 0.000000 1.894860 
# 
# From -- ./inp_files/146706.got.cif
#   From: 2010.05.17/outbox.cif.g08.bks.cpg/sg12_74_cif.got.tgz:146706.got - 2010.06.03 13:09:07.
