data_PCOD9184885
_publ_section_title
;
Structure prediction by ZEFSAII (Michael W. Deem and Ramdas Pophale) SiO2 
 PCOD9184885
Probable space group: C 2/M
;
_chemical_formula_sum "Si O2"
_cell_formula_units_Z 36
_cell_length_a 26.020743
_cell_length_b 13.766629
_cell_length_c 7.669094
_cell_angle_alpha 90.000000
_cell_angle_beta 150.796234
_cell_angle_gamma 90.000000
_cell_volume 1340.409026
_symmetry_space_group_name_H-M "C 2/M"
_symmetry_group_IT_number 12
_symmetry_cell_setting 'monoclinic'
loop_
_space_group_symop_operation_xyz
x,y,z
-x,y,-z
-x,-y,-z
x,-y,z
1/2+x,1/2+y,z
1/2-x,1/2+y,-z
1/2-x,1/2-y,-z
1/2+x,1/2-y,z
loop_
_atom_site_type_symbol
_atom_site_label
_atom_site_fract_x
_atom_site_fract_y
_atom_site_fract_z
Si Si1 0.725116 0.391078 0.396473
Si Si2 0.105304 0.106856 0.662132
Si Si3 0.500000 0.224251 0.500000
Si Si4 0.823068 0.612992 0.158128
Si Si5 0.120948 0.726417 0.325704
O O1 0.719114 0.500000 0.447230
O O2 0.844793 0.362134 0.701014
O O3 0.678780 0.314257 0.395872
O O4 0.664674 0.388275 0.027977
O O5 0.022866 0.194274 0.418372
O O6 0.056198 0.000000 0.499019
O O7 0.195597 0.113487 0.783382
O O8 0.396902 0.157671 0.225379
O O9 0.852541 0.500000 0.273577
O O10 0.842504 0.682050 0.381388
O O11 0.000000 0.745153 0.000000
#
# Coordination Sequence:
#
# PCOD9184885 Si02
#       5
#     8   8   4   8   8
#     4   9  19  35  54  78 108 136 166 210 260 307
#     4   9  19  36  55  77 106 136 167 211 263 305
#     4  12  20  34  58  78  98 136 186 214 242 306
#     4  10  22  37  52  75 108 139 169 214 263 300
#     4  10  19  34  55  78 104 138 172 207 256 311
#
# _framework density 26.857472000000001
#
# number of rings (size 3 to 8) (size 9 to 14) (size 15 to 20)
#    0.000    2.222    0.000    4.667    0.000    2.222 
#    0.000    2.222    0.000    8.000    0.000    0.000 
#    0.000    0.000    0.000    0.000    0.000    0.000 
#
# Total GULP energy -100444.095722 kJ/mol
# GULP energy per Si atom -5580.227540 kJ/mol
# Density = 2.679634 g / cm^3
# Si number density = 26.857472 Si / 1000 Ang^3
#
#
#
# Elastic Constant Matrix: (Units=GPa)
#
#
# Indices 1 2 3 4 5 6 
#
# 1 36.8038 38.8084 186.9105 0.0000 17.7238 0.0000
# 2 38.8084 210.5680 44.1332 0.0000 27.4702 0.0000
# 3 186.9105 44.1332 -33.1518 0.0000 51.9126 0.0000
# 4 0.0000 0.0000 0.0000 23.5272 0.0000 18.9203
# 5 17.7238 27.4702 51.9126 0.0000 82.9827 0.0000
# 6 0.0000 0.0000 0.0000 18.9203 0.0000 40.5655
#
#
#
# Elastic Compliance Matrix: (Units=1/GPa)
#
#
# Indices 1 2 3 4 5 6 
#
# 1 0.002212 -0.001094 0.005477 0.000000 -0.003537 0.000000
# 2 -0.001094 0.005246 -0.000777 0.000000 -0.001017 0.000000
# 3 0.005477 -0.000777 -0.000883 0.000000 -0.000360 0.000000
# 4 0.000000 0.000000 0.000000 0.068016 0.000000 -0.031723
# 5 -0.003537 -0.001017 -0.000360 0.000000 0.013368 0.000000
# 6 0.000000 0.000000 0.000000 -0.031723 0.000000 0.039448
#
#
# Mechanical properties :
#
#
# Convention : Reuss Voigt Hill
#
# Bulk Modulus (GPa) = 72.53530 83.76937 78.15234
# Shear Modulus (GPa) = 40.06687 25.70628 32.88657
#
# Velocity S-wave (km/s) = 3.86662 3.09712 3.50306
# Velocity P-wave (km/s) = 6.85568 6.63684 6.74715
#
# Compressibility (1/GPa) = 0.01378639
#
# Stress axis : x y z
#
# Youngs Moduli (GPa) = 452.05687 190.61017 -1132.61151
#
# Poissons Ratio (x) = 0.20858 6.20348
# Poissons Ratio (y) = 0.49468 -0.88052
# Poissons Ratio (z) = -2.47598 0.14818
#
# Static dielectric constant tensor:
#      x y z
#    x 2.121620 0.000000 -0.047420 
#    y 0.000000 2.077790 0.000000 
#    z -0.047420 0.000000 2.160820 
# 
# From -- ./inp_files/58323.got.cif
#   From: 2010.05.17/outbox.cif.g08.bks.cpg/sg12_30_cif.got.tgz:58323.got - 2010.06.03 13:09:07.
