data_PCOD9184280
_publ_section_title
;
Structure prediction by ZEFSAII (Michael W. Deem and Ramdas Pophale) SiO2 
 PCOD9184280
Probable space group: C 2/M
;
_chemical_formula_sum "Si O2"
_cell_formula_units_Z 64
_cell_length_a 23.116855
_cell_length_b 9.257158
_cell_length_c 19.618363
_cell_angle_alpha 90.000000
_cell_angle_beta 126.147001
_cell_angle_gamma 90.000000
_cell_volume 3390.120228
_symmetry_space_group_name_H-M "C 2/M"
_symmetry_group_IT_number 12
_symmetry_cell_setting 'monoclinic'
loop_
_space_group_symop_operation_xyz
x,y,z
-x,y,-z
-x,-y,-z
x,-y,z
1/2+x,1/2+y,z
1/2-x,1/2+y,-z
1/2-x,1/2-y,-z
1/2+x,1/2-y,z
loop_
_atom_site_type_symbol
_atom_site_label
_atom_site_fract_x
_atom_site_fract_y
_atom_site_fract_z
Si Si1 0.714266 0.668904 0.717289
Si Si2 0.467475 0.170392 0.651496
Si Si3 0.735498 0.331783 0.891382
Si Si4 0.822899 0.166603 0.567141
Si Si5 0.637480 0.328415 0.951518
Si Si6 0.054961 0.828304 0.599661
Si Si7 0.847387 0.165692 0.747112
Si Si8 0.490875 0.829730 0.829889
O O1 0.727173 0.500000 0.709537
O O2 0.711289 0.682650 0.797031
O O3 0.635950 0.711232 0.635804
O O4 0.778835 0.762893 0.734148
O O5 0.392437 0.252239 0.586150
O O6 0.527258 0.240260 0.645175
O O7 0.486582 0.188988 0.744596
O O8 0.459802 0.000000 0.633089
O O9 0.755606 0.500000 0.917164
O O10 0.672595 0.298194 0.901424
O O11 0.803377 0.232546 0.955384
O O12 0.750000 0.250000 0.500000
O O13 0.833499 0.166962 0.656133
O O14 0.819977 0.000000 0.541597
O O15 0.628476 0.500000 0.952204
O O16 0.562360 0.247775 0.905187
O O17 0.000000 0.804282 0.500000
O O18 0.055503 0.000000 0.616420
O O19 0.919365 0.256524 0.809642
O O20 0.856905 0.000000 0.775251
O O21 0.492152 0.000000 0.845249
#
# Coordination Sequence:
#
# PCOD9184280 Si02
#       8
#     8   8   8   8   8   8   8   8
#     4  10  21  38  58  79 113 154 190 227 276 339
#     4  10  21  36  55  81 110 142 183 229 277 329
#     4   9  19  35  55  83 116 153 188 224 276 335
#     4  10  21  36  56  80 107 141 183 233 284 333
#     4  10  19  33  58  88 117 145 183 235 279 326
#     4  10  22  38  56  82 112 149 189 228 280 336
#     4  10  22  38  56  81 110 145 188 234 283 331
#     4  10  20  36  58  83 112 147 185 228 280 336
#
# _framework density 18.878385999999999
#
# number of rings (size 3 to 8) (size 9 to 14) (size 15 to 20)
#    0.000    2.125    0.000    2.625    1.750    5.750 
#    0.000    0.625    0.000    3.750    0.000    0.000 
#    0.000    0.000    0.000    0.000    0.000    0.000 
#
# Total GULP energy -178750.204947 kJ/mol
# GULP energy per Si atom -5585.943905 kJ/mol
# Density = 1.883542 g / cm^3
# Si number density = 18.878386 Si / 1000 Ang^3
#
#
#
# Elastic Constant Matrix: (Units=GPa)
#
#
# Indices 1 2 3 4 5 6 
#
# 1 85.1034 44.5384 30.7015 0.0000 30.6193 0.0000
# 2 44.5384 84.7125 44.5450 0.0000 24.9208 0.0000
# 3 30.7015 44.5450 56.3095 0.0000 33.7515 0.0000
# 4 0.0000 0.0000 0.0000 26.2040 0.0000 5.1407
# 5 30.6193 24.9208 33.7515 0.0000 35.5984 0.0000
# 6 0.0000 0.0000 0.0000 5.1407 0.0000 36.7901
#
#
#
# Elastic Compliance Matrix: (Units=1/GPa)
#
#
# Indices 1 2 3 4 5 6 
#
# 1 0.020356 -0.008952 0.006304 0.000000 -0.017219 0.000000
# 2 -0.008952 0.024234 -0.020237 0.000000 0.009922 0.000000
# 3 0.006304 -0.020237 0.058117 0.000000 -0.046357 0.000000
# 4 0.000000 0.000000 0.000000 0.039238 0.000000 -0.005483
# 5 -0.017219 0.009922 -0.046357 0.000000 0.079908 0.000000
# 6 0.000000 0.000000 0.000000 -0.005483 0.000000 0.027947
#
#
# Mechanical properties :
#
#
# Convention : Reuss Voigt Hill
#
# Bulk Modulus (GPa) = 17.56336 51.74391 34.65363
# Shear Modulus (GPa) = 15.89579 26.80785 21.35182
#
# Velocity S-wave (km/s) = 2.90489 3.77242 3.36671
# Velocity P-wave (km/s) = 4.53594 6.81494 5.78870
#
# Compressibility (1/GPa) = 0.05693670
#
# Stress axis : x y z
#
# Youngs Moduli (GPa) = 49.12451 41.26504 17.20672
#
# Poissons Ratio (x) = 0.36939 -0.10846
# Poissons Ratio (y) = 0.43975 0.34821
# Poissons Ratio (z) = -0.30966 0.83508
#
# Static dielectric constant tensor:
#      x y z
#    x 1.633330 0.000000 -0.008130 
#    y 0.000000 1.635000 0.000000 
#    z -0.008130 0.000000 1.640160 
# 
# From -- ./inp_files/324288.got.cif
#   From: 2010.05.17/outbox.cif.g08.bks.cpg/sg12_163_cif.got.tgz:324288.got - 2010.06.03 13:09:07.
