data_PCOD9184214
_publ_section_title
;
Structure prediction by ZEFSAII (Michael W. Deem and Ramdas Pophale) SiO2 
 PCOD9184214
Probable space group: C 2/M
;
_chemical_formula_sum "Si O2"
_cell_formula_units_Z 64
_cell_length_a 18.213804
_cell_length_b 17.645626
_cell_length_c 14.245590
_cell_angle_alpha 90.000000
_cell_angle_beta 44.294753
_cell_angle_gamma 90.000000
_cell_volume 3197.357120
_symmetry_space_group_name_H-M "C 2/M"
_symmetry_group_IT_number 12
_symmetry_cell_setting 'monoclinic'
loop_
_space_group_symop_operation_xyz
x,y,z
-x,y,-z
-x,-y,-z
x,-y,z
1/2+x,1/2+y,z
1/2-x,1/2+y,-z
1/2-x,1/2-y,-z
1/2+x,1/2-y,z
loop_
_atom_site_type_symbol
_atom_site_label
_atom_site_fract_x
_atom_site_fract_y
_atom_site_fract_z
Si Si1 0.693721 0.409817 0.614304
Si Si2 0.035316 0.915576 0.226947
Si Si3 0.113375 0.086903 0.363293
Si Si4 0.706444 0.323712 0.985251
Si Si5 0.103235 0.587482 0.682633
Si Si6 0.880656 0.590316 0.929450
Si Si7 0.619720 0.317179 0.862378
Si Si8 0.163815 0.647051 0.819890
O O1 0.706000 0.500000 0.620185
O O2 0.588790 0.402316 0.646340
O O3 0.798108 0.380372 0.465818
O O4 0.665063 0.367840 0.736978
O O5 0.099047 0.918368 0.265017
O O6 0.088880 0.847872 0.122017
O O7 0.045020 0.000000 0.173216
O O8 0.210196 0.139925 0.297963
O O9 0.000000 0.113884 0.500000
O O10 0.130840 0.000000 0.382986
O O11 0.750000 0.250000 0.000000
O O12 0.782782 0.388993 0.953646
O O13 0.696828 0.317955 0.882439
O O14 0.096056 0.500000 0.660264
O O15 0.125627 0.591379 0.773359
O O16 0.986279 0.620584 0.782236
O O17 0.887104 0.500000 0.935951
O O18 0.869392 0.625515 0.043928
O O19 0.619947 0.229032 0.833619
O O20 0.500000 0.339588 0.000000
#
# Coordination Sequence:
#
# PCOD9184214 Si02
#       8
#     8   8   8   8   8   8   8   8
#     4  10  23  43  65  91 123 164 215 268 314 369
#     4  10  19  35  60  86 117 156 205 258 311 361
#     4  10  19  33  57  91 128 163 202 254 314 372
#     4  12  23  40  61  89 125 161 201 260 310 366
#     4  10  22  40  63  93 128 165 208 256 311 375
#     4  11  22  39  65  94 124 165 210 256 314 380
#     4  12  25  42  64  92 124 164 212 260 318 376
#     4  12  22  37  61  93 130 166 206 258 313 380
#
# _framework density 20.016532000000002
#
# number of rings (size 3 to 8) (size 9 to 14) (size 15 to 20)
#    0.000    1.125    3.750    3.375    0.000    4.750 
#    0.000    3.125    0.000    2.250    0.000    0.000 
#    0.000    0.000    0.000    0.000    0.000    0.000 
#
# Total GULP energy -178542.578011 kJ/mol
# GULP energy per Si atom -5579.455563 kJ/mol
# Density = 1.997097 g / cm^3
# Si number density = 20.016532 Si / 1000 Ang^3
#
#
#
# Elastic Constant Matrix: (Units=GPa)
#
#
# Indices 1 2 3 4 5 6 
#
# 1 69.2757 -1.0412 22.3863 0.0000 -4.7879 0.0000
# 2 -1.0412 38.5043 21.7589 0.0000 -4.1053 0.0000
# 3 22.3863 21.7589 117.8859 0.0000 -29.3632 0.0000
# 4 0.0000 0.0000 0.0000 18.2073 0.0000 0.1440
# 5 -4.7879 -4.1053 -29.3632 0.0000 24.7840 0.0000
# 6 0.0000 0.0000 0.0000 0.1440 0.0000 27.5028
#
#
#
# Elastic Compliance Matrix: (Units=1/GPa)
#
#
# Indices 1 2 3 4 5 6 
#
# 1 0.015578 0.002370 -0.003615 0.000000 -0.000881 0.000000
# 2 0.002370 0.029440 -0.006462 0.000000 -0.002322 0.000000
# 3 -0.003615 -0.006462 0.014075 0.000000 0.014907 0.000000
# 4 0.000000 0.000000 0.000000 0.054925 0.000000 -0.000288
# 5 -0.000881 -0.002322 0.014907 0.000000 0.057455 0.000000
# 6 0.000000 0.000000 0.000000 -0.000288 0.000000 0.036361
#
#
# Mechanical properties :
#
#
# Convention : Reuss Voigt Hill
#
# Bulk Modulus (GPa) = 22.89470 34.65265 28.77368
# Shear Modulus (GPa) = 21.02533 26.26959 23.64746
#
# Velocity S-wave (km/s) = 3.24450 3.62663 3.44087
# Velocity P-wave (km/s) = 5.04960 5.90645 5.49475
#
# Compressibility (1/GPa) = 0.04367822
#
# Stress axis : x y z
#
# Youngs Moduli (GPa) = 64.19286 33.96793 71.04750
#
# Poissons Ratio (x) = -0.08051 0.25685
# Poissons Ratio (y) = -0.15215 0.45913
# Poissons Ratio (z) = 0.23207 0.21951
#
# Static dielectric constant tensor:
#      x y z
#    x 1.704370 0.000000 -0.011570 
#    y 0.000000 1.734570 0.000000 
#    z -0.011570 0.000000 1.754630 
# 
# From -- ./inp_files/226820.got.cif
#   From: 2010.05.17/outbox.cif.g08.bks.cpg/sg12_114_cif.got.tgz:226820.got - 2010.06.03 13:09:07.
