data_PCOD9184808
_publ_section_title
;
Structure prediction by ZEFSAII (Michael W. Deem and Ramdas Pophale) SiO2 
 PCOD9184808
Probable space group: C 2/M
;
_chemical_formula_sum "Si O2"
_cell_formula_units_Z 34
_cell_length_a 24.620191
_cell_length_b 9.509463
_cell_length_c 8.795409
_cell_angle_alpha 90.000000
_cell_angle_beta 45.498753
_cell_angle_gamma 90.000000
_cell_volume 1468.710553
_symmetry_space_group_name_H-M "C 2/M"
_symmetry_group_IT_number 12
_symmetry_cell_setting 'monoclinic'
loop_
_space_group_symop_operation_xyz
x,y,z
-x,y,-z
-x,-y,-z
x,-y,z
1/2+x,1/2+y,z
1/2-x,1/2+y,-z
1/2-x,1/2-y,-z
1/2+x,1/2-y,z
loop_
_atom_site_type_symbol
_atom_site_label
_atom_site_fract_x
_atom_site_fract_y
_atom_site_fract_z
Si Si1 0.399170 0.766789 0.532863
Si Si2 0.355848 0.500000 0.252468
Si Si3 0.685995 0.000000 0.494795
Si Si4 0.040341 0.252603 0.066070
Si Si5 0.688393 0.500000 0.300469
Si Si6 0.356733 0.000000 0.065156
Si Si7 0.000000 0.500000 0.500000
O O1 0.348539 0.861315 0.516432
O O2 0.470876 0.697798 0.303214
O O3 0.347537 0.641440 0.697744
O O4 0.439309 0.877977 0.561939
O O5 0.277159 0.500000 0.313810
O O6 0.334872 0.500000 0.472940
O O7 0.405506 0.633803 0.107006
O O8 0.665294 0.000000 0.713447
O O9 0.089274 0.366166 0.060387
O O10 0.000000 0.325431 0.000000
O O11 0.779913 0.500000 0.119469
#
# Coordination Sequence:
#
# PCOD9184808 Si02
#       7
#     8   4   4   8   4   4   2
#     4  11  22  39  61  80 115 153 200 233 283 323
#     4  11  21  33  54  94 134 144 173 218 310 357
#     4  10  19  34  54  83 124 165 172 222 278 368
#     4  12  20  33  56  89 122 152 178 237 282 349
#     4  11  21  35  58  90 120 154 177 236 284 357
#     4  11  20  31  53  89 126 149 186 212 297 355
#     4  10  26  44  60  80 104 158 210 248 266 328
#
# _framework density 23.149556
#
# number of rings (size 3 to 8) (size 9 to 14) (size 15 to 20)
#    0.000    0.941    4.706    4.235    0.000    4.235 
#    0.000    0.000    0.000   22.588    0.000    0.000 
#    0.000    0.000    0.000    0.000    0.000    0.000 
#
# Total GULP energy -94895.604067 kJ/mol
# GULP energy per Si atom -5582.094357 kJ/mol
# Density = 2.309687 g / cm^3
# Si number density = 23.149556 Si / 1000 Ang^3
#
#
#
# Elastic Constant Matrix: (Units=GPa)
#
#
# Indices 1 2 3 4 5 6 
#
# 1 126.4384 55.2925 41.2617 0.0000 -41.8187 0.0000
# 2 55.2925 119.9099 23.5661 0.0000 -34.4294 0.0000
# 3 41.2617 23.5661 81.2178 0.0000 -37.2155 0.0000
# 4 0.0000 0.0000 0.0000 39.9236 0.0000 31.3272
# 5 -41.8187 -34.4294 -37.2155 0.0000 49.2942 0.0000
# 6 0.0000 0.0000 0.0000 31.3272 0.0000 95.8928
#
#
#
# Elastic Compliance Matrix: (Units=1/GPa)
#
#
# Indices 1 2 3 4 5 6 
#
# 1 0.012218 -0.003385 -0.002383 0.000000 0.006202 0.000000
# 2 -0.003385 0.011381 0.001137 0.000000 0.005936 0.000000
# 3 -0.002383 0.001137 0.019312 0.000000 0.013352 0.000000
# 4 0.000000 0.000000 0.000000 0.033682 0.000000 -0.011004
# 5 0.006202 0.005936 0.013352 0.000000 0.039774 0.000000
# 6 0.000000 0.000000 0.000000 -0.011004 0.000000 0.014023
#
#
# Mechanical properties :
#
#
# Convention : Reuss Voigt Hill
#
# Bulk Modulus (GPa) = 29.71815 63.08964 46.40389
# Shear Modulus (GPa) = 33.14134 50.85184 41.99659
#
# Velocity S-wave (km/s) = 3.78778 4.69194 4.26390
# Velocity P-wave (km/s) = 5.65641 7.52760 6.65807
#
# Compressibility (1/GPa) = 0.03364947
#
# Stress axis : x y z
#
# Youngs Moduli (GPa) = 81.84486 87.86247 51.78238
#
# Poissons Ratio (x) = 0.29741 0.12342
# Poissons Ratio (y) = 0.27704 -0.05890
# Poissons Ratio (z) = 0.19507 -0.09994
#
# Static dielectric constant tensor:
#      x y z
#    x 1.859660 0.000000 0.055490 
#    y 0.000000 2.429940 0.000000 
#    z 0.055490 0.000000 1.909370 
# 
# From -- ./inp_files/151343.got.cif
#   From: 2010.05.17/outbox.cif.g08.bks.cpg/sg12_76_cif.got.tgz:151343.got - 2010.06.03 13:09:07.
