data_PCOD9184886
_publ_section_title
;
Structure prediction by ZEFSAII (Michael W. Deem and Ramdas Pophale) SiO2 
 PCOD9184886
Probable space group: C 2/M
;
_chemical_formula_sum "Si O2"
_cell_formula_units_Z 64
_cell_length_a 20.496054
_cell_length_b 9.678586
_cell_length_c 23.563705
_cell_angle_alpha 90.000000
_cell_angle_beta 137.037322
_cell_angle_gamma 90.000000
_cell_volume 3185.704658
_symmetry_space_group_name_H-M "C 2/M"
_symmetry_group_IT_number 12
_symmetry_cell_setting 'monoclinic'
loop_
_space_group_symop_operation_xyz
x,y,z
-x,y,-z
-x,-y,-z
x,-y,z
1/2+x,1/2+y,z
1/2-x,1/2+y,-z
1/2-x,1/2-y,-z
1/2+x,1/2-y,z
loop_
_atom_site_type_symbol
_atom_site_label
_atom_site_fract_x
_atom_site_fract_y
_atom_site_fract_z
Si Si1 0.347470 0.158206 0.790892
Si Si2 0.746493 0.661702 0.554628
Si Si3 0.640332 0.340809 0.598246
Si Si4 0.498547 0.659926 0.174740
Si Si5 0.801203 0.842569 0.987031
Si Si6 0.062795 0.659983 0.646597
Si Si7 0.529734 0.839318 0.296866
Si Si8 0.727568 0.339516 0.161414
O O1 0.242564 0.156699 0.695792
O O2 0.415663 0.255399 0.798145
O O3 0.335112 0.232025 0.843303
O O4 0.381761 0.000000 0.815249
O O5 0.724995 0.500000 0.529558
O O6 0.750000 0.750000 0.500000
O O7 0.671856 0.710760 0.555588
O O8 0.857320 0.666034 0.645501
O O9 0.608577 0.500000 0.573423
O O10 0.571986 0.252761 0.596117
O O11 0.522607 0.500000 0.201696
O O12 0.412375 0.662942 0.074971
O O13 0.475679 0.739265 0.218950
O O14 0.768196 0.000000 0.972680
O O15 0.750000 0.750000 0.000000
O O16 0.778458 0.803139 0.908308
O O17 0.954596 0.500000 0.380326
O O18 0.988496 0.700394 0.648990
O O19 0.165220 0.666442 0.744694
O O20 0.498561 0.000000 0.271111
O O21 0.695415 0.500000 0.147717
#
# Coordination Sequence:
#
# PCOD9184886 Si02
#       8
#     8   8   8   8   8   8   8   8
#     4  10  19  34  55  78 104 141 183 226 274 325
#     4  10  21  38  59  84 112 145 180 222 274 328
#     4   9  18  35  56  79 111 145 178 220 272 325
#     4  11  22  34  53  81 109 141 184 231 277 326
#     4  10  22  37  52  73 106 145 184 230 282 330
#     4   9  18  32  57  84 105 141 187 228 269 318
#     4  10  20  38  59  82 113 145 184 230 275 327
#     4   9  18  34  52  75 107 141 181 228 277 323
#
# _framework density 20.089746999999999
#
# number of rings (size 3 to 8) (size 9 to 14) (size 15 to 20)
#    0.000    2.250    1.250    1.500    0.000    5.000 
#    0.000    5.625    0.000    3.750    0.000    0.000 
#    0.000    0.000    0.000    0.000    0.000    0.000 
#
# Total GULP energy -178584.973930 kJ/mol
# GULP energy per Si atom -5580.780435 kJ/mol
# Density = 2.004402 g / cm^3
# Si number density = 20.089747 Si / 1000 Ang^3
#
#
#
# Elastic Constant Matrix: (Units=GPa)
#
#
# Indices 1 2 3 4 5 6 
#
# 1 110.0677 52.0795 28.6113 0.0000 -32.7884 0.0000
# 2 52.0795 76.6716 45.1237 0.0000 -26.2400 0.0000
# 3 28.6113 45.1237 84.8628 0.0000 -34.6158 0.0000
# 4 0.0000 0.0000 0.0000 24.5265 0.0000 -12.9972
# 5 -32.7884 -26.2400 -34.6158 0.0000 36.8787 0.0000
# 6 0.0000 0.0000 0.0000 -12.9972 0.0000 31.0821
#
#
#
# Elastic Compliance Matrix: (Units=1/GPa)
#
#
# Indices 1 2 3 4 5 6 
#
# 1 0.015798 -0.009355 0.004314 0.000000 0.011439 0.000000
# 2 -0.009355 0.025547 -0.010384 0.000000 0.000113 0.000000
# 3 0.004314 -0.010384 0.023336 0.000000 0.018352 0.000000
# 4 0.000000 0.000000 0.000000 0.052379 0.000000 0.021903
# 5 0.011439 0.000113 0.018352 0.000000 0.054592 0.000000
# 6 0.000000 0.000000 0.000000 0.021903 0.000000 0.041332
#
#
# Mechanical properties :
#
#
# Convention : Reuss Voigt Hill
#
# Bulk Modulus (GPa) = 29.55824 58.13679 43.84752
# Shear Modulus (GPa) = 19.59938 28.21662 23.90800
#
# Velocity S-wave (km/s) = 3.12683 3.75177 3.45347
# Velocity P-wave (km/s) = 5.27078 6.91152 6.14615
#
# Compressibility (1/GPa) = 0.03383152
#
# Stress axis : x y z
#
# Youngs Moduli (GPa) = 63.30011 39.14376 42.85176
#
# Poissons Ratio (x) = 0.36618 -0.18486
# Poissons Ratio (y) = 0.59216 0.44496
# Poissons Ratio (z) = -0.27307 0.40646
#
# Static dielectric constant tensor:
#      x y z
#    x 1.746260 0.000000 -0.004640 
#    y 0.000000 1.693190 0.000000 
#    z -0.004640 0.000000 1.754170 
# 
# From -- ./inp_files/320106.got.cif
#   From: 2010.05.17/outbox.cif.g08.bks.cpg/sg12_161_cif.got.tgz:320106.got - 2010.06.03 13:09:07.
