data_PCOD9184129
_publ_section_title
;
Structure prediction by ZEFSAII (Michael W. Deem and Ramdas Pophale) SiO2 
 PCOD9184129
Probable space group: C 2/M
;
_chemical_formula_sum "Si O2"
_cell_formula_units_Z 58
_cell_length_a 22.752264
_cell_length_b 12.383783
_cell_length_c 20.799382
_cell_angle_alpha 90.000000
_cell_angle_beta 146.208766
_cell_angle_gamma 90.000000
_cell_volume 3259.378143
_symmetry_space_group_name_H-M "C 2/M"
_symmetry_group_IT_number 12
_symmetry_cell_setting 'monoclinic'
loop_
_space_group_symop_operation_xyz
x,y,z
-x,y,-z
-x,-y,-z
x,-y,z
1/2+x,1/2+y,z
1/2-x,1/2+y,-z
1/2-x,1/2-y,-z
1/2+x,1/2-y,z
loop_
_atom_site_type_symbol
_atom_site_label
_atom_site_fract_x
_atom_site_fract_y
_atom_site_fract_z
Si Si1 0.803833 0.873697 0.424979
Si Si2 0.381659 0.816140 0.963962
Si Si3 0.000000 0.500000 0.000000
Si Si4 0.584084 0.241558 0.221825
Si Si5 0.161927 0.875736 0.170458
Si Si6 0.048020 0.127219 0.318441
Si Si7 0.615295 0.222618 0.615919
Si Si8 0.645738 0.372708 0.766580
O O1 0.680855 0.841830 0.315945
O O2 0.863533 0.852884 0.546428
O O3 0.855394 0.799937 0.417100
O O4 0.816532 0.000000 0.421125
O O5 0.374587 0.701724 0.920866
O O6 0.268309 0.845379 0.890554
O O7 0.413323 0.905434 0.940118
O O8 0.476478 0.815005 0.100997
O O9 0.615879 0.325459 0.194299
O O10 0.567614 0.302650 0.273544
O O11 0.288757 0.860565 0.289520
O O12 0.133077 0.000000 0.135827
O O13 0.934656 0.149545 0.248396
O O14 0.051951 0.000000 0.305752
O O15 0.500000 0.174102 0.500000
O O16 0.613923 0.299279 0.677196
O O17 0.635335 0.500000 0.741600
#
# Coordination Sequence:
#
# PCOD9184129 Si02
#       8
#     8   8   2   8   8   8   8   8
#     4  10  21  34  56  86 114 146 190 241 296 341
#     4  11  23  36  62  88 118 150 179 246 289 344
#     4  12  20  40  58  96 122 136 184 240 306 342
#     4  11  22  36  56  81 111 156 188 237 275 338
#     4  10  22  38  55  84 113 149 193 230 281 338
#     4  10  21  37  55  78 110 153 195 239 280 335
#     4  10  19  33  57  86 112 145 185 237 295 339
#     4  10  20  34  56  85 117 147 183 236 293 349
#
# _framework density 17.794805
#
# number of rings (size 3 to 8) (size 9 to 14) (size 15 to 20)
#    0.000    1.655    3.448    1.241    0.966    3.034 
#    0.000    0.000    0.000    3.310    0.000    0.000 
#    0.000    0.000    0.000    0.000    0.000    0.000 
#
# Total GULP energy -161663.580476 kJ/mol
# GULP energy per Si atom -5574.606223 kJ/mol
# Density = 1.775430 g / cm^3
# Si number density = 17.794805 Si / 1000 Ang^3
#
#
#
# Elastic Constant Matrix: (Units=GPa)
#
#
# Indices 1 2 3 4 5 6 
#
# 1 42.1115 -4.3889 28.8479 0.0000 8.4408 0.0000
# 2 -4.3889 58.2202 4.3988 0.0000 0.8669 0.0000
# 3 28.8479 4.3988 83.0510 0.0000 32.8730 0.0000
# 4 0.0000 0.0000 0.0000 -8.4803 0.0000 3.0559
# 5 8.4408 0.8669 32.8730 0.0000 32.1154 0.0000
# 6 0.0000 0.0000 0.0000 3.0559 0.0000 9.7716
#
#
#
# Elastic Compliance Matrix: (Units=1/GPa)
#
#
# Indices 1 2 3 4 5 6 
#
# 1 0.032264 0.003370 -0.013437 0.000000 0.005183 0.000000
# 2 0.003370 0.017609 -0.002630 0.000000 0.001331 0.000000
# 3 -0.013437 -0.002630 0.025925 0.000000 -0.022934 0.000000
# 4 0.000000 0.000000 0.000000 -0.105978 0.000000 0.033143
# 5 0.005183 0.001331 -0.022934 0.000000 0.053215 0.000000
# 6 0.000000 0.000000 0.000000 0.033143 0.000000 0.091973
#
#
# Mechanical properties :
#
#
# Convention : Reuss Voigt Hill
#
# Bulk Modulus (GPa) = 19.83968 26.78871 23.31420
# Shear Modulus (GPa) = 31.80613 16.98300 24.39457
#
# Velocity S-wave (km/s) = 4.23233 3.09266 3.70656
# Velocity P-wave (km/s) = 5.92088 5.27632 5.60787
#
# Compressibility (1/GPa) = 0.05040404
#
# Stress axis : x y z
#
# Youngs Moduli (GPa) = 30.99469 56.78867 38.57258
#
# Poissons Ratio (x) = -0.19139 0.51830
# Poissons Ratio (y) = -0.10446 0.10146
# Poissons Ratio (z) = 0.41647 0.14937
#
# Static dielectric constant tensor:
#      x y z
#    x 1.593700 0.000000 0.023180 
#    y 0.000000 1.569590 0.000000 
#    z 0.023180 0.000000 1.626680 
# 
# From -- ./inp_files/174753.got.cif
#   From: 2010.05.17/outbox.cif.g08.bks.cpg/sg12_88_cif.got.tgz:174753.got - 2010.06.03 13:09:07.
