data_PCOD9184621
_publ_section_title
;
Structure prediction by ZEFSAII (Michael W. Deem and Ramdas Pophale) SiO2 
 PCOD9184621
Probable space group: C 2/M
;
_chemical_formula_sum "Si O2"
_cell_formula_units_Z 56
_cell_length_a 20.874811
_cell_length_b 8.120672
_cell_length_c 18.468950
_cell_angle_alpha 90.000000
_cell_angle_beta 50.201777
_cell_angle_gamma 90.000000
_cell_volume 2405.411974
_symmetry_space_group_name_H-M "C 2/M"
_symmetry_group_IT_number 12
_symmetry_cell_setting 'monoclinic'
loop_
_space_group_symop_operation_xyz
x,y,z
-x,y,-z
-x,-y,-z
x,-y,z
1/2+x,1/2+y,z
1/2-x,1/2+y,-z
1/2-x,1/2-y,-z
1/2+x,1/2-y,z
loop_
_atom_site_type_symbol
_atom_site_label
_atom_site_fract_x
_atom_site_fract_y
_atom_site_fract_z
Si Si1 0.863334 0.187527 0.900421
Si Si2 0.013697 0.798637 0.074105
Si Si3 0.288879 0.198072 0.810142
Si Si4 0.329985 0.301193 0.227263
Si Si5 0.523895 0.681196 0.679729
Si Si6 0.949031 0.313166 0.603727
Si Si7 0.694830 0.194282 0.607004
O O1 0.797703 0.254139 0.888390
O O2 0.902954 0.263097 0.945283
O O3 0.947945 0.189165 0.790585
O O4 0.837849 0.000000 0.934317
O O5 0.924662 0.740835 0.169661
O O6 0.017743 0.000000 0.077755
O O7 0.000000 0.762002 0.000000
O O8 0.207985 0.248321 0.822857
O O9 0.366666 0.259087 0.703205
O O10 0.293762 0.000000 0.806571
O O11 0.331505 0.500000 0.226632
O O12 0.274654 0.240852 0.334611
O O13 0.522093 0.500000 0.646827
O O14 0.512586 0.812313 0.624948
O O15 0.609577 0.707566 0.657662
O O16 0.926542 0.500000 0.597644
O O17 0.000000 0.236278 0.500000
O O18 0.750000 0.250000 0.500000
O O19 0.681663 0.000000 0.613544
#
# Coordination Sequence:
#
# PCOD9184621 Si02
#       7
#     8   8   8   8   8   8   8
#     4   9  17  33  56  80 109 144 187 234 274 329
#     4   9  17  33  60  88 112 146 192 237 284 340
#     4   9  19  33  52  76 108 149 183 227 288 339
#     4  10  20  38  59  83 115 148 193 242 284 341
#     4  10  19  34  53  76 104 142 187 233 280 328
#     4   9  18  31  47  72 103 142 189 231 277 336
#     4  12  25  38  55  80 112 151 189 234 288 340
#
# _framework density 23.280835
#
# number of rings (size 3 to 8) (size 9 to 14) (size 15 to 20)
#    0.000    2.286    1.429    1.714    2.000    1.429 
#    0.000    0.714    0.000    1.714    0.000    0.000 
#    0.000    0.000    0.000    0.000    0.000    0.000 
#
# Total GULP energy -156076.186822 kJ/mol
# GULP energy per Si atom -5574.149529 kJ/mol
# Density = 2.322785 g / cm^3
# Si number density = 23.280835 Si / 1000 Ang^3
#
#
#
# Elastic Constant Matrix: (Units=GPa)
#
#
# Indices 1 2 3 4 5 6 
#
# 1 142.5698 11.6226 33.1008 -0.0004 27.6392 0.0004
# 2 11.6226 37.7921 -2.7266 -0.0007 2.0512 0.0007
# 3 33.1008 -2.7266 89.4284 -0.0003 24.7663 0.0003
# 4 -0.0004 -0.0007 -0.0003 14.1195 0.0001 10.9626
# 5 27.6392 2.0512 24.7663 0.0001 31.6768 0.0000
# 6 0.0004 0.0007 0.0003 10.9626 0.0000 20.5404
#
#
#
# Elastic Compliance Matrix: (Units=1/GPa)
#
#
# Indices 1 2 3 4 5 6 
#
# 1 0.008803 -0.002482 -0.001597 0.000000 -0.006272 0.000000
# 2 -0.002482 0.027444 0.002103 0.000004 -0.001256 -0.000003
# 3 -0.001597 0.002103 0.014664 0.000001 -0.010208 -0.000001
# 4 0.000000 0.000004 0.000001 0.120938 -0.000002 -0.064545
# 5 -0.006272 -0.001256 -0.010208 -0.000002 0.045103 0.000001
# 6 0.000000 -0.000003 -0.000001 -0.064545 0.000001 0.083133
#
#
# Mechanical properties :
#
#
# Convention : Reuss Voigt Hill
#
# Bulk Modulus (GPa) = 21.29511 39.30933 30.30222
# Shear Modulus (GPa) = 15.64015 28.45359 22.04687
#
# Velocity S-wave (km/s) = 2.59473 3.49978 3.08067
# Velocity P-wave (km/s) = 4.25955 5.76652 5.06934
#
# Compressibility (1/GPa) = 0.04695914
#
# Stress axis : x y z
#
# Youngs Moduli (GPa) = 113.59609 36.43803 68.19242
#
# Poissons Ratio (x) = 0.09045 0.10892
# Poissons Ratio (y) = 0.28196 -0.14343
# Poissons Ratio (z) = 0.18144 -0.07664
#
# Static dielectric constant tensor:
#      x y z
#    x 1.932410 0.000000 0.007420 
#    y 0.000000 1.866520 0.000000 
#    z 0.007420 0.000000 1.909550 
# 
# From -- ./inp_files/281002.got.cif
#   From: 2010.05.17/outbox.cif.g08.bks.cpg/sg12_141_cif.got.tgz:281002.got - 2010.06.03 13:09:07.
