data_PCOD9184896
_publ_section_title
;
Structure prediction by ZEFSAII (Michael W. Deem and Ramdas Pophale) SiO2 
 PCOD9184896
Probable space group: C 2/M
;
_chemical_formula_sum "Si O2"
_cell_formula_units_Z 64
_cell_length_a 33.846812
_cell_length_b 7.729516
_cell_length_c 25.635558
_cell_angle_alpha 90.000000
_cell_angle_beta 153.305814
_cell_angle_gamma 90.000000
_cell_volume 3012.867230
_symmetry_space_group_name_H-M "C 2/M"
_symmetry_group_IT_number 12
_symmetry_cell_setting 'monoclinic'
loop_
_space_group_symop_operation_xyz
x,y,z
-x,y,-z
-x,-y,-z
x,-y,z
1/2+x,1/2+y,z
1/2-x,1/2+y,-z
1/2-x,1/2-y,-z
1/2+x,1/2-y,z
loop_
_atom_site_type_symbol
_atom_site_label
_atom_site_fract_x
_atom_site_fract_y
_atom_site_fract_z
Si Si1 0.591099 0.803707 0.115612
Si Si2 0.776000 0.287884 0.871553
Si Si3 0.858471 0.205713 0.713716
Si Si4 0.723595 0.290236 0.699447
Si Si5 0.167077 0.705161 0.517264
Si Si6 0.963522 0.291310 0.130150
Si Si7 0.694534 0.703778 0.883293
Si Si8 0.976812 0.708268 0.262344
O O1 0.606231 0.806882 0.194642
O O2 0.677409 0.724595 0.193869
O O3 0.585047 0.000000 0.086707
O O4 0.500000 0.711174 0.000000
O O5 0.777827 0.500000 0.872844
O O6 0.715053 0.238498 0.749951
O O7 0.733152 0.223927 0.874954
O O8 0.880172 0.235537 0.996008
O O9 0.755627 0.264217 0.590751
O O10 0.936493 0.233987 0.764462
O O11 0.855805 0.000000 0.721205
O O12 0.720677 0.500000 0.693715
O O13 0.674330 0.233156 0.588571
O O14 0.164060 0.500000 0.505119
O O15 0.074518 0.777867 0.388463
O O16 0.964691 0.500000 0.129207
O O17 0.944222 0.235447 0.166774
O O18 0.702281 0.500000 0.886684
O O19 0.593819 0.746964 0.777088
O O20 0.750000 0.750000 0.000000
O O21 0.980971 0.500000 0.265371
#
# Coordination Sequence:
#
# PCOD9184896 Si02
#       8
#     8   8   8   8   8   8   8   8
#     4   9  16  28  48  71  97 136 184 224 261 314
#     4   9  18  34  56  82 110 139 174 219 271 324
#     4  10  20  32  47  74 110 143 177 222 271 319
#     4   9  17  31  53  77 102 137 182 223 259 313
#     4   9  20  38  55  74 109 149 183 221 271 322
#     4  10  19  34  55  78 106 142 183 224 270 323
#     4  11  21  37  60  86 114 141 174 220 274 329
#     4  10  21  39  60  79 104 145 186 224 272 324
#
# _framework density 21.242225000000001
#
# number of rings (size 3 to 8) (size 9 to 14) (size 15 to 20)
#    0.000    2.375    1.250    1.500    0.000    4.250 
#    0.000    5.000    0.000    3.750    0.000    0.000 
#    0.000    0.000    0.000    0.000    0.000    0.000 
#
# Total GULP energy -178170.135701 kJ/mol
# GULP energy per Si atom -5567.816741 kJ/mol
# Density = 2.119388 g / cm^3
# Si number density = 21.242225 Si / 1000 Ang^3
#
#
#
# Elastic Constant Matrix: (Units=GPa)
#
#
# Indices 1 2 3 4 5 6 
#
# 1 85.1975 -6.2717 -1.1898 0.0000 10.1474 0.0000
# 2 -6.2717 37.3432 -2.6278 0.0000 4.0096 0.0000
# 3 -1.1898 -2.6278 55.7228 0.0000 15.7739 0.0000
# 4 0.0000 0.0000 0.0000 18.5795 0.0000 4.8707
# 5 10.1474 4.0096 15.7739 0.0000 25.9150 0.0000
# 6 0.0000 0.0000 0.0000 4.8707 0.0000 21.8476
#
#
#
# Elastic Compliance Matrix: (Units=1/GPa)
#
#
# Indices 1 2 3 4 5 6 
#
# 1 0.012824 0.003068 0.002385 0.000000 -0.006948 0.000000
# 2 0.003068 0.028384 0.003609 0.000000 -0.007790 0.000000
# 3 0.002385 0.003609 0.022459 0.000000 -0.015163 0.000000
# 4 0.000000 0.000000 0.000000 0.057164 0.000000 -0.012744
# 5 -0.006948 -0.007790 -0.015163 0.000000 0.051743 0.000000
# 6 0.000000 0.000000 0.000000 -0.012744 0.000000 0.048613
#
#
# Mechanical properties :
#
#
# Convention : Reuss Voigt Hill
#
# Bulk Modulus (GPa) = 12.22617 17.56502 14.89559
# Shear Modulus (GPa) = 21.70829 25.82528 23.76678
#
# Velocity S-wave (km/s) = 3.20025 3.49055 3.34854
# Velocity P-wave (km/s) = 4.40722 4.95299 4.68805
#
# Compressibility (1/GPa) = 0.08179178
#
# Stress axis : x y z
#
# Youngs Moduli (GPa) = 77.97819 35.23090 44.52475
#
# Poissons Ratio (x) = -0.10808 -0.10621
# Poissons Ratio (y) = -0.23921 -0.16069
# Poissons Ratio (z) = -0.18600 -0.12715
#
# Static dielectric constant tensor:
#      x y z
#    x 2.026940 0.000000 0.015160 
#    y 0.000000 1.809500 0.000000 
#    z 0.015160 0.000000 1.789630 
# 
# From -- ./inp_files/353493.got.cif
#   From: 2010.05.17/outbox.cif.g08.bks.cpg/sg12_177_cif.got.tgz:353493.got - 2010.06.03 13:09:07.
