data_PCOD9184941
_publ_section_title
;
Structure prediction by ZEFSAII (Michael W. Deem and Ramdas Pophale) SiO2 
 PCOD9184941
Probable space group: C 2/M
;
_chemical_formula_sum "Si O2"
_cell_formula_units_Z 64
_cell_length_a 31.444036
_cell_length_b 7.606846
_cell_length_c 16.470981
_cell_angle_alpha 90.000000
_cell_angle_beta 133.704046
_cell_angle_gamma 90.000000
_cell_volume 2848.076352
_symmetry_space_group_name_H-M "C 2/M"
_symmetry_group_IT_number 12
_symmetry_cell_setting 'monoclinic'
loop_
_space_group_symop_operation_xyz
x,y,z
-x,y,-z
-x,-y,-z
x,-y,z
1/2+x,1/2+y,z
1/2-x,1/2+y,-z
1/2-x,1/2-y,-z
1/2+x,1/2-y,z
loop_
_atom_site_type_symbol
_atom_site_label
_atom_site_fract_x
_atom_site_fract_y
_atom_site_fract_z
Si Si1 0.452455 0.714077 0.368696
Si Si2 0.837599 0.213621 0.781891
Si Si3 0.225340 0.289471 0.055739
Si Si4 0.882981 0.204319 0.671144
Si Si5 0.106598 0.293522 0.971816
Si Si6 0.503965 0.702148 0.267472
Si Si7 0.835019 0.787505 0.301042
Si Si8 0.704373 0.206774 0.578887
O O1 0.500000 0.758259 0.500000
O O2 0.448591 0.500000 0.359547
O O3 0.474833 0.778562 0.310785
O O4 0.388927 0.775471 0.316658
O O5 0.869601 0.277393 0.742340
O O6 0.769550 0.273912 0.687238
O O7 0.836744 0.000000 0.781413
O O8 0.870661 0.271411 0.906630
O O9 0.222222 0.500000 0.061573
O O10 0.273261 0.222172 0.183121
O O11 0.250000 0.250000 0.000000
O O12 0.160068 0.221938 0.986731
O O13 0.825042 0.211872 0.539157
O O14 0.936873 0.284321 0.691144
O O15 0.898449 0.000000 0.705078
O O16 0.098340 0.500000 0.944846
O O17 0.045890 0.204836 0.867283
O O18 0.518915 0.500000 0.309165
O O19 0.837177 0.736689 0.397884
O O20 0.835145 0.000000 0.298190
O O21 0.709217 0.000000 0.569897
#
# Coordination Sequence:
#
# PCOD9184941 Si02
#       8
#     8   8   8   8   8   8   8   8
#     4   9  17  31  55  85 112 145 192 239 283 334
#     4  10  22  40  61  87 117 153 197 243 293 351
#     4  10  21  35  54  81 111 150 194 236 285 340
#     4  10  22  40  63  87 113 152 199 244 293 352
#     4  11  23  39  59  85 119 156 195 243 295 347
#     4  10  21  39  62  86 115 155 199 244 292 348
#     4  10  19  34  55  79 112 151 190 231 279 345
#     4  11  22  36  58  89 121 151 188 241 300 351
#
# _framework density 22.471309000000002
#
# number of rings (size 3 to 8) (size 9 to 14) (size 15 to 20)
#    0.000    1.875    1.250    2.625    0.000    6.500 
#    0.000    3.125    0.000    1.500    0.000    0.000 
#    0.000    0.000    0.000    0.000    0.000    0.000 
#
# Total GULP energy -178864.791380 kJ/mol
# GULP energy per Si atom -5589.524731 kJ/mol
# Density = 2.242016 g / cm^3
# Si number density = 22.471309 Si / 1000 Ang^3
#
#
#
# Elastic Constant Matrix: (Units=GPa)
#
#
# Indices 1 2 3 4 5 6 
#
# 1 114.8974 4.0389 28.1454 0.0000 -12.5132 0.0000
# 2 4.0389 51.6763 -13.7199 0.0000 5.3471 0.0000
# 3 28.1454 -13.7199 85.4147 0.0000 -7.0167 0.0000
# 4 0.0000 0.0000 0.0000 17.6453 0.0000 -6.6230
# 5 -12.5132 5.3471 -7.0167 0.0000 40.7981 0.0000
# 6 0.0000 0.0000 0.0000 -6.6230 0.0000 5.2754
#
#
#
# Elastic Compliance Matrix: (Units=1/GPa)
#
#
# Indices 1 2 3 4 5 6 
#
# 1 0.009887 -0.001942 -0.003347 0.000000 0.002711 0.000000
# 2 -0.001942 0.020777 0.003758 0.000000 -0.002672 0.000000
# 3 -0.003347 0.003758 0.013480 0.000000 0.000799 0.000000
# 4 0.000000 0.000000 0.000000 0.107175 0.000000 0.134552
# 5 0.002711 -0.002672 0.000799 0.000000 0.025830 0.000000
# 6 0.000000 0.000000 0.000000 0.134552 0.000000 0.358482
#
#
# Mechanical properties :
#
#
# Convention : Reuss Voigt Hill
#
# Bulk Modulus (GPa) = 24.34198 32.10194 28.22196
# Shear Modulus (GPa) = 9.05162 28.31203 18.68182
#
# Velocity S-wave (km/s) = 2.00919 3.55338 2.88647
# Velocity P-wave (km/s) = 4.02969 5.58141 4.86778
#
# Compressibility (1/GPa) = 0.04108130
#
# Stress axis : x y z
#
# Youngs Moduli (GPa) = 101.14436 48.12968 74.18539
#
# Poissons Ratio (x) = 0.09346 0.24830
# Poissons Ratio (y) = 0.19641 -0.27877
# Poissons Ratio (z) = 0.33854 -0.18086
#
# Static dielectric constant tensor:
#      x y z
#    x 1.859340 0.000000 0.010740 
#    y 0.000000 1.804360 0.000000 
#    z 0.010740 0.000000 1.793940 
# 
# From -- ./inp_files/249829.got.cif
#   From: 2010.05.17/outbox.cif.g08.bks.cpg/sg12_125_cif.got.tgz:249829.got - 2010.06.03 13:09:07.
