data_PCOD9184908
_publ_section_title
;
Structure prediction by ZEFSAII (Michael W. Deem and Ramdas Pophale) SiO2 
 PCOD9184908
Probable space group: C 2/M
;
_chemical_formula_sum "Si O2"
_cell_formula_units_Z 44
_cell_length_a 8.746357
_cell_length_b 25.383139
_cell_length_c 12.123421
_cell_angle_alpha 90.000000
_cell_angle_beta 57.174874
_cell_angle_gamma 90.000000
_cell_volume 2261.762759
_symmetry_space_group_name_H-M "C 2/M"
_symmetry_group_IT_number 12
_symmetry_cell_setting 'monoclinic'
loop_
_space_group_symop_operation_xyz
x,y,z
-x,y,-z
-x,-y,-z
x,-y,z
1/2+x,1/2+y,z
1/2-x,1/2+y,-z
1/2-x,1/2-y,-z
1/2+x,1/2-y,z
loop_
_atom_site_type_symbol
_atom_site_label
_atom_site_fract_x
_atom_site_fract_y
_atom_site_fract_z
Si Si1 0.811569 0.500000 0.834263
Si Si2 0.403467 0.793710 0.325206
Si Si3 0.434162 0.283537 0.905176
Si Si4 0.033010 0.392120 0.172544
Si Si5 0.802677 0.887606 0.860382
Si Si6 0.000000 0.224689 0.500000
Si Si7 0.551862 0.500000 0.153348
O O1 0.934750 0.448358 0.785680
O O2 0.655804 0.500000 0.803935
O O3 0.692674 0.500000 0.994317
O O4 0.430704 0.757396 0.206401
O O5 0.527612 0.844733 0.260073
O O6 0.470406 0.761389 0.404682
O O7 0.189430 0.806571 0.418015
O O8 0.412227 0.333292 0.831752
O O9 0.500000 0.301347 0.000000
O O10 0.250000 0.250000 0.000000
O O11 0.846748 0.387039 0.176878
O O12 0.191097 0.387058 0.019666
O O13 0.907349 0.943175 0.808189
#
# Coordination Sequence:
#
# PCOD9184908 Si02
#       7
#     4   8   8   8   8   4   4
#     4   9  19  31  53  79 109 152 187 223 273 334
#     4  11  22  39  58  80 114 149 194 234 280 336
#     4  12  23  34  56  88 119 147 182 233 293 345
#     4  10  19  34  55  78 114 148 185 227 278 339
#     4  10  20  32  51  83 118 154 178 220 281 344
#     4  10  24  40  56  78 106 156 198 234 272 330
#     4   9  19  31  47  77 122 154 184 209 265 352
#
# _framework density 19.453854
#
# number of rings (size 3 to 8) (size 9 to 14) (size 15 to 20)
#    0.000    1.636    1.818    3.818    5.091    2.182 
#    0.000    0.000    0.000    1.091    0.000    5.091 
#    0.000    0.000    0.000    0.000    0.000    0.000 
#
# Total GULP energy -122766.601588 kJ/mol
# GULP energy per Si atom -5580.300072 kJ/mol
# Density = 1.940958 g / cm^3
# Si number density = 19.453854 Si / 1000 Ang^3
#
#
#
# Elastic Constant Matrix: (Units=GPa)
#
#
# Indices 1 2 3 4 5 6 
#
# 1 52.0824 20.6450 6.3476 0.0000 -5.8629 0.0000
# 2 20.6450 130.8672 15.4320 0.0000 -9.2646 0.0000
# 3 6.3476 15.4320 44.6364 0.0000 -1.2239 0.0000
# 4 0.0000 0.0000 0.0000 13.9677 0.0000 0.4280
# 5 -5.8629 -9.2646 -1.2239 0.0000 17.4937 0.0000
# 6 0.0000 0.0000 0.0000 0.4280 0.0000 7.1584
#
#
#
# Elastic Compliance Matrix: (Units=1/GPa)
#
#
# Indices 1 2 3 4 5 6 
#
# 1 0.021131 -0.002718 -0.001914 0.000000 0.005509 0.000000
# 2 -0.002718 0.008610 -0.002495 0.000000 0.003475 0.000000
# 3 -0.001914 -0.002495 0.023529 0.000000 -0.000317 0.000000
# 4 0.000000 0.000000 0.000000 0.071725 0.000000 -0.004288
# 5 0.005509 0.003475 -0.000317 0.000000 0.060827 0.000000
# 6 0.000000 0.000000 0.000000 -0.004288 0.000000 0.139953
#
#
# Mechanical properties :
#
#
# Convention : Reuss Voigt Hill
#
# Bulk Modulus (GPa) = 25.63027 34.71503 30.17265
# Shear Modulus (GPa) = 14.16287 20.06805 17.11546
#
# Velocity S-wave (km/s) = 2.70112 3.21529 2.96936
# Velocity P-wave (km/s) = 4.78869 5.62741 5.22491
#
# Compressibility (1/GPa) = 0.03901637
#
# Stress axis : x y z
#
# Youngs Moduli (GPa) = 47.32368 116.14022 42.50002
#
# Poissons Ratio (x) = 0.31565 0.08136
# Poissons Ratio (y) = 0.12862 0.10604
# Poissons Ratio (z) = 0.09059 0.28977
#
# Static dielectric constant tensor:
#      x y z
#    x 1.685040 0.000000 -0.008290 
#    y 0.000000 1.707380 0.000000 
#    z -0.008290 0.000000 1.673080 
# 
# From -- ./inp_files/122372.got.cif
#   From: 2010.05.17/outbox.cif.g08.bks.cpg/sg12_62_cif.got.tgz:122372.got - 2010.06.03 13:09:07.
