data_PCOD9184897
_publ_section_title
;
Structure prediction by ZEFSAII (Michael W. Deem and Ramdas Pophale) SiO2 
 PCOD9184897
Probable space group: C 2/M
;
_chemical_formula_sum "Si O2"
_cell_formula_units_Z 64
_cell_length_a 22.004845
_cell_length_b 7.723462
_cell_length_c 15.612148
_cell_angle_alpha 90.000000
_cell_angle_beta 111.115879
_cell_angle_gamma 90.000000
_cell_volume 2475.178589
_symmetry_space_group_name_H-M "C 2/M"
_symmetry_group_IT_number 12
_symmetry_cell_setting 'monoclinic'
loop_
_space_group_symop_operation_xyz
x,y,z
-x,y,-z
-x,-y,-z
x,-y,z
1/2+x,1/2+y,z
1/2-x,1/2+y,-z
1/2-x,1/2-y,-z
1/2+x,1/2-y,z
loop_
_atom_site_type_symbol
_atom_site_label
_atom_site_fract_x
_atom_site_fract_y
_atom_site_fract_z
Si Si1 0.180730 0.303948 0.317061
Si Si2 0.038780 0.200449 0.192508
Si Si3 0.859492 0.203990 0.522834
Si Si4 0.417664 0.292377 0.035976
Si Si5 0.191180 0.708432 0.139448
Si Si6 0.136578 0.201519 0.657410
Si Si7 0.003550 0.701148 0.648909
Si Si8 0.178859 0.211991 0.865528
O O1 0.203968 0.500000 0.338082
O O2 0.182728 0.226738 0.412735
O O3 0.209224 0.226081 0.243824
O O4 0.103919 0.301542 0.250724
O O5 0.989947 0.270825 0.095398
O O6 0.996582 0.205150 0.259061
O O7 0.057052 0.000000 0.185604
O O8 0.835630 0.271437 0.418386
O O9 0.930181 0.284246 0.577209
O O10 0.869968 0.000000 0.518263
O O11 0.423418 0.500000 0.046602
O O12 0.367649 0.224379 0.082978
O O13 0.380307 0.257805 0.928897
O O14 0.193353 0.500000 0.145390
O O15 0.245501 0.766648 0.098954
O O16 0.058190 0.219304 0.615521
O O17 0.154145 0.272056 0.759673
O O18 0.155157 0.000000 0.671810
O O19 0.018637 0.500000 0.668720
O O20 0.176855 0.000000 0.868601
#
# Coordination Sequence:
#
# PCOD9184897 Si02
#       8
#     8   8   8   8   8   8   8   8
#     4  10  21  37  54  77 111 147 180 221 268 318
#     4  10  19  34  56  81 109 144 180 219 267 319
#     4  10  20  33  54  79 104 143 184 221 262 313
#     4  10  20  35  59  84 108 136 175 227 275 317
#     4  10  22  38  58  79 105 145 184 220 271 324
#     4  10  19  34  55  78 107 141 182 221 262 319
#     4  11  20  30  49  79 115 146 172 214 270 323
#     4   9  18  37  59  80 108 141 179 222 267 320
#
# _framework density 25.856721
#
# number of rings (size 3 to 8) (size 9 to 14) (size 15 to 20)
#    0.000    2.000    1.250    4.500    0.000    5.000 
#    0.000    3.750    0.000    0.000    0.000    0.000 
#    0.000    0.000    0.000    0.000    0.000    0.000 
#
# Total GULP energy -178929.669716 kJ/mol
# GULP energy per Si atom -5591.552179 kJ/mol
# Density = 2.579787 g / cm^3
# Si number density = 25.856721 Si / 1000 Ang^3
#
#
#
# Elastic Constant Matrix: (Units=GPa)
#
#
# Indices 1 2 3 4 5 6 
#
# 1 101.5848 1.9041 16.1791 0.0000 -7.6460 0.0000
# 2 1.9041 65.8622 -3.0482 0.0000 2.4773 0.0000
# 3 16.1791 -3.0482 140.9039 0.0000 -6.6216 0.0000
# 4 0.0000 0.0000 0.0000 12.2676 0.0000 -6.0041
# 5 -7.6460 2.4773 -6.6216 0.0000 48.1121 0.0000
# 6 0.0000 0.0000 0.0000 -6.0041 0.0000 8.2604
#
#
#
# Elastic Compliance Matrix: (Units=1/GPa)
#
#
# Indices 1 2 3 4 5 6 
#
# 1 0.010139 -0.000400 -0.001103 0.000000 0.001480 0.000000
# 2 -0.000400 0.015241 0.000338 0.000000 -0.000802 0.000000
# 3 -0.001103 0.000338 0.007269 0.000000 0.000808 0.000000
# 4 0.000000 0.000000 0.000000 0.126527 0.000000 0.091966
# 5 0.001480 -0.000802 0.000808 0.000000 0.021172 0.000000
# 6 0.000000 0.000000 0.000000 0.091966 0.000000 0.187905
#
#
# Mechanical properties :
#
#
# Convention : Reuss Voigt Hill
#
# Bulk Modulus (GPa) = 32.98386 37.60230 35.29308
# Shear Modulus (GPa) = 13.13409 33.28241 23.20825
#
# Velocity S-wave (km/s) = 2.25623 3.59163 2.99920
# Velocity P-wave (km/s) = 4.42397 5.63683 5.06682
#
# Compressibility (1/GPa) = 0.03031786
#
# Stress axis : x y z
#
# Youngs Moduli (GPa) = 98.63304 65.61429 137.57083
#
# Poissons Ratio (x) = 0.02623 0.15177
# Poissons Ratio (y) = 0.03944 -0.04649
# Poissons Ratio (z) = 0.10882 -0.02217
#
# Static dielectric constant tensor:
#      x y z
#    x 2.089480 0.000000 -0.012500 
#    y 0.000000 1.933870 0.000000 
#    z -0.012500 0.000000 2.067360 
# 
# From -- ./inp_files/244238.got.cif
#   From: 2010.05.17/outbox.cif.g08.bks.cpg/sg12_123_cif.got.tgz:244238.got - 2010.06.03 13:09:07.
