data_PCOD9184484
_publ_section_title
;
Structure prediction by ZEFSAII (Michael W. Deem and Ramdas Pophale) SiO2 
 PCOD9184484
Probable space group: C 2/M
;
_chemical_formula_sum "Si O2"
_cell_formula_units_Z 56
_cell_length_a 7.266017
_cell_length_b 29.754130
_cell_length_c 11.441780
_cell_angle_alpha 90.000000
_cell_angle_beta 100.279662
_cell_angle_gamma 90.000000
_cell_volume 2433.938510
_symmetry_space_group_name_H-M "C 2/M"
_symmetry_group_IT_number 12
_symmetry_cell_setting 'monoclinic'
loop_
_space_group_symop_operation_xyz
x,y,z
-x,y,-z
-x,-y,-z
x,-y,z
1/2+x,1/2+y,z
1/2-x,1/2+y,-z
1/2-x,1/2-y,-z
1/2+x,1/2-y,z
loop_
_atom_site_type_symbol
_atom_site_label
_atom_site_fract_x
_atom_site_fract_y
_atom_site_fract_z
Si Si1 0.678145 0.383750 0.217478
Si Si2 0.649181 0.329023 0.419887
Si Si3 0.406780 0.183083 0.664311
Si Si4 0.771139 0.051655 0.969336
Si Si5 0.270011 0.874875 0.847438
Si Si6 0.222331 0.196154 0.038286
Si Si7 0.617909 0.256108 0.748917
O O1 0.734299 0.369674 0.353089
O O2 0.761803 0.426993 0.162526
O O3 0.451258 0.382478 0.199684
O O4 0.730910 0.344029 0.134599
O O5 0.500000 0.347349 0.500000
O O6 0.801493 0.313561 0.531587
O O7 0.519429 0.295034 0.323566
O O8 0.374096 0.138355 0.738086
O O9 0.600508 0.209782 0.674228
O O10 0.316778 0.222014 0.736544
O O11 0.716842 0.000000 0.973457
O O12 0.688605 0.082397 0.064778
O O13 0.000000 0.054505 0.000000
O O14 0.292851 0.830533 0.931955
O O15 0.332444 0.237275 0.113400
O O16 0.000000 0.202305 0.000000
#
# Coordination Sequence:
#
# PCOD9184484 Si02
#       7
#     8   8   8   8   8   8   8
#     4   9  15  32  51  73 102 132 172 217 270 316
#     4  10  19  34  51  70 100 149 186 227 268 297
#     4  11  23  35  50  74 104 148 186 230 262 306
#     4   8  15  28  54  81 103 132 169 215 264 328
#     4   9  17  33  48  74 107 132 169 215 277 322
#     4   9  20  34  53  73 102 141 176 227 274 311
#     4  11  22  35  49  73 102 142 199 223 253 305
#
# _framework density 23.007974999999998
#
# number of rings (size 3 to 8) (size 9 to 14) (size 15 to 20)
#    0.000    2.429    2.857    3.000    2.000    3.429 
#    0.000    0.000    0.000    1.286    0.000    8.000 
#    0.000    4.571    0.000    0.000    0.000    0.000 
#
# Total GULP energy -155927.590726 kJ/mol
# GULP energy per Si atom -5568.842526 kJ/mol
# Density = 2.295561 g / cm^3
# Si number density = 23.007975 Si / 1000 Ang^3
#
#
#
# Elastic Constant Matrix: (Units=GPa)
#
#
# Indices 1 2 3 4 5 6 
#
# 1 33.7665 17.2976 21.3530 0.0000 2.3571 0.0000
# 2 17.2976 149.9355 57.7641 0.0000 -18.1560 0.0000
# 3 21.3530 57.7641 170.5618 0.0000 -11.2676 0.0000
# 4 0.0000 0.0000 0.0000 23.6445 0.0000 -0.8290
# 5 2.3571 -18.1560 -11.2676 0.0000 38.3924 0.0000
# 6 0.0000 0.0000 0.0000 -0.8290 0.0000 17.1117
#
#
#
# Elastic Compliance Matrix: (Units=1/GPa)
#
#
# Indices 1 2 3 4 5 6 
#
# 1 0.033719 -0.003105 -0.003471 0.000000 -0.004557 0.000000
# 2 -0.003105 0.008292 -0.002190 0.000000 0.003469 0.000000
# 3 -0.003471 -0.002190 0.007123 0.000000 0.001268 0.000000
# 4 0.000000 0.000000 0.000000 0.042365 0.000000 0.002053
# 5 -0.004557 0.003469 0.001268 0.000000 0.028339 0.000000
# 6 0.000000 0.000000 0.000000 0.002053 0.000000 0.058539
#
#
# Mechanical properties :
#
#
# Convention : Reuss Voigt Hill
#
# Bulk Modulus (GPa) = 31.64400 60.78813 46.21606
# Shear Modulus (GPa) = 24.21992 33.01968 28.61980
#
# Velocity S-wave (km/s) = 3.24802 3.79244 3.53073
# Velocity P-wave (km/s) = 5.27726 6.75682 6.06235
#
# Compressibility (1/GPa) = 0.03160157
#
# Stress axis : x y z
#
# Youngs Moduli (GPa) = 29.65730 120.60408 140.38965
#
# Poissons Ratio (x) = 0.37443 0.48728
# Poissons Ratio (y) = 0.09208 0.30749
# Poissons Ratio (z) = 0.10294 0.26416
#
# Static dielectric constant tensor:
#      x y z
#    x 2.215880 0.000000 0.009590 
#    y 0.000000 2.436280 0.000000 
#    z 0.009590 0.000000 1.922680 
# 
# From -- ./inp_files/125334.got.cif
#   From: 2010.05.17/outbox.cif.g08.bks.cpg/sg12_63_cif.got.tgz:125334.got - 2010.06.03 13:09:07.
