data_PCOD9184944
_publ_section_title
;
Structure prediction by ZEFSAII (Michael W. Deem and Ramdas Pophale) SiO2 
 PCOD9184944
Probable space group: C 2/M
;
_chemical_formula_sum "Si O2"
_cell_formula_units_Z 56
_cell_length_a 8.915032
_cell_length_b 21.563155
_cell_length_c 28.528697
_cell_angle_alpha 90.000000
_cell_angle_beta 146.662902
_cell_angle_gamma 90.000000
_cell_volume 3013.945003
_symmetry_space_group_name_H-M "C 2/M"
_symmetry_group_IT_number 12
_symmetry_cell_setting 'monoclinic'
loop_
_space_group_symop_operation_xyz
x,y,z
-x,y,-z
-x,-y,-z
x,-y,z
1/2+x,1/2+y,z
1/2-x,1/2+y,-z
1/2-x,1/2-y,-z
1/2+x,1/2-y,z
loop_
_atom_site_type_symbol
_atom_site_label
_atom_site_fract_x
_atom_site_fract_y
_atom_site_fract_z
Si Si1 0.501987 0.830735 0.272775
Si Si2 0.535499 0.823343 0.086327
Si Si3 0.927112 0.270732 0.353753
Si Si4 0.738949 0.426708 0.718193
Si Si5 0.223508 0.340335 0.591971
Si Si6 0.432287 0.705540 0.110971
Si Si7 0.684688 0.927352 0.915492
O O1 0.663539 0.773939 0.290526
O O2 0.452645 0.812033 0.313789
O O3 0.670035 0.892659 0.306054
O O4 0.201562 0.833592 0.172660
O O5 0.507567 0.777577 0.123305
O O6 0.806268 0.809200 0.128277
O O7 0.491310 0.892337 0.091533
O O8 0.293129 0.808681 0.986758
O O9 0.910161 0.313801 0.395246
O O10 0.165074 0.219476 0.408415
O O11 0.680040 0.500000 0.698840
O O12 0.478733 0.386413 0.667979
O O13 0.002185 0.419655 0.821127
O O14 0.000000 0.371390 0.500000
O O15 0.701687 0.000000 0.929680
O O16 0.000000 0.903020 0.000000
#
# Coordination Sequence:
#
# PCOD9184944 Si02
#       7
#     8   8   8   8   8   8   8
#     4  10  19  34  55  79 114 148 181 230 282 335
#     4  10  22  33  50  81 111 143 188 228 283 335
#     4   9  20  33  57  91 111 144 183 225 285 348
#     4  10  23  39  57  82 111 152 199 233 275 337
#     4  10  20  37  61  88 119 147 180 233 285 340
#     4  10  21  32  50  82 113 145 174 235 288 329
#     4  10  22  39  59  77 108 154 196 235 271 326
#
# _framework density 18.580299
#
# number of rings (size 3 to 8) (size 9 to 14) (size 15 to 20)
#    0.000    2.143    0.000    2.143   14.000    0.286 
#    0.000    2.857    0.000    0.857    0.000    0.000 
#    0.000    0.000    0.000    0.000    0.000    0.000 
#
# Total GULP energy -156029.949853 kJ/mol
# GULP energy per Si atom -5572.498209 kJ/mol
# Density = 1.853801 g / cm^3
# Si number density = 18.580299 Si / 1000 Ang^3
#
#
#
# Elastic Constant Matrix: (Units=GPa)
#
#
# Indices 1 2 3 4 5 6 
#
# 1 127.4844 50.1902 21.8064 -0.0014 -1.0942 -0.0016
# 2 50.1902 80.6449 23.4402 -0.0012 -10.0178 -0.0020
# 3 21.8064 23.4402 50.6235 -0.0061 3.2739 -0.0069
# 4 -0.0014 -0.0012 -0.0061 19.9400 -0.0014 -2.4868
# 5 -1.0942 -10.0178 3.2739 -0.0014 9.1737 -0.0018
# 6 -0.0016 -0.0020 -0.0069 -2.4868 -0.0018 16.6511
#
#
#
# Elastic Compliance Matrix: (Units=1/GPa)
#
#
# Indices 1 2 3 4 5 6 
#
# 1 0.010793 -0.007242 -0.000888 -0.000001 -0.006304 -0.000001
# 2 -0.007242 0.023059 -0.009345 0.000000 0.027652 0.000001
# 3 -0.000888 -0.009345 0.025724 0.000007 -0.019492 0.000008
# 4 -0.000001 0.000000 0.000007 0.051102 0.000007 0.007632
# 5 -0.006304 0.027652 -0.019492 0.000007 0.145408 0.000011
# 6 -0.000001 0.000001 0.000008 0.007632 0.000011 0.061196
#
#
# Mechanical properties :
#
#
# Convention : Reuss Voigt Hill
#
# Bulk Modulus (GPa) = 40.61056 49.95849 45.28453
# Shear Modulus (GPa) = 13.87188 20.04071 16.95630
#
# Velocity S-wave (km/s) = 2.73535 3.28777 3.02420
# Velocity P-wave (km/s) = 5.64627 6.43108 6.05141
#
# Compressibility (1/GPa) = 0.02462414
#
# Stress axis : x y z
#
# Youngs Moduli (GPa) = 92.65135 43.36771 38.87411
#
# Poissons Ratio (x) = 0.31408 0.03453
# Poissons Ratio (y) = 0.67100 0.36330
# Poissons Ratio (z) = 0.08229 0.40529
#
# Static dielectric constant tensor:
#      x y z
#    x 1.645340 0.000000 0.002650 
#    y 0.000000 1.628620 0.000000 
#    z 0.002650 0.000000 1.704780 
# 
# From -- ./inp_files/373165.got.cif
#   From: 2010.05.17/outbox.cif.g08.bks.cpg/sg12_187_cif.got.tgz:373165.got - 2010.06.03 13:09:07.
