data_PCOD9184881
_publ_section_title
;
Structure prediction by ZEFSAII (Michael W. Deem and Ramdas Pophale) SiO2 
 PCOD9184881
Probable space group: C 2/M
;
_chemical_formula_sum "Si O2"
_cell_formula_units_Z 48
_cell_length_a 21.312766
_cell_length_b 7.541953
_cell_length_c 14.522711
_cell_angle_alpha 90.000000
_cell_angle_beta 90.795356
_cell_angle_gamma 90.000000
_cell_volume 2334.153904
_symmetry_space_group_name_H-M "C 2/M"
_symmetry_group_IT_number 12
_symmetry_cell_setting 'monoclinic'
loop_
_space_group_symop_operation_xyz
x,y,z
-x,y,-z
-x,-y,-z
x,-y,z
1/2+x,1/2+y,z
1/2-x,1/2+y,-z
1/2-x,1/2-y,-z
1/2+x,1/2-y,z
loop_
_atom_site_type_symbol
_atom_site_label
_atom_site_fract_x
_atom_site_fract_y
_atom_site_fract_z
Si Si1 0.508340 0.785240 0.606092
Si Si2 0.427616 0.716878 0.102790
Si Si3 0.882818 0.708795 0.701281
Si Si4 0.755344 0.286469 0.608286
Si Si5 0.634990 0.291937 0.715361
Si Si6 0.427533 0.286521 0.896465
O O1 0.500000 0.732394 0.500000
O O2 0.448187 0.719087 0.662191
O O3 0.573359 0.723039 0.650831
O O4 0.509991 0.000000 0.609560
O O5 0.427701 0.500000 0.104520
O O6 0.384433 0.781840 0.185098
O O7 0.500247 0.771701 0.119018
O O8 0.409248 0.771562 0.999028
O O9 0.883783 0.500000 0.679672
O O10 0.820569 0.782123 0.652194
O O11 0.884783 0.728639 0.811143
O O12 0.755470 0.500000 0.617658
O O13 0.750000 0.250000 0.500000
O O14 0.695219 0.217232 0.663634
O O15 0.647657 0.500000 0.730343
O O16 0.428142 0.500000 0.896936
#
# Coordination Sequence:
#
# PCOD9184881 Si02
#       6
#     8   8   8   8   8   8
#     4  10  20  33  50  72 101 134 166 208 259 306
#     4   8  15  29  51  78 104 129 165 212 256 295
#     4  10  20  34  50  74 106 136 167 207 258 308
#     4  10  22  38  55  74 102 140 174 209 255 304
#     4  10  19  34  55  77  99 129 173 217 251 291
#     4   9  16  30  53  77 102 134 169 207 252 302
#
# _framework density 20.564197
#
# number of rings (size 3 to 8) (size 9 to 14) (size 15 to 20)
#    0.000    2.500    1.667    2.000    0.000    3.000 
#    0.000    3.333    0.000    0.000    0.000    0.000 
#    0.000    0.000    0.000    0.000    0.000    0.000 
#
# Total GULP energy -133967.988873 kJ/mol
# GULP energy per Si atom -5581.999536 kJ/mol
# Density = 2.051739 g / cm^3
# Si number density = 20.564197 Si / 1000 Ang^3
#
#
#
# Elastic Constant Matrix: (Units=GPa)
#
#
# Indices 1 2 3 4 5 6 
#
# 1 106.3486 -1.3849 49.8796 0.0000 1.3372 0.0000
# 2 -1.3849 48.3171 -11.3616 0.0000 -5.7887 0.0000
# 3 49.8796 -11.3616 132.8681 0.0000 -1.1563 0.0000
# 4 0.0000 0.0000 0.0000 19.1517 0.0000 2.7941
# 5 1.3372 -5.7887 -1.1563 0.0000 37.6198 0.0000
# 6 0.0000 0.0000 0.0000 2.7941 0.0000 8.9142
#
#
#
# Elastic Compliance Matrix: (Units=1/GPa)
#
#
# Indices 1 2 3 4 5 6 
#
# 1 0.011451 -0.000779 -0.004371 0.000000 -0.000661 0.000000
# 2 -0.000779 0.021594 0.002169 0.000000 0.003417 0.000000
# 3 -0.004371 0.002169 0.009359 0.000000 0.000777 0.000000
# 4 0.000000 0.000000 0.000000 0.054717 0.000000 -0.017150
# 5 -0.000661 0.003417 0.000777 0.000000 0.027155 0.000000
# 6 0.000000 0.000000 0.000000 -0.017150 0.000000 0.117556
#
#
# Mechanical properties :
#
#
# Convention : Reuss Voigt Hill
#
# Bulk Modulus (GPa) = 27.44138 40.20003 33.82071
# Shear Modulus (GPa) = 19.23500 29.83051 24.53276
#
# Velocity S-wave (km/s) = 3.06169 3.81281 3.45771
# Velocity P-wave (km/s) = 5.08643 6.24295 5.69413
#
# Compressibility (1/GPa) = 0.03644132
#
# Stress axis : x y z
#
# Youngs Moduli (GPa) = 87.32523 46.31004 106.84355
#
# Poissons Ratio (x) = 0.03607 0.46705
# Poissons Ratio (y) = 0.06802 -0.23170
# Poissons Ratio (z) = 0.38173 -0.10043
#
# Static dielectric constant tensor:
#      x y z
#    x 1.714120 0.000000 -0.023460 
#    y 0.000000 1.789830 0.000000 
#    z -0.023460 0.000000 1.726520 
# 
# From -- ./inp_files/153738.got.cif
#   From: 2010.05.17/outbox.cif.g08.bks.cpg/sg12_77_cif.got.tgz:153738.got - 2010.06.03 13:09:07.
