data_PCOD9184127
_publ_section_title
;
Structure prediction by ZEFSAII (Michael W. Deem and Ramdas Pophale) SiO2 
 PCOD9184127
Probable space group: C 2/M
;
_chemical_formula_sum "Si O2"
_cell_formula_units_Z 64
_cell_length_a 16.300824
_cell_length_b 18.066971
_cell_length_c 14.422011
_cell_angle_alpha 90.000000
_cell_angle_beta 127.131232
_cell_angle_gamma 90.000000
_cell_volume 3386.241909
_symmetry_space_group_name_H-M "C 2/M"
_symmetry_group_IT_number 12
_symmetry_cell_setting 'monoclinic'
loop_
_space_group_symop_operation_xyz
x,y,z
-x,y,-z
-x,-y,-z
x,-y,z
1/2+x,1/2+y,z
1/2-x,1/2+y,-z
1/2-x,1/2-y,-z
1/2+x,1/2-y,z
loop_
_atom_site_type_symbol
_atom_site_label
_atom_site_fract_x
_atom_site_fract_y
_atom_site_fract_z
Si Si1 0.363699 0.916496 0.438863
Si Si2 0.730782 0.413706 0.106470
Si Si3 0.206807 0.137070 0.475933
Si Si4 0.112726 0.280922 0.322139
Si Si5 0.447630 0.130797 0.315933
Si Si6 0.926724 0.911264 0.156671
Si Si7 0.998699 0.084346 0.398869
Si Si8 0.918372 0.822121 0.865362
O O1 0.260726 0.894320 0.420894
O O2 0.455192 0.915707 0.577540
O O3 0.391986 0.857479 0.378286
O O4 0.356739 0.000000 0.395110
O O5 0.706411 0.500000 0.107802
O O6 0.853437 0.403162 0.193770
O O7 0.674184 0.363797 0.145404
O O8 0.676798 0.394314 0.971452
O O9 0.151033 0.214080 0.413679
O O10 0.300056 0.156056 0.608792
O O11 0.117673 0.084434 0.450036
O O12 0.108819 0.247384 0.217187
O O13 0.005208 0.308880 0.292178
O O14 0.935777 0.883476 0.268728
O O15 0.020420 0.877832 0.161274
O O16 0.938137 0.000000 0.167758
O O17 0.000000 0.122849 0.500000
O O18 0.960509 0.000000 0.385537
O O19 0.000000 0.800622 0.000000
#
# Coordination Sequence:
#
# PCOD9184127 Si02
#       8
#     8   8   8   8   8   8   8   8
#     4  10  19  34  58  85 108 137 184 239 288 326
#     4  10  19  33  57  86 110 137 177 232 292 329
#     4  10  20  37  55  76 104 146 181 226 269 319
#     4  10  21  36  48  73 113 146 186 209 258 331
#     4  10  20  32  48  78 118 147 173 218 270 336
#     4   9  18  33  54  81 109 135 176 235 286 328
#     4  10  20  36  56  81 107 135 178 229 281 327
#     4  10  19  35  55  78 109 145 185 228 268 325
#
# _framework density 18.900008
#
# number of rings (size 3 to 8) (size 9 to 14) (size 15 to 20)
#    0.000    2.125    1.250    3.000    0.000    2.500 
#    9.000    3.750    0.000    0.000    0.000    0.000 
#    0.000   14.500    0.000    0.000    0.000    0.000 
#
# Total GULP energy -178159.400782 kJ/mol
# GULP energy per Si atom -5567.481274 kJ/mol
# Density = 1.885699 g / cm^3
# Si number density = 18.900008 Si / 1000 Ang^3
#
#
#
# Elastic Constant Matrix: (Units=GPa)
#
#
# Indices 1 2 3 4 5 6 
#
# 1 88.7283 18.2937 51.6110 0.0000 -5.9220 0.0000
# 2 18.2937 36.3728 26.2629 0.0000 -3.4351 0.0000
# 3 51.6110 26.2629 148.5679 0.0000 -11.6011 0.0000
# 4 0.0000 0.0000 0.0000 22.8076 0.0000 3.4655
# 5 -5.9220 -3.4351 -11.6011 0.0000 33.6683 0.0000
# 6 0.0000 0.0000 0.0000 3.4655 0.0000 27.2987
#
#
#
# Elastic Compliance Matrix: (Units=1/GPa)
#
#
# Indices 1 2 3 4 5 6 
#
# 1 0.014688 -0.004216 -0.004305 0.000000 0.000670 0.000000
# 2 -0.004216 0.032784 -0.004242 0.000000 0.001142 0.000000
# 3 -0.004305 -0.004242 0.009129 0.000000 0.001956 0.000000
# 4 0.000000 0.000000 0.000000 0.044707 0.000000 -0.005675
# 5 0.000670 0.001142 0.001956 0.000000 0.030610 0.000000
# 6 0.000000 0.000000 0.000000 -0.005675 0.000000 0.037352
#
#
# Mechanical properties :
#
#
# Convention : Reuss Voigt Hill
#
# Bulk Modulus (GPa) = 32.17886 51.77823 41.97855
# Shear Modulus (GPa) = 24.37190 28.58836 26.48013
#
# Velocity S-wave (km/s) = 3.59488 3.89345 3.74714
# Velocity P-wave (km/s) = 5.85608 6.90415 6.40160
#
# Compressibility (1/GPa) = 0.03107630
#
# Stress axis : x y z
#
# Youngs Moduli (GPa) = 68.08086 30.50281 109.54140
#
# Poissons Ratio (x) = 0.12859 0.47158
# Poissons Ratio (y) = 0.28702 0.46463
# Poissons Ratio (z) = 0.29309 0.12938
#
# Static dielectric constant tensor:
#      x y z
#    x 1.654720 0.000000 -0.005800 
#    y 0.000000 1.678500 0.000000 
#    z -0.005800 0.000000 1.726560 
# 
# From -- ./inp_files/216857.got.cif
#   From: 2010.05.17/outbox.cif.g08.bks.cpg/sg12_109_cif.got.tgz:216857.got - 2010.06.03 13:09:07.
