data_PCOD9184346
_publ_section_title
;
Structure prediction by ZEFSAII (Michael W. Deem and Ramdas Pophale) SiO2 
 PCOD9184346
Probable space group: C 2/M
;
_chemical_formula_sum "Si O2"
_cell_formula_units_Z 64
_cell_length_a 14.211921
_cell_length_b 17.941214
_cell_length_c 17.761605
_cell_angle_alpha 90.000000
_cell_angle_beta 47.688451
_cell_angle_gamma 90.000000
_cell_volume 3349.055221
_symmetry_space_group_name_H-M "C 2/M"
_symmetry_group_IT_number 12
_symmetry_cell_setting 'monoclinic'
loop_
_space_group_symop_operation_xyz
x,y,z
-x,y,-z
-x,-y,-z
x,-y,z
1/2+x,1/2+y,z
1/2-x,1/2+y,-z
1/2-x,1/2-y,-z
1/2+x,1/2-y,z
loop_
_atom_site_type_symbol
_atom_site_label
_atom_site_fract_x
_atom_site_fract_y
_atom_site_fract_z
Si Si1 0.213736 0.583730 0.086887
Si Si2 0.005279 0.911741 0.407341
Si Si3 0.825971 0.236530 0.036675
Si Si4 0.008799 0.632111 0.078786
Si Si5 0.637185 0.194010 0.397655
Si Si6 0.244580 0.183601 0.237116
Si Si7 0.263454 0.088158 0.523981
Si Si8 0.035112 0.584209 0.326218
O O1 0.265431 0.500000 0.058055
O O2 0.317887 0.647401 0.046898
O O3 0.126640 0.597805 0.060134
O O4 0.109253 0.591013 0.208935
O O5 0.868775 0.893383 0.444555
O O6 0.000000 0.899174 0.500000
O O7 0.116494 0.864680 0.308519
O O8 0.028149 0.000000 0.383762
O O9 0.766537 0.276354 0.143391
O O10 0.750000 0.250000 0.000000
O O11 0.956214 0.279824 0.949537
O O12 0.867518 0.632274 0.187676
O O13 0.000000 0.599360 0.000000
O O14 0.500000 0.224801 0.500000
O O15 0.726110 0.255955 0.312921
O O16 0.704107 0.143938 0.425294
O O17 0.595399 0.139656 0.353024
O O18 0.383987 0.096425 0.403109
O O19 0.259947 0.000000 0.548750
O O20 0.052498 0.500000 0.345616
#
# Coordination Sequence:
#
# PCOD9184346 Si02
#       8
#     8   8   8   8   8   8   8   8
#     4  10  19  33  59  87 112 144 189 235 291 352
#     4  10  23  41  59  84 121 160 199 245 291 346
#     4   9  19  39  59  81 113 149 190 243 298 342
#     4   9  21  37  56  79 110 152 193 240 292 342
#     4  10  19  34  54  87 117 147 191 238 282 351
#     4  11  21  37  59  82 114 156 196 238 293 349
#     4   9  19  35  55  80 117 158 190 228 286 341
#     4   9  17  31  54  84 115 149 184 230 283 342
#
# _framework density 19.109867000000001
#
# number of rings (size 3 to 8) (size 9 to 14) (size 15 to 20)
#    0.000    2.375    1.250    0.750    1.750    4.250 
#    0.000    6.875    0.000    4.875    0.000    0.000 
#    0.000    0.000    0.000    0.000    0.000    0.000 
#
# Total GULP energy -178299.292262 kJ/mol
# GULP energy per Si atom -5571.852883 kJ/mol
# Density = 1.906637 g / cm^3
# Si number density = 19.109867 Si / 1000 Ang^3
#
#
#
# Elastic Constant Matrix: (Units=GPa)
#
#
# Indices 1 2 3 4 5 6 
#
# 1 66.5473 12.3579 7.9855 0.0000 -3.1403 0.0000
# 2 12.3579 66.3116 18.0743 0.0000 -4.6023 0.0000
# 3 7.9855 18.0743 52.2391 0.0000 -2.5035 0.0000
# 4 0.0000 0.0000 0.0000 37.9356 0.0000 -22.8722
# 5 -3.1403 -4.6023 -2.5035 0.0000 28.0218 0.0000
# 6 0.0000 0.0000 0.0000 -22.8722 0.0000 41.0997
#
#
#
# Elastic Compliance Matrix: (Units=1/GPa)
#
#
# Indices 1 2 3 4 5 6 
#
# 1 0.015717 -0.002435 -0.001501 0.000000 0.001227 0.000000
# 2 -0.002435 0.017168 -0.005469 0.000000 0.002058 0.000000
# 3 -0.001501 -0.005469 0.021305 0.000000 0.000837 0.000000
# 4 0.000000 0.000000 0.000000 0.039672 0.000000 0.022077
# 5 0.001227 0.002058 0.000837 0.000000 0.036237 0.000000
# 6 0.000000 0.000000 0.000000 0.022077 0.000000 0.036617
#
#
# Mechanical properties :
#
#
# Convention : Reuss Voigt Hill
#
# Bulk Modulus (GPa) = 28.26526 29.10371 28.68449
# Shear Modulus (GPa) = 25.33978 31.19009 28.26494
#
# Velocity S-wave (km/s) = 3.64539 4.04437 3.85005
# Velocity P-wave (km/s) = 5.70451 6.08867 5.89972
#
# Compressibility (1/GPa) = 0.03537912
#
# Stress axis : x y z
#
# Youngs Moduli (GPa) = 63.62493 58.24939 46.93817
#
# Poissons Ratio (x) = 0.14182 0.07047
# Poissons Ratio (y) = 0.15490 0.25671
# Poissons Ratio (z) = 0.09553 0.31857
#
# Static dielectric constant tensor:
#      x y z
#    x 1.662360 0.000000 0.012490 
#    y 0.000000 1.706720 0.000000 
#    z 0.012490 0.000000 1.665580 
# 
# From -- ./inp_files/271698.got.cif
#   From: 2010.05.17/outbox.cif.g08.bks.cpg/sg12_136_cif.got.tgz:271698.got - 2010.06.03 13:09:07.
