data_PCOD9184304
_publ_section_title
;
Structure prediction by ZEFSAII (Michael W. Deem and Ramdas Pophale) SiO2 
 PCOD9184304
Probable space group: C 2/M
;
_chemical_formula_sum "Si O2"
_cell_formula_units_Z 48
_cell_length_a 23.503819
_cell_length_b 8.018008
_cell_length_c 12.562481
_cell_angle_alpha 90.000000
_cell_angle_beta 68.115777
_cell_angle_gamma 90.000000
_cell_volume 2196.846588
_symmetry_space_group_name_H-M "C 2/M"
_symmetry_group_IT_number 12
_symmetry_cell_setting 'monoclinic'
loop_
_space_group_symop_operation_xyz
x,y,z
-x,y,-z
-x,-y,-z
x,-y,z
1/2+x,1/2+y,z
1/2-x,1/2+y,-z
1/2-x,1/2-y,-z
1/2+x,1/2-y,z
loop_
_atom_site_type_symbol
_atom_site_label
_atom_site_fract_x
_atom_site_fract_y
_atom_site_fract_z
Si Si1 0.071255 0.202019 0.454935
Si Si2 0.304282 0.804621 0.229156
Si Si3 0.400862 0.301321 0.330735
Si Si4 0.819532 0.697468 0.761573
Si Si5 0.653880 0.802262 0.029011
Si Si6 0.984388 0.798048 0.888909
O O1 0.098780 0.260868 0.548790
O O2 0.113267 0.268810 0.331265
O O3 0.000000 0.250873 0.500000
O O4 0.073356 0.000000 0.447531
O O5 0.340909 0.730895 0.302464
O O6 0.231658 0.777933 0.277856
O O7 0.318388 0.000000 0.220011
O O8 0.327120 0.731420 0.099300
O O9 0.408651 0.500000 0.332557
O O10 0.460406 0.238464 0.224674
O O11 0.808816 0.500000 0.771006
O O12 0.814750 0.766015 0.885707
O O13 0.581418 0.775211 0.092895
O O14 0.666619 0.000000 0.017291
O O15 0.980289 0.000000 0.884534
O O16 0.000000 0.755584 0.000000
#
# Coordination Sequence:
#
# PCOD9184304 Si02
#       6
#     8   8   8   8   8   8
#     4  10  22  42  66  89 117 154 196 241 290 347
#     4  11  23  39  60  87 119 156 198 241 295 353
#     4  10  21  38  60  89 122 155 194 241 292 347
#     4  11  24  41  61  86 118 156 200 245 293 346
#     4  10  22  38  58  87 121 157 195 243 296 348
#     4  10  19  33  58  89 118 152 193 236 288 347
#
# _framework density 21.849499000000002
#
# number of rings (size 3 to 8) (size 9 to 14) (size 15 to 20)
#    0.000    1.667    1.667    2.500    0.000    6.000 
#    0.000    0.000    0.000    0.000    0.000    0.000 
#    0.000    0.000    0.000    0.000    0.000    0.000 
#
# Total GULP energy -134162.971035 kJ/mol
# GULP energy per Si atom -5590.123793 kJ/mol
# Density = 2.179977 g / cm^3
# Si number density = 21.849499 Si / 1000 Ang^3
#
#
#
# Elastic Constant Matrix: (Units=GPa)
#
#
# Indices 1 2 3 4 5 6 
#
# 1 93.8201 -10.5304 19.4723 0.0000 11.2346 0.0000
# 2 -10.5304 14.4213 6.9104 0.0000 6.8667 0.0000
# 3 19.4723 6.9104 89.5100 0.0000 19.2521 0.0000
# 4 0.0000 0.0000 0.0000 16.9322 0.0000 -3.6858
# 5 11.2346 6.8667 19.2521 0.0000 34.9788 0.0000
# 6 0.0000 0.0000 0.0000 -3.6858 0.0000 29.0988
#
#
#
# Elastic Compliance Matrix: (Units=1/GPa)
#
#
# Indices 1 2 3 4 5 6 
#
# 1 0.013443 0.013769 -0.002810 0.000000 -0.005474 0.000000
# 2 0.013769 0.091329 -0.005942 0.000000 -0.019080 0.000000
# 3 -0.002810 -0.005942 0.013381 0.000000 -0.005296 0.000000
# 4 0.000000 0.000000 0.000000 0.060734 0.000000 0.007693
# 5 -0.005474 -0.019080 -0.005296 0.000000 0.037007 0.000000
# 6 0.000000 0.000000 0.000000 0.007693 0.000000 0.035340
#
#
# Mechanical properties :
#
#
# Convention : Reuss Voigt Hill
#
# Bulk Modulus (GPa) = 7.80119 25.49510 16.64814
# Shear Modulus (GPa) = 17.61005 28.32857 22.96931
#
# Velocity S-wave (km/s) = 2.84204 3.60464 3.24582
# Velocity P-wave (km/s) = 3.78784 5.38688 4.65651
#
# Compressibility (1/GPa) = 0.12818564
#
# Stress axis : x y z
#
# Youngs Moduli (GPa) = 74.38913 10.94948 74.73270
#
# Poissons Ratio (x) = -0.15076 0.21000
# Poissons Ratio (y) = -1.02426 0.44408
# Poissons Ratio (z) = 0.20904 0.06506
#
# Static dielectric constant tensor:
#      x y z
#    x 1.771540 0.000000 0.010750 
#    y 0.000000 1.788260 0.000000 
#    z 0.010750 0.000000 1.817640 
# 
# From -- ./inp_files/172877.got.cif
#   From: 2010.05.17/outbox.cif.g08.bks.cpg/sg12_87_cif.got.tgz:172877.got - 2010.06.03 13:09:07.
