data_PCOD9184969
_publ_section_title
;
Structure prediction by ZEFSAII (Michael W. Deem and Ramdas Pophale) SiO2 
 PCOD9184969
Probable space group: C 2/M
;
_chemical_formula_sum "Si O2"
_cell_formula_units_Z 40
_cell_length_a 19.532639
_cell_length_b 12.825823
_cell_length_c 12.579660
_cell_angle_alpha 90.000000
_cell_angle_beta 39.228616
_cell_angle_gamma 90.000000
_cell_volume 1993.049568
_symmetry_space_group_name_H-M "C 2/M"
_symmetry_group_IT_number 12
_symmetry_cell_setting 'monoclinic'
loop_
_space_group_symop_operation_xyz
x,y,z
-x,y,-z
-x,-y,-z
x,-y,z
1/2+x,1/2+y,z
1/2-x,1/2+y,-z
1/2-x,1/2-y,-z
1/2+x,1/2-y,z
loop_
_atom_site_type_symbol
_atom_site_label
_atom_site_fract_x
_atom_site_fract_y
_atom_site_fract_z
Si Si1 0.738931 0.257455 0.781205
Si Si2 0.574224 0.687957 0.312763
Si Si3 0.357766 0.212745 0.310210
Si Si4 0.932427 0.619782 0.427838
Si Si5 0.541227 0.381322 0.117271
O O1 0.803653 0.193588 0.792500
O O2 0.680504 0.186359 0.762332
O O3 0.830346 0.327050 0.611089
O O4 0.649203 0.331507 0.939275
O O5 0.500000 0.650176 0.500000
O O6 0.532906 0.805859 0.336389
O O7 0.552783 0.626107 0.231120
O O8 0.250000 0.250000 0.500000
O O9 0.411152 0.130934 0.326744
O O10 0.440562 0.309460 0.204640
O O11 0.945844 0.500000 0.441182
O O12 0.525939 0.500000 0.102621
#
# Coordination Sequence:
#
# PCOD9184969 Si02
#       5
#     8   8   8   8   8
#     4  10  19  34  55  80 110 139 172 222 269 309
#     4   9  20  37  54  76 110 147 179 214 260 317
#     4   9  20  36  52  74 106 139 172 214 266 319
#     4   9  18  34  56  79 104 139 180 215 255 314
#     4  11  22  35  55  82 109 139 178 225 272 314
#
# _framework density 20.069747
#
# number of rings (size 3 to 8) (size 9 to 14) (size 15 to 20)
#    0.000    2.400    0.000    3.000    0.000    9.600 
#    0.000    1.000    0.000    9.600    0.000    0.000 
#    0.000    0.000    0.000    0.000    0.000    0.000 
#
# Total GULP energy -111602.790286 kJ/mol
# GULP energy per Si atom -5580.139514 kJ/mol
# Density = 2.002407 g / cm^3
# Si number density = 20.069747 Si / 1000 Ang^3
#
#
#
# Elastic Constant Matrix: (Units=GPa)
#
#
# Indices 1 2 3 4 5 6 
#
# 1 134.2929 -1.8369 19.9713 0.0000 -1.5520 0.0000
# 2 -1.8369 19.7843 4.2415 0.0000 -7.3347 0.0000
# 3 19.9713 4.2415 50.1954 0.0000 -11.0982 0.0000
# 4 0.0000 0.0000 0.0000 7.6588 0.0000 -3.2761
# 5 -1.5520 -7.3347 -11.0982 0.0000 35.4200 0.0000
# 6 0.0000 0.0000 0.0000 -3.2761 0.0000 -3.0747
#
#
#
# Elastic Compliance Matrix: (Units=1/GPa)
#
#
# Indices 1 2 3 4 5 6 
#
# 1 0.007961 0.001300 -0.003374 0.000000 -0.000439 0.000000
# 2 0.001300 0.055204 -0.002838 0.000000 0.010599 0.000000
# 3 -0.003374 -0.002838 0.022931 0.000000 0.006449 0.000000
# 4 0.000000 0.000000 0.000000 0.089690 0.000000 -0.095566
# 5 -0.000439 0.010599 0.006449 0.000000 0.032429 0.000000
# 6 0.000000 0.000000 0.000000 -0.095566 0.000000 -0.223410
#
#
# Mechanical properties :
#
#
# Convention : Reuss Voigt Hill
#
# Bulk Modulus (GPa) = 13.11148 27.66939 20.39044
# Shear Modulus (GPa) = 249.33292 20.12726 134.73009
#
# Velocity S-wave (km/s) = 11.15809 3.17024 8.20224
# Velocity P-wave (km/s) = 13.13587 5.21700 9.99420
#
# Compressibility (1/GPa) = 0.07626904
#
# Stress axis : x y z
#
# Youngs Moduli (GPa) = 125.61340 18.11470 43.61002
#
# Poissons Ratio (x) = -0.02354 0.14716
# Poissons Ratio (y) = -0.16326 0.12378
# Poissons Ratio (z) = 0.42387 0.05142
#
# Static dielectric constant tensor:
#      x y z
#    x 1.766030 0.000000 0.038940 
#    y 0.000000 1.615580 0.000000 
#    z 0.038940 0.000000 1.706920 
# 
# From -- ./inp_files/142188.got.cif
#   From: 2010.05.17/outbox.cif.g08.bks.cpg/sg12_72_cif.got.tgz:142188.got - 2010.06.03 13:09:07.
