data_PCOD9184117
_publ_section_title
;
Structure prediction by ZEFSAII (Michael W. Deem and Ramdas Pophale) SiO2 
 PCOD9184117
Probable space group: C 2/M
;
_chemical_formula_sum "Si O2"
_cell_formula_units_Z 56
_cell_length_a 31.123795
_cell_length_b 13.793510
_cell_length_c 9.360416
_cell_angle_alpha 90.000000
_cell_angle_beta 45.338182
_cell_angle_gamma 90.000000
_cell_volume 2858.220942
_symmetry_space_group_name_H-M "C 2/M"
_symmetry_group_IT_number 12
_symmetry_cell_setting 'monoclinic'
loop_
_space_group_symop_operation_xyz
x,y,z
-x,y,-z
-x,-y,-z
x,-y,z
1/2+x,1/2+y,z
1/2-x,1/2+y,-z
1/2-x,1/2-y,-z
1/2+x,1/2-y,z
loop_
_atom_site_type_symbol
_atom_site_label
_atom_site_fract_x
_atom_site_fract_y
_atom_site_fract_z
Si Si1 0.159753 0.386493 0.140591
Si Si2 0.783807 0.386630 0.287095
Si Si3 0.006357 0.891976 0.314672
Si Si4 0.605360 0.736907 0.458650
Si Si5 0.354794 0.385982 0.094200
Si Si6 0.206593 0.884105 0.060042
Si Si7 0.675934 0.246846 0.571481
O O1 0.151507 0.500000 0.189283
O O2 0.109038 0.322710 0.334350
O O3 0.166932 0.374359 0.953465
O O4 0.225188 0.356342 0.055193
O O5 0.765490 0.500000 0.326655
O O6 0.730696 0.310389 0.379021
O O7 0.804875 0.351910 0.394108
O O8 0.000000 0.893411 0.500000
O O9 0.958957 0.813344 0.372810
O O10 0.990298 0.000000 0.297627
O O11 0.076111 0.874560 0.117007
O O12 0.654099 0.660629 0.280587
O O13 0.629165 0.771244 0.555844
O O14 0.345255 0.500000 0.151956
O O15 0.345445 0.317045 0.250424
O O16 0.311173 0.361891 0.062483
O O17 0.203652 0.000000 0.083122
#
# Coordination Sequence:
#
# PCOD9184117 Si02
#       7
#     8   8   8   8   8   8   8
#     4  10  22  38  59  86 116 154 197 240 285 335
#     4  10  22  39  55  80 121 158 192 233 285 349
#     4  10  21  38  61  88 116 153 194 237 287 338
#     4  12  22  35  59  85 120 149 193 240 283 344
#     4  10  21  37  58  86 121 155 193 235 283 346
#     4  10  19  33  57  85 115 151 189 234 284 337
#     4  11  24  35  56  87 118 157 191 229 296 350
#
# _framework density 19.592607999999998
#
# number of rings (size 3 to 8) (size 9 to 14) (size 15 to 20)
#    0.000    1.571    2.857    2.143    4.000    2.857 
#    0.000    1.429    0.000    1.286    0.000    2.000 
#    0.000    0.000    0.000    0.000    0.000    0.000 
#
# Total GULP energy -156421.680091 kJ/mol
# GULP energy per Si atom -5586.488575 kJ/mol
# Density = 1.954801 g / cm^3
# Si number density = 19.592608 Si / 1000 Ang^3
#
#
#
# Elastic Constant Matrix: (Units=GPa)
#
#
# Indices 1 2 3 4 5 6 
#
# 1 57.3484 16.5854 6.4111 0.0000 8.9409 0.0000
# 2 16.5854 78.5963 17.4289 0.0000 -1.0179 0.0000
# 3 6.4111 17.4289 58.2878 0.0000 7.1643 0.0000
# 4 0.0000 0.0000 0.0000 16.8449 0.0000 6.1124
# 5 8.9409 -1.0179 7.1643 0.0000 24.1510 0.0000
# 6 0.0000 0.0000 0.0000 6.1124 0.0000 22.6950
#
#
#
# Elastic Compliance Matrix: (Units=1/GPa)
#
#
# Indices 1 2 3 4 5 6 
#
# 1 0.019851 -0.004292 0.000027 0.000000 -0.007538 0.000000
# 2 -0.004292 0.014635 -0.004333 0.000000 0.003491 0.000000
# 3 0.000027 -0.004333 0.019172 0.000000 -0.005880 0.000000
# 4 0.000000 0.000000 0.000000 0.065795 0.000000 -0.017721
# 5 -0.007538 0.003491 -0.005880 0.000000 0.046088 0.000000
# 6 0.000000 0.000000 0.000000 -0.017721 0.000000 0.048835
#
#
# Mechanical properties :
#
#
# Convention : Reuss Voigt Hill
#
# Bulk Modulus (GPa) = 27.42752 30.56481 28.99616
# Shear Modulus (GPa) = 20.51469 22.99197 21.75333
#
# Velocity S-wave (km/s) = 3.23935 3.42936 3.33571
# Velocity P-wave (km/s) = 5.29343 5.59595 5.44680
#
# Compressibility (1/GPa) = 0.03645973
#
# Stress axis : x y z
#
# Youngs Moduli (GPa) = 50.37561 68.32878 52.16027
#
# Poissons Ratio (x) = 0.29330 -0.00139
# Poissons Ratio (y) = 0.21623 0.22602
# Poissons Ratio (z) = -0.00134 0.29608
#
# Static dielectric constant tensor:
#      x y z
#    x 1.699760 0.000000 0.001550 
#    y 0.000000 1.713980 0.000000 
#    z 0.001550 0.000000 1.687400 
# 
# From -- ./inp_files/111555.got.cif
#   From: 2010.05.17/outbox.cif.g08.bks.cpg/sg12_56_cif.got.tgz:111555.got - 2010.06.03 13:09:07.
