data_PCOD9184213
_publ_section_title
;
Structure prediction by ZEFSAII (Michael W. Deem and Ramdas Pophale) SiO2 
 PCOD9184213
Probable space group: C 2/M
;
_chemical_formula_sum "Si O2"
_cell_formula_units_Z 40
_cell_length_a 24.150843
_cell_length_b 16.665336
_cell_length_c 9.412860
_cell_angle_alpha 90.000000
_cell_angle_beta 149.929544
_cell_angle_gamma 90.000000
_cell_volume 1898.286057
_symmetry_space_group_name_H-M "C 2/M"
_symmetry_group_IT_number 12
_symmetry_cell_setting 'monoclinic'
loop_
_space_group_symop_operation_xyz
x,y,z
-x,y,-z
-x,-y,-z
x,-y,z
1/2+x,1/2+y,z
1/2-x,1/2+y,-z
1/2-x,1/2-y,-z
1/2+x,1/2-y,z
loop_
_atom_site_type_symbol
_atom_site_label
_atom_site_fract_x
_atom_site_fract_y
_atom_site_fract_z
Si Si1 0.512525 0.091901 0.855415
Si Si2 0.760362 0.407277 0.559152
Si Si3 0.085387 0.906188 0.818965
Si Si4 0.430781 0.332823 0.717260
Si Si5 0.701795 0.818255 0.651608
O O1 0.413249 0.138773 0.564247
O O2 0.501624 0.000000 0.789505
O O3 0.500000 0.097049 0.000000
O O4 0.638703 0.117840 0.113576
O O5 0.781836 0.500000 0.564733
O O6 0.642943 0.400754 0.372567
O O7 0.766502 0.350043 0.436433
O O8 0.000000 0.906016 0.500000
O O9 0.016835 0.868236 0.797101
O O10 0.117071 0.000000 0.917626
O O11 0.193144 0.850996 0.029033
O O12 0.339382 0.272748 0.449761
O O13 0.500000 0.291701 0.000000
#
# Coordination Sequence:
#
# PCOD9184213 Si02
#       5
#     8   8   8   8   8
#     4   8  15  28  50  81 116 153 194 240 297 361
#     4  10  19  33  57  91 128 161 199 250 310 368
#     4  11  26  46  65  87 122 171 215 249 301 373
#     4  12  24  36  64  97 129 155 203 261 318 360
#     4  11  21  35  62  88 126 157 203 253 310 361
#
# _framework density 21.071638
#
# number of rings (size 3 to 8) (size 9 to 14) (size 15 to 20)
#    0.000    1.600    2.000    6.000    2.800    1.600 
#    0.000    0.000    0.000    0.000    0.000    5.600 
#    0.000    0.000    0.000    0.000    0.000    0.000 
#
# Total GULP energy -111550.317776 kJ/mol
# GULP energy per Si atom -5577.515889 kJ/mol
# Density = 2.102368 g / cm^3
# Si number density = 21.071638 Si / 1000 Ang^3
#
#
#
# Elastic Constant Matrix: (Units=GPa)
#
#
# Indices 1 2 3 4 5 6 
#
# 1 29.1046 4.0417 19.1278 0.0000 13.7261 0.0000
# 2 4.0417 74.2181 28.4149 0.0000 2.7479 0.0000
# 3 19.1278 28.4149 124.0294 0.0000 20.5959 0.0000
# 4 0.0000 0.0000 0.0000 30.1407 0.0000 12.6864
# 5 13.7261 2.7479 20.5959 0.0000 28.3525 0.0000
# 6 0.0000 0.0000 0.0000 12.6864 0.0000 5.2646
#
#
#
# Elastic Compliance Matrix: (Units=1/GPa)
#
#
# Indices 1 2 3 4 5 6 
#
# 1 0.046110 -0.000337 -0.003790 0.000000 -0.019538 0.000000
# 2 -0.000337 0.014806 -0.003558 0.000000 0.001313 0.000000
# 3 -0.003790 -0.003558 0.010349 0.000000 -0.005338 0.000000
# 4 0.000000 0.000000 0.000000 -2.322225 0.000000 5.596020
# 5 -0.019538 0.001313 -0.005338 0.000000 0.048479 0.000000
# 6 0.000000 0.000000 0.000000 5.596020 0.000000-13.295153
#
#
# Mechanical properties :
#
#
# Convention : Reuss Voigt Hill
#
# Bulk Modulus (GPa) = 17.89039 36.72452 27.30746
# Shear Modulus (GPa) = -0.32334 24.46942 12.07304
#
# Velocity S-wave (km/s) = -0.39215 3.41141 2.39624
# Velocity P-wave (km/s) = 2.88161 5.74310 4.54350
#
# Compressibility (1/GPa) = 0.05589593
#
# Stress axis : x y z
#
# Youngs Moduli (GPa) = 21.68707 67.54137 96.63156
#
# Poissons Ratio (x) = 0.02274 0.36620
# Poissons Ratio (y) = 0.00730 0.34382
# Poissons Ratio (z) = 0.08219 0.24031
#
# Static dielectric constant tensor:
#      x y z
#    x 1.742770 0.000000 0.013270 
#    y 0.000000 1.797960 0.000000 
#    z 0.013270 0.000000 1.839660 
# 
# From -- ./inp_files/98312.got.cif
#   From: 2010.05.17/outbox.cif.g08.bks.cpg/sg12_50_cif.got.tgz:98312.got - 2010.06.03 13:09:07.
