data_PCOD9184874
_publ_section_title
;
Structure prediction by ZEFSAII (Michael W. Deem and Ramdas Pophale) SiO2 
 PCOD9184874
Probable space group: C 2/M
;
_chemical_formula_sum "Si O2"
_cell_formula_units_Z 56
_cell_length_a 17.196638
_cell_length_b 12.433182
_cell_length_c 34.512472
_cell_angle_alpha 90.000000
_cell_angle_beta 25.625829
_cell_angle_gamma 90.000000
_cell_volume 3191.392639
_symmetry_space_group_name_H-M "C 2/M"
_symmetry_group_IT_number 12
_symmetry_cell_setting 'monoclinic'
loop_
_space_group_symop_operation_xyz
x,y,z
-x,y,-z
-x,-y,-z
x,-y,z
1/2+x,1/2+y,z
1/2-x,1/2+y,-z
1/2-x,1/2-y,-z
1/2+x,1/2-y,z
loop_
_atom_site_type_symbol
_atom_site_label
_atom_site_fract_x
_atom_site_fract_y
_atom_site_fract_z
Si Si1 0.102153 0.770112 0.599279
Si Si2 0.044025 0.240632 0.755959
Si Si3 0.214088 0.128758 0.066619
Si Si4 0.299420 0.127109 0.583863
Si Si5 0.019627 0.764850 0.895216
Si Si6 0.886078 0.372368 0.754550
Si Si7 0.735119 0.127171 0.736856
O O1 0.250000 0.750000 0.500000
O O2 0.204395 0.828723 0.588305
O O3 0.003575 0.669213 0.664817
O O4 0.939207 0.839036 0.654528
O O5 0.177601 0.158681 0.674893
O O6 0.159661 0.315751 0.732454
O O7 0.899985 0.175131 0.846165
O O8 0.956759 0.312342 0.761237
O O9 0.101398 0.159669 0.078323
O O10 0.241391 0.000000 0.056803
O O11 0.394838 0.199549 0.981037
O O12 0.500000 0.171914 0.500000
O O13 0.311320 0.000000 0.574926
O O14 0.181185 0.834191 0.840189
O O15 0.113381 0.675227 0.826013
O O16 0.898908 0.500000 0.752394
O O17 0.718255 0.000000 0.741873
#
# Coordination Sequence:
#
# PCOD9184874 Si02
#       7
#     8   8   8   8   8   8   8
#     4  10  21  36  55  81 106 133 178 223 259 315
#     4  10  21  35  53  80 108 138 179 219 259 318
#     4  10  19  35  57  79 107 140 177 221 268 312
#     4  10  20  35  54  76 107 142 173 213 264 312
#     4   9  20  35  54  81 106 136 180 221 259 316
#     4  10  21  38  56  76 108 143 175 217 269 317
#     4  10  19  34  55  77 106 139 172 215 265 312
#
# _framework density 17.547198000000002
#
# number of rings (size 3 to 8) (size 9 to 14) (size 15 to 20)
#    0.000    2.143    0.000    3.000    0.000    1.714 
#    0.000    9.286    0.000    4.714    0.000    0.000 
#    0.000    0.000    0.000    0.000    0.000    0.000 
#
# Total GULP energy -156211.493305 kJ/mol
# GULP energy per Si atom -5578.981904 kJ/mol
# Density = 1.750726 g / cm^3
# Si number density = 17.547198 Si / 1000 Ang^3
#
#
#
# Elastic Constant Matrix: (Units=GPa)
#
#
# Indices 1 2 3 4 5 6 
#
# 1 56.4752 12.5135 29.4774 0.0004 -2.7787 -0.0009
# 2 12.5135 91.2791 33.4116 -0.0002 1.7249 -0.0005
# 3 29.4774 33.4116 125.4959 -0.0011 5.4426 -0.0003
# 4 0.0004 -0.0002 -0.0011 14.8281 -0.0010 0.5754
# 5 -2.7787 1.7249 5.4426 -0.0010 30.6460 0.0002
# 6 -0.0009 -0.0005 -0.0003 0.5754 0.0002 -4.9817
#
#
#
# Elastic Compliance Matrix: (Units=1/GPa)
#
#
# Indices 1 2 3 4 5 6 
#
# 1 0.020516 -0.001171 -0.004626 -0.000001 0.002748 -0.000003
# 2 -0.001171 0.012206 -0.002963 0.000000 -0.000267 -0.000001
# 3 -0.004626 -0.002963 0.009931 0.000001 -0.002016 0.000001
# 4 -0.000001 0.000000 0.000001 0.067139 0.000002 0.007755
# 5 0.002748 -0.000267 -0.002016 0.000002 0.033253 0.000002
# 6 -0.000003 -0.000001 0.000001 0.007755 0.000002 -0.199839
#
#
# Mechanical properties :
#
#
# Convention : Reuss Voigt Hill
#
# Bulk Modulus (GPa) = 39.78923 47.11725 43.45324
# Shear Modulus (GPa) = -161.83582 21.28832 -70.27375
#
# Velocity S-wave (km/s) = -9.61401 3.48689 -6.33525
# Velocity P-wave (km/s) = 10.02567 6.56667 5.35690
#
# Compressibility (1/GPa) = 0.02513243
#
# Stress axis : x y z
#
# Youngs Moduli (GPa) = 48.74165 81.93005 100.69110
#
# Poissons Ratio (x) = 0.09595 0.46584
# Poissons Ratio (y) = 0.05708 0.29834
# Poissons Ratio (z) = 0.22550 0.24275
#
# Static dielectric constant tensor:
#      x y z
#    x 1.586510 0.000000 -0.009970 
#    y 0.000000 1.559340 0.000000 
#    z -0.009970 0.000000 1.598580 
# 
# From -- ./inp_files/223131.got.cif
#   From: 2010.05.17/outbox.cif.g08.bks.cpg/sg12_112_cif.got.tgz:223131.got - 2010.06.03 13:09:07.
