data_PCOD9184448
_publ_section_title
;
Structure prediction by ZEFSAII (Michael W. Deem and Ramdas Pophale) SiO2 
 PCOD9184448
Probable space group: C 2/M
;
_chemical_formula_sum "Si O2"
_cell_formula_units_Z 64
_cell_length_a 8.819311
_cell_length_b 29.583464
_cell_length_c 15.933982
_cell_angle_alpha 90.000000
_cell_angle_beta 78.588865
_cell_angle_gamma 90.000000
_cell_volume 4075.090052
_symmetry_space_group_name_H-M "C 2/M"
_symmetry_group_IT_number 12
_symmetry_cell_setting 'monoclinic'
loop_
_space_group_symop_operation_xyz
x,y,z
-x,y,-z
-x,-y,-z
x,-y,z
1/2+x,1/2+y,z
1/2-x,1/2+y,-z
1/2-x,1/2-y,-z
1/2+x,1/2-y,z
loop_
_atom_site_type_symbol
_atom_site_label
_atom_site_fract_x
_atom_site_fract_y
_atom_site_fract_z
Si Si1 0.308388 0.280089 0.834045
Si Si2 0.092802 0.636910 0.906746
Si Si3 0.788779 0.947552 0.945570
Si Si4 0.902077 0.768437 0.437437
Si Si5 0.855874 0.052036 0.136322
Si Si6 0.172930 0.285270 0.323417
Si Si7 0.678563 0.866453 0.194449
Si Si8 0.100895 0.797252 0.907172
O O1 0.215828 0.326061 0.861026
O O2 0.299910 0.257219 0.743083
O O3 0.225326 0.242421 0.900376
O O4 0.484101 0.285843 0.844209
O O5 0.174603 0.590286 0.923694
O O6 0.973105 0.628756 0.844942
O O7 0.000000 0.653740 0.000000
O O8 0.960090 0.939132 0.888954
O O9 0.746352 0.000000 0.932105
O O10 0.799992 0.943371 0.045411
O O11 0.750000 0.750000 0.500000
O O12 0.823487 0.791933 0.365712
O O13 0.000000 0.793590 0.500000
O O14 0.019697 0.729684 0.391334
O O15 0.757258 0.085703 0.204531
O O16 0.834526 0.000000 0.163084
O O17 0.149669 0.330434 0.271483
O O18 0.807205 0.842344 0.122258
O O19 0.000000 0.801952 0.000000
#
# Coordination Sequence:
#
# PCOD9184448 Si02
#       8
#     8   8   8   8   8   8   8   8
#     4  11  21  32  45  63  91 131 158 202 246 276
#     4  12  21  30  43  65  92 126 176 210 240 284
#     4   9  19  33  48  62  84 121 173 230 257 277
#     4   9  18  33  55  73  92 122 151 181 219 277
#     4   9  18  34  50  65  86 122 170 213 257 290
#     4  10  19  34  47  71 101 123 155 188 235 289
#     4  11  21  30  47  69  95 129 157 207 254 280
#     4  11  21  32  43  58  88 128 176 207 238 278
#
# _framework density 15.705175000000001
#
# number of rings (size 3 to 8) (size 9 to 14) (size 15 to 20)
#    0.000    1.750    1.250    6.750    1.750    0.750 
#    0.000    0.000    0.000    0.000    0.000    0.000 
#    0.000    5.000    0.000    6.500    0.000    8.875 
#
# Total GULP energy -178425.110456 kJ/mol
# GULP energy per Si atom -5575.784702 kJ/mol
# Density = 1.566943 g / cm^3
# Si number density = 15.705175 Si / 1000 Ang^3
#
#
#
# Elastic Constant Matrix: (Units=GPa)
#
#
# Indices 1 2 3 4 5 6 
#
# 1 68.9492 34.8238 20.9086 0.0000 11.4408 0.0000
# 2 34.8238 79.2567 19.7065 0.0000 -1.1928 0.0000
# 3 20.9086 19.7065 61.3118 0.0000 1.5843 0.0000
# 4 0.0000 0.0000 0.0000 2.0667 0.0000 -2.6659
# 5 11.4408 -1.1928 1.5843 0.0000 31.5814 0.0000
# 6 0.0000 0.0000 0.0000 -2.6659 0.0000 21.0344
#
#
#
# Elastic Compliance Matrix: (Units=1/GPa)
#
#
# Indices 1 2 3 4 5 6 
#
# 1 0.021391 -0.008427 -0.004383 0.000000 -0.007848 0.000000
# 2 -0.008427 0.017050 -0.002705 0.000000 0.003832 0.000000
# 3 -0.004383 -0.002705 0.018660 0.000000 0.000550 0.000000
# 4 0.000000 0.000000 0.000000 0.578440 0.000000 0.073312
# 5 -0.007848 0.003832 0.000550 0.000000 0.034624 0.000000
# 6 0.000000 0.000000 0.000000 0.073312 0.000000 0.056833
#
#
# Mechanical properties :
#
#
# Convention : Reuss Voigt Hill
#
# Bulk Modulus (GPa) = 38.35856 40.04394 39.20125
# Shear Modulus (GPa) = 6.52128 19.87508 13.19818
#
# Velocity S-wave (km/s) = 2.03993 3.56126 2.90206
# Velocity P-wave (km/s) = 5.47956 6.51635 6.02031
#
# Compressibility (1/GPa) = 0.02606980
#
# Stress axis : x y z
#
# Youngs Moduli (GPa) = 46.74859 58.65021 53.58972
#
# Poissons Ratio (x) = 0.49424 0.23491
# Poissons Ratio (y) = 0.39395 0.14498
# Poissons Ratio (z) = 0.20492 0.15868
#
# Static dielectric constant tensor:
#      x y z
#    x 1.552130 0.000000 0.010770 
#    y 0.000000 1.533590 0.000000 
#    z 0.010770 0.000000 1.557500 
# 
# From -- ./inp_files/200567.got.cif
#   From: 2010.05.17/outbox.cif.g08.bks.cpg/sg12_101_cif.got.tgz:200567.got - 2010.06.03 13:09:07.
