data_PCOD9184383
_publ_section_title
;
Structure prediction by ZEFSAII (Michael W. Deem and Ramdas Pophale) SiO2 
 PCOD9184383
Probable space group: C 2/M
;
_chemical_formula_sum "Si O2"
_cell_formula_units_Z 40
_cell_length_a 17.175200
_cell_length_b 14.634126
_cell_length_c 11.336234
_cell_angle_alpha 90.000000
_cell_angle_beta 33.046321
_cell_angle_gamma 90.000000
_cell_volume 1553.768594
_symmetry_space_group_name_H-M "C 2/M"
_symmetry_group_IT_number 12
_symmetry_cell_setting 'monoclinic'
loop_
_space_group_symop_operation_xyz
x,y,z
-x,y,-z
-x,-y,-z
x,-y,z
1/2+x,1/2+y,z
1/2-x,1/2+y,-z
1/2-x,1/2-y,-z
1/2+x,1/2-y,z
loop_
_atom_site_type_symbol
_atom_site_label
_atom_site_fract_x
_atom_site_fract_y
_atom_site_fract_z
Si Si1 0.873420 0.892969 0.883013
Si Si2 0.775214 0.647754 0.509305
Si Si3 0.954926 0.391106 0.687958
Si Si4 0.163860 0.100399 0.400363
Si Si5 0.135283 0.767271 0.893601
O O1 0.707709 0.869892 0.072684
O O2 0.915095 0.818170 0.926388
O O3 0.878145 0.000000 0.915368
O O4 0.993847 0.885289 0.630569
O O5 0.750000 0.750000 0.500000
O O6 0.720458 0.594156 0.465336
O O7 0.690409 0.648375 0.740892
O O8 0.936308 0.633674 0.346631
O O9 0.964320 0.500000 0.666188
O O10 0.000000 0.354177 0.500000
O O11 0.245905 0.188482 0.245418
O O12 0.193484 0.000000 0.307245
O O13 0.000000 0.723741 0.000000
#
# Coordination Sequence:
#
# PCOD9184383 Si02
#       5
#     8   8   8   8   8
#     4  10  21  37  63  95 125 162 209 268 332 382
#     4  10  20  35  57  90 125 163 207 264 314 382
#     4  10  19  33  59  95 128 159 208 269 329 384
#     4  10  22  39  62  90 124 170 218 262 315 388
#     4  11  21  36  61  88 130 165 214 266 321 384
#
# _framework density 25.743860000000002
#
# number of rings (size 3 to 8) (size 9 to 14) (size 15 to 20)
#    0.000    1.800    4.000    0.600    0.000    1.600 
#    0.000    4.000    8.800    0.000    0.000   12.600 
#    0.000    0.000    0.000    0.000    0.000    0.000 
#
# Total GULP energy -111897.319386 kJ/mol
# GULP energy per Si atom -5594.865969 kJ/mol
# Density = 2.568527 g / cm^3
# Si number density = 25.743860 Si / 1000 Ang^3
#
#
#
# Elastic Constant Matrix: (Units=GPa)
#
#
# Indices 1 2 3 4 5 6 
#
# 1 105.6047 31.6949 59.4479 0.0000 -0.2711 0.0000
# 2 31.6949 105.2603 64.6753 0.0000 15.2958 0.0000
# 3 59.4479 64.6753 152.6379 0.0000 -30.9905 0.0000
# 4 0.0000 0.0000 0.0000 31.0993 0.0000 -4.5167
# 5 -0.2711 15.2958 -30.9905 0.0000 54.7781 0.0000
# 6 0.0000 0.0000 0.0000 -4.5167 0.0000 37.6198
#
#
#
# Elastic Compliance Matrix: (Units=1/GPa)
#
#
# Indices 1 2 3 4 5 6 
#
# 1 0.012566 0.000085 -0.005561 0.000000 -0.003108 0.000000
# 2 0.000085 0.016343 -0.008907 0.000000 -0.009602 0.000000
# 3 -0.005561 -0.008907 0.014677 0.000000 0.010763 0.000000
# 4 0.000000 0.000000 0.000000 0.032726 0.000000 0.003929
# 5 -0.003108 -0.009602 0.010763 0.000000 0.027011 0.000000
# 6 0.000000 0.000000 0.000000 0.003929 0.000000 0.027053
#
#
# Mechanical properties :
#
#
# Convention : Reuss Voigt Hill
#
# Bulk Modulus (GPa) = 67.48274 75.01545 71.24909
# Shear Modulus (GPa) = 30.47232 38.54509 34.50871
#
# Velocity S-wave (km/s) = 3.44419 3.87363 3.66521
# Velocity P-wave (km/s) = 6.48742 7.01492 6.75632
#
# Compressibility (1/GPa) = 0.01481860
#
# Stress axis : x y z
#
# Youngs Moduli (GPa) = 79.57754 61.18755 68.13482
#
# Poissons Ratio (x) = -0.00517 0.37890
# Poissons Ratio (y) = -0.00673 0.60691
# Poissons Ratio (z) = 0.44253 0.54502
#
# Static dielectric constant tensor:
#      x y z
#    x 2.203690 0.000000 0.048060 
#    y 0.000000 1.966970 0.000000 
#    z 0.048060 0.000000 2.065640 
# 
# From -- ./inp_files/225559.got.cif
#   From: 2010.05.17/outbox.cif.g08.bks.cpg/sg12_113_cif.got.tgz:225559.got - 2010.06.03 13:09:07.
