data_PCOD9184222
_publ_section_title
;
Structure prediction by ZEFSAII (Michael W. Deem and Ramdas Pophale) SiO2 
 PCOD9184222
Probable space group: C 2/M
;
_chemical_formula_sum "Si O2"
_cell_formula_units_Z 44
_cell_length_a 8.319841
_cell_length_b 17.694097
_cell_length_c 15.167642
_cell_angle_alpha 90.000000
_cell_angle_beta 62.005237
_cell_angle_gamma 90.000000
_cell_volume 1971.594196
_symmetry_space_group_name_H-M "C 2/M"
_symmetry_group_IT_number 12
_symmetry_cell_setting 'monoclinic'
loop_
_space_group_symop_operation_xyz
x,y,z
-x,y,-z
-x,-y,-z
x,-y,z
1/2+x,1/2+y,z
1/2-x,1/2+y,-z
1/2-x,1/2-y,-z
1/2+x,1/2-y,z
loop_
_atom_site_type_symbol
_atom_site_label
_atom_site_fract_x
_atom_site_fract_y
_atom_site_fract_z
Si Si1 0.523364 0.916750 0.744860
Si Si2 0.640846 0.848482 0.542060
Si Si3 0.263297 0.219202 0.215763
Si Si4 0.786819 0.911932 0.044218
Si Si5 0.000000 0.685390 0.000000
Si Si6 0.640275 0.304748 0.654455
O O1 0.564862 0.908959 0.630248
O O2 0.631498 0.849648 0.764537
O O3 0.318252 0.909776 0.834478
O O4 0.586537 0.000000 0.757644
O O5 0.500000 0.831835 0.500000
O O6 0.666573 0.773998 0.594512
O O7 0.816071 0.864332 0.434271
O O8 0.380176 0.233748 0.099120
O O9 0.243745 0.289699 0.287515
O O10 0.060232 0.190667 0.254628
O O11 0.783425 0.000000 0.015145
O O12 0.653745 0.864026 0.012968
O O13 0.000000 0.891521 0.000000
#
# Coordination Sequence:
#
# PCOD9184222 Si02
#       6
#     8   8   8   8   4   8
#     4   9  20  36  56  85 119 147 183 241 296 338
#     4  10  19  33  58  79 109 151 192 235 279 344
#     4  10  21  38  58  82 114 149 193 239 284 344
#     4   9  18  36  60  84 116 158 199 234 280 352
#     4  10  21  36  56  88 118 154 187 240 306 336
#     4  10  20  36  56  81 109 148 199 233 277 338
#
# _framework density 22.316966000000001
#
# number of rings (size 3 to 8) (size 9 to 14) (size 15 to 20)
#    0.000    2.364    1.818    0.273    0.000    3.273 
#    3.273    1.818    0.000    0.000    0.000    0.000 
#    0.000    0.000    0.000    0.000    0.000    0.000 
#
# Total GULP energy -122513.860827 kJ/mol
# GULP energy per Si atom -5568.811856 kJ/mol
# Density = 2.226617 g / cm^3
# Si number density = 22.316966 Si / 1000 Ang^3
#
#
#
# Elastic Constant Matrix: (Units=GPa)
#
#
# Indices 1 2 3 4 5 6 
#
# 1 66.8678 3.0434 22.9730 0.0000 -12.8857 0.0000
# 2 3.0434 59.2227 30.9298 0.0000 2.1187 0.0000
# 3 22.9730 30.9298 171.4959 0.0000 -13.3289 0.0000
# 4 0.0000 0.0000 0.0000 26.8453 0.0000 -0.6013
# 5 -12.8857 2.1187 -13.3289 0.0000 38.1959 0.0000
# 6 0.0000 0.0000 0.0000 -0.6013 0.0000 10.6437
#
#
#
# Elastic Compliance Matrix: (Units=1/GPa)
#
#
# Indices 1 2 3 4 5 6 
#
# 1 0.016536 -0.000078 -0.001816 0.000000 0.004949 0.000000
# 2 -0.000078 0.018835 -0.003566 0.000000 -0.002316 0.000000
# 3 -0.001816 -0.003566 0.006872 0.000000 0.001983 0.000000
# 4 0.000000 0.000000 0.000000 0.037298 0.000000 0.002107
# 5 0.004949 -0.002316 0.001983 0.000000 0.028671 0.000000
# 6 0.000000 0.000000 0.000000 0.002107 0.000000 0.094072
#
#
# Mechanical properties :
#
#
# Convention : Reuss Voigt Hill
#
# Bulk Modulus (GPa) = 31.92774 45.71987 38.82381
# Shear Modulus (GPa) = 22.35684 31.17965 26.76825
#
# Velocity S-wave (km/s) = 3.16854 3.74187 3.46708
# Velocity P-wave (km/s) = 5.26533 6.26098 5.78462
#
# Compressibility (1/GPa) = 0.03132072
#
# Stress axis : x y z
#
# Youngs Moduli (GPa) = 60.47341 53.09299 145.52452
#
# Poissons Ratio (x) = 0.00415 0.26433
# Poissons Ratio (y) = 0.00473 0.51900
# Poissons Ratio (z) = 0.10984 0.18935
#
# Static dielectric constant tensor:
#      x y z
#    x 1.912760 0.000000 -0.060910 
#    y 0.000000 1.817580 0.000000 
#    z -0.060910 0.000000 1.969170 
# 
# From -- ./inp_files/196849.got.cif
#   From: 2010.05.17/outbox.cif.g08.bks.cpg/sg12_99_cif.got.tgz:196849.got - 2010.06.03 13:09:07.
