data_PCOD9184604
_publ_section_title
;
Structure prediction by ZEFSAII (Michael W. Deem and Ramdas Pophale) SiO2 
 PCOD9184604
Probable space group: C 2/M
;
_chemical_formula_sum "Si O2"
_cell_formula_units_Z 36
_cell_length_a 25.049917
_cell_length_b 13.356347
_cell_length_c 6.763085
_cell_angle_alpha 90.000000
_cell_angle_beta 61.603434
_cell_angle_gamma 90.000000
_cell_volume 1990.499652
_symmetry_space_group_name_H-M "C 2/M"
_symmetry_group_IT_number 12
_symmetry_cell_setting 'monoclinic'
loop_
_space_group_symop_operation_xyz
x,y,z
-x,y,-z
-x,-y,-z
x,-y,z
1/2+x,1/2+y,z
1/2-x,1/2+y,-z
1/2-x,1/2-y,-z
1/2+x,1/2-y,z
loop_
_atom_site_type_symbol
_atom_site_label
_atom_site_fract_x
_atom_site_fract_y
_atom_site_fract_z
Si Si1 0.278609 0.289082 0.650125
Si Si2 0.813904 0.384714 0.890410
Si Si3 0.592618 0.615715 0.520790
Si Si4 0.942188 0.710114 0.722644
Si Si5 0.000000 0.197921 0.000000
O O1 0.250000 0.250000 0.500000
O O2 0.294183 0.191448 0.753403
O O3 0.341102 0.350288 0.521833
O O4 0.229633 0.356293 0.851133
O O5 0.806683 0.500000 0.847913
O O6 0.883531 0.359580 0.818918
O O7 0.592224 0.500000 0.462372
O O8 0.575105 0.688061 0.368068
O O9 0.544939 0.634956 0.781258
O O10 0.000000 0.668158 0.500000
O O11 0.961804 0.736535 0.910445
#
# Coordination Sequence:
#
# PCOD9184604 Si02
#       5
#     8   8   8   8   4
#     4  10  21  38  56  79 110 141 176 220 267 316
#     4  10  21  37  57  80 107 140 178 220 265 315
#     4  10  20  33  52  78 106 137 174 216 262 313
#     4   9  20  36  52  75 108 138 173 219 263 309
#     4  10  19  34  53  74 106 142 173 214 263 312
#
# _framework density 18.085912
#
# number of rings (size 3 to 8) (size 9 to 14) (size 15 to 20)
#    0.000    2.222    0.000    2.333    0.000    7.111 
#    0.000    0.556    0.000    0.000    0.000    0.000 
#    0.000    0.000    0.000    0.000    0.000    0.000 
#
# Total GULP energy -100469.341123 kJ/mol
# GULP energy per Si atom -5581.630062 kJ/mol
# Density = 1.804475 g / cm^3
# Si number density = 18.085912 Si / 1000 Ang^3
#
#
#
# Elastic Constant Matrix: (Units=GPa)
#
#
# Indices 1 2 3 4 5 6 
#
# 1 102.9445 7.9883 32.5238 0.0000 -13.8654 0.0000
# 2 7.9883 73.3400 15.0398 0.0000 -22.2677 0.0000
# 3 32.5238 15.0398 62.9993 0.0000 -1.2934 0.0000
# 4 0.0000 0.0000 0.0000 8.6569 0.0000 2.0087
# 5 -13.8654 -22.2677 -1.2934 0.0000 39.1043 0.0000
# 6 0.0000 0.0000 0.0000 2.0087 0.0000 -4.7449
#
#
#
# Elastic Compliance Matrix: (Units=1/GPa)
#
#
# Indices 1 2 3 4 5 6 
#
# 1 0.012377 0.001551 -0.006656 0.000000 0.005051 0.000000
# 2 0.001551 0.017613 -0.004791 0.000000 0.010421 0.000000
# 3 -0.006656 -0.004791 0.020363 0.000000 -0.004415 0.000000
# 4 0.000000 0.000000 0.000000 0.105183 0.000000 0.044527
# 5 0.005051 0.010421 -0.004415 0.000000 0.033152 0.000000
# 6 0.000000 0.000000 0.000000 0.044527 0.000000 -0.191901
#
#
# Mechanical properties :
#
#
# Convention : Reuss Voigt Hill
#
# Bulk Modulus (GPa) = 32.72386 38.93195 35.82790
# Shear Modulus (GPa) = 186.80327 20.85205 103.82766
#
# Velocity S-wave (km/s) = 10.17403 3.39919 7.58503
# Velocity P-wave (km/s) = 12.49589 6.08102 9.82665
#
# Compressibility (1/GPa) = 0.03055874
#
# Stress axis : x y z
#
# Youngs Moduli (GPa) = 80.79558 56.77694 49.10956
#
# Poissons Ratio (x) = -0.08804 0.32688
# Poissons Ratio (y) = -0.12528 0.23530
# Poissons Ratio (z) = 0.53779 0.27203
#
# Static dielectric constant tensor:
#      x y z
#    x 1.620570 0.000000 -0.019460 
#    y 0.000000 1.583730 0.000000 
#    z -0.019460 0.000000 1.603280 
# 
# From -- ./inp_files/19722.got.cif
#   From: 2010.05.17/outbox.cif.g08.bks.cpg/sg12_10_cif.got.tgz:19722.got - 2010.06.03 13:09:07.
