data_PCOD9184272
_publ_section_title
;
Structure prediction by ZEFSAII (Michael W. Deem and Ramdas Pophale) SiO2 
 PCOD9184272
Probable space group: C 2/M
;
_chemical_formula_sum "Si O2"
_cell_formula_units_Z 42
_cell_length_a 13.030752
_cell_length_b 12.225877
_cell_length_c 14.810023
_cell_angle_alpha 90.000000
_cell_angle_beta 118.507529
_cell_angle_gamma 90.000000
_cell_volume 2073.350611
_symmetry_space_group_name_H-M "C 2/M"
_symmetry_group_IT_number 12
_symmetry_cell_setting 'monoclinic'
loop_
_space_group_symop_operation_xyz
x,y,z
-x,y,-z
-x,-y,-z
x,-y,z
1/2+x,1/2+y,z
1/2-x,1/2+y,-z
1/2-x,1/2-y,-z
1/2+x,1/2-y,z
loop_
_atom_site_type_symbol
_atom_site_label
_atom_site_fract_x
_atom_site_fract_y
_atom_site_fract_z
Si Si1 0.884264 0.372743 0.830220
Si Si2 0.430520 0.816235 0.550861
Si Si3 0.500000 0.500000 0.000000
Si Si4 0.078977 0.374222 0.768339
Si Si5 0.220648 0.122194 0.589232
Si Si6 0.817733 0.194404 0.944784
O O1 0.875872 0.500000 0.853928
O O2 0.785923 0.352702 0.711253
O O3 0.870568 0.291279 0.906516
O O4 0.006648 0.356239 0.829798
O O5 0.500000 0.875133 0.500000
O O6 0.524025 0.796675 0.669450
O O7 0.323056 0.874051 0.556370
O O8 0.373871 0.709830 0.481082
O O9 0.589297 0.598118 0.998928
O O10 0.054328 0.500000 0.730387
O O11 0.214438 0.358514 0.841020
O O12 0.172692 0.000000 0.574468
O O13 0.750000 0.250000 0.000000
#
# Coordination Sequence:
#
# PCOD9184272 Si02
#       6
#     8   8   2   8   8   8
#     4   9  20  40  67  94 127 178 221 266 332 413
#     4  10  19  33  58  87 124 164 212 251 312 383
#     4  12  28  48  66 106 134 168 222 302 340 410
#     4  10  21  40  61  87 125 174 217 262 330 400
#     4   9  19  36  58  89 130 167 212 263 312 382
#     4  12  25  44  71  95 132 168 220 290 354 409
#
# _framework density 20.257066999999999
#
# number of rings (size 3 to 8) (size 9 to 14) (size 15 to 20)
#    0.000    1.905    0.952    4.000    1.333    1.905 
#    0.000    3.333   16.762    0.000    0.000    0.000 
#    0.000    0.000    0.000    0.000    0.000    0.000 
#
# Total GULP energy -116928.836558 kJ/mol
# GULP energy per Si atom -5568.039836 kJ/mol
# Density = 2.021096 g / cm^3
# Si number density = 20.257067 Si / 1000 Ang^3
#
#
#
# Elastic Constant Matrix: (Units=GPa)
#
#
# Indices 1 2 3 4 5 6 
#
# 1 94.1366 42.8370 29.9226 0.0000 -11.2172 0.0000
# 2 42.8370 116.7868 46.4761 0.0000 -16.5967 0.0000
# 3 29.9226 46.4761 52.4213 0.0000 -10.1510 0.0000
# 4 0.0000 0.0000 0.0000 15.9409 0.0000 2.8364
# 5 -11.2172 -16.5967 -10.1510 0.0000 38.4621 0.0000
# 6 0.0000 0.0000 0.0000 2.8364 0.0000 23.5829
#
#
#
# Elastic Compliance Matrix: (Units=1/GPa)
#
#
# Indices 1 2 3 4 5 6 
#
# 1 0.013673 -0.002805 -0.005038 0.000000 0.001448 0.000000
# 2 -0.002805 0.014089 -0.010403 0.000000 0.002516 0.000000
# 3 -0.005038 -0.010403 0.031638 0.000000 0.002392 0.000000
# 4 0.000000 0.000000 0.000000 0.064104 0.000000 -0.007710
# 5 0.001448 0.002516 0.002392 0.000000 0.028139 0.000000
# 6 0.000000 0.000000 0.000000 -0.007710 0.000000 0.043331
#
#
# Mechanical properties :
#
#
# Convention : Reuss Voigt Hill
#
# Bulk Modulus (GPa) = 43.65039 55.75733 49.70386
# Shear Modulus (GPa) = 20.91178 25.20447 23.05812
#
# Velocity S-wave (km/s) = 3.21646 3.53119 3.37749
# Velocity P-wave (km/s) = 5.94888 6.64909 6.30871
#
# Compressibility (1/GPa) = 0.02290930
#
# Stress axis : x y z
#
# Youngs Moduli (GPa) = 73.13711 70.97853 31.60757
#
# Poissons Ratio (x) = 0.19907 0.15923
# Poissons Ratio (y) = 0.20512 0.32881
# Poissons Ratio (z) = 0.36845 0.73838
#
# Static dielectric constant tensor:
#      x y z
#    x 1.736460 0.000000 0.013380 
#    y 0.000000 1.697800 0.000000 
#    z 0.013380 0.000000 1.743210 
# 
# From -- ./inp_files/212415.got.cif
#   From: 2010.05.17/outbox.cif.g08.bks.cpg/sg12_107_cif.got.tgz:212415.got - 2010.06.03 13:09:07.
