data_PCOD9184030
_publ_section_title
;
Structure prediction by ZEFSAII (Michael W. Deem and Ramdas Pophale) SiO2 
 PCOD9184030
Probable space group: C 2/M
;
_chemical_formula_sum "Si O2"
_cell_formula_units_Z 56
_cell_length_a 16.430003
_cell_length_b 7.616928
_cell_length_c 24.339513
_cell_angle_alpha 90.000000
_cell_angle_beta 58.823114
_cell_angle_gamma 90.000000
_cell_volume 2606.072748
_symmetry_space_group_name_H-M "C 2/M"
_symmetry_group_IT_number 12
_symmetry_cell_setting 'monoclinic'
loop_
_space_group_symop_operation_xyz
x,y,z
-x,y,-z
-x,-y,-z
x,-y,z
1/2+x,1/2+y,z
1/2-x,1/2+y,-z
1/2-x,1/2-y,-z
1/2+x,1/2-y,z
loop_
_atom_site_type_symbol
_atom_site_label
_atom_site_fract_x
_atom_site_fract_y
_atom_site_fract_z
Si Si1 0.395838 0.293168 0.700258
Si Si2 0.235300 0.290699 0.160642
Si Si3 0.272200 0.210143 0.429235
Si Si4 0.949369 0.715747 0.846222
Si Si5 0.914570 0.786007 0.568456
Si Si6 0.070281 0.696571 0.706770
Si Si7 0.958833 0.709947 0.071737
O O1 0.419772 0.500000 0.693234
O O2 0.297441 0.271364 0.767142
O O3 0.407457 0.231255 0.633926
O O4 0.470830 0.188358 0.709936
O O5 0.230842 0.500000 0.161047
O O6 0.152963 0.229061 0.145160
O O7 0.345009 0.240287 0.113302
O O8 0.250000 0.250000 0.500000
O O9 0.180912 0.267378 0.427725
O O10 0.360480 0.280924 0.362762
O O11 0.282075 0.000000 0.424839
O O12 0.949127 0.500000 0.844893
O O13 0.035983 0.777361 0.776030
O O14 0.980140 0.772643 0.896574
O O15 0.000000 0.724178 0.500000
O O16 0.918859 0.000000 0.567537
O O17 0.107405 0.500000 0.706508
O O18 0.971816 0.500000 0.067422
O O19 0.000000 0.780207 0.000000
#
# Coordination Sequence:
#
# PCOD9184030 Si02
#       7
#     8   8   8   8   8   8   8
#     4  10  19  33  57  81 103 135 179 231 274 320
#     4  10  21  38  58  82 115 154 188 225 281 344
#     4  10  20  33  50  72 100 139 179 219 270 326
#     4   8  17  35  57  79 111 151 184 222 281 342
#     4   9  18  31  49  74 102 136 177 219 269 327
#     4   9  18  33  53  74 102 141 178 216 274 338
#     4  10  21  37  60  89 116 146 191 239 277 328
#
# _framework density 21.488271999999998
#
# number of rings (size 3 to 8) (size 9 to 14) (size 15 to 20)
#    0.000    2.571    0.000    2.571    2.000    2.571 
#    0.000    5.000    0.000    3.857    0.000    0.000 
#    0.000    0.000    0.000    0.000    0.000    0.000 
#
# Total GULP energy -155985.609042 kJ/mol
# GULP energy per Si atom -5570.914609 kJ/mol
# Density = 2.143936 g / cm^3
# Si number density = 21.488272 Si / 1000 Ang^3
#
#
#
# Elastic Constant Matrix: (Units=GPa)
#
#
# Indices 1 2 3 4 5 6 
#
# 1 75.2653 -2.6857 75.7363 0.0001 12.6705 0.0003
# 2 -2.6857 48.7911 -1.1171 0.0002 6.5664 0.0004
# 3 75.7363 -1.1171 191.6717 0.0001 13.8491 0.0001
# 4 0.0001 0.0002 0.0001 31.6902 0.0000 5.9873
# 5 12.6705 6.5664 13.8491 0.0000 47.4519 0.0001
# 6 0.0003 0.0004 0.0001 5.9873 0.0001 15.9980
#
#
#
# Elastic Compliance Matrix: (Units=1/GPa)
#
#
# Indices 1 2 3 4 5 6 
#
# 1 0.022727 0.001556 -0.008701 0.000000 -0.003745 0.000000
# 2 0.001556 0.021012 -0.000258 0.000000 -0.003248 -0.000001
# 3 -0.008701 -0.000258 0.008666 0.000000 -0.000170 0.000000
# 4 0.000000 0.000000 0.000000 0.033957 0.000000 -0.012708
# 5 -0.003745 -0.003248 -0.000170 0.000000 0.022573 0.000000
# 6 0.000000 -0.000001 0.000000 -0.012708 0.000000 0.067264
#
#
# Mechanical properties :
#
#
# Convention : Reuss Voigt Hill
#
# Bulk Modulus (GPa) = 26.59530 51.06614 38.83072
# Shear Modulus (GPa) = 24.56539 35.28099 29.92319
#
# Velocity S-wave (km/s) = 3.38479 4.05640 3.73572
# Velocity P-wave (km/s) = 5.26111 6.76427 6.05948
#
# Compressibility (1/GPa) = 0.03760062
#
# Stress axis : x y z
#
# Youngs Moduli (GPa) = 43.99957 47.59101 115.39269
#
# Poissons Ratio (x) = -0.07404 1.00401
# Poissons Ratio (y) = -0.06845 0.02972
# Poissons Ratio (z) = 0.38283 0.01226
#
# Static dielectric constant tensor:
#      x y z
#    x 1.776140 0.000000 0.322520 
#    y 0.000000 1.865870 0.000000 
#    z 0.322520 0.000000 1.662430 
# 
# From -- ./inp_files/338469.got.cif
#   From: 2010.05.17/outbox.cif.g08.bks.cpg/sg12_170_cif.got.tgz:338469.got - 2010.06.03 13:09:07.
