data_PCOD9184102
_publ_section_title
;
Structure prediction by ZEFSAII (Michael W. Deem and Ramdas Pophale) SiO2 
 PCOD9184102
Probable space group: C 2/M
;
_chemical_formula_sum "Si O2"
_cell_formula_units_Z 56
_cell_length_a 16.250348
_cell_length_b 18.840910
_cell_length_c 15.717949
_cell_angle_alpha 90.000000
_cell_angle_beta 153.806564
_cell_angle_gamma 90.000000
_cell_volume 2124.201703
_symmetry_space_group_name_H-M "C 2/M"
_symmetry_group_IT_number 12
_symmetry_cell_setting 'monoclinic'
loop_
_space_group_symop_operation_xyz
x,y,z
-x,y,-z
-x,-y,-z
x,-y,z
1/2+x,1/2+y,z
1/2-x,1/2+y,-z
1/2-x,1/2-y,-z
1/2+x,1/2-y,z
loop_
_atom_site_type_symbol
_atom_site_label
_atom_site_fract_x
_atom_site_fract_y
_atom_site_fract_z
Si Si1 0.291822 0.078752 0.642410
Si Si2 0.718331 0.668895 0.728581
Si Si3 0.019505 0.701668 0.293338
Si Si4 0.658964 0.281771 0.282270
Si Si5 0.224996 0.421511 0.692228
Si Si6 0.858545 0.921954 0.192916
Si Si7 0.228938 0.580334 0.882771
O O1 0.297941 0.105212 0.744648
O O2 0.391620 0.135359 0.675759
O O3 0.075774 0.079233 0.416449
O O4 0.366942 0.000000 0.702148
O O5 0.500000 0.676527 0.500000
O O6 0.821188 0.737489 0.786066
O O7 0.730992 0.643128 0.837461
O O8 0.157746 0.736394 0.490388
O O9 0.994169 0.758598 0.193699
O O10 0.870597 0.657345 0.207824
O O11 0.687570 0.363166 0.287110
O O12 0.245084 0.500000 0.673882
O O13 0.315377 0.419689 0.869495
O O14 0.000000 0.409605 0.500000
O O15 0.788068 0.000000 0.156104
O O16 0.833978 0.918589 0.069569
O O17 0.134709 0.500000 0.795286
#
# Coordination Sequence:
#
# PCOD9184102 Si02
#       7
#     8   8   8   8   8   8   8
#     4   9  17  31  53  80 109 146 188 224 272 336
#     4   9  17  30  54  78 107 145 189 226 268 325
#     4  10  20  33  55  82 115 146 186 236 284 331
#     4  10  20  34  53  77 112 147 188 231 280 332
#     4  10  19  33  57  85 110 143 193 240 278 331
#     4   9  18  34  56  83 115 146 182 228 277 334
#     4  10  20  35  59  90 117 144 185 238 287 331
#
# _framework density 26.362843999999999
#
# number of rings (size 3 to 8) (size 9 to 14) (size 15 to 20)
#    0.000    2.429    1.429    1.286    0.000    2.286 
#    0.000    3.571    3.143    7.714    0.000    4.000 
#    0.000    0.000    0.000    0.000    0.000    0.000 
#
# Total GULP energy -156538.248503 kJ/mol
# GULP energy per Si atom -5590.651732 kJ/mol
# Density = 2.630284 g / cm^3
# Si number density = 26.362844 Si / 1000 Ang^3
#
#
#
# Elastic Constant Matrix: (Units=GPa)
#
#
# Indices 1 2 3 4 5 6 
#
# 1 100.2835 59.4026 26.1150 0.0001 -26.9527 0.0002
# 2 59.4026 168.1138 21.5223 0.0000 -13.2185 -0.0001
# 3 26.1150 21.5223 83.0535 0.0003 -16.4045 0.0000
# 4 0.0001 0.0000 0.0003 -3.6439 0.0001 -4.1103
# 5 -26.9527 -13.2185 -16.4045 0.0001 34.2224 0.0002
# 6 0.0002 -0.0001 0.0000 -4.1103 0.0002 48.7438
#
#
#
# Elastic Compliance Matrix: (Units=1/GPa)
#
#
# Indices 1 2 3 4 5 6 
#
# 1 0.015792 -0.004574 -0.001848 0.000001 0.009785 0.000000
# 2 -0.004574 0.007577 -0.000728 0.000000 -0.001025 0.000000
# 3 -0.001848 -0.000728 0.013771 0.000001 0.004865 0.000000
# 4 0.000001 0.000000 0.000001 -0.250595 0.000002 -0.021131
# 5 0.009785 -0.001025 0.004865 0.000002 0.038863 0.000000
# 6 0.000000 0.000000 0.000000 -0.021131 0.000000 0.018734
#
#
# Mechanical properties :
#
#
# Convention : Reuss Voigt Hill
#
# Bulk Modulus (GPa) = 43.77998 62.83675 53.30836
# Shear Modulus (GPa) = -37.32881 32.15853 -2.58514
#
# Velocity S-wave (km/s) = -3.76701 3.49641 -0.99133
# Velocity P-wave (km/s) = 1.50922 6.33932 4.35369
#
# Compressibility (1/GPa) = 0.02284149
#
# Stress axis : x y z
#
# Youngs Moduli (GPa) = 63.32202 131.97421 72.61723
#
# Poissons Ratio (x) = 0.60368 0.13417
# Poissons Ratio (y) = 0.28965 0.05284
# Poissons Ratio (z) = 0.11699 0.09603
#
# Static dielectric constant tensor:
#      x y z
#    x 2.057940 0.000000 0.091450 
#    y 0.000000 2.066990 0.000000 
#    z 0.091450 0.000000 2.115620 
# 
# From -- ./inp_files/226584.got.cif
#   From: 2010.05.17/outbox.cif.g08.bks.cpg/sg12_114_cif.got.tgz:226584.got - 2010.06.03 13:09:07.
