data_PCOD9184212
_publ_section_title
;
Structure prediction by ZEFSAII (Michael W. Deem and Ramdas Pophale) SiO2 
 PCOD9184212
Probable space group: C 2/M
;
_chemical_formula_sum "Si O2"
_cell_formula_units_Z 52
_cell_length_a 11.654712
_cell_length_b 29.568096
_cell_length_c 12.613782
_cell_angle_alpha 90.000000
_cell_angle_beta 38.079609
_cell_angle_gamma 90.000000
_cell_volume 2680.917505
_symmetry_space_group_name_H-M "C 2/M"
_symmetry_group_IT_number 12
_symmetry_cell_setting 'monoclinic'
loop_
_space_group_symop_operation_xyz
x,y,z
-x,y,-z
-x,-y,-z
x,-y,z
1/2+x,1/2+y,z
1/2-x,1/2+y,-z
1/2-x,1/2-y,-z
1/2+x,1/2-y,z
loop_
_atom_site_type_symbol
_atom_site_label
_atom_site_fract_x
_atom_site_fract_y
_atom_site_fract_z
Si Si1 0.801158 0.359278 0.450698
Si Si2 0.500000 0.195735 0.500000
Si Si3 0.940184 0.142821 0.819836
Si Si4 0.031706 0.316112 0.103261
Si Si5 0.533699 0.948602 0.600736
Si Si6 0.134488 0.052021 0.003541
Si Si7 0.103682 0.776833 0.816235
O O1 0.922697 0.333270 0.455137
O O2 0.579531 0.350691 0.619054
O O3 0.825519 0.411647 0.460409
O O4 0.895047 0.347354 0.271367
O O5 0.675108 0.226026 0.338700
O O6 0.058984 0.172056 0.816653
O O7 0.743025 0.167890 0.962633
O O8 0.909786 0.091545 0.880676
O O9 0.983638 0.265627 0.183120
O O10 0.000000 0.319440 0.000000
O O11 0.500000 0.941499 0.500000
O O12 0.341799 0.942801 0.805149
O O13 0.598240 0.000000 0.566905
O O14 0.113119 0.000000 0.058065
O O15 0.000000 0.057269 0.000000
O O16 0.000000 0.771345 0.000000
#
# Coordination Sequence:
#
# PCOD9184212 Si02
#       7
#     8   4   8   8   8   8   8
#     4  11  22  38  62  89 123 157 194 245 303 365
#     4  10  22  36  59  94 120 150 191 248 314 364
#     4  11  22  37  62  86 117 158 200 252 301 355
#     4  11  25  42  58  81 116 161 216 253 295 342
#     4  10  19  33  57  91 128 157 186 230 294 366
#     4  10  20  33  56  92 130 157 186 235 299 375
#     4  10  22  37  60  86 119 159 197 252 301 364
#
# _framework density 19.396345
#
# number of rings (size 3 to 8) (size 9 to 14) (size 15 to 20)
#    0.000    1.538    2.308    2.769    2.154    8.615 
#    0.000    0.000    0.000    1.846    0.000    2.154 
#    0.000    0.000    0.000    0.000    0.000    0.000 
#
# Total GULP energy -144862.361322 kJ/mol
# GULP energy per Si atom -5571.629282 kJ/mol
# Density = 1.935220 g / cm^3
# Si number density = 19.396345 Si / 1000 Ang^3
#
#
#
# Elastic Constant Matrix: (Units=GPa)
#
#
# Indices 1 2 3 4 5 6 
#
# 1 19.5873 14.0204 33.4971 0.0000 -9.7144 0.0000
# 2 14.0204 89.5450 41.6653 0.0000 -9.6784 0.0000
# 3 33.4971 41.6653 149.7225 0.0000 -21.1914 0.0000
# 4 0.0000 0.0000 0.0000 26.0491 0.0000 14.1763
# 5 -9.7144 -9.6784 -21.1914 0.0000 37.4835 0.0000
# 6 0.0000 0.0000 0.0000 14.1763 0.0000 -39.3192
#
#
#
# Elastic Compliance Matrix: (Units=1/GPa)
#
#
# Indices 1 2 3 4 5 6 
#
# 1 0.089659 -0.004803 -0.016967 0.000000 0.012404 0.000000
# 2 -0.004803 0.013155 -0.002480 0.000000 0.000750 0.000000
# 3 -0.016967 -0.002480 0.011361 0.000000 0.001385 0.000000
# 4 0.000000 0.000000 0.000000 0.032092 0.000000 0.011571
# 5 0.012404 0.000750 0.001385 0.000000 0.030870 0.000000
# 6 0.000000 0.000000 0.000000 0.011571 0.000000 -0.021261
#
#
# Mechanical properties :
#
#
# Convention : Reuss Voigt Hill
#
# Bulk Modulus (GPa) = 15.22643 48.58004 31.90323
# Shear Modulus (GPa) = 22.09770 16.15416 19.12593
#
# Velocity S-wave (km/s) = 3.37897 2.88904 3.14356
# Velocity P-wave (km/s) = 4.80525 6.01906 5.44608
#
# Compressibility (1/GPa) = 0.06567529
#
# Stress axis : x y z
#
# Youngs Moduli (GPa) = 11.15333 76.01923 88.01823
#
# Poissons Ratio (x) = 0.36511 1.49341
# Poissons Ratio (y) = 0.05357 0.21829
# Poissons Ratio (z) = 0.18924 0.18853
#
# Static dielectric constant tensor:
#      x y z
#    x 1.685910 0.000000 -0.009120 
#    y 0.000000 1.735600 0.000000 
#    z -0.009120 0.000000 1.798770 
# 
# From -- ./inp_files/137545.got.cif
#   From: 2010.05.17/outbox.cif.g08.bks.cpg/sg12_69_cif.got.tgz:137545.got - 2010.06.03 13:09:07.
