data_PCOD9184170
_publ_section_title
;
Structure prediction by ZEFSAII (Michael W. Deem and Ramdas Pophale) SiO2 
 PCOD9184170
Probable space group: C 2/M
;
_chemical_formula_sum "Si O2"
_cell_formula_units_Z 48
_cell_length_a 18.434619
_cell_length_b 15.682195
_cell_length_c 7.193640
_cell_angle_alpha 90.000000
_cell_angle_beta 90.773424
_cell_angle_gamma 90.000000
_cell_volume 2079.457970
_symmetry_space_group_name_H-M "C 2/M"
_symmetry_group_IT_number 12
_symmetry_cell_setting 'monoclinic'
loop_
_space_group_symop_operation_xyz
x,y,z
-x,y,-z
-x,-y,-z
x,-y,z
1/2+x,1/2+y,z
1/2-x,1/2+y,-z
1/2-x,1/2-y,-z
1/2+x,1/2-y,z
loop_
_atom_site_type_symbol
_atom_site_label
_atom_site_fract_x
_atom_site_fract_y
_atom_site_fract_z
Si Si1 0.487204 0.000000 0.227811
Si Si2 0.835594 0.308724 0.686329
Si Si3 0.440733 0.500000 0.664183
Si Si4 0.727223 0.500000 0.347012
Si Si5 0.714599 0.177255 0.748067
Si Si6 0.935664 0.325570 0.142171
Si Si7 0.525893 0.684102 0.290252
Si Si8 0.350338 0.000000 0.670599
O O1 0.445707 0.088588 0.267282
O O2 0.562222 0.000000 0.342075
O O3 0.500000 0.000000 0.000000
O O4 0.768330 0.256132 0.762819
O O5 0.821713 0.314823 0.460842
O O6 0.907869 0.251857 0.718374
O O7 0.839932 0.405975 0.756824
O O8 0.500000 0.500000 0.500000
O O9 0.356816 0.500000 0.591405
O O10 0.452538 0.589378 0.772159
O O11 0.742319 0.588186 0.241038
O O12 0.789500 0.500000 0.507501
O O13 0.649363 0.177819 0.890914
O O14 0.956669 0.230243 0.201621
O O15 0.000000 0.339603 0.000000
O O16 0.500000 0.676035 0.500000
#
# Coordination Sequence:
#
# PCOD9184170 Si02
#       8
#     4   8   4   4   8   8   8   4
#     4  10  21  37  58  82 121 159 201 244 296 359
#     4  10  19  33  57  87 121 143 197 239 301 352
#     4  10  22  35  62  94 122 157 195 250 302 348
#     4  10  19  34  57  91 123 149 202 246 298 356
#     4  10  20  35  56  86 118 158 189 250 299 351
#     4  11  23  39  60  85 120 160 203 248 301 361
#     4  11  20  37  60  89 119 152 198 245 299 357
#     4  10  20  32  58  91 121 153 185 252 304 355
#
# _framework density 23.082937999999999
#
# number of rings (size 3 to 8) (size 9 to 14) (size 15 to 20)
#    0.000    1.667    5.000    0.500    0.000    0.000 
#    0.000    3.750    0.000    0.000    0.000    0.000 
#    0.000    0.000    0.000    0.000    0.000    0.000 
#
# Total GULP energy -133751.131598 kJ/mol
# GULP energy per Si atom -5572.963817 kJ/mol
# Density = 2.303040 g / cm^3
# Si number density = 23.082938 Si / 1000 Ang^3
#
#
#
# Elastic Constant Matrix: (Units=GPa)
#
#
# Indices 1 2 3 4 5 6 
#
# 1 178.2535 80.1315 25.9547 0.0000 -17.8010 0.0000
# 2 80.1315 248.6635 22.3100 0.0000 -7.1052 0.0000
# 3 25.9547 22.3100 43.4552 0.0000 -3.6035 0.0000
# 4 0.0000 0.0000 0.0000 13.4500 0.0000 11.5451
# 5 -17.8010 -7.1052 -3.6035 0.0000 28.9741 0.0000
# 6 0.0000 0.0000 0.0000 11.5451 0.0000 57.3924
#
#
#
# Elastic Compliance Matrix: (Units=1/GPa)
#
#
# Indices 1 2 3 4 5 6 
#
# 1 0.007304 -0.001977 -0.003047 0.000000 0.003624 0.000000
# 2 -0.001977 0.004768 -0.001284 0.000000 -0.000205 0.000000
# 3 -0.003047 -0.001284 0.025574 0.000000 0.000994 0.000000
# 4 0.000000 0.000000 0.000000 0.089866 0.000000 -0.018078
# 5 0.003624 -0.000205 0.000994 0.000000 0.036813 0.000000
# 6 0.000000 0.000000 0.000000 -0.018078 0.000000 0.021060
#
#
# Mechanical properties :
#
#
# Convention : Reuss Voigt Hill
#
# Bulk Modulus (GPa) = 39.95261 80.79606 60.37434
# Shear Modulus (GPa) = 24.23117 42.76170 33.49643
#
# Velocity S-wave (km/s) = 3.24349 4.30877 3.81351
# Velocity P-wave (km/s) = 5.60115 7.73514 6.75297
#
# Compressibility (1/GPa) = 0.02502965
#
# Stress axis : x y z
#
# Youngs Moduli (GPa) = 136.90706 209.73649 39.10235
#
# Poissons Ratio (x) = 0.41461 0.11915
# Poissons Ratio (y) = 0.27064 0.05021
# Poissons Ratio (z) = 0.41718 0.26933
#
# Static dielectric constant tensor:
#      x y z
#    x 1.809180 0.000000 0.006650 
#    y 0.000000 1.909890 0.000000 
#    z 0.006650 0.000000 2.015770 
# 
# From -- ./inp_files/73710.got.cif
#   From: 2010.05.17/outbox.cif.g08.bks.cpg/sg12_37_cif.got.tgz:73710.got - 2010.06.03 13:09:07.
