data_PCOD9184606
_publ_section_title
;
Structure prediction by ZEFSAII (Michael W. Deem and Ramdas Pophale) SiO2 
 PCOD9184606
Probable space group: C 2/M
;
_chemical_formula_sum "Si O2"
_cell_formula_units_Z 48
_cell_length_a 20.005274
_cell_length_b 8.479950
_cell_length_c 17.095011
_cell_angle_alpha 90.000000
_cell_angle_beta 112.724276
_cell_angle_gamma 90.000000
_cell_volume 2674.942605
_symmetry_space_group_name_H-M "C 2/M"
_symmetry_group_IT_number 12
_symmetry_cell_setting 'monoclinic'
loop_
_space_group_symop_operation_xyz
x,y,z
-x,y,-z
-x,-y,-z
x,-y,z
1/2+x,1/2+y,z
1/2-x,1/2+y,-z
1/2-x,1/2-y,-z
1/2+x,1/2-y,z
loop_
_atom_site_type_symbol
_atom_site_label
_atom_site_fract_x
_atom_site_fract_y
_atom_site_fract_z
Si Si1 0.168119 0.310985 0.973328
Si Si2 0.922367 0.307382 0.220123
Si Si3 0.415968 0.189123 0.739156
Si Si4 0.229230 0.188855 0.405692
Si Si5 0.301690 0.808481 0.281849
Si Si6 0.850693 0.188934 0.865838
O O1 0.169972 0.500000 0.974468
O O2 0.137352 0.250980 0.041809
O O3 0.250000 0.250000 0.000000
O O4 0.119434 0.259600 0.877832
O O5 0.922614 0.500000 0.221292
O O6 0.874324 0.253278 0.272037
O O7 0.005529 0.256359 0.255054
O O8 0.349955 0.256323 0.658328
O O9 0.402587 0.242556 0.822466
O O10 0.413184 0.000000 0.734754
O O11 0.250000 0.250000 0.500000
O O12 0.284463 0.244341 0.362156
O O13 0.230392 0.000000 0.406716
O O14 0.231281 0.766239 0.197990
O O15 0.303966 0.000000 0.284045
O O16 0.855119 0.000000 0.866723
#
# Coordination Sequence:
#
# PCOD9184606 Si02
#       6
#     8   8   8   8   8   8
#     4  11  20  32  52  78 107 142 188 231 269 313
#     4   9  18  33  53  77 107 142 179 222 269 321
#     4  10  20  35  56  80 107 138 177 222 271 322
#     4  10  20  36  60  83 107 136 173 218 266 326
#     4   8  15  31  54  76  99 136 179 215 257 312
#     4  10  19  34  53  74 107 146 185 225 264 314
#
# _framework density 17.944309000000001
#
# number of rings (size 3 to 8) (size 9 to 14) (size 15 to 20)
#    0.000    2.333    1.667    3.000    0.000    0.667 
#    0.000    7.500    0.000    5.000    0.000    0.000 
#    0.000    0.000    0.000    0.000    0.000    0.000 
#
# Total GULP energy -133895.492928 kJ/mol
# GULP energy per Si atom -5578.978872 kJ/mol
# Density = 1.790347 g / cm^3
# Si number density = 17.944309 Si / 1000 Ang^3
#
#
#
# Elastic Constant Matrix: (Units=GPa)
#
#
# Indices 1 2 3 4 5 6 
#
# 1 171.9852 24.1157 85.2093 0.0000 -21.0053 0.0000
# 2 24.1157 40.6052 26.7540 0.0000 -3.8687 0.0000
# 3 85.2093 26.7540 146.3500 0.0000 -23.5022 0.0000
# 4 0.0000 0.0000 0.0000 28.0044 0.0000 -2.4976
# 5 -21.0053 -3.8687 -23.5022 0.0000 19.7654 0.0000
# 6 0.0000 0.0000 0.0000 -2.4976 0.0000 22.8524
#
#
#
# Elastic Compliance Matrix: (Units=1/GPa)
#
#
# Indices 1 2 3 4 5 6 
#
# 1 0.008555 -0.002093 -0.003961 0.000000 0.003973 0.000000
# 2 -0.002093 0.028521 -0.004272 0.000000 -0.001721 0.000000
# 3 -0.003961 -0.004272 0.011260 0.000000 0.008343 0.000000
# 4 0.000000 0.000000 0.000000 0.036060 0.000000 0.003941
# 5 0.003973 -0.001721 0.008343 0.000000 0.064399 0.000000
# 6 0.000000 0.000000 0.000000 0.003941 0.000000 0.044190
#
#
# Mechanical properties :
#
#
# Convention : Reuss Voigt Hill
#
# Bulk Modulus (GPa) = 36.11993 70.12205 53.12099
# Shear Modulus (GPa) = 22.43515 28.98186 25.70850
#
# Velocity S-wave (km/s) = 3.53975 4.02319 3.78919
# Velocity P-wave (km/s) = 6.07281 7.79383 6.98652
#
# Compressibility (1/GPa) = 0.02768555
#
# Stress axis : x y z
#
# Youngs Moduli (GPa) = 116.88473 35.06192 88.81291
#
# Poissons Ratio (x) = 0.07339 0.35175
# Poissons Ratio (y) = 0.24464 0.37938
# Poissons Ratio (z) = 0.46293 0.14977
#
# Static dielectric constant tensor:
#      x y z
#    x 1.625850 0.000000 -0.006340 
#    y 0.000000 1.619320 0.000000 
#    z -0.006340 0.000000 1.623010 
# 
# From -- ./inp_files/230346.got.cif
#   From: 2010.05.17/outbox.cif.g08.bks.cpg/sg12_116_cif.got.tgz:230346.got - 2010.06.03 13:09:07.
