data_PCOD9184277
_publ_section_title
;
Structure prediction by ZEFSAII (Michael W. Deem and Ramdas Pophale) SiO2 
 PCOD9184277
Probable space group: C 2/M
;
_chemical_formula_sum "Si O2"
_cell_formula_units_Z 60
_cell_length_a 19.753839
_cell_length_b 21.188622
_cell_length_c 12.854526
_cell_angle_alpha 90.000000
_cell_angle_beta 140.527783
_cell_angle_gamma 90.000000
_cell_volume 3420.308040
_symmetry_space_group_name_H-M "C 2/M"
_symmetry_group_IT_number 12
_symmetry_cell_setting 'monoclinic'
loop_
_space_group_symop_operation_xyz
x,y,z
-x,y,-z
-x,-y,-z
x,-y,z
1/2+x,1/2+y,z
1/2-x,1/2+y,-z
1/2-x,1/2-y,-z
1/2+x,1/2-y,z
loop_
_atom_site_type_symbol
_atom_site_label
_atom_site_fract_x
_atom_site_fract_y
_atom_site_fract_z
Si Si1 0.000000 0.753626 0.000000
Si Si2 0.561922 0.381533 0.470902
Si Si3 0.807843 0.832076 0.851879
Si Si4 0.907082 0.731167 0.471314
Si Si5 0.254609 0.930818 0.588679
Si Si6 0.380810 0.431771 0.780064
Si Si7 0.852462 0.701664 0.637989
Si Si8 0.085079 0.925765 0.892802
O O1 0.913769 0.790571 0.967732
O O2 0.926261 0.723208 0.822100
O O3 0.500000 0.401313 0.500000
O O4 0.585232 0.306694 0.503601
O O5 0.675003 0.415584 0.589101
O O6 0.481949 0.398157 0.282166
O O7 0.703175 0.790598 0.713198
O O8 0.819102 0.877746 0.765997
O O9 0.818516 0.879309 0.962567
O O10 0.908389 0.702884 0.590401
O O11 0.000000 0.713006 0.500000
O O12 0.174383 0.936155 0.396922
O O13 0.320044 0.868817 0.635139
O O14 0.307247 0.000000 0.663822
O O15 0.366187 0.500000 0.814276
O O16 0.503929 0.421207 0.895688
O O17 0.750000 0.750000 0.500000
O O18 0.108908 0.000000 0.905009
#
# Coordination Sequence:
#
# PCOD9184277 Si02
#       8
#     4   8   8   8   8   8   8   8
#     4  12  22  32  64  98 112 164 208 264 330 350
#     4  10  20  37  55  82 122 164 210 256 314 380
#     4  12  19  33  56  89 123 147 196 256 317 368
#     4  11  24  40  61  87 126 174 209 248 312 379
#     4  10  19  33  58  88 114 157 205 253 309 362
#     4   9  16  28  51  84 117 143 182 243 313 367
#     4  12  21  41  64  88 127 160 210 265 310 378
#     4  10  20  32  53  88 123 152 191 259 328 376
#
# _framework density 17.542280000000002
#
# number of rings (size 3 to 8) (size 9 to 14) (size 15 to 20)
#    0.000    1.333    5.333    2.400    0.000    2.133 
#    0.000    7.667    0.000    3.600    0.000    0.000 
#    0.000    0.000    0.000    0.000    0.000    0.000 
#
# Total GULP energy -167015.042519 kJ/mol
# GULP energy per Si atom -5567.168084 kJ/mol
# Density = 1.750235 g / cm^3
# Si number density = 17.542280 Si / 1000 Ang^3
#
#
#
# Elastic Constant Matrix: (Units=GPa)
#
#
# Indices 1 2 3 4 5 6 
#
# 1 90.9561 46.2839 25.0299 0.0000 -5.0832 0.0000
# 2 46.2839 127.5275 60.8742 0.0000 5.6124 0.0000
# 3 25.0299 60.8742 98.4979 0.0000 -1.5379 0.0000
# 4 0.0000 0.0000 0.0000 31.5835 0.0000 -1.9025
# 5 -5.0832 5.6124 -1.5379 0.0000 21.8160 0.0000
# 6 0.0000 0.0000 0.0000 -1.9025 0.0000 15.5231
#
#
#
# Elastic Compliance Matrix: (Units=1/GPa)
#
#
# Indices 1 2 3 4 5 6 
#
# 1 0.013933 -0.005107 -0.000314 0.000000 0.004538 0.000000
# 2 -0.005107 0.013244 -0.006967 0.000000 -0.005088 0.000000
# 3 -0.000314 -0.006967 0.014581 0.000000 0.002747 0.000000
# 4 0.000000 0.000000 0.000000 0.031898 0.000000 0.003909
# 5 0.004538 -0.005088 0.002747 0.000000 0.048398 0.000000
# 6 0.000000 0.000000 0.000000 0.003909 0.000000 0.064899
#
#
# Mechanical properties :
#
#
# Convention : Reuss Voigt Hill
#
# Bulk Modulus (GPa) = 58.88141 64.59528 61.73834
# Shear Modulus (GPa) = 23.00020 26.10407 24.55213
#
# Velocity S-wave (km/s) = 3.62488 3.86173 3.74518
# Velocity P-wave (km/s) = 7.15248 7.53568 7.34658
#
# Compressibility (1/GPa) = 0.01698329
#
# Stress axis : x y z
#
# Youngs Moduli (GPa) = 71.77301 75.50309 68.58241
#
# Poissons Ratio (x) = 0.38557 0.02151
# Poissons Ratio (y) = 0.36652 0.47783
# Poissons Ratio (z) = 0.02251 0.52604
#
# Static dielectric constant tensor:
#      x y z
#    x 1.611310 0.000000 -0.023700 
#    y 0.000000 1.676190 0.000000 
#    z -0.023700 0.000000 1.640310 
# 
# From -- ./inp_files/159775.got.cif
#   From: 2010.05.17/outbox.cif.g08.bks.cpg/sg12_80_cif.got.tgz:159775.got - 2010.06.03 13:09:07.
