data_PCOD9184690
_publ_section_title
;
Structure prediction by ZEFSAII (Michael W. Deem and Ramdas Pophale) SiO2 
 PCOD9184690
Probable space group: C 2/M
;
_chemical_formula_sum "Si O2"
_cell_formula_units_Z 64
_cell_length_a 28.820181
_cell_length_b 9.220833
_cell_length_c 20.754547
_cell_angle_alpha 90.000000
_cell_angle_beta 43.993347
_cell_angle_gamma 90.000000
_cell_volume 3830.885447
_symmetry_space_group_name_H-M "C 2/M"
_symmetry_group_IT_number 12
_symmetry_cell_setting 'monoclinic'
loop_
_space_group_symop_operation_xyz
x,y,z
-x,y,-z
-x,-y,-z
x,-y,z
1/2+x,1/2+y,z
1/2-x,1/2+y,-z
1/2-x,1/2-y,-z
1/2+x,1/2-y,z
loop_
_atom_site_type_symbol
_atom_site_label
_atom_site_fract_x
_atom_site_fract_y
_atom_site_fract_z
Si Si1 0.318985 0.171069 0.816225
Si Si2 0.950923 0.171673 0.870341
Si Si3 0.818337 0.328773 0.046465
Si Si4 0.539376 0.826179 0.526951
Si Si5 0.546415 0.326207 0.892283
Si Si6 0.685317 0.170362 0.334409
Si Si7 0.679039 0.829574 0.801270
Si Si8 0.453692 0.671470 0.720658
O O1 0.249313 0.245547 0.905094
O O2 0.325302 0.186409 0.732107
O O3 0.382221 0.251205 0.783177
O O4 0.318892 0.000000 0.831418
O O5 0.975235 0.191022 0.773165
O O6 0.005858 0.213451 0.868514
O O7 0.936123 0.000000 0.894850
O O8 0.883287 0.260668 0.948980
O O9 0.812331 0.500000 0.039419
O O10 0.826811 0.308786 0.115337
O O11 0.500000 0.794257 0.500000
O O12 0.616828 0.788687 0.438180
O O13 0.504765 0.742714 0.619660
O O14 0.534192 0.000000 0.542469
O O15 0.556313 0.500000 0.882987
O O16 0.616983 0.248692 0.829924
O O17 0.500000 0.288971 0.000000
O O18 0.749919 0.261718 0.288766
O O19 0.698156 0.000000 0.333035
O O20 0.677669 0.000000 0.789732
O O21 0.446784 0.500000 0.714865
#
# Coordination Sequence:
#
# PCOD9184690 Si02
#       8
#     8   8   8   8   8   8   8   8
#     4  10  19  34  54  75 105 145 183 216 256 313
#     4  10  22  38  53  75 107 144 183 219 261 319
#     4  10  20  33  51  78 109 141 178 219 265 314
#     4  10  19  36  58  81 106 138 181 221 259 313
#     4  10  19  34  58  79 100 140 185 219 258 315
#     4   9  18  33  55  79 105 138 176 216 256 311
#     4  10  20  32  51  82 114 135 165 221 275 315
#     4  11  23  36  52  78 111 142 176 222 271 314
#
# _framework density 16.706319000000001
#
# number of rings (size 3 to 8) (size 9 to 14) (size 15 to 20)
#    0.000    2.000    2.500    1.500    0.000    4.500 
#    0.000    0.000    0.000    0.750    0.000    0.000 
#    0.000    0.000    0.000    0.000    0.000    0.000 
#
# Total GULP energy -178666.583262 kJ/mol
# GULP energy per Si atom -5583.330727 kJ/mol
# Density = 1.666830 g / cm^3
# Si number density = 16.706319 Si / 1000 Ang^3
#
#
#
# Elastic Constant Matrix: (Units=GPa)
#
#
# Indices 1 2 3 4 5 6 
#
# 1 105.6077 61.2264 70.3958 0.0052 -12.6018 0.0002
# 2 61.2264 70.9321 67.0827 -0.0083 -4.4363 0.0146
# 3 70.3958 67.0827 101.7892 0.0003 -12.6070 -0.0013
# 4 0.0052 -0.0083 0.0003 22.6273 0.0009 -5.0168
# 5 -12.6018 -4.4363 -12.6070 0.0009 21.5361 -0.0027
# 6 0.0002 0.0146 -0.0013 -5.0168 -0.0027 23.5649
#
#
#
# Elastic Compliance Matrix: (Units=1/GPa)
#
#
# Indices 1 2 3 4 5 6 
#
# 1 0.021361 -0.012819 -0.005503 -0.000008 0.006637 0.000006
# 2 -0.012819 0.046196 -0.022998 0.000014 -0.011447 -0.000028
# 3 -0.005503 -0.022998 0.029974 -0.000004 0.009589 0.000016
# 4 -0.000008 0.000014 -0.000004 0.046384 -0.000005 0.009875
# 5 0.006637 -0.011447 0.009589 -0.000005 0.053573 0.000013
# 6 0.000006 -0.000028 0.000016 0.009875 0.000013 0.044538
#
#
# Mechanical properties :
#
#
# Convention : Reuss Voigt Hill
#
# Bulk Modulus (GPa) = 67.14683 75.08207 71.11445
# Shear Modulus (GPa) = 15.16865 18.85393 17.01129
#
# Velocity S-wave (km/s) = 3.01650 3.36304 3.19447
# Velocity P-wave (km/s) = 7.23962 7.75370 7.50107
#
# Compressibility (1/GPa) = 0.01489274
#
# Stress axis : x y z
#
# Youngs Moduli (GPa) = 46.81509 21.64678 33.36270
#
# Poissons Ratio (x) = 0.27748 0.18358
# Poissons Ratio (y) = 0.60011 0.76726
# Poissons Ratio (z) = 0.25761 0.49782
#
# Static dielectric constant tensor:
#      x y z
#    x 1.546120 0.000000 0.011770 
#    y 0.000000 1.553920 0.000000 
#    z 0.011770 0.000000 1.547260 
# 
# From -- ./inp_files/295551.got.cif
#   From: 2010.05.17/outbox.cif.g08.bks.cpg/sg12_148_cif.got.tgz:295551.got - 2010.06.03 13:09:07.
