data_PCOD9184776
_publ_section_title
;
Structure prediction by ZEFSAII (Michael W. Deem and Ramdas Pophale) SiO2 
 PCOD9184776
Probable space group: C 2/M
;
_chemical_formula_sum "Si O2"
_cell_formula_units_Z 48
_cell_length_a 17.315944
_cell_length_b 10.925775
_cell_length_c 32.066886
_cell_angle_alpha 90.000000
_cell_angle_beta 24.762413
_cell_angle_gamma 90.000000
_cell_volume 2541.092336
_symmetry_space_group_name_H-M "C 2/M"
_symmetry_group_IT_number 12
_symmetry_cell_setting 'monoclinic'
loop_
_space_group_symop_operation_xyz
x,y,z
-x,y,-z
-x,-y,-z
x,-y,z
1/2+x,1/2+y,z
1/2-x,1/2+y,-z
1/2-x,1/2-y,-z
1/2+x,1/2-y,z
loop_
_atom_site_type_symbol
_atom_site_label
_atom_site_fract_x
_atom_site_fract_y
_atom_site_fract_z
Si Si1 0.612308 0.856702 0.264122
Si Si2 0.307116 0.647374 0.645594
Si Si3 0.431836 0.754926 0.162895
Si Si4 0.718059 0.351169 0.438988
Si Si5 0.760137 0.367362 0.040589
Si Si6 0.788945 0.136591 0.087505
O O1 0.767585 0.786553 0.213442
O O2 0.403091 0.809368 0.371228
O O3 0.662975 0.851410 0.190232
O O4 0.619497 0.000000 0.272638
O O5 0.300205 0.500000 0.650317
O O6 0.159721 0.699022 0.749737
O O7 0.273858 0.683923 0.613889
O O8 0.516933 0.686129 0.553945
O O9 0.576683 0.647839 0.102785
O O10 0.560861 0.852862 0.076365
O O11 0.722230 0.500000 0.437636
O O12 0.761680 0.500000 0.060854
O O13 0.761610 0.250143 0.070279
O O14 0.755745 0.000000 0.085359
O O15 0.000000 0.138999 0.000000
#
# Coordination Sequence:
#
# PCOD9184776 Si02
#       6
#     8   8   8   8   8   8
#     4  10  19  34  54  80 108 139 181 228 272 323
#     4   9  17  33  54  80 107 135 178 230 279 323
#     4  11  22  34  52  77 110 150 184 224 274 332
#     4   8  16  31  55  79 102 134 178 230 275 321
#     4  11  24  38  53  79 114 152 188 229 278 327
#     4  10  20  37  60  81 105 144 189 229 268 325
#
# _framework density 18.889513000000001
#
# number of rings (size 3 to 8) (size 9 to 14) (size 15 to 20)
#    0.000    2.167    1.667    3.000    0.000    5.667 
#    0.000    0.000    0.000    0.000    0.000   22.167 
#    0.000    0.000    0.000    0.000    0.000    0.000 
#
# Total GULP energy -133881.192232 kJ/mol
# GULP energy per Si atom -5578.383010 kJ/mol
# Density = 1.884652 g / cm^3
# Si number density = 18.889513 Si / 1000 Ang^3
#
#
#
# Elastic Constant Matrix: (Units=GPa)
#
#
# Indices 1 2 3 4 5 6 
#
# 1 66.8208 32.0814 39.8460 0.0000 -24.0196 0.0004
# 2 32.0814 85.7245 20.2391 -0.0003 -0.9511 0.0001
# 3 39.8460 20.2391 109.3558 0.0009 -25.2137 -0.0004
# 4 0.0000 -0.0003 0.0009 5.1389 -0.0002 9.7350
# 5 -24.0196 -0.9511 -25.2137 -0.0002 40.0077 0.0008
# 6 0.0004 0.0001 -0.0004 9.7350 0.0008 6.3761
#
#
#
# Elastic Compliance Matrix: (Units=1/GPa)
#
#
# Indices 1 2 3 4 5 6 
#
# 1 0.026754 -0.008632 -0.005259 -0.000004 0.012543 0.000003
# 2 -0.008632 0.015044 -0.000879 0.000001 -0.005379 0.000000
# 3 -0.005259 -0.000879 0.012274 0.000002 0.004557 -0.000002
# 4 -0.000004 0.000001 0.000002 -0.102835 -0.000005 0.157007
# 5 0.012543 -0.005379 0.004557 -0.000005 0.035270 0.000003
# 6 0.000003 0.000000 -0.000002 0.157007 0.000003 -0.082881
#
#
# Mechanical properties :
#
#
# Convention : Reuss Voigt Hill
#
# Bulk Modulus (GPa) = 40.76274 49.58158 45.17216
# Shear Modulus (GPa) = -85.24207 21.62019 -31.81094
#
# Velocity S-wave (km/s) = -6.72493 3.38681 -4.10817
# Velocity P-wave (km/s) = 6.21877 6.44974 1.20955
#
# Compressibility (1/GPa) = 0.02453221
#
# Stress axis : x y z
#
# Youngs Moduli (GPa) = 37.37705 66.47386 81.47228
#
# Poissons Ratio (x) = 0.57379 0.42846
# Poissons Ratio (y) = 0.32263 0.07163
# Poissons Ratio (z) = 0.19656 0.05844
#
# Static dielectric constant tensor:
#      x y z
#    x 1.681530 0.000000 -0.020770 
#    y 0.000000 1.639930 0.000000 
#    z -0.020770 0.000000 1.676370 
# 
# From -- ./inp_files/222401.got.cif
#   From: 2010.05.17/outbox.cif.g08.bks.cpg/sg12_112_cif.got.tgz:222401.got - 2010.06.03 13:09:07.
