data_PCOD9184414
_publ_section_title
;
Structure prediction by ZEFSAII (Michael W. Deem and Ramdas Pophale) SiO2 
 PCOD9184414
Probable space group: C 2/M
;
_chemical_formula_sum "Si O2"
_cell_formula_units_Z 36
_cell_length_a 5.899690
_cell_length_b 18.189675
_cell_length_c 21.935649
_cell_angle_alpha 90.000000
_cell_angle_beta 130.783025
_cell_angle_gamma 90.000000
_cell_volume 1782.414444
_symmetry_space_group_name_H-M "C 2/M"
_symmetry_group_IT_number 12
_symmetry_cell_setting 'monoclinic'
loop_
_space_group_symop_operation_xyz
x,y,z
-x,y,-z
-x,-y,-z
x,-y,z
1/2+x,1/2+y,z
1/2-x,1/2+y,-z
1/2-x,1/2-y,-z
1/2+x,1/2-y,z
loop_
_atom_site_type_symbol
_atom_site_label
_atom_site_fract_x
_atom_site_fract_y
_atom_site_fract_z
Si Si1 0.464403 0.148029 0.243264
Si Si2 0.500000 0.658747 0.000000
Si Si3 0.270331 0.709075 0.407793
Si Si4 0.113657 0.081497 0.894011
Si Si5 0.371810 0.197475 0.846812
O O1 0.613058 0.152065 0.334709
O O2 0.224156 0.085370 0.190697
O O3 0.679295 0.148304 0.222840
O O4 0.294220 0.226971 0.200194
O O5 0.599412 0.607535 0.961431
O O6 0.223733 0.706672 0.925983
O O7 0.500000 0.682208 0.500000
O O8 0.493715 0.753371 0.398526
O O9 0.268694 0.144793 0.882587
O O10 0.237898 0.000000 0.908755
#
# Coordination Sequence:
#
# PCOD9184414 Si02
#       5
#     8   4   8   8   8
#     4  11  21  38  60  87 121 154 199 247 306 367
#     4  10  25  38  60  80 113 152 208 248 307 362
#     4  10  19  33  60  96 130 159 198 253 309 364
#     4  11  24  41  59  81 115 157 202 252 307 363
#     4  11  21  37  59  83 114 152 198 252 300 357
#
# _framework density 20.197320999999999
#
# number of rings (size 3 to 8) (size 9 to 14) (size 15 to 20)
#    0.000    1.333    4.444    1.000    0.000    8.889 
#    0.000    0.000    0.000    0.667    0.000    1.556 
#    0.000    0.000    0.000    0.000    0.000    0.000 
#
# Total GULP energy -100228.639786 kJ/mol
# GULP energy per Si atom -5568.257766 kJ/mol
# Density = 2.015135 g / cm^3
# Si number density = 20.197321 Si / 1000 Ang^3
#
#
#
# Elastic Constant Matrix: (Units=GPa)
#
#
# Indices 1 2 3 4 5 6 
#
# 1 76.7073 21.0886 15.3402 0.0000 -21.2815 0.0000
# 2 21.0886 86.6678 11.1604 0.0000 -1.8986 0.0000
# 3 15.3402 11.1604 141.8503 0.0000 -28.0716 0.0000
# 4 0.0000 0.0000 0.0000 8.1018 0.0000 1.8646
# 5 -21.2815 -1.8986 -28.0716 0.0000 31.9182 0.0000
# 6 0.0000 0.0000 0.0000 1.8646 0.0000 10.6871
#
#
#
# Elastic Compliance Matrix: (Units=1/GPa)
#
#
# Indices 1 2 3 4 5 6 
#
# 1 0.017327 -0.004059 0.000828 0.000000 0.012040 0.000000
# 2 -0.004059 0.012608 -0.001138 0.000000 -0.002957 0.000000
# 3 0.000828 -0.001138 0.008651 0.000000 0.008093 0.000000
# 4 0.000000 0.000000 0.000000 0.128593 0.000000 -0.022436
# 5 0.012040 -0.002957 0.008093 0.000000 0.046300 0.000000
# 6 0.000000 0.000000 0.000000 -0.022436 0.000000 0.097485
#
#
# Mechanical properties :
#
#
# Convention : Reuss Voigt Hill
#
# Bulk Modulus (GPa) = 33.50316 44.48931 38.99624
# Shear Modulus (GPa) = 15.16751 27.31715 21.24233
#
# Velocity S-wave (km/s) = 2.74335 3.68164 3.24657
# Velocity P-wave (km/s) = 5.16319 6.33623 5.77955
#
# Compressibility (1/GPa) = 0.02984793
#
# Stress axis : x y z
#
# Youngs Moduli (GPa) = 57.71275 79.31617 115.58977
#
# Poissons Ratio (x) = 0.32195 -0.09573
# Poissons Ratio (y) = 0.23426 0.13157
# Poissons Ratio (z) = -0.04780 0.09028
#
# Static dielectric constant tensor:
#      x y z
#    x 2.040130 0.000000 0.014920 
#    y 0.000000 1.653470 0.000000 
#    z 0.014920 0.000000 1.714030 
# 
# From -- ./inp_files/297724.got.cif
#   From: 2010.05.17/outbox.cif.g08.bks.cpg/sg12_149_cif.got.tgz:297724.got - 2010.06.03 13:09:07.
