data_PCOD9184619
_publ_section_title
;
Structure prediction by ZEFSAII (Michael W. Deem and Ramdas Pophale) SiO2 
 PCOD9184619
Probable space group: C 2/M
;
_chemical_formula_sum "Si O2"
_cell_formula_units_Z 40
_cell_length_a 28.558903
_cell_length_b 10.040973
_cell_length_c 16.589812
_cell_angle_alpha 90.000000
_cell_angle_beta 25.782629
_cell_angle_gamma 90.000000
_cell_volume 2069.217905
_symmetry_space_group_name_H-M "C 2/M"
_symmetry_group_IT_number 12
_symmetry_cell_setting 'monoclinic'
loop_
_space_group_symop_operation_xyz
x,y,z
-x,y,-z
-x,-y,-z
x,-y,z
1/2+x,1/2+y,z
1/2-x,1/2+y,-z
1/2-x,1/2-y,-z
1/2+x,1/2-y,z
loop_
_atom_site_type_symbol
_atom_site_label
_atom_site_fract_x
_atom_site_fract_y
_atom_site_fract_z
Si Si1 0.102584 0.500000 0.897398
Si Si2 0.706305 0.500000 0.916062
Si Si3 0.070184 0.500000 0.136896
Si Si4 0.752211 0.790525 0.870498
Si Si5 0.094947 0.000000 0.289522
Si Si6 0.327225 0.000000 0.560901
Si Si7 0.475563 0.500000 0.303690
Si Si8 0.789476 0.794548 0.619056
O O1 0.182157 0.374385 0.761748
O O2 0.062424 0.500000 0.052018
O O3 0.000000 0.500000 0.000000
O O4 0.734487 0.636468 0.917189
O O5 0.782271 0.500000 0.720786
O O6 0.580400 0.500000 0.083717
O O7 0.955642 0.500000 0.356096
O O8 0.140600 0.370760 0.049556
O O9 0.835131 0.869866 0.797169
O O10 0.789104 0.799751 0.718531
O O11 0.039542 0.000000 0.289064
O O12 0.000000 0.000000 0.500000
O O13 0.289385 0.143604 0.587343
O O14 0.395417 0.373907 0.425231
#
# Coordination Sequence:
#
# PCOD9184619 Si02
#       8
#     4   4   4   8   4   4   4   8
#     4   9  18  35  57  80 104 129 163 202 237 298
#     4  10  21  32  48  76 105 126 172 218 253 283
#     4   9  17  33  58  74  98 137 171 192 247 306
#     4   9  18  34  51  74  96 132 172 212 249 300
#     4  11  18  32  54  68  98 136 174 207 255 301
#     4  10  19  34  53  76 103 133 165 210 248 295
#     4  11  19  32  54  73  97 136 171 209 250 303
#     4   9  18  33  55  78  98 129 170 203 250 298
#
# _framework density 19.330974999999999
#
# number of rings (size 3 to 8) (size 9 to 14) (size 15 to 20)
#    0.000    2.400    2.000    2.400    0.000    0.800 
#    0.000    3.000    0.000    0.000    0.000    0.000 
#    0.000    0.000    0.000    0.000    0.000    0.000 
#
# Total GULP energy -111548.943119 kJ/mol
# GULP energy per Si atom -5577.447156 kJ/mol
# Density = 1.928698 g / cm^3
# Si number density = 19.330975 Si / 1000 Ang^3
#
#
#
# Elastic Constant Matrix: (Units=GPa)
#
#
# Indices 1 2 3 4 5 6 
#
# 1 55.4667 31.7465 34.6940 0.0000 -29.1093 0.0000
# 2 31.7465 200.6230 58.3161 0.0000 -21.9685 0.0000
# 3 34.6940 58.3161 162.7508 0.0000 -4.8672 0.0000
# 4 0.0000 0.0000 0.0000 10.0228 0.0000 -1.0092
# 5 -29.1093 -21.9685 -4.8672 0.0000 26.8443 0.0000
# 6 0.0000 0.0000 0.0000 -1.0092 0.0000 -15.0696
#
#
#
# Elastic Compliance Matrix: (Units=1/GPa)
#
#
# Indices 1 2 3 4 5 6 
#
# 1 0.053959 0.000640 -0.010021 0.000000 0.057219 0.000000
# 2 0.000640 0.006090 -0.002160 0.000000 0.005286 0.000000
# 3 -0.010021 -0.002160 0.008724 0.000000 -0.011053 0.000000
# 4 0.000000 0.000000 0.000000 0.099104 0.000000 -0.006637
# 5 0.057219 0.005286 -0.011053 0.000000 0.101620 0.000000
# 6 0.000000 0.000000 0.000000 -0.006637 0.000000 -0.065914
#
#
# Mechanical properties :
#
#
# Convention : Reuss Voigt Hill
#
# Bulk Modulus (GPa) = 21.88627 74.26151 48.07389
# Shear Modulus (GPa) = 20.66994 23.96509 22.31752
#
# Velocity S-wave (km/s) = 3.27351 3.52479 3.40147
# Velocity P-wave (km/s) = 5.06303 7.42056 6.35213
#
# Compressibility (1/GPa) = 0.04569074
#
# Stress axis : x y z
#
# Youngs Moduli (GPa) = 18.53248 164.20234 114.62483
#
# Poissons Ratio (x) = -0.10507 1.14863
# Poissons Ratio (y) = -0.01186 0.24764
# Poissons Ratio (z) = 0.18571 0.35475
#
# Static dielectric constant tensor:
#      x y z
#    x 1.654700 0.000000 0.057530 
#    y 0.000000 1.718750 0.000000 
#    z 0.057530 0.000000 1.710410 
# 
# From -- ./inp_files/296250.got.cif
#   From: 2010.05.17/outbox.cif.g08.bks.cpg/sg12_149_cif.got.tgz:296250.got - 2010.06.03 13:09:07.
