data_PCOD9184858
_publ_section_title
;
Structure prediction by ZEFSAII (Michael W. Deem and Ramdas Pophale) SiO2 
 PCOD9184858
Probable space group: C 2/M
;
_chemical_formula_sum "Si O2"
_cell_formula_units_Z 64
_cell_length_a 20.809942
_cell_length_b 7.391500
_cell_length_c 19.051903
_cell_angle_alpha 90.000000
_cell_angle_beta 96.458388
_cell_angle_gamma 90.000000
_cell_volume 2911.903072
_symmetry_space_group_name_H-M "C 2/M"
_symmetry_group_IT_number 12
_symmetry_cell_setting 'monoclinic'
loop_
_space_group_symop_operation_xyz
x,y,z
-x,y,-z
-x,-y,-z
x,-y,z
1/2+x,1/2+y,z
1/2-x,1/2+y,-z
1/2-x,1/2-y,-z
1/2+x,1/2-y,z
loop_
_atom_site_type_symbol
_atom_site_label
_atom_site_fract_x
_atom_site_fract_y
_atom_site_fract_z
Si Si1 0.212054 0.780715 0.345611
Si Si2 0.435543 0.221253 0.031697
Si Si3 0.091045 0.721198 0.813968
Si Si4 0.041775 0.279477 0.660758
Si Si5 0.655761 0.779761 0.570668
Si Si6 0.265662 0.208156 0.204955
Si Si7 0.590786 0.791026 0.420650
Si Si8 0.802751 0.714484 0.946205
O O1 0.271337 0.722282 0.403204
O O2 0.230952 0.717273 0.269741
O O3 0.143699 0.715030 0.365772
O O4 0.208634 0.000000 0.346102
O O5 0.431609 0.279888 0.112137
O O6 0.434673 0.000000 0.031925
O O7 0.500000 0.278600 0.000000
O O8 0.371515 0.281286 0.982633
O O9 0.091697 0.500000 0.816056
O O10 0.047781 0.776319 0.742432
O O11 0.164371 0.784288 0.807458
O O12 0.039915 0.500000 0.660526
O O13 0.106526 0.228373 0.626741
O O14 0.977384 0.213913 0.613625
O O15 0.625284 0.713595 0.494027
O O16 0.657860 0.000000 0.569276
O O17 0.221291 0.211531 0.130848
O O18 0.279660 0.000000 0.225823
O O19 0.576737 0.000000 0.437051
O O20 0.807595 0.500000 0.937553
O O21 0.750000 0.750000 0.000000
#
# Coordination Sequence:
#
# PCOD9184858 Si02
#       8
#     8   8   8   8   8   8   8   8
#     4  10  20  34  53  73 101 143 180 209 254 323
#     4   9  18  31  49  77 106 131 165 210 255 300
#     4   9  15  28  50  73  99 132 172 213 253 305
#     4   9  16  28  50  77 101 132 176 222 262 303
#     4   9  16  30  51  75 101 135 179 219 259 309
#     4  10  19  34  55  77 100 136 184 220 250 300
#     4  10  20  31  49  80 111 130 162 225 277 307
#     4  11  21  34  56  83 109 137 171 213 259 307
#
# _framework density 21.978755
#
# number of rings (size 3 to 8) (size 9 to 14) (size 15 to 20)
#    0.000    2.375    2.500    1.125    0.000    3.000 
#    0.000    2.500    0.000    4.500    0.000    0.000 
#    0.000    0.000    0.000    0.000    0.000    0.000 
#
# Total GULP energy -178786.273377 kJ/mol
# GULP energy per Si atom -5587.071043 kJ/mol
# Density = 2.192873 g / cm^3
# Si number density = 21.978755 Si / 1000 Ang^3
#
#
#
# Elastic Constant Matrix: (Units=GPa)
#
#
# Indices 1 2 3 4 5 6 
#
# 1 75.7898 -12.6003 -9.1320 0.0000 1.6086 0.0000
# 2 -12.6003 73.1738 -12.9354 0.0000 1.3956 0.0000
# 3 -9.1320 -12.9354 87.0037 0.0000 0.6262 0.0000
# 4 0.0000 0.0000 0.0000 6.2887 0.0000 -2.9870
# 5 1.6086 1.3956 0.6262 0.0000 32.0029 0.0000
# 6 0.0000 0.0000 0.0000 -2.9870 0.0000 8.7921
#
#
#
# Elastic Compliance Matrix: (Units=1/GPa)
#
#
# Indices 1 2 3 4 5 6 
#
# 1 0.013894 0.002740 0.001872 0.000000 -0.000854 0.000000
# 2 0.002740 0.014589 0.002462 0.000000 -0.000822 0.000000
# 3 0.001872 0.002462 0.012059 0.000000 -0.000437 0.000000
# 4 0.000000 0.000000 0.000000 0.189615 0.000000 0.064420
# 5 -0.000854 -0.000822 -0.000437 0.000000 0.031335 0.000000
# 6 0.000000 0.000000 0.000000 0.064420 0.000000 0.135625
#
#
# Mechanical properties :
#
#
# Convention : Reuss Voigt Hill
#
# Bulk Modulus (GPa) = 18.28506 18.51466 18.39986
# Shear Modulus (GPa) = 12.46266 27.45905 19.96086
#
# Velocity S-wave (km/s) = 2.38383 3.53844 3.01689
# Velocity P-wave (km/s) = 3.98928 5.01361 4.53049
#
# Compressibility (1/GPa) = 0.05468946
#
# Stress axis : x y z
#
# Youngs Moduli (GPa) = 71.97601 68.54560 82.92229
#
# Poissons Ratio (x) = -0.18779 -0.15521
# Poissons Ratio (y) = -0.19719 -0.20419
# Poissons Ratio (z) = -0.13472 -0.16879
#
# Static dielectric constant tensor:
#      x y z
#    x 1.751490 0.000000 0.011170 
#    y 0.000000 1.927810 0.000000 
#    z 0.011170 0.000000 1.770990 
# 
# From -- ./inp_files/281307.got.cif
#   From: 2010.05.17/outbox.cif.g08.bks.cpg/sg12_141_cif.got.tgz:281307.got - 2010.06.03 13:09:07.
