data_PCOD9184388
_publ_section_title
;
Structure prediction by ZEFSAII (Michael W. Deem and Ramdas Pophale) SiO2 
 PCOD9184388
Probable space group: C 2/M
;
_chemical_formula_sum "Si O2"
_cell_formula_units_Z 56
_cell_length_a 14.902066
_cell_length_b 12.099389
_cell_length_c 18.074043
_cell_angle_alpha 90.000000
_cell_angle_beta 117.887664
_cell_angle_gamma 90.000000
_cell_volume 2880.393596
_symmetry_space_group_name_H-M "C 2/M"
_symmetry_group_IT_number 12
_symmetry_cell_setting 'monoclinic'
loop_
_space_group_symop_operation_xyz
x,y,z
-x,y,-z
-x,-y,-z
x,-y,z
1/2+x,1/2+y,z
1/2-x,1/2+y,-z
1/2-x,1/2-y,-z
1/2+x,1/2-y,z
loop_
_atom_site_type_symbol
_atom_site_label
_atom_site_fract_x
_atom_site_fract_y
_atom_site_fract_z
Si Si1 0.012886 0.717004 0.223273
Si Si2 0.990185 0.500000 0.116997
Si Si3 0.881722 0.126247 0.374075
Si Si4 0.781331 0.315019 0.418264
Si Si5 0.699901 0.691941 0.816078
Si Si6 0.330128 0.000000 0.933434
Si Si7 0.080307 0.263487 0.410231
Si Si8 0.807087 0.126352 0.766240
O O1 0.042008 0.684848 0.318764
O O2 0.097045 0.801428 0.224272
O O3 0.004629 0.609001 0.170933
O O4 0.905498 0.778117 0.186202
O O5 0.078317 0.500000 0.089971
O O6 0.882388 0.500000 0.033530
O O7 0.810605 0.190197 0.404329
O O8 0.827355 0.134026 0.272992
O O9 0.987186 0.192843 0.406465
O O10 0.898728 0.000000 0.400547
O O11 0.870948 0.343816 0.509662
O O12 0.674598 0.313804 0.420046
O O13 0.767840 0.374158 0.334485
O O14 0.765003 0.609053 0.890556
O O15 0.756395 0.804426 0.812919
O O16 0.831818 0.000000 0.794432
#
# Coordination Sequence:
#
# PCOD9184388 Si02
#       8
#     8   4   8   8   8   4   8   8
#     4  10  22  39  63  88 119 159 202 241 299 361
#     4  11  24  42  66  93 121 155 192 246 309 367
#     4  10  19  33  60  87 114 155 205 255 294 340
#     4   9  19  34  50  79 121 156 198 246 295 336
#     4  10  21  37  64  91 120 157 197 242 302 362
#     4  11  22  42  70  93 119 150 197 249 303 365
#     4   9  19  34  50  80 121 154 197 245 289 351
#     4  10  21  38  59  86 121 161 203 246 291 350
#
# _framework density 19.441787000000001
#
# number of rings (size 3 to 8) (size 9 to 14) (size 15 to 20)
#    0.000    2.143    2.143    0.429    2.000    5.143 
#    1.286    2.857    0.000    3.429    0.000    0.000 
#    0.000    0.000    0.000    0.000    0.000    0.000 
#
# Total GULP energy -156249.201836 kJ/mol
# GULP energy per Si atom -5580.328637 kJ/mol
# Density = 1.939754 g / cm^3
# Si number density = 19.441787 Si / 1000 Ang^3
#
#
#
# Elastic Constant Matrix: (Units=GPa)
#
#
# Indices 1 2 3 4 5 6 
#
# 1 66.2881 24.3831 25.3095 0.0000 16.9406 0.0000
# 2 24.3831 98.2898 75.3067 0.0000 11.5728 0.0000
# 3 25.3095 75.3067 94.0624 0.0000 18.1608 0.0000
# 4 0.0000 0.0000 0.0000 9.2630 0.0000 0.7474
# 5 16.9406 11.5728 18.1608 0.0000 21.9738 0.0000
# 6 0.0000 0.0000 0.0000 0.7474 0.0000 23.1405
#
#
#
# Elastic Compliance Matrix: (Units=1/GPa)
#
#
# Indices 1 2 3 4 5 6 
#
# 1 0.019750 -0.003188 -0.000174 0.000000 -0.013404 0.000000
# 2 -0.003188 0.027165 -0.022135 0.000000 0.006445 0.000000
# 3 -0.000174 -0.022135 0.031083 0.000000 -0.013897 0.000000
# 4 0.000000 0.000000 0.000000 0.108238 0.000000 -0.003496
# 5 -0.013404 0.006445 -0.013897 0.000000 0.063934 0.000000
# 6 0.000000 0.000000 0.000000 -0.003496 0.000000 0.043327
#
#
# Mechanical properties :
#
#
# Convention : Reuss Voigt Hill
#
# Bulk Modulus (GPa) = 37.03185 56.51543 46.77364
# Shear Modulus (GPa) = 14.14454 19.78487 16.96470
#
# Velocity S-wave (km/s) = 2.70021 3.19352 2.95717
# Velocity P-wave (km/s) = 5.36753 6.53684 5.98083
#
# Compressibility (1/GPa) = 0.02700378
#
# Stress axis : x y z
#
# Youngs Moduli (GPa) = 50.63241 36.81147 32.17202
#
# Poissons Ratio (x) = 0.11735 0.00560
# Poissons Ratio (y) = 0.16142 0.71214
# Poissons Ratio (z) = 0.00881 0.81483
#
# Static dielectric constant tensor:
#      x y z
#    x 1.668270 0.000000 0.015000 
#    y 0.000000 1.639320 0.000000 
#    z 0.015000 0.000000 1.722150 
# 
# From -- ./inp_files/269219.got.cif
#   From: 2010.05.17/outbox.cif.g08.bks.cpg/sg12_135_cif.got.tgz:269219.got - 2010.06.03 13:09:07.
