data_PCOD9184205
_publ_section_title
;
Structure prediction by ZEFSAII (Michael W. Deem and Ramdas Pophale) SiO2 
 PCOD9184205
Probable space group: C 2/M
;
_chemical_formula_sum "Si O2"
_cell_formula_units_Z 64
_cell_length_a 25.921039
_cell_length_b 8.617995
_cell_length_c 23.545148
_cell_angle_alpha 90.000000
_cell_angle_beta 141.373339
_cell_angle_gamma 90.000000
_cell_volume 3283.325048
_symmetry_space_group_name_H-M "C 2/M"
_symmetry_group_IT_number 12
_symmetry_cell_setting 'monoclinic'
loop_
_space_group_symop_operation_xyz
x,y,z
-x,y,-z
-x,-y,-z
x,-y,z
1/2+x,1/2+y,z
1/2-x,1/2+y,-z
1/2-x,1/2-y,-z
1/2+x,1/2-y,z
loop_
_atom_site_type_symbol
_atom_site_label
_atom_site_fract_x
_atom_site_fract_y
_atom_site_fract_z
Si Si1 0.217595 0.183860 0.812064
Si Si2 0.748954 0.812253 0.285528
Si Si3 0.929458 0.810757 0.483256
Si Si4 0.463919 0.182729 0.194075
Si Si5 0.668086 0.313659 0.004507
Si Si6 0.602951 0.673912 0.235382
Si Si7 0.461573 0.675542 0.020095
Si Si8 0.030194 0.815535 0.675861
O O1 0.257632 0.240515 0.786527
O O2 0.244423 0.260296 0.895341
O O3 0.118919 0.204427 0.721683
O O4 0.233643 0.000000 0.830853
O O5 0.838610 0.762099 0.385928
O O6 0.679606 0.754857 0.269919
O O7 0.746554 0.000000 0.281816
O O8 0.000000 0.759281 0.500000
O O9 0.958642 0.764214 0.571179
O O10 0.929844 0.000000 0.482702
O O11 0.381616 0.254169 0.092961
O O12 0.548799 0.241943 0.237205
O O13 0.467903 0.229638 0.262893
O O14 0.458425 0.000000 0.181757
O O15 0.665537 0.500000 0.999825
O O16 0.612344 0.251439 0.009133
O O17 0.625958 0.500000 0.274109
O O18 0.534835 0.660117 0.127446
O O19 0.434655 0.500000 0.979359
O O20 0.500000 0.761483 0.000000
O O21 0.021025 0.000000 0.678996
#
# Coordination Sequence:
#
# PCOD9184205 Si02
#       8
#     8   8   8   8   8   8   8   8
#     4  10  20  33  54  86 120 150 186 233 283 335
#     4  10  19  33  57  90 121 147 184 233 283 335
#     4   9  16  33  61  89 115 148 187 227 278 339
#     4  11  23  40  59  80 111 149 193 241 286 331
#     4  10  20  34  53  78 111 151 193 233 277 333
#     4  10  20  35  55  80 112 151 190 229 281 339
#     4   8  14  26  45  69  98 135 178 220 264 319
#     4  10  20  37  61  85 112 150 193 233 279 339
#
# _framework density 19.492433999999999
#
# number of rings (size 3 to 8) (size 9 to 14) (size 15 to 20)
#    0.000    2.250    1.250    3.375    0.000    2.500 
#    0.000    1.250    0.000    6.750    0.000    0.000 
#    0.000    0.000    0.000    0.000    0.000    0.000 
#
# Total GULP energy -178264.240828 kJ/mol
# GULP energy per Si atom -5570.757526 kJ/mol
# Density = 1.944807 g / cm^3
# Si number density = 19.492434 Si / 1000 Ang^3
#
#
#
# Elastic Constant Matrix: (Units=GPa)
#
#
# Indices 1 2 3 4 5 6 
#
# 1 45.7815 24.1075 33.2232 -0.0001 -10.6931 -0.0001
# 2 24.1075 55.6369 30.6940 -0.0002 -4.8480 -0.0003
# 3 33.2232 30.6940 113.0063 0.0000 -9.9871 0.0000
# 4 -0.0001 -0.0002 0.0000 -314.6193 0.0000 -356.9074
# 5 -10.6931 -4.8480 -9.9871 0.0000 31.8048 0.0000
# 6 -0.0001 -0.0003 0.0000 -356.9074 0.0000 -360.4765
#
#
#
# Elastic Compliance Matrix: (Units=1/GPa)
#
#
# Indices 1 2 3 4 5 6 
#
# 1 0.033807 -0.010430 -0.006420 0.000000 0.007760 0.000000
# 2 -0.010430 0.024426 -0.003650 0.000000 -0.000930 0.000000
# 3 -0.006420 -0.003650 0.011816 0.000000 0.000995 0.000000
# 4 0.000000 0.000000 0.000000 0.025803 0.000000 -0.025548
# 5 0.007760 -0.000930 0.000995 0.000000 0.034222 0.000000
# 6 0.000000 0.000000 0.000000 -0.025548 0.000000 0.022521
#
#
# Mechanical properties :
#
#
# Convention : Reuss Voigt Hill
#
# Bulk Modulus (GPa) = 34.42649 43.38601 38.90625
# Shear Modulus (GPa) = 24.59677 -120.23151 -47.81737
#
# Velocity S-wave (km/s) = 3.55612 -7.86225 -4.95828
# Velocity P-wave (km/s) = 5.87887 7.75331 3.57440
#
# Compressibility (1/GPa) = 0.02904740
#
# Stress axis : x y z
#
# Youngs Moduli (GPa) = 29.57971 40.94019 84.63147
#
# Poissons Ratio (x) = 0.42702 0.54335
# Poissons Ratio (y) = 0.30853 0.30891
# Poissons Ratio (z) = 0.18991 0.14943
#
# Static dielectric constant tensor:
#      x y z
#    x 1.751530 0.000000 0.016200 
#    y 0.000000 1.686560 0.000000 
#    z 0.016200 0.000000 1.710890 
# 
# From -- ./inp_files/346302.got.cif
#   From: 2010.05.17/outbox.cif.g08.bks.cpg/sg12_174_cif.got.tgz:346302.got - 2010.06.03 13:09:07.
