data_PCOD9184806
_publ_section_title
;
Structure prediction by ZEFSAII (Michael W. Deem and Ramdas Pophale) SiO2 
 PCOD9184806
Probable space group: C 2/M
;
_chemical_formula_sum "Si O2"
_cell_formula_units_Z 48
_cell_length_a 8.682977
_cell_length_b 30.969988
_cell_length_c 18.530775
_cell_angle_alpha 90.000000
_cell_angle_beta 146.820270
_cell_angle_gamma 90.000000
_cell_volume 2727.110019
_symmetry_space_group_name_H-M "C 2/M"
_symmetry_group_IT_number 12
_symmetry_cell_setting 'monoclinic'
loop_
_space_group_symop_operation_xyz
x,y,z
-x,y,-z
-x,-y,-z
x,-y,z
1/2+x,1/2+y,z
1/2-x,1/2+y,-z
1/2-x,1/2-y,-z
1/2+x,1/2-y,z
loop_
_atom_site_type_symbol
_atom_site_label
_atom_site_fract_x
_atom_site_fract_y
_atom_site_fract_z
Si Si1 0.985539 0.735080 0.348529
Si Si2 0.101170 0.120957 0.397387
Si Si3 0.233146 0.386031 0.849985
Si Si4 0.791718 0.949760 0.349669
Si Si5 0.776313 0.355330 0.313286
Si Si6 0.831666 0.311221 0.725973
O O1 0.831985 0.695629 0.328469
O O2 0.768520 0.774971 0.256406
O O3 0.250000 0.750000 0.500000
O O4 0.107622 0.715503 0.322765
O O5 0.420705 0.123347 0.549603
O O6 0.087994 0.134783 0.308788
O O7 0.962158 0.074592 0.353720
O O8 0.928151 0.155258 0.377799
O O9 0.314283 0.372246 0.800439
O O10 0.992617 0.422488 0.750778
O O11 0.095915 0.343755 0.835689
O O12 0.500000 0.400671 0.000000
O O13 0.000000 0.945997 0.500000
O O14 0.736849 0.000000 0.314886
#
# Coordination Sequence:
#
# PCOD9184806 Si02
#       6
#     8   8   8   8   8   8
#     4  11  19  27  49  81 111 140 191 237 273 315
#     4  10  19  34  54  83 115 143 182 231 289 328
#     4  10  22  40  60  81 112 153 189 225 278 343
#     4  10  20  37  62  88 113 142 181 232 286 337
#     4  10  20  33  54  83 116 147 186 232 276 329
#     4  10  21  32  50  79 110 149 186 235 278 323
#
# _framework density 17.601050000000001
#
# number of rings (size 3 to 8) (size 9 to 14) (size 15 to 20)
#    0.000    1.833    3.333    1.500    4.667    0.333 
#    0.000    9.167    0.000    1.000    0.000    0.000 
#    0.000    0.000    0.000    0.000    0.000    0.000 
#
# Total GULP energy -133800.112034 kJ/mol
# GULP energy per Si atom -5575.004668 kJ/mol
# Density = 1.756099 g / cm^3
# Si number density = 17.601050 Si / 1000 Ang^3
#
#
#
# Elastic Constant Matrix: (Units=GPa)
#
#
# Indices 1 2 3 4 5 6 
#
# 1 92.0779 47.1151 18.9353 0.0000 -2.2324 0.0000
# 2 47.1151 132.1772 33.9855 0.0000 1.1845 0.0000
# 3 18.9353 33.9855 67.4077 0.0000 -2.1148 0.0000
# 4 0.0000 0.0000 0.0000 10.1426 0.0000 -3.1264
# 5 -2.2324 1.1845 -2.1148 0.0000 14.3974 0.0000
# 6 0.0000 0.0000 0.0000 -3.1264 0.0000 21.7392
#
#
#
# Elastic Compliance Matrix: (Units=1/GPa)
#
#
# Indices 1 2 3 4 5 6 
#
# 1 0.013496 -0.004451 -0.001477 0.000000 0.002242 0.000000
# 2 -0.004451 0.010187 -0.003952 0.000000 -0.002109 0.000000
# 3 -0.001477 -0.003952 0.017325 0.000000 0.002641 0.000000
# 4 0.000000 0.000000 0.000000 0.103167 0.000000 0.014837
# 5 0.002242 -0.002109 0.002641 0.000000 0.070366 0.000000
# 6 0.000000 0.000000 0.000000 0.014837 0.000000 0.048134
#
#
# Mechanical properties :
#
#
# Convention : Reuss Voigt Hill
#
# Bulk Modulus (GPa) = 47.06101 54.63718 50.84909
# Shear Modulus (GPa) = 17.27008 22.03096 19.65052
#
# Velocity S-wave (km/s) = 3.13580 3.54175 3.34494
# Velocity P-wave (km/s) = 6.31717 6.91627 6.62350
#
# Compressibility (1/GPa) = 0.02124901
#
# Stress axis : x y z
#
# Youngs Moduli (GPa) = 74.09630 98.16190 57.71917
#
# Poissons Ratio (x) = 0.43693 0.08523
# Poissons Ratio (y) = 0.32981 0.22811
# Poissons Ratio (z) = 0.10941 0.38794
#
# Static dielectric constant tensor:
#      x y z
#    x 1.646060 0.000000 0.003290 
#    y 0.000000 1.612760 0.000000 
#    z 0.003290 0.000000 1.585610 
# 
# From -- ./inp_files/170830.got.cif
#   From: 2010.05.17/outbox.cif.g08.bks.cpg/sg12_86_cif.got.tgz:170830.got - 2010.06.03 13:09:07.
