data_PCOD9184406
_publ_section_title
;
Structure prediction by ZEFSAII (Michael W. Deem and Ramdas Pophale) SiO2 
 PCOD9184406
Probable space group: C 2/M
;
_chemical_formula_sum "Si O2"
_cell_formula_units_Z 56
_cell_length_a 10.640667
_cell_length_b 18.366543
_cell_length_c 15.265622
_cell_angle_alpha 90.000000
_cell_angle_beta 113.565015
_cell_angle_gamma 90.000000
_cell_volume 2734.600899
_symmetry_space_group_name_H-M "C 2/M"
_symmetry_group_IT_number 12
_symmetry_cell_setting 'monoclinic'
loop_
_space_group_symop_operation_xyz
x,y,z
-x,y,-z
-x,-y,-z
x,-y,z
1/2+x,1/2+y,z
1/2-x,1/2+y,-z
1/2-x,1/2-y,-z
1/2+x,1/2-y,z
loop_
_atom_site_type_symbol
_atom_site_label
_atom_site_fract_x
_atom_site_fract_y
_atom_site_fract_z
Si Si1 0.836930 0.728483 0.939794
Si Si2 0.869287 0.912366 0.647276
Si Si3 0.618840 0.863933 0.458314
Si Si4 0.772551 0.317335 0.247384
Si Si5 0.002016 0.419981 0.250961
Si Si6 0.512553 0.285063 0.604224
Si Si7 0.864344 0.422894 0.900322
O O1 0.817960 0.777154 0.848747
O O2 0.783297 0.647785 0.903337
O O3 0.750000 0.750000 0.000000
O O4 0.000000 0.726032 0.000000
O O5 0.756838 0.891330 0.541492
O O6 0.802844 0.878975 0.716987
O O7 0.991909 0.856412 0.657466
O O8 0.892571 0.000000 0.656103
O O9 0.500000 0.872622 0.500000
O O10 0.587688 0.910713 0.363721
O O11 0.602909 0.779670 0.422138
O O12 0.891337 0.356831 0.225388
O O13 0.849045 0.258695 0.331666
O O14 0.936153 0.500000 0.232842
O O15 0.087923 0.414814 0.186458
O O16 0.500000 0.308095 0.500000
O O17 0.791527 0.500000 0.890930
O O18 0.000000 0.425198 0.000000
#
# Coordination Sequence:
#
# PCOD9184406 Si02
#       7
#     8   8   8   8   8   8   8
#     4  11  25  44  70 100 125 168 223 274 329 402
#     4  12  24  37  62  93 131 173 215 271 332 390
#     4  10  19  36  59  90 127 171 220 270 312 389
#     4  11  23  38  66  89 128 171 212 268 325 402
#     4  10  19  33  60  94 127 167 218 272 326 380
#     4  10  22  40  59  91 125 172 216 263 321 393
#     4   9  19  37  62  90 121 156 207 273 325 374
#
# _framework density 20.478308999999999
#
# number of rings (size 3 to 8) (size 9 to 14) (size 15 to 20)
#    0.000    1.571    4.286    3.000    6.000    0.857 
#    0.000    1.429    0.000    2.143    0.000    0.000 
#    0.000    0.000    0.000    0.000    0.000    0.000 
#
# Total GULP energy -156184.122840 kJ/mol
# GULP energy per Si atom -5578.004387 kJ/mol
# Density = 2.043170 g / cm^3
# Si number density = 20.478309 Si / 1000 Ang^3
#
#
#
# Elastic Constant Matrix: (Units=GPa)
#
#
# Indices 1 2 3 4 5 6 
#
# 1 42.2321 35.2488 18.6355 0.0000 -14.9854 0.0000
# 2 35.2488 161.4536 47.6813 0.0000 -24.6376 0.0000
# 3 18.6355 47.6813 99.3652 0.0000 -8.5508 0.0000
# 4 0.0000 0.0000 0.0000 30.7980 0.0000 -15.7793
# 5 -14.9854 -24.6376 -8.5508 0.0000 19.2058 0.0000
# 6 0.0000 0.0000 0.0000 -15.7793 0.0000 25.2583
#
#
#
# Elastic Compliance Matrix: (Units=1/GPa)
#
#
# Indices 1 2 3 4 5 6 
#
# 1 0.035825 -0.003538 -0.003126 0.000000 0.022023 0.000000
# 2 -0.003538 0.008989 -0.003011 0.000000 0.007431 0.000000
# 3 -0.003126 -0.003011 0.012013 0.000000 -0.000953 0.000000
# 4 0.000000 0.000000 0.000000 0.047754 0.000000 0.029833
# 5 0.022023 0.007431 -0.000953 0.000000 0.078359 0.000000
# 6 0.000000 0.000000 0.000000 0.029833 0.000000 0.058228
#
#
# Mechanical properties :
#
#
# Convention : Reuss Voigt Hill
#
# Bulk Modulus (GPa) = 26.68189 56.24243 41.46216
# Shear Modulus (GPa) = 18.31432 28.48479 23.39956
#
# Velocity S-wave (km/s) = 2.99378 3.73362 3.38398
# Velocity P-wave (km/s) = 5.00079 6.79048 5.96316
#
# Compressibility (1/GPa) = 0.03747860
#
# Stress axis : x y z
#
# Youngs Moduli (GPa) = 27.91329 111.24592 83.24428
#
# Poissons Ratio (x) = 0.39353 0.26024
# Poissons Ratio (y) = 0.09874 0.25062
# Poissons Ratio (z) = 0.08726 0.33492
#
# Static dielectric constant tensor:
#      x y z
#    x 1.771550 0.000000 0.010600 
#    y 0.000000 1.756620 0.000000 
#    z 0.010600 0.000000 1.759890 
# 
# From -- ./inp_files/206263.got.cif
#   From: 2010.05.17/outbox.cif.g08.bks.cpg/sg12_104_cif.got.tgz:206263.got - 2010.06.03 13:09:07.
