data_PCOD9184093
_publ_section_title
;
Structure prediction by ZEFSAII (Michael W. Deem and Ramdas Pophale) SiO2 
 PCOD9184093
Probable space group: C 2/M
;
_chemical_formula_sum "Si O2"
_cell_formula_units_Z 64
_cell_length_a 15.120646
_cell_length_b 7.832947
_cell_length_c 23.952800
_cell_angle_alpha 90.000000
_cell_angle_beta 85.335669
_cell_angle_gamma 90.000000
_cell_volume 2827.555515
_symmetry_space_group_name_H-M "C 2/M"
_symmetry_group_IT_number 12
_symmetry_cell_setting 'monoclinic'
loop_
_space_group_symop_operation_xyz
x,y,z
-x,y,-z
-x,-y,-z
x,-y,z
1/2+x,1/2+y,z
1/2-x,1/2+y,-z
1/2-x,1/2-y,-z
1/2+x,1/2-y,z
loop_
_atom_site_type_symbol
_atom_site_label
_atom_site_fract_x
_atom_site_fract_y
_atom_site_fract_z
Si Si1 0.446331 0.709030 0.948838
Si Si2 0.599645 0.298973 0.862897
Si Si3 0.777988 0.206287 0.897931
Si Si4 0.451316 0.801173 0.247479
Si Si5 0.789204 0.706005 0.438153
Si Si6 0.540365 0.794438 0.628988
Si Si7 0.149981 0.198440 0.224012
Si Si8 0.337100 0.703410 0.653808
O O1 0.445964 0.500000 0.950871
O O2 0.506621 0.761456 0.893073
O O3 0.345945 0.765590 0.942160
O O4 0.500000 0.768820 0.000000
O O5 0.594499 0.500000 0.855765
O O6 0.676368 0.260632 0.903372
O O7 0.614643 0.222490 0.800827
O O8 0.813562 0.271283 0.835733
O O9 0.780899 0.000000 0.897862
O O10 0.421626 0.751086 0.311057
O O11 0.542841 0.705179 0.229401
O O12 0.474412 0.000000 0.249231
O O13 0.790694 0.500000 0.434466
O O14 0.750000 0.750000 0.500000
O O15 0.889391 0.766448 0.420446
O O16 0.725954 0.770949 0.391548
O O17 0.440193 0.728284 0.632359
O O18 0.534694 0.000000 0.625450
O O19 0.176824 0.274739 0.282768
O O20 0.176876 0.000000 0.222611
O O21 0.321556 0.500000 0.658570
#
# Coordination Sequence:
#
# PCOD9184093 Si02
#       8
#     8   8   8   8   8   8   8   8
#     4   9  19  38  60  79 109 153 192 227 273 332
#     4  11  22  36  55  84 115 147 187 232 279 328
#     4  10  20  35  57  84 112 149 189 225 277 334
#     4  10  19  33  57  84 114 147 183 227 278 335
#     4  10  22  39  57  79 108 147 186 225 270 326
#     4   9  20  37  57  81 111 145 182 224 276 328
#     4   9  17  33  57  82 112 147 183 225 277 334
#     4   9  19  35  57  81 109 143 183 226 273 324
#
# _framework density 22.634391999999998
#
# number of rings (size 3 to 8) (size 9 to 14) (size 15 to 20)
#    0.000    2.375    1.250    0.750    1.750    3.000 
#    0.000    2.500    0.000    2.625    0.000    0.000 
#    0.000    0.000    0.000    0.000    0.000    0.000 
#
# Total GULP energy -178644.697706 kJ/mol
# GULP energy per Si atom -5582.646803 kJ/mol
# Density = 2.258288 g / cm^3
# Si number density = 22.634392 Si / 1000 Ang^3
#
#
#
# Elastic Constant Matrix: (Units=GPa)
#
#
# Indices 1 2 3 4 5 6 
#
# 1 47.3695 -2.9013 -9.2327 0.0000 18.3525 0.0000
# 2 -2.9013 28.3995 2.9385 0.0000 0.5781 0.0000
# 3 -9.2327 2.9385 46.7351 0.0000 15.2980 0.0000
# 4 0.0000 0.0000 0.0000 10.5527 0.0000 6.1413
# 5 18.3525 0.5781 15.2980 0.0000 31.4992 0.0000
# 6 0.0000 0.0000 0.0000 6.1413 0.0000 19.1758
#
#
#
# Elastic Compliance Matrix: (Units=1/GPa)
#
#
# Indices 1 2 3 4 5 6 
#
# 1 0.035516 0.002532 0.016225 0.000000 -0.028619 0.000000
# 2 0.002532 0.035630 -0.001240 0.000000 -0.001527 0.000000
# 3 0.016225 -0.001240 0.033016 0.000000 -0.025465 0.000000
# 4 0.000000 0.000000 0.000000 0.116471 0.000000 -0.037302
# 5 -0.028619 -0.001527 -0.025465 0.000000 0.060817 0.000000
# 6 0.000000 0.000000 0.000000 -0.037302 0.000000 0.064096
#
#
# Mechanical properties :
#
#
# Convention : Reuss Voigt Hill
#
# Bulk Modulus (GPa) = 7.18407 11.56812 9.37610
# Shear Modulus (GPa) = 14.00910 21.02551 17.51731
#
# Velocity S-wave (km/s) = 2.49053 3.05112 2.78497
# Velocity P-wave (km/s) = 3.38396 4.18741 3.80694
#
# Compressibility (1/GPa) = 0.13919679
#
# Stress axis : x y z
#
# Youngs Moduli (GPa) = 28.15615 28.06622 30.28819
#
# Poissons Ratio (x) = -0.07107 -0.49143
# Poissons Ratio (y) = -0.07130 0.03756
# Poissons Ratio (z) = -0.45684 0.03481
#
# Static dielectric constant tensor:
#      x y z
#    x 1.846240 0.000000 0.014850 
#    y 0.000000 1.824950 0.000000 
#    z 0.014850 0.000000 1.865730 
# 
# From -- ./inp_files/338760.got.cif
#   From: 2010.05.17/outbox.cif.g08.bks.cpg/sg12_170_cif.got.tgz:338760.got - 2010.06.03 13:09:07.
