data_PCOD9184759
_publ_section_title
;
Structure prediction by ZEFSAII (Michael W. Deem and Ramdas Pophale) SiO2 
 PCOD9184759
Probable space group: C 2/M
;
_chemical_formula_sum "Si O2"
_cell_formula_units_Z 64
_cell_length_a 9.584648
_cell_length_b 20.103444
_cell_length_c 22.106657
_cell_angle_alpha 90.000000
_cell_angle_beta 124.830165
_cell_angle_gamma 90.000000
_cell_volume 3496.493952
_symmetry_space_group_name_H-M "C 2/M"
_symmetry_group_IT_number 12
_symmetry_cell_setting 'monoclinic'
loop_
_space_group_symop_operation_xyz
x,y,z
-x,y,-z
-x,-y,-z
x,-y,z
1/2+x,1/2+y,z
1/2-x,1/2+y,-z
1/2-x,1/2-y,-z
1/2+x,1/2-y,z
loop_
_atom_site_type_symbol
_atom_site_label
_atom_site_fract_x
_atom_site_fract_y
_atom_site_fract_z
Si Si1 0.038168 0.576845 0.835820
Si Si2 0.982939 0.788432 0.340300
Si Si3 0.650456 0.573461 0.710115
Si Si4 0.190657 0.928714 0.574513
Si Si5 0.871998 0.353245 0.020086
Si Si6 0.686555 0.717526 0.573943
Si Si7 0.673628 0.200637 0.801297
Si Si8 0.065737 0.780372 0.893286
O O1 0.074130 0.500000 0.831212
O O2 0.117410 0.599439 0.919266
O O3 0.106003 0.628342 0.802990
O O4 0.833424 0.584608 0.786446
O O5 0.964955 0.862222 0.308294
O O6 0.852694 0.783393 0.363981
O O7 0.929614 0.733747 0.278360
O O8 0.174111 0.772087 0.407707
O O9 0.585793 0.500000 0.711871
O O10 0.680027 0.570932 0.644779
O O11 0.257673 0.855864 0.573625
O O12 0.000000 0.928941 0.500000
O O13 0.270743 0.000000 0.575978
O O14 0.932839 0.280210 0.058070
O O15 0.685131 0.339064 0.947518
O O16 0.000000 0.376641 0.000000
O O17 0.500000 0.727513 0.500000
O O18 0.644098 0.248011 0.852331
O O19 0.872461 0.198884 0.835631
#
# Coordination Sequence:
#
# PCOD9184759 Si02
#       8
#     8   8   8   8   8   8   8   8
#     4  10  22  37  55  79 110 147 186 233 287 339
#     4  11  20  34  56  82 107 145 187 224 279 334
#     4   9  18  33  52  76 104 138 179 225 270 327
#     4   8  14  27  49  76 104 137 178 219 261 312
#     4  10  19  34  54  79 109 143 181 225 285 338
#     4  10  20  33  52  82 118 148 182 231 278 326
#     4  11  20  35  56  83 109 142 188 239 275 333
#     4  10  20  32  54  81 109 137 180 235 282 325
#
# _framework density 18.30405
#
# number of rings (size 3 to 8) (size 9 to 14) (size 15 to 20)
#    0.000    2.125    1.250    4.125    0.000    0.250 
#    0.000    1.250    0.000    4.125    0.000    0.000 
#    0.000    0.000    0.000    0.000    0.000    0.000 
#
# Total GULP energy -178397.790972 kJ/mol
# GULP energy per Si atom -5574.930968 kJ/mol
# Density = 1.826239 g / cm^3
# Si number density = 18.304050 Si / 1000 Ang^3
#
#
#
# Elastic Constant Matrix: (Units=GPa)
#
#
# Indices 1 2 3 4 5 6 
#
# 1 45.3472 29.6045 10.2906 0.0000 10.3553 0.0000
# 2 29.6045 128.3162 33.9736 0.0000 22.4507 0.0000
# 3 10.2906 33.9736 73.3260 0.0000 7.1889 0.0000
# 4 0.0000 0.0000 0.0000 29.4807 0.0000 5.5140
# 5 10.3553 22.4507 7.1889 0.0000 28.6270 0.0000
# 6 0.0000 0.0000 0.0000 5.5140 0.0000 13.5986
#
#
#
# Elastic Compliance Matrix: (Units=1/GPa)
#
#
# Indices 1 2 3 4 5 6 
#
# 1 0.026768 -0.004961 -0.000913 0.000000 -0.005563 0.000000
# 2 -0.004961 0.010971 -0.003813 0.000000 -0.005852 0.000000
# 3 -0.000913 -0.003813 0.015591 0.000000 -0.000594 0.000000
# 4 0.000000 0.000000 0.000000 0.036704 0.000000 -0.014883
# 5 -0.005563 -0.005852 -0.000594 0.000000 0.041683 0.000000
# 6 0.000000 0.000000 0.000000 -0.014883 0.000000 0.079572
#
#
# Mechanical properties :
#
#
# Convention : Reuss Voigt Hill
#
# Bulk Modulus (GPa) = 29.44936 43.85856 36.65396
# Shear Modulus (GPa) = 20.66266 25.88263 23.27264
#
# Velocity S-wave (km/s) = 3.36349 3.76445 3.56961
# Velocity P-wave (km/s) = 5.58641 6.55041 6.08753
#
# Compressibility (1/GPa) = 0.03395660
#
# Stress axis : x y z
#
# Youngs Moduli (GPa) = 37.35774 91.14665 64.13996
#
# Poissons Ratio (x) = 0.45216 0.05855
# Poissons Ratio (y) = 0.18532 0.24459
# Poissons Ratio (z) = 0.03410 0.34757
#
# Static dielectric constant tensor:
#      x y z
#    x 1.612510 0.000000 -0.013730 
#    y 0.000000 1.656840 0.000000 
#    z -0.013730 0.000000 1.669240 
# 
# From -- ./inp_files/301766.got.cif
#   From: 2010.05.17/outbox.cif.g08.bks.cpg/sg12_151_cif.got.tgz:301766.got - 2010.06.03 13:09:07.
