data_PCOD9184981
_publ_section_title
;
Structure prediction by ZEFSAII (Michael W. Deem and Ramdas Pophale) SiO2 
 PCOD9184981
Probable space group: C 2/M
;
_chemical_formula_sum "Si O2"
_cell_formula_units_Z 48
_cell_length_a 16.996800
_cell_length_b 16.123431
_cell_length_c 15.306768
_cell_angle_alpha 90.000000
_cell_angle_beta 35.791697
_cell_angle_gamma 90.000000
_cell_volume 2453.269701
_symmetry_space_group_name_H-M "C 2/M"
_symmetry_group_IT_number 12
_symmetry_cell_setting 'monoclinic'
loop_
_space_group_symop_operation_xyz
x,y,z
-x,y,-z
-x,-y,-z
x,-y,z
1/2+x,1/2+y,z
1/2-x,1/2+y,-z
1/2-x,1/2-y,-z
1/2+x,1/2-y,z
loop_
_atom_site_type_symbol
_atom_site_label
_atom_site_fract_x
_atom_site_fract_y
_atom_site_fract_z
Si Si1 0.187287 0.313615 0.628317
Si Si2 0.925605 0.097634 0.841015
Si Si3 0.940642 0.599396 0.408656
Si Si4 0.255535 0.899285 0.843403
Si Si5 0.543682 0.399724 0.556561
Si Si6 0.834779 0.842643 0.255176
O O1 0.250000 0.250000 0.500000
O O2 0.081357 0.367345 0.669803
O O3 0.306579 0.370389 0.556265
O O4 0.136569 0.253440 0.749976
O O5 0.953302 0.132265 0.719345
O O6 0.060276 0.108500 0.778168
O O7 0.901210 0.000000 0.851466
O O8 0.805130 0.130189 0.009629
O O9 0.931908 0.500000 0.419090
O O10 0.816406 0.634441 0.576513
O O11 0.088499 0.624436 0.307216
O O12 0.165480 0.865862 0.845544
O O13 0.249216 0.000000 0.846226
O O14 0.500000 0.370440 0.500000
O O15 0.539152 0.500000 0.560902
#
# Coordination Sequence:
#
# PCOD9184981 Si02
#       6
#     8   8   8   8   8   8
#     4  10  20  33  55  78 110 144 184 225 272 315
#     4  10  19  35  58  84 113 143 180 230 276 325
#     4  10  19  34  55  80 112 147 186 226 270 324
#     4  10  21  34  56  87 115 143 177 224 281 333
#     4  10  20  36  61  84 104 142 195 235 266 314
#     4  11  20  33  55  83 115 148 182 220 275 332
#
# _framework density 19.565725
#
# number of rings (size 3 to 8) (size 9 to 14) (size 15 to 20)
#    0.000    1.833    3.333    3.000    0.000    5.333 
#    0.000    0.833    3.667    0.000    0.000    5.833 
#    0.000    0.000    0.000    0.000    0.000    0.000 
#
# Total GULP energy -133872.697564 kJ/mol
# GULP energy per Si atom -5578.029065 kJ/mol
# Density = 1.952119 g / cm^3
# Si number density = 19.565725 Si / 1000 Ang^3
#
#
#
# Elastic Constant Matrix: (Units=GPa)
#
#
# Indices 1 2 3 4 5 6 
#
# 1 106.4831 4.6691 22.1320 0.0000 12.1411 0.0000
# 2 4.6691 11.1092 6.0709 0.0000 8.8875 0.0000
# 3 22.1320 6.0709 46.7689 0.0000 5.3048 0.0000
# 4 0.0000 0.0000 0.0000 6.8770 0.0000 24.8015
# 5 12.1411 8.8875 5.3048 0.0000 29.5517 0.0000
# 6 0.0000 0.0000 0.0000 24.8015 0.0000 -21.1756
#
#
#
# Elastic Compliance Matrix: (Units=1/GPa)
#
#
# Indices 1 2 3 4 5 6 
#
# 1 0.010788 0.001256 -0.004821 0.000000 -0.003944 0.000000
# 2 0.001256 0.125159 -0.012773 0.000000 -0.035864 0.000000
# 3 -0.004821 -0.012773 0.025173 0.000000 0.001303 0.000000
# 4 0.000000 0.000000 0.000000 0.027836 0.000000 0.032602
# 5 -0.003944 -0.035864 0.001303 0.000000 0.046011 0.000000
# 6 0.000000 0.000000 0.000000 0.032602 0.000000 -0.009040
#
#
# Mechanical properties :
#
#
# Convention : Reuss Voigt Hill
#
# Bulk Modulus (GPa) = 7.78545 25.56724 16.67635
# Shear Modulus (GPa) = 16.58831 11.81657 14.20244
#
# Velocity S-wave (km/s) = 2.91490 2.46019 2.69715
# Velocity P-wave (km/s) = 3.91365 4.60063 4.27097
#
# Compressibility (1/GPa) = 0.12844464
#
# Stress axis : x y z
#
# Youngs Moduli (GPa) = 92.69745 7.98984 39.72481
#
# Poissons Ratio (x) = -0.01003 0.19150
# Poissons Ratio (y) = -0.11642 0.50740
# Poissons Ratio (z) = 0.44686 0.10205
#
# Static dielectric constant tensor:
#      x y z
#    x 1.691210 0.000000 0.036770 
#    y 0.000000 1.691430 0.000000 
#    z 0.036770 0.000000 1.734190 
# 
# From -- ./inp_files/216228.got.cif
#   From: 2010.05.17/outbox.cif.g08.bks.cpg/sg12_109_cif.got.tgz:216228.got - 2010.06.03 13:09:07.
