data_PCOD9184793
_publ_section_title
;
Structure prediction by ZEFSAII (Michael W. Deem and Ramdas Pophale) SiO2 
 PCOD9184793
Probable space group: C 2/M
;
_chemical_formula_sum "Si O2"
_cell_formula_units_Z 64
_cell_length_a 19.626430
_cell_length_b 21.416676
_cell_length_c 9.919606
_cell_angle_alpha 90.000000
_cell_angle_beta 126.904937
_cell_angle_gamma 90.000000
_cell_volume 3334.098788
_symmetry_space_group_name_H-M "C 2/M"
_symmetry_group_IT_number 12
_symmetry_cell_setting 'monoclinic'
loop_
_space_group_symop_operation_xyz
x,y,z
-x,y,-z
-x,-y,-z
x,-y,z
1/2+x,1/2+y,z
1/2-x,1/2+y,-z
1/2-x,1/2-y,-z
1/2+x,1/2-y,z
loop_
_atom_site_type_symbol
_atom_site_label
_atom_site_fract_x
_atom_site_fract_y
_atom_site_fract_z
Si Si1 0.812593 0.932158 0.551464
Si Si2 0.420312 0.678195 0.305795
Si Si3 0.243130 0.770781 0.333402
Si Si4 0.189199 0.573828 0.902894
Si Si5 0.254533 0.140274 0.767857
Si Si6 0.328067 0.398557 0.847551
Si Si7 0.514106 0.427758 0.812766
Si Si8 0.902067 0.311168 0.341365
O O1 0.756932 0.887981 0.393620
O O2 0.782792 0.933306 0.669843
O O3 0.912720 0.915742 0.684859
O O4 0.808731 0.000000 0.482467
O O5 0.500000 0.683766 0.500000
O O6 0.341004 0.649320 0.290089
O O7 0.446956 0.629109 0.225945
O O8 0.396661 0.749423 0.238906
O O9 0.250000 0.750000 0.500000
O O10 0.212462 0.710178 0.214051
O O11 0.181026 0.827436 0.216266
O O12 0.335865 0.792783 0.383978
O O13 0.169205 0.500000 0.870814
O O14 0.276302 0.586868 0.922091
O O15 0.126736 0.624239 0.759776
O O16 0.199729 0.596567 0.069667
O O17 0.423801 0.422857 0.983720
O O18 0.524607 0.500000 0.776589
O O19 0.000000 0.317372 0.500000
#
# Coordination Sequence:
#
# PCOD9184793 Si02
#       8
#     8   8   8   8   8   8   8   8
#     4  11  22  35  52  80 120 164 195 231 288 350
#     4  10  19  34  54  81 114 154 193 236 289 348
#     4  10  21  39  62  89 116 153 201 246 299 351
#     4  11  23  38  60  88 113 149 199 250 301 354
#     4  11  21  35  57  84 114 149 195 244 288 348
#     4  11  22  36  56  80 119 155 197 247 287 348
#     4  11  22  33  52  82 120 161 199 234 280 349
#     4   9  22  39  62  89 118 150 196 251 304 353
#
# _framework density 19.195591
#
# number of rings (size 3 to 8) (size 9 to 14) (size 15 to 20)
#    0.000    1.500    3.750    1.875    1.750    3.500 
#    0.000    0.000    0.000    0.000    0.000    0.875 
#    0.000    0.000    0.000    0.000    0.000    0.000 
#
# Total GULP energy -178158.669533 kJ/mol
# GULP energy per Si atom -5567.458423 kJ/mol
# Density = 1.915190 g / cm^3
# Si number density = 19.195591 Si / 1000 Ang^3
#
#
#
# Elastic Constant Matrix: (Units=GPa)
#
#
# Indices 1 2 3 4 5 6 
#
# 1 33.2470 30.1672 15.1591 0.0000 4.5359 0.0000
# 2 30.1672 156.1456 55.1097 0.0000 -5.1043 0.0000
# 3 15.1591 55.1097 86.7479 0.0000 -8.0899 0.0000
# 4 0.0000 0.0000 0.0000 33.7622 0.0000 -1.4498
# 5 4.5359 -5.1043 -8.0899 0.0000 24.9392 0.0000
# 6 0.0000 0.0000 0.0000 -1.4498 0.0000 24.0788
#
#
#
# Elastic Compliance Matrix: (Units=1/GPa)
#
#
# Indices 1 2 3 4 5 6 
#
# 1 0.038978 -0.006605 -0.003508 0.000000 -0.009579 0.000000
# 2 -0.006605 0.009375 -0.004651 0.000000 0.001611 0.000000
# 3 -0.003508 -0.004651 0.015536 0.000000 0.004726 0.000000
# 4 0.000000 0.000000 0.000000 0.029696 0.000000 0.001788
# 5 -0.009579 0.001611 0.004726 0.000000 0.043703 0.000000
# 6 0.000000 0.000000 0.000000 0.001788 0.000000 0.041638
#
#
# Mechanical properties :
#
#
# Convention : Reuss Voigt Hill
#
# Bulk Modulus (GPa) = 29.10427 53.00138 41.05283
# Shear Modulus (GPa) = 22.73681 28.26968 25.50324
#
# Velocity S-wave (km/s) = 3.44536 3.84176 3.64895
# Velocity P-wave (km/s) = 5.56976 6.88114 6.25988
#
# Compressibility (1/GPa) = 0.03435922
#
# Stress axis : x y z
#
# Youngs Moduli (GPa) = 25.65547 106.67092 64.36588
#
# Poissons Ratio (x) = 0.70460 0.22582
# Poissons Ratio (y) = 0.16946 0.29937
# Poissons Ratio (z) = 0.09001 0.49613
#
# Static dielectric constant tensor:
#      x y z
#    x 1.687980 0.000000 -0.031620 
#    y 0.000000 1.729360 0.000000 
#    z -0.031620 0.000000 1.699930 
# 
# From -- ./inp_files/89624.got.cif
#   From: 2010.05.17/outbox.cif.g08.bks.cpg/sg12_45_cif.got.tgz:89624.got - 2010.06.03 13:09:07.
