data_PCOD9184350
_publ_section_title
;
Structure prediction by ZEFSAII (Michael W. Deem and Ramdas Pophale) SiO2 
 PCOD9184350
Probable space group: C 2/M
;
_chemical_formula_sum "Si O2"
_cell_formula_units_Z 52
_cell_length_a 14.588345
_cell_length_b 20.684739
_cell_length_c 11.552742
_cell_angle_alpha 90.000000
_cell_angle_beta 48.344001
_cell_angle_gamma 90.000000
_cell_volume 2604.643374
_symmetry_space_group_name_H-M "C 2/M"
_symmetry_group_IT_number 12
_symmetry_cell_setting 'monoclinic'
loop_
_space_group_symop_operation_xyz
x,y,z
-x,y,-z
-x,-y,-z
x,-y,z
1/2+x,1/2+y,z
1/2-x,1/2+y,-z
1/2-x,1/2-y,-z
1/2+x,1/2-y,z
loop_
_atom_site_type_symbol
_atom_site_label
_atom_site_fract_x
_atom_site_fract_y
_atom_site_fract_z
Si Si1 0.791896 0.196904 0.870738
Si Si2 0.000000 0.319879 0.500000
Si Si3 0.740699 0.888298 0.255228
Si Si4 0.131000 0.925732 0.627515
Si Si5 0.081504 0.215760 0.604680
Si Si6 0.651153 0.568583 0.064509
Si Si7 0.871430 0.246701 0.172783
O O1 0.720990 0.204550 0.810756
O O2 0.935453 0.206330 0.732204
O O3 0.750000 0.250000 0.000000
O O4 0.778307 0.126379 0.934000
O O5 0.899534 0.365552 0.646135
O O6 0.913710 0.272463 0.494917
O O7 0.765608 0.918011 0.360618
O O8 0.798648 0.931599 0.107256
O O9 0.823264 0.823940 0.179714
O O10 0.134497 0.858035 0.550244
O O11 0.137670 0.000000 0.572868
O O12 0.996203 0.921281 0.802735
O O13 0.122135 0.245722 0.693945
O O14 0.675619 0.500000 0.101536
O O15 0.000000 0.256412 0.000000
#
# Coordination Sequence:
#
# PCOD9184350 Si02
#       7
#     8   4   8   8   8   8   8
#     4  11  17  33  55  86 117 137 183 241 294 350
#     4  12  24  38  52  84 118 162 196 228 274 340
#     4  11  20  33  53  82 117 149 188 232 276 342
#     4   9  19  35  58  85 111 141 186 245 301 342
#     4  10  21  35  54  83 118 149 191 236 283 342
#     4  10  19  33  59  88 114 143 180 242 306 343
#     4  11  19  31  58  87 108 143 182 243 305 325
#
# _framework density 19.964345000000002
#
# number of rings (size 3 to 8) (size 9 to 14) (size 15 to 20)
#    0.000    1.538    4.615    2.769    0.000    3.692 
#    0.000    1.923    0.000    0.462    0.000    0.000 
#    0.000    0.000    0.000    0.000    0.000    0.000 
#
# Total GULP energy -144939.145909 kJ/mol
# GULP energy per Si atom -5574.582535 kJ/mol
# Density = 1.991891 g / cm^3
# Si number density = 19.964345 Si / 1000 Ang^3
#
#
#
# Elastic Constant Matrix: (Units=GPa)
#
#
# Indices 1 2 3 4 5 6 
#
# 1 100.6170 35.3209 8.8921 0.0000 5.2752 0.0000
# 2 35.3209 107.9698 17.2361 0.0000 0.2701 0.0000
# 3 8.8921 17.2361 34.4821 0.0000 0.7350 0.0000
# 4 0.0000 0.0000 0.0000 16.2028 0.0000 0.5197
# 5 5.2752 0.2701 0.7350 0.0000 17.6624 0.0000
# 6 0.0000 0.0000 0.0000 0.5197 0.0000 22.2678
#
#
#
# Elastic Compliance Matrix: (Units=1/GPa)
#
#
# Indices 1 2 3 4 5 6 
#
# 1 0.011462 -0.003565 -0.001103 0.000000 -0.003323 0.000000
# 2 -0.003565 0.011174 -0.004689 0.000000 0.001089 0.000000
# 3 -0.001103 -0.004689 0.031648 0.000000 -0.000916 0.000000
# 4 0.000000 0.000000 0.000000 0.061764 0.000000 -0.001442
# 5 -0.003323 0.001089 -0.000916 0.000000 0.057631 0.000000
# 6 0.000000 0.000000 0.000000 -0.001442 0.000000 0.044942
#
#
# Mechanical properties :
#
#
# Convention : Reuss Voigt Hill
#
# Bulk Modulus (GPa) = 28.11377 40.66302 34.38840
# Shear Modulus (GPa) = 20.06481 23.33458 21.69969
#
# Velocity S-wave (km/s) = 3.17366 3.42250 3.30043
# Velocity P-wave (km/s) = 5.24805 6.00250 5.63791
#
# Compressibility (1/GPa) = 0.03556976
#
# Stress axis : x y z
#
# Youngs Moduli (GPa) = 87.24544 89.49322 31.59718
#
# Poissons Ratio (x) = 0.31907 0.03485
# Poissons Ratio (y) = 0.31105 0.14817
# Poissons Ratio (z) = 0.09622 0.41965
#
# Static dielectric constant tensor:
#      x y z
#    x 1.728900 0.000000 0.030640 
#    y 0.000000 1.748660 0.000000 
#    z 0.030640 0.000000 1.805180 
# 
# From -- ./inp_files/147215.got.cif
#   From: 2010.05.17/outbox.cif.g08.bks.cpg/sg12_74_cif.got.tgz:147215.got - 2010.06.03 13:09:07.
