data_PCOD9184285
_publ_section_title
;
Structure prediction by ZEFSAII (Michael W. Deem and Ramdas Pophale) SiO2 
 PCOD9184285
Probable space group: C 2/M
;
_chemical_formula_sum "Si O2"
_cell_formula_units_Z 52
_cell_length_a 16.755689
_cell_length_b 14.000675
_cell_length_c 14.889572
_cell_angle_alpha 90.000000
_cell_angle_beta 42.391316
_cell_angle_gamma 90.000000
_cell_volume 2354.919576
_symmetry_space_group_name_H-M "C 2/M"
_symmetry_group_IT_number 12
_symmetry_cell_setting 'monoclinic'
loop_
_space_group_symop_operation_xyz
x,y,z
-x,y,-z
-x,-y,-z
x,-y,z
1/2+x,1/2+y,z
1/2-x,1/2+y,-z
1/2-x,1/2-y,-z
1/2+x,1/2-y,z
loop_
_atom_site_type_symbol
_atom_site_label
_atom_site_fract_x
_atom_site_fract_y
_atom_site_fract_z
Si Si1 0.962626 0.609042 0.369538
Si Si2 0.750000 0.750000 0.500000
Si Si3 0.603370 0.694382 0.789643
Si Si4 0.195254 0.306576 0.244183
Si Si5 0.779412 0.106373 0.828137
Si Si6 0.490994 0.105571 0.880768
Si Si7 0.646766 0.608965 0.031452
O O1 0.928105 0.500000 0.418392
O O2 0.852378 0.679993 0.460480
O O3 0.011426 0.609332 0.225616
O O4 0.069766 0.642965 0.343333
O O5 0.650071 0.703943 0.650122
O O6 0.708227 0.657528 0.765322
O O7 0.567593 0.803606 0.846712
O O8 0.483905 0.634297 0.893330
O O9 0.183141 0.192788 0.266421
O O10 0.260219 0.322671 0.094494
O O11 0.847700 0.117928 0.865935
O O12 0.802398 0.000000 0.773231
O O13 0.640871 0.111780 0.970680
O O14 0.540278 0.000000 0.863591
O O15 0.679722 0.500000 0.981768
#
# Coordination Sequence:
#
# PCOD9184285 Si02
#       7
#     8   4   8   8   8   8   8
#     4  10  21  40  66  88 115 158 202 247 300 359
#     4  10  24  46  62  82 114 160 218 256 290 360
#     4  11  24  38  58  87 122 165 202 254 304 354
#     4  12  22  36  60  94 128 153 196 252 314 366
#     4  10  19  33  58  88 122 159 196 237 295 365
#     4   9  17  34  58  83 114 159 200 236 291 357
#     4  11  22  37  58  89 128 165 198 243 308 376
#
# _framework density 22.081434000000002
#
# number of rings (size 3 to 8) (size 9 to 14) (size 15 to 20)
#    0.000    1.538    3.077    3.231    0.000    3.692 
#    0.000    3.077    0.000    0.000    0.000    7.538 
#    0.000    0.000    0.000    0.000    0.000    0.000 
#
# Total GULP energy -144842.246453 kJ/mol
# GULP energy per Si atom -5570.855633 kJ/mol
# Density = 2.203118 g / cm^3
# Si number density = 22.081434 Si / 1000 Ang^3
#
#
#
# Elastic Constant Matrix: (Units=GPa)
#
#
# Indices 1 2 3 4 5 6 
#
# 1 98.3384 28.5204 10.8797 0.0000 -41.3983 0.0000
# 2 28.5204 65.2897 3.2762 0.0000 -29.9308 0.0000
# 3 10.8797 3.2762 45.8372 0.0000 -18.6255 0.0000
# 4 0.0000 0.0000 0.0000 11.9409 0.0000 -3.1009
# 5 -41.3983 -29.9308 -18.6255 0.0000 36.4755 0.0000
# 6 0.0000 0.0000 0.0000 -3.1009 0.0000 5.2237
#
#
#
# Elastic Compliance Matrix: (Units=1/GPa)
#
#
# Indices 1 2 3 4 5 6 
#
# 1 0.021585 0.005191 0.007812 0.000000 0.032746 0.000000
# 2 0.005191 0.028452 0.010870 0.000000 0.034789 0.000000
# 3 0.007812 0.010870 0.033328 0.000000 0.034804 0.000000
# 4 0.000000 0.000000 0.000000 0.099009 0.000000 0.058774
# 5 0.032746 0.034789 0.034804 0.000000 0.110901 0.000000
# 6 0.000000 0.000000 0.000000 0.058774 0.000000 0.226324
#
#
# Mechanical properties :
#
#
# Convention : Reuss Voigt Hill
#
# Bulk Modulus (GPa) = 7.62713 32.75756 20.19234
# Shear Modulus (GPa) = 9.69830 21.84730 15.77280
#
# Velocity S-wave (km/s) = 2.09800 3.14888 2.67554
# Velocity P-wave (km/s) = 3.05457 5.29978 4.32539
#
# Compressibility (1/GPa) = 0.13111091
#
# Stress axis : x y z
#
# Youngs Moduli (GPa) = 46.32923 35.14744 30.00522
#
# Poissons Ratio (x) = -0.18246 -0.23440
# Poissons Ratio (y) = -0.24050 -0.32617
# Poissons Ratio (z) = -0.36192 -0.38207
#
# Static dielectric constant tensor:
#      x y z
#    x 1.845410 0.000000 0.047660 
#    y 0.000000 1.811670 0.000000 
#    z 0.047660 0.000000 1.775650 
# 
# From -- ./inp_files/277587.got.cif
#   From: 2010.05.17/outbox.cif.g08.bks.cpg/sg12_139_cif.got.tgz:277587.got - 2010.06.03 13:09:07.
