data_PCOD9184936
_publ_section_title
;
Structure prediction by ZEFSAII (Michael W. Deem and Ramdas Pophale) SiO2 
 PCOD9184936
Probable space group: C 2/M
;
_chemical_formula_sum "Si O2"
_cell_formula_units_Z 56
_cell_length_a 23.014659
_cell_length_b 7.778442
_cell_length_c 15.403588
_cell_angle_alpha 90.000000
_cell_angle_beta 113.403982
_cell_angle_gamma 90.000000
_cell_volume 2530.652863
_symmetry_space_group_name_H-M "C 2/M"
_symmetry_group_IT_number 12
_symmetry_cell_setting 'monoclinic'
loop_
_space_group_symop_operation_xyz
x,y,z
-x,y,-z
-x,-y,-z
x,-y,z
1/2+x,1/2+y,z
1/2-x,1/2+y,-z
1/2-x,1/2-y,-z
1/2+x,1/2-y,z
loop_
_atom_site_type_symbol
_atom_site_label
_atom_site_fract_x
_atom_site_fract_y
_atom_site_fract_z
Si Si1 0.981385 0.206044 0.083239
Si Si2 0.174626 0.294813 0.453659
Si Si3 0.892316 0.292695 0.761649
Si Si4 0.162734 0.789883 0.750281
Si Si5 0.797940 0.705611 0.847196
Si Si6 0.073503 0.206954 0.546913
Si Si7 0.655363 0.292870 0.943195
O O1 0.912950 0.272080 0.066987
O O2 0.034723 0.244861 0.185499
O O3 0.976454 0.000000 0.073889
O O4 0.000000 0.275670 0.000000
O O5 0.172999 0.500000 0.451343
O O6 0.250000 0.250000 0.500000
O O7 0.143350 0.229342 0.345138
O O8 0.125276 0.242780 0.501235
O O9 0.888647 0.500000 0.759138
O O10 0.857005 0.225948 0.827556
O O11 0.233142 0.739607 0.762049
O O12 0.107430 0.728979 0.655053
O O13 0.161284 0.730204 0.848651
O O14 0.159768 0.000000 0.748523
O O15 0.799841 0.500000 0.844007
O O16 0.799173 0.747061 0.949946
O O17 0.000000 0.269714 0.500000
O O18 0.069243 0.000000 0.548270
O O19 0.656470 0.500000 0.939119
#
# Coordination Sequence:
#
# PCOD9184936 Si02
#       7
#     8   8   8   8   8   8   8
#     4  10  20  34  53  81 115 149 188 240 287 337
#     4  11  24  43  66  93 124 160 206 262 316 369
#     4  10  22  37  57  83 114 153 192 235 294 358
#     4   9  19  36  57  81 112 150 191 236 287 348
#     4  10  19  34  55  79 111 148 187 231 282 345
#     4  10  22  41  66  92 121 162 209 255 309 372
#     4  10  20  34  54  80 113 147 187 234 282 339
#
# _framework density 22.128679000000002
#
# number of rings (size 3 to 8) (size 9 to 14) (size 15 to 20)
#    0.000    2.000    1.429    1.714    2.000    4.571 
#    0.000    2.857    0.000    0.000    0.000    0.000 
#    0.000    0.000    0.000    0.000    0.000    0.000 
#
# Total GULP energy -156199.336437 kJ/mol
# GULP energy per Si atom -5578.547730 kJ/mol
# Density = 2.207831 g / cm^3
# Si number density = 22.128679 Si / 1000 Ang^3
#
#
#
# Elastic Constant Matrix: (Units=GPa)
#
#
# Indices 1 2 3 4 5 6 
#
# 1 121.2729 3.1249 72.1640 0.0000 18.1262 0.0000
# 2 3.1249 31.3677 -2.9629 0.0000 0.5408 0.0000
# 3 72.1640 -2.9629 159.0027 0.0000 27.5096 0.0000
# 4 0.0000 0.0000 0.0000 14.4124 0.0000 -11.1621
# 5 18.1262 0.5408 27.5096 0.0000 42.7566 0.0000
# 6 0.0000 0.0000 0.0000 -11.1621 0.0000 6.2158
#
#
#
# Elastic Compliance Matrix: (Units=1/GPa)
#
#
# Indices 1 2 3 4 5 6 
#
# 1 0.011483 -0.001583 -0.004954 0.000000 -0.001661 0.000000
# 2 -0.001583 0.032184 0.001432 0.000000 -0.000657 0.000000
# 3 -0.004954 0.001432 0.009232 0.000000 -0.003858 0.000000
# 4 0.000000 0.000000 0.000000 -0.177549 0.000000 -0.318838
# 5 -0.001661 -0.000657 -0.003858 0.000000 0.026583 0.000000
# 6 0.000000 0.000000 0.000000 -0.318838 0.000000 -0.411679
#
#
# Mechanical properties :
#
#
# Convention : Reuss Voigt Hill
#
# Bulk Modulus (GPa) = 23.42541 50.69949 37.06245
# Shear Modulus (GPa) = -10.30273 28.63144 9.16435
#
# Velocity S-wave (km/s) = -2.16008 3.60093 2.03725
# Velocity P-wave (km/s) = 2.09469 6.34428 4.72428
#
# Compressibility (1/GPa) = 0.04268869
#
# Stress axis : x y z
#
# Youngs Moduli (GPa) = 87.08883 31.07116 108.32470
#
# Poissons Ratio (x) = 0.04919 0.53659
# Poissons Ratio (y) = 0.13788 -0.15512
# Poissons Ratio (z) = 0.43140 -0.04449
#
# Static dielectric constant tensor:
#      x y z
#    x 1.842920 0.000000 -0.014170 
#    y 0.000000 1.806970 0.000000 
#    z -0.014170 0.000000 1.804870 
# 
# From -- ./inp_files/238985.got.cif
#   From: 2010.05.17/outbox.cif.g08.bks.cpg/sg12_120_cif.got.tgz:238985.got - 2010.06.03 13:09:07.
