data_PCOD9184502
_publ_section_title
;
Structure prediction by ZEFSAII (Michael W. Deem and Ramdas Pophale) SiO2 
 PCOD9184502
Probable space group: C 2/M
;
_chemical_formula_sum "Si O2"
_cell_formula_units_Z 42
_cell_length_a 28.344868
_cell_length_b 18.251903
_cell_length_c 15.073909
_cell_angle_alpha 90.000000
_cell_angle_beta 166.646764
_cell_angle_gamma 90.000000
_cell_volume 1801.082914
_symmetry_space_group_name_H-M "C 2/M"
_symmetry_group_IT_number 12
_symmetry_cell_setting 'monoclinic'
loop_
_space_group_symop_operation_xyz
x,y,z
-x,y,-z
-x,-y,-z
x,-y,z
1/2+x,1/2+y,z
1/2-x,1/2+y,-z
1/2-x,1/2-y,-z
1/2+x,1/2-y,z
loop_
_atom_site_type_symbol
_atom_site_label
_atom_site_fract_x
_atom_site_fract_y
_atom_site_fract_z
Si Si1 0.500000 0.000000 0.000000
Si Si2 0.402706 0.586116 0.913629
Si Si3 0.590486 0.079276 0.003381
Si Si4 0.158181 0.847625 0.015609
Si Si5 0.737647 0.918307 0.965750
Si Si6 0.871377 0.321456 0.079188
O O1 0.621825 0.936749 0.164317
O O2 0.454858 0.500000 0.018163
O O3 0.156831 0.586721 0.450808
O O4 0.449012 0.628387 0.089368
O O5 0.500000 0.613932 0.000000
O O6 0.685509 0.143739 0.120078
O O7 0.637930 0.000000 0.045793
O O8 0.135710 0.901627 0.891402
O O9 0.398921 0.848111 0.481067
O O10 0.121535 0.765459 0.914895
O O11 0.500000 0.916337 0.500000
O O12 0.759137 0.856011 0.079873
O O13 0.775814 0.000000 0.069817
#
# Coordination Sequence:
#
# PCOD9184502 Si02
#       6
#     2   8   8   8   8   8
#     4   8  16  32  50  76  94 126 174 210 246 276
#     4   9  17  33  52  71  97 129 169 210 247 284
#     4   8  16  32  51  72  96 127 167 210 242 287
#     4  10  20  34  50  77 103 134 165 203 248 301
#     4   9  17  31  57  79  96 128 171 209 245 292
#     4  10  19  34  51  76 106 131 163 203 253 298
#
# _framework density 23.319302
#
# number of rings (size 3 to 8) (size 9 to 14) (size 15 to 20)
#    0.571    2.286    0.000    1.714    0.000    4.571 
#    5.143    1.905    0.000    4.571    0.000    0.000 
#    0.000    0.000    0.000    0.000    0.000    0.000 
#
# Total GULP energy -116923.742715 kJ/mol
# GULP energy per Si atom -5567.797272 kJ/mol
# Density = 2.326623 g / cm^3
# Si number density = 23.319302 Si / 1000 Ang^3
#
#
#
# Elastic Constant Matrix: (Units=GPa)
#
#
# Indices 1 2 3 4 5 6 
#
# 1 166.8385 68.8856 23.7249 0.0000 36.1085 0.0000
# 2 68.8856 107.0846 -8.2050 0.0000 26.6591 0.0000
# 3 23.7249 -8.2050 66.3703 0.0001 0.0079 0.0001
# 4 0.0000 0.0000 0.0001 1.2483 0.0000 -10.9470
# 5 36.1085 26.6591 0.0079 0.0000 33.4002 0.0000
# 6 0.0000 0.0000 0.0001 -10.9470 0.0000 29.3927
#
#
#
# Elastic Compliance Matrix: (Units=1/GPa)
#
#
# Indices 1 2 3 4 5 6 
#
# 1 0.010254 -0.005200 -0.004308 0.000000 -0.006934 0.000000
# 2 -0.005200 0.014431 0.003644 0.000000 -0.005897 0.000000
# 3 -0.004308 0.003644 0.017057 0.000001 0.001745 0.000000
# 4 0.000000 0.000000 0.000001 -0.353515 0.000000 -0.131663
# 5 -0.006934 -0.005897 0.001745 0.000000 0.042143 0.000000
# 6 0.000000 0.000000 0.000000 -0.131663 0.000000 -0.015014
#
#
# Mechanical properties :
#
#
# Convention : Reuss Voigt Hill
#
# Bulk Modulus (GPa) = 33.31791 56.56715 44.94253
# Shear Modulus (GPa) = -19.01779 29.86744 5.42483
#
# Velocity S-wave (km/s) = -2.85886 3.58271 1.52688
# Velocity P-wave (km/s) = 1.84967 6.43621 4.73529
#
# Compressibility (1/GPa) = 0.03001389
#
# Stress axis : x y z
#
# Youngs Moduli (GPa) = 97.52164 69.29580 58.62709
#
# Poissons Ratio (x) = 0.36034 0.25254
# Poissons Ratio (y) = 0.50712 -0.21361
# Poissons Ratio (z) = 0.42007 -0.25248
#
# Static dielectric constant tensor:
#      x y z
#    x 1.921780 0.000000 -0.097660 
#    y 0.000000 1.820080 0.000000 
#    z -0.097660 0.000000 2.035120 
# 
# From -- ./inp_files/241800.got.cif
#   From: 2010.05.17/outbox.cif.g08.bks.cpg/sg12_121_cif.got.tgz:241800.got - 2010.06.03 13:09:07.
