data_PCOD9184021
_publ_section_title
;
Structure prediction by ZEFSAII (Michael W. Deem and Ramdas Pophale) SiO2 
 PCOD9184021
Probable space group: C 2/M
;
_chemical_formula_sum "Si O2"
_cell_formula_units_Z 56
_cell_length_a 29.081030
_cell_length_b 21.301652
_cell_length_c 8.471780
_cell_angle_alpha 90.000000
_cell_angle_beta 153.082533
_cell_angle_gamma 90.000000
_cell_volume 2375.825425
_symmetry_space_group_name_H-M "C 2/M"
_symmetry_group_IT_number 12
_symmetry_cell_setting 'monoclinic'
loop_
_space_group_symop_operation_xyz
x,y,z
-x,y,-z
-x,-y,-z
x,-y,z
1/2+x,1/2+y,z
1/2-x,1/2+y,-z
1/2-x,1/2-y,-z
1/2+x,1/2-y,z
loop_
_atom_site_type_symbol
_atom_site_label
_atom_site_fract_x
_atom_site_fract_y
_atom_site_fract_z
Si Si1 0.676717 0.196934 0.449718
Si Si2 0.030189 0.136795 0.423546
Si Si3 0.692633 0.929415 0.000683
Si Si4 0.095729 0.067366 0.177354
Si Si5 0.861753 0.700140 0.018816
Si Si6 0.765847 0.927257 0.871215
Si Si7 0.127377 0.254196 0.612970
O O1 0.760580 0.253846 0.706944
O O2 0.615840 0.200754 0.099556
O O3 0.609501 0.208485 0.399256
O O4 0.730409 0.128973 0.645963
O O5 0.115040 0.084069 0.720883
O O6 0.084677 0.184557 0.473672
O O7 0.000000 0.163532 0.500000
O O8 0.926311 0.117441 0.022585
O O9 0.806455 0.928412 0.417625
O O10 0.645467 0.873353 0.956376
O O11 0.704237 0.918077 0.848316
O O12 0.651057 0.000000 0.897111
O O13 0.097305 0.000000 0.099126
O O14 0.000000 0.069126 0.000000
O O15 0.911810 0.722160 0.337633
O O16 0.751168 0.000000 0.775563
O O17 0.250000 0.250000 0.000000
#
# Coordination Sequence:
#
# PCOD9184021 Si02
#       7
#     8   8   8   8   8   8   8
#     4  10  20  33  55  78 100 145 193 238 297 327
#     4  12  24  36  51  77 113 154 200 238 281 334
#     4  10  20  34  54  80 114 158 198 236 280 339
#     4  10  21  34  47  70 110 157 195 220 264 334
#     4  10  19  33  57  77 103 141 199 242 293 330
#     4  11  20  35  53  77 114 157 195 233 282 340
#     4  10  19  39  57  73 104 144 192 247 290 329
#
# _framework density 23.570758000000001
#
# number of rings (size 3 to 8) (size 9 to 14) (size 15 to 20)
#    0.000    1.571    5.714    1.286    2.000    1.714 
#    0.000    0.000    0.000    0.000    0.000    0.000 
#    0.000    2.286    0.000    9.286    0.000    0.857 
#
# Total GULP energy -156174.605896 kJ/mol
# GULP energy per Si atom -5577.664496 kJ/mol
# Density = 2.351711 g / cm^3
# Si number density = 23.570758 Si / 1000 Ang^3
#
#
#
# Elastic Constant Matrix: (Units=GPa)
#
#
# Indices 1 2 3 4 5 6 
#
# 1 142.1514 42.2052 27.1160 0.0000 -39.4959 0.0000
# 2 42.2052 130.6013 25.8811 0.0000 -12.9035 0.0000
# 3 27.1160 25.8811 70.2506 0.0000 -32.3740 0.0000
# 4 0.0000 0.0000 0.0000 8.3154 0.0000 -1.9830
# 5 -39.4959 -12.9035 -32.3740 0.0000 28.1557 0.0000
# 6 0.0000 0.0000 0.0000 -1.9830 0.0000 42.4209
#
#
#
# Elastic Compliance Matrix: (Units=1/GPa)
#
#
# Indices 1 2 3 4 5 6 
#
# 1 0.014480 -0.003617 0.009232 0.000000 0.029269 0.000000
# 2 -0.003617 0.009168 -0.005070 0.000000 -0.006701 0.000000
# 3 0.009232 -0.005070 0.037089 0.000000 0.053271 0.000000
# 4 0.000000 0.000000 0.000000 0.121614 0.000000 0.005685
# 5 0.029269 -0.006701 0.053271 0.000000 0.134755 0.000000
# 6 0.000000 0.000000 0.000000 0.005685 0.000000 0.023839
#
#
# Mechanical properties :
#
#
# Convention : Reuss Voigt Hill
#
# Bulk Modulus (GPa) = 16.17434 59.26757 37.72096
# Shear Modulus (GPa) = 13.87098 32.29848 23.08473
#
# Velocity S-wave (km/s) = 2.42850 3.70574 3.13290
# Velocity P-wave (km/s) = 3.83932 6.59615 5.39674
#
# Compressibility (1/GPa) = 0.06182631
#
# Stress axis : x y z
#
# Youngs Moduli (GPa) = 69.06152 109.07106 26.96247
#
# Poissons Ratio (x) = 0.39451 -0.24891
# Poissons Ratio (y) = 0.24979 0.13670
# Poissons Ratio (z) = -0.63755 0.55297
#
# Static dielectric constant tensor:
#      x y z
#    x 1.925950 0.000000 -0.000650 
#    y 0.000000 0.302810 0.000000 
#    z -0.000650 0.000000 1.908860 
# 
# From -- ./inp_files/113395.got.cif
#   From: 2010.05.17/outbox.cif.g08.bks.cpg/sg12_57_cif.got.tgz:113395.got - 2010.06.03 13:09:07.
