data_PCOD9184361
_publ_section_title
;
Structure prediction by ZEFSAII (Michael W. Deem and Ramdas Pophale) SiO2 
 PCOD9184361
Probable space group: C 2/M
;
_chemical_formula_sum "Si O2"
_cell_formula_units_Z 48
_cell_length_a 9.897538
_cell_length_b 14.770784
_cell_length_c 23.544415
_cell_angle_alpha 90.000000
_cell_angle_beta 142.357000
_cell_angle_gamma 90.000000
_cell_volume 2102.203277
_symmetry_space_group_name_H-M "C 2/M"
_symmetry_group_IT_number 12
_symmetry_cell_setting 'monoclinic'
loop_
_space_group_symop_operation_xyz
x,y,z
-x,y,-z
-x,-y,-z
x,-y,z
1/2+x,1/2+y,z
1/2-x,1/2+y,-z
1/2-x,1/2-y,-z
1/2+x,1/2-y,z
loop_
_atom_site_type_symbol
_atom_site_label
_atom_site_fract_x
_atom_site_fract_y
_atom_site_fract_z
Si Si1 0.978582 0.610111 0.721077
Si Si2 0.209029 0.163573 0.527129
Si Si3 0.041585 0.110222 0.078781
Si Si4 0.745970 0.900108 0.575414
Si Si5 0.571509 0.889235 0.961805
Si Si6 0.722695 0.388948 0.749206
O O1 0.972067 0.500000 0.717202
O O2 0.908469 0.645482 0.636448
O O3 0.813842 0.638237 0.717483
O O4 0.224290 0.640572 0.819539
O O5 0.250000 0.250000 0.500000
O O6 0.198470 0.091981 0.472806
O O7 0.000000 0.162214 0.500000
O O8 0.048830 0.000000 0.083353
O O9 0.000000 0.134805 0.000000
O O10 0.822507 0.141219 0.037353
O O11 0.500000 0.858636 0.500000
O O12 0.969816 0.857297 0.675517
O O13 0.724792 0.000000 0.594799
O O14 0.400142 0.861118 0.855781
O O15 0.572494 0.000000 0.959829
O O16 0.500000 0.860807 0.000000
O O17 0.715074 0.500000 0.747022
#
# Coordination Sequence:
#
# PCOD9184361 Si02
#       6
#     8   8   8   8   8   8
#     4  10  19  33  59  89 115 151 198 241 289 352
#     4  12  25  41  59  82 113 154 201 249 300 355
#     4   9  15  26  47  79 116 147 181 229 282 346
#     4  10  21  37  59  87 118 150 193 250 299 348
#     4   9  16  25  41  73 119 155 177 217 281 345
#     4   9  16  29  51  80 115 155 189 226 286 347
#
# _framework density 22.833186999999999
#
# number of rings (size 3 to 8) (size 9 to 14) (size 15 to 20)
#    0.000    2.167    3.333    1.000    0.000    2.000 
#    0.000    5.000    0.000    0.000    0.000    5.833 
#    0.000    0.000    0.000    0.000    0.000    0.167 
#
# Total GULP energy -133951.401779 kJ/mol
# GULP energy per Si atom -5581.308407 kJ/mol
# Density = 2.278122 g / cm^3
# Si number density = 22.833187 Si / 1000 Ang^3
#
#
#
# Elastic Constant Matrix: (Units=GPa)
#
#
# Indices 1 2 3 4 5 6 
#
# 1 151.3161 -6.0754 62.8667 0.0005 26.4774 -0.0005
# 2 -6.0754 50.7745 -7.9071 0.0003 5.0185 -0.0003
# 3 62.8667 -7.9071 194.5756 0.0023 24.7254 -0.0025
# 4 0.0005 0.0003 0.0023 96.3427 0.0002 -90.9606
# 5 26.4774 5.0185 24.7254 0.0002 49.5563 -0.0002
# 6 -0.0005 -0.0003 -0.0025 -90.9606 -0.0002 83.5067
#
#
#
# Elastic Compliance Matrix: (Units=1/GPa)
#
#
# Indices 1 2 3 4 5 6 
#
# 1 0.008134 0.000969 -0.002161 0.000000 -0.003366 0.000000
# 2 0.000969 0.020248 0.000893 -0.000001 -0.003014 0.000000
# 3 -0.002161 0.000893 0.006127 -0.000001 -0.001993 -0.000001
# 4 0.000000 -0.000001 -0.000001 -0.365339 0.000000 -0.397949
# 5 -0.003366 -0.003014 -0.001993 0.000000 0.023277 0.000000
# 6 0.000000 0.000000 -0.000001 -0.397949 0.000000 -0.421496
#
#
# Mechanical properties :
#
#
# Convention : Reuss Voigt Hill
#
# Bulk Modulus (GPa) = 29.48870 54.93718 42.21294
# Shear Modulus (GPa) = -6.97208 69.06659 31.04726
#
# Velocity S-wave (km/s) = -1.74932 5.50582 3.69147
# Velocity P-wave (km/s) = 2.97703 8.03313 6.05780
#
# Compressibility (1/GPa) = 0.03391129
#
# Stress axis : x y z
#
# Youngs Moduli (GPa) = 122.93370 49.38809 163.20860
#
# Poissons Ratio (x) = -0.04788 0.35271
# Poissons Ratio (y) = -0.11918 -0.14567
# Poissons Ratio (z) = 0.26567 -0.04408
#
# Static dielectric constant tensor:
#      x y z
#    x 1.789820 0.000000 0.022890 
#    y 0.000000 1.985220 0.000000 
#    z 0.022890 0.000000 1.809800 
# 
# From -- ./inp_files/301836.got.cif
#   From: 2010.05.17/outbox.cif.g08.bks.cpg/sg12_151_cif.got.tgz:301836.got - 2010.06.03 13:09:07.
