data_PCOD9184123
_publ_section_title
;
Structure prediction by ZEFSAII (Michael W. Deem and Ramdas Pophale) SiO2 
 PCOD9184123
Probable space group: C 2/M
;
_chemical_formula_sum "Si O2"
_cell_formula_units_Z 40
_cell_length_a 10.406887
_cell_length_b 12.628260
_cell_length_c 16.866208
_cell_angle_alpha 90.000000
_cell_angle_beta 45.930336
_cell_angle_gamma 90.000000
_cell_volume 1592.595003
_symmetry_space_group_name_H-M "C 2/M"
_symmetry_group_IT_number 12
_symmetry_cell_setting 'monoclinic'
loop_
_space_group_symop_operation_xyz
x,y,z
-x,y,-z
-x,-y,-z
x,-y,z
1/2+x,1/2+y,z
1/2-x,1/2+y,-z
1/2-x,1/2-y,-z
1/2+x,1/2-y,z
loop_
_atom_site_type_symbol
_atom_site_label
_atom_site_fract_x
_atom_site_fract_y
_atom_site_fract_z
Si Si1 0.306465 0.839201 0.668457
Si Si2 0.279755 0.389224 0.727829
Si Si3 0.191865 0.378793 0.515667
Si Si4 0.863788 0.611500 0.900243
Si Si5 0.404068 0.342262 0.844462
O O1 0.323687 0.711643 0.657091
O O2 0.485807 0.877510 0.633945
O O3 0.306406 0.883535 0.580243
O O4 0.107157 0.857709 0.786974
O O5 0.311734 0.500000 0.672389
O O6 0.385103 0.386455 0.764804
O O7 0.069913 0.385459 0.839739
O O8 0.262430 0.500000 0.509327
O O9 0.250000 0.250000 0.500000
O O10 0.832704 0.500000 0.871370
O O11 0.848124 0.719082 0.858828
O O12 0.733049 0.616244 0.031506
#
# Coordination Sequence:
#
# PCOD9184123 Si02
#       5
#     8   8   8   8   8
#     4  10  22  39  60  88 118 150 194 245 297 355
#     4  10  20  35  58  88 120 156 197 240 289 346
#     4  11  25  45  66  89 119 154 195 245 302 360
#     4   9  19  34  53  81 118 157 196 239 286 342
#     4  10  19  33  57  85 116 154 198 242 289 345
#
# _framework density 25.116240999999999
#
# number of rings (size 3 to 8) (size 9 to 14) (size 15 to 20)
#    0.000    2.000    0.000    3.600    0.000    8.000 
#    0.000    8.000    0.000   16.800    0.000    0.000 
#    0.000    0.000    0.000    0.000    0.000    0.000 
#
# Total GULP energy -111460.473160 kJ/mol
# GULP energy per Si atom -5573.023658 kJ/mol
# Density = 2.505908 g / cm^3
# Si number density = 25.116241 Si / 1000 Ang^3
#
#
#
# Elastic Constant Matrix: (Units=GPa)
#
#
# Indices 1 2 3 4 5 6 
#
# 1 32.6192 41.1156 21.4643 0.0000 1.7158 0.0000
# 2 41.1156 235.2518 41.9243 0.0000 -10.6006 0.0000
# 3 21.4643 41.9243 101.4041 0.0000 -17.4010 0.0000
# 4 0.0000 0.0000 0.0000 106.2782 0.0000 113.8209
# 5 1.7158 -10.6006 -17.4010 0.0000 28.5350 0.0000
# 6 0.0000 0.0000 0.0000 113.8209 0.0000 166.7463
#
#
#
# Elastic Compliance Matrix: (Units=1/GPa)
#
#
# Indices 1 2 3 4 5 6 
#
# 1 0.045581 -0.006909 -0.008603 0.000000 -0.010554 0.000000
# 2 -0.006909 0.005646 -0.000492 0.000000 0.002213 0.000000
# 3 -0.008603 -0.000492 0.013339 0.000000 0.008469 0.000000
# 4 0.000000 0.000000 0.000000 0.034984 0.000000 -0.023880
# 5 -0.010554 0.002213 0.008469 0.000000 0.041666 0.000000
# 6 0.000000 0.000000 0.000000 -0.023880 0.000000 0.022298
#
#
# Mechanical properties :
#
#
# Convention : Reuss Voigt Hill
#
# Bulk Modulus (GPa) = 30.71379 64.25375 47.48377
# Shear Modulus (GPa) = 24.22784 77.96328 51.09556
#
# Velocity S-wave (km/s) = 3.10922 5.57749 4.51528
# Velocity P-wave (km/s) = 5.01446 8.19243 6.79193
#
# Compressibility (1/GPa) = 0.03255866
#
# Stress axis : x y z
#
# Youngs Moduli (GPa) = 21.93888 177.12844 74.96702
#
# Poissons Ratio (x) = 1.22374 0.64493
# Poissons Ratio (y) = 0.15157 0.03689
# Poissons Ratio (z) = 0.18874 0.08715
#
# Static dielectric constant tensor:
#      x y z
#    x 1.976740 0.000000 -0.068420 
#    y 0.000000 2.129220 0.000000 
#    z -0.068420 0.000000 1.932950 
# 
# From -- ./inp_files/304544.got.cif
#   From: 2010.05.17/outbox.cif.g08.bks.cpg/sg12_153_cif.got.tgz:304544.got - 2010.06.03 13:09:07.
