data_PCOD9184946
_publ_section_title
;
Structure prediction by ZEFSAII (Michael W. Deem and Ramdas Pophale) SiO2 
 PCOD9184946
Probable space group: C 2/M
;
_chemical_formula_sum "Si O2"
_cell_formula_units_Z 64
_cell_length_a 20.949326
_cell_length_b 8.110242
_cell_length_c 25.379258
_cell_angle_alpha 90.000000
_cell_angle_beta 126.602135
_cell_angle_gamma 90.000000
_cell_volume 3461.685327
_symmetry_space_group_name_H-M "C 2/M"
_symmetry_group_IT_number 12
_symmetry_cell_setting 'monoclinic'
loop_
_space_group_symop_operation_xyz
x,y,z
-x,y,-z
-x,-y,-z
x,-y,z
1/2+x,1/2+y,z
1/2-x,1/2+y,-z
1/2-x,1/2-y,-z
1/2+x,1/2-y,z
loop_
_atom_site_type_symbol
_atom_site_label
_atom_site_fract_x
_atom_site_fract_y
_atom_site_fract_z
Si Si1 0.227578 0.301409 0.154366
Si Si2 0.385360 0.799203 0.811337
Si Si3 0.130087 0.798799 0.697920
Si Si4 0.206797 0.696116 0.425734
Si Si5 0.473926 0.697458 0.677572
Si Si6 0.034678 0.699385 0.822529
Si Si7 0.742504 0.701052 0.662465
Si Si8 0.286234 0.803933 0.073089
O O1 0.227252 0.500000 0.155024
O O2 0.152009 0.244109 0.151587
O O3 0.306577 0.248497 0.225691
O O4 0.234080 0.246677 0.097725
O O5 0.471896 0.742254 0.835771
O O6 0.321108 0.753932 0.734687
O O7 0.387060 0.000000 0.813357
O O8 0.167107 0.745043 0.660328
O O9 0.042437 0.743058 0.670952
O O10 0.129779 0.000000 0.697465
O O11 0.211292 0.500000 0.425202
O O12 0.250000 0.750000 0.500000
O O13 0.114259 0.743812 0.378925
O O14 0.248252 0.761746 0.392512
O O15 0.473867 0.500000 0.676559
O O16 0.500509 0.753179 0.748772
O O17 0.036587 0.500000 0.825655
O O18 0.124021 0.762981 0.874486
O O19 0.740507 0.500000 0.660541
O O20 0.291573 0.000000 0.075566
O O21 0.250000 0.750000 0.000000
#
# Coordination Sequence:
#
# PCOD9184946 Si02
#       8
#     8   8   8   8   8   8   8   8
#     4   9  16  31  55  79 104 134 171 217 263 310
#     4   8  14  28  54  81 101 128 173 220 259 304
#     4   8  15  28  51  81 105 130 172 217 257 305
#     4  11  22  37  56  77 108 144 180 220 263 315
#     4  11  20  32  54  83 110 135 170 218 266 314
#     4  10  19  34  55  80 105 136 179 222 259 306
#     4   8  14  28  52  77 101 135 174 215 255 301
#     4  11  23  36  53  76 109 145 179 216 265 321
#
# _framework density 18.488105000000001
#
# number of rings (size 3 to 8) (size 9 to 14) (size 15 to 20)
#    0.000    2.500    2.500    2.625    0.000    0.500 
#    0.000    1.875    0.000   10.500    0.000    0.000 
#    0.000    0.000    0.000    0.000    0.000    0.000 
#
# Total GULP energy -178429.006092 kJ/mol
# GULP energy per Si atom -5575.906440 kJ/mol
# Density = 1.844602 g / cm^3
# Si number density = 18.488105 Si / 1000 Ang^3
#
#
#
# Elastic Constant Matrix: (Units=GPa)
#
#
# Indices 1 2 3 4 5 6 
#
# 1 168.1963 14.6318 66.0644 0.0000 -20.5610 0.0000
# 2 14.6318 14.9587 6.6240 0.0000 -1.0496 0.0000
# 3 66.0644 6.6240 90.7351 0.0000 -11.1845 0.0000
# 4 0.0000 0.0000 0.0000 23.9364 0.0000 -2.9316
# 5 -20.5610 -1.0496 -11.1845 0.0000 27.3790 0.0000
# 6 0.0000 0.0000 0.0000 -2.9316 0.0000 20.3482
#
#
#
# Elastic Compliance Matrix: (Units=1/GPa)
#
#
# Indices 1 2 3 4 5 6 
#
# 1 0.009288 -0.006223 -0.005768 0.000000 0.004380 0.000000
# 2 -0.006223 0.073264 -0.001103 0.000000 -0.002315 0.000000
# 3 -0.005768 -0.001103 0.015545 0.000000 0.001976 0.000000
# 4 0.000000 0.000000 0.000000 0.042528 0.000000 0.006127
# 5 0.004380 -0.002315 0.001976 0.000000 0.040532 0.000000
# 6 0.000000 0.000000 0.000000 0.006127 0.000000 0.050027
#
#
# Mechanical properties :
#
#
# Convention : Reuss Voigt Hill
#
# Bulk Modulus (GPa) = 13.90665 49.83672 31.87168
# Shear Modulus (GPa) = 17.77198 26.77074 22.27136
#
# Velocity S-wave (km/s) = 3.10379 3.80939 3.47455
# Velocity P-wave (km/s) = 4.51475 6.80905 5.77694
#
# Compressibility (1/GPa) = 0.07190804
#
# Stress axis : x y z
#
# Youngs Moduli (GPa) = 107.66651 13.64932 64.32886
#
# Poissons Ratio (x) = 0.08494 0.37107
# Poissons Ratio (y) = 0.67004 0.07094
# Poissons Ratio (z) = 0.62106 0.01505
#
# Static dielectric constant tensor:
#      x y z
#    x 1.683000 0.000000 -0.014170 
#    y 0.000000 1.664360 0.000000 
#    z -0.014170 0.000000 1.604320 
# 
# From -- ./inp_files/365216.got.cif
#   From: 2010.05.17/outbox.cif.g08.bks.cpg/sg12_183_cif.got.tgz:365216.got - 2010.06.03 13:09:07.
