data_PCOD9184764
_publ_section_title
;
Structure prediction by ZEFSAII (Michael W. Deem and Ramdas Pophale) SiO2 
 PCOD9184764
Probable space group: C 2/M
;
_chemical_formula_sum "Si O2"
_cell_formula_units_Z 48
_cell_length_a 22.391087
_cell_length_b 14.320108
_cell_length_c 9.777636
_cell_angle_alpha 90.000000
_cell_angle_beta 141.033980
_cell_angle_gamma 90.000000
_cell_volume 1971.554932
_symmetry_space_group_name_H-M "C 2/M"
_symmetry_group_IT_number 12
_symmetry_cell_setting 'monoclinic'
loop_
_space_group_symop_operation_xyz
x,y,z
-x,y,-z
-x,-y,-z
x,-y,z
1/2+x,1/2+y,z
1/2-x,1/2+y,-z
1/2-x,1/2-y,-z
1/2+x,1/2-y,z
loop_
_atom_site_type_symbol
_atom_site_label
_atom_site_fract_x
_atom_site_fract_y
_atom_site_fract_z
Si Si1 0.644579 0.896773 0.079396
Si Si2 0.919630 0.208416 0.973916
Si Si3 0.435580 0.599612 0.632990
Si Si4 0.738048 0.393031 0.991137
Si Si5 0.226392 0.898784 0.428945
Si Si6 0.894431 0.741953 0.349479
O O1 0.581432 0.805927 0.948092
O O2 0.689243 0.885894 0.311313
O O3 0.599908 0.000000 0.992905
O O4 0.722253 0.894704 0.096113
O O5 0.811840 0.182471 0.736948
O O6 0.000000 0.223120 0.000000
O O7 0.959999 0.118782 0.124451
O O8 0.430187 0.500000 0.546955
O O9 0.364688 0.593142 0.633495
O O10 0.406538 0.692454 0.502395
O O11 0.717240 0.500000 0.990726
O O12 0.823062 0.344778 0.227586
O O13 0.653042 0.318042 0.838612
O O14 0.241229 0.000000 0.387460
O O15 0.000000 0.711436 0.500000
#
# Coordination Sequence:
#
# PCOD9184764 Si02
#       6
#     8   8   8   8   8   8
#     4  10  19  35  56  75 106 151 185 218 275 343
#     4  10  20  32  52  84 110 138 181 233 276 324
#     4  10  19  34  54  79 111 141 178 226 281 336
#     4  10  22  40  60  85 117 154 194 235 286 351
#     4   9  17  32  55  78 104 141 180 218 269 333
#     4  11  22  37  61  88 113 150 194 243 288 337
#
# _framework density 24.346266
#
# number of rings (size 3 to 8) (size 9 to 14) (size 15 to 20)
#    0.000    2.000    1.667    2.500    0.000    4.000 
#    0.000    0.833    0.000    2.000    0.000    0.000 
#    0.000    0.000    0.000    0.000    0.000    0.000 
#
# Total GULP energy -133946.578017 kJ/mol
# GULP energy per Si atom -5581.107417 kJ/mol
# Density = 2.429085 g / cm^3
# Si number density = 24.346266 Si / 1000 Ang^3
#
#
#
# Elastic Constant Matrix: (Units=GPa)
#
#
# Indices 1 2 3 4 5 6 
#
# 1 38.7805 5.5546 1.4362 0.0000 6.3417 0.0000
# 2 5.5546 158.8237 33.8278 0.0000 -0.8035 0.0000
# 3 1.4362 33.8278 73.3187 0.0000 2.0449 0.0000
# 4 0.0000 0.0000 0.0000 17.3197 0.0000 -9.9931
# 5 6.3417 -0.8035 2.0449 0.0000 16.0427 0.0000
# 6 0.0000 0.0000 0.0000 -9.9931 0.0000 20.3686
#
#
#
# Elastic Compliance Matrix: (Units=1/GPa)
#
#
# Indices 1 2 3 4 5 6 
#
# 1 0.027739 -0.001082 0.000264 0.000000 -0.011053 0.000000
# 2 -0.001082 0.007034 -0.003257 0.000000 0.001195 0.000000
# 3 0.000264 -0.003257 0.015198 0.000000 -0.002205 0.000000
# 4 0.000000 0.000000 0.000000 0.080535 0.000000 0.039512
# 5 -0.011053 0.001195 -0.002205 0.000000 0.067044 0.000000
# 6 0.000000 0.000000 0.000000 0.039512 0.000000 0.068480
#
#
# Mechanical properties :
#
#
# Convention : Reuss Voigt Hill
#
# Bulk Modulus (GPa) = 23.91191 39.17335 31.54263
# Shear Modulus (GPa) = 17.35380 26.08649 21.72014
#
# Velocity S-wave (km/s) = 2.67271 3.27690 2.99010
# Velocity P-wave (km/s) = 4.40084 5.51746 4.99048
#
# Compressibility (1/GPa) = 0.04182016
#
# Stress axis : x y z
#
# Youngs Moduli (GPa) = 36.05044 142.16665 65.79667
#
# Poissons Ratio (x) = 0.15387 -0.01739
# Poissons Ratio (y) = 0.03902 0.21433
# Poissons Ratio (z) = -0.00953 0.46311
#
# Static dielectric constant tensor:
#      x y z
#    x 1.945290 0.000000 -0.079020 
#    y 0.000000 1.937260 0.000000 
#    z -0.079020 0.000000 2.049260 
# 
# From -- ./inp_files/143099.got.cif
#   From: 2010.05.17/outbox.cif.g08.bks.cpg/sg12_72_cif.got.tgz:143099.got - 2010.06.03 13:09:07.
