data_PCOD9184636
_publ_section_title
;
Structure prediction by ZEFSAII (Michael W. Deem and Ramdas Pophale) SiO2 
 PCOD9184636
Probable space group: C 2/M
;
_chemical_formula_sum "Si O2"
_cell_formula_units_Z 64
_cell_length_a 22.342208
_cell_length_b 23.041296
_cell_length_c 12.093700
_cell_angle_alpha 90.000000
_cell_angle_beta 40.526459
_cell_angle_gamma 90.000000
_cell_volume 4045.491675
_symmetry_space_group_name_H-M "C 2/M"
_symmetry_group_IT_number 12
_symmetry_cell_setting 'monoclinic'
loop_
_space_group_symop_operation_xyz
x,y,z
-x,y,-z
-x,-y,-z
x,-y,z
1/2+x,1/2+y,z
1/2-x,1/2+y,-z
1/2-x,1/2-y,-z
1/2+x,1/2-y,z
loop_
_atom_site_type_symbol
_atom_site_label
_atom_site_fract_x
_atom_site_fract_y
_atom_site_fract_z
Si Si1 0.607361 0.837573 0.334454
Si Si2 0.176608 0.650218 0.777266
Si Si3 0.413442 0.219671 0.290882
Si Si4 0.399675 0.339296 0.186423
Si Si5 0.898252 0.433379 0.469921
Si Si6 0.066795 0.360666 0.149738
Si Si7 0.763592 0.726446 0.692207
Si Si8 0.267201 0.432187 0.475479
O O1 0.500000 0.818882 0.500000
O O2 0.617112 0.893082 0.401778
O O3 0.621502 0.853080 0.186980
O O4 0.678995 0.791285 0.281163
O O5 0.106270 0.678725 0.786940
O O6 0.238913 0.705839 0.721521
O O7 0.230321 0.600216 0.636641
O O8 0.126216 0.628435 0.957736
O O9 0.412858 0.285765 0.252763
O O10 0.508054 0.198126 0.210734
O O11 0.329899 0.212185 0.494489
O O12 0.328629 0.311627 0.196350
O O13 0.350872 0.394004 0.310963
O O14 0.500000 0.353695 0.000000
O O15 0.910323 0.500000 0.485227
O O16 0.813799 0.429089 0.503017
O O17 0.989116 0.409015 0.281797
O O18 0.288328 0.500000 0.463738
#
# Coordination Sequence:
#
# PCOD9184636 Si02
#       8
#     8   8   8   8   8   8   8   8
#     4  10  19  34  53  78 108 140 175 211 249 308
#     4  11  20  33  51  75 110 141 167 210 265 316
#     4  11  17  33  55  80 106 136 168 205 268 325
#     4  11  20  33  55  81 102 134 175 218 267 312
#     4  10  20  35  54  74 105 143 177 214 255 303
#     4  11  21  31  52  83 109 137 174 210 252 315
#     4  11  18  35  57  76 108 141 170 210 265 317
#     4  11  21  35  54  76 104 139 175 218 265 304
#
# _framework density 15.820080000000001
#
# number of rings (size 3 to 8) (size 9 to 14) (size 15 to 20)
#    0.000    1.250    7.500    2.625    0.000    3.500 
#    0.000    1.250    0.000    0.000    0.000    0.000 
#    0.000    4.750    0.000    0.000    0.000    0.000 
#
# Total GULP energy -178539.223708 kJ/mol
# GULP energy per Si atom -5579.350741 kJ/mol
# Density = 1.578407 g / cm^3
# Si number density = 15.820080 Si / 1000 Ang^3
#
#
#
# Elastic Constant Matrix: (Units=GPa)
#
#
# Indices 1 2 3 4 5 6 
#
# 1 76.0540 42.5225 46.6567 0.0000 3.0615 0.0000
# 2 42.5225 121.1304 35.8981 0.0000 -1.7295 0.0000
# 3 46.6567 35.8981 103.0313 0.0000 6.2639 0.0000
# 4 0.0000 0.0000 0.0000 6.5623 0.0000 0.0792
# 5 3.0615 -1.7295 6.2639 0.0000 20.5263 0.0000
# 6 0.0000 0.0000 0.0000 0.0792 0.0000 22.0723
#
#
#
# Elastic Compliance Matrix: (Units=1/GPa)
#
#
# Indices 1 2 3 4 5 6 
#
# 1 0.020616 -0.005029 -0.007510 0.000000 -0.001207 0.000000
# 2 -0.005029 0.010498 -0.001508 0.000000 0.002095 0.000000
# 3 -0.007510 -0.001508 0.013828 0.000000 -0.003227 0.000000
# 4 0.000000 0.000000 0.000000 0.152393 0.000000 -0.000547
# 5 -0.001207 0.002095 -0.003227 0.000000 0.050059 0.000000
# 6 0.000000 0.000000 0.000000 -0.000547 0.000000 0.045308
#
#
# Mechanical properties :
#
#
# Convention : Reuss Voigt Hill
#
# Bulk Modulus (GPa) = 59.35263 61.15227 60.25245
# Shear Modulus (GPa) = 15.31810 21.50809 18.41309
#
# Velocity S-wave (km/s) = 3.11508 3.69120 3.41531
# Velocity P-wave (km/s) = 7.10894 7.54356 7.32947
#
# Compressibility (1/GPa) = 0.01684845
#
# Stress axis : x y z
#
# Youngs Moduli (GPa) = 48.50585 95.25981 72.31568
#
# Poissons Ratio (x) = 0.47903 0.54311
# Poissons Ratio (y) = 0.24392 0.10903
# Poissons Ratio (z) = 0.36429 0.14363
#
# Static dielectric constant tensor:
#      x y z
#    x 1.538480 0.000000 0.001630 
#    y 0.000000 1.531500 0.000000 
#    z 0.001630 0.000000 1.535470 
# 
# From -- ./inp_files/177721.got.cif
#   From: 2010.05.17/outbox.cif.g08.bks.cpg/sg12_89_cif.got.tgz:177721.got - 2010.06.03 13:09:07.
