data_PCOD9184534
_publ_section_title
;
Structure prediction by ZEFSAII (Michael W. Deem and Ramdas Pophale) SiO2 
 PCOD9184534
Probable space group: C 2/M
;
_chemical_formula_sum "Si O2"
_cell_formula_units_Z 58
_cell_length_a 21.776372
_cell_length_b 8.876694
_cell_length_c 21.099810
_cell_angle_alpha 90.000000
_cell_angle_beta 50.797507
_cell_angle_gamma 90.000000
_cell_volume 3160.607032
_symmetry_space_group_name_H-M "C 2/M"
_symmetry_group_IT_number 12
_symmetry_cell_setting 'monoclinic'
loop_
_space_group_symop_operation_xyz
x,y,z
-x,y,-z
-x,-y,-z
x,-y,z
1/2+x,1/2+y,z
1/2-x,1/2+y,-z
1/2-x,1/2-y,-z
1/2+x,1/2-y,z
loop_
_atom_site_type_symbol
_atom_site_label
_atom_site_fract_x
_atom_site_fract_y
_atom_site_fract_z
Si Si1 0.975766 0.821814 0.942855
Si Si2 0.188962 0.171379 0.085962
Si Si3 0.918915 0.680348 0.237031
Si Si4 0.000000 0.500000 0.500000
Si Si5 0.728529 0.818165 0.743729
Si Si6 0.828304 0.672795 0.085308
Si Si7 0.464564 0.681676 0.746799
Si Si8 0.893516 0.666260 0.669359
O O1 0.027200 0.735919 0.857217
O O2 0.983458 0.000000 0.926945
O O3 0.884401 0.769934 0.003728
O O4 0.000000 0.788016 0.000000
O O5 0.238475 0.170008 0.119231
O O6 0.103597 0.235026 0.158952
O O7 0.178340 0.000000 0.071501
O O8 0.250000 0.250000 0.000000
O O9 0.924404 0.500000 0.238057
O O10 0.827918 0.720248 0.278705
O O11 0.954090 0.755575 0.277298
O O12 0.953880 0.628588 0.573306
O O13 0.678129 0.771223 0.838888
O O14 0.814620 0.745188 0.693894
O O15 0.736173 0.000000 0.741802
O O16 0.858080 0.500000 0.064728
O O17 0.464454 0.500000 0.746402
O O18 0.437626 0.743129 0.696261
O O19 0.869941 0.500000 0.711149
#
# Coordination Sequence:
#
# PCOD9184534 Si02
#       8
#     8   8   8   2   8   8   8   8
#     4  11  22  33  46  72 117 165 224 275 312 356
#     4  10  21  34  49  73 112 156 208 260 300 350
#     4  11  23  37  56  86 121 171 220 262 315 364
#     4   8  24  44  70 108 128 150 188 258 304 396
#     4  10  20  37  61  89 120 157 211 255 301 371
#     4  10  19  34  52  72 105 156 211 266 313 354
#     4  11  22  39  61  90 127 166 212 259 310 376
#     4  10  21  41  69  97 126 155 192 248 316 378
#
# _framework density 18.350904
#
# number of rings (size 3 to 8) (size 9 to 14) (size 15 to 20)
#    0.414    1.241    2.759    2.483    0.000    6.069 
#    0.000    1.379    0.000    0.828    0.000    0.000 
#    0.000    0.000    0.000    0.000    0.000    0.000 
#
# Total GULP energy -161437.511869 kJ/mol
# GULP energy per Si atom -5566.810754 kJ/mol
# Density = 1.830914 g / cm^3
# Si number density = 18.350904 Si / 1000 Ang^3
#
#
#
# Elastic Constant Matrix: (Units=GPa)
#
#
# Indices 1 2 3 4 5 6 
#
# 1 150.8391 47.9847 44.6159 0.0000 11.2891 0.0001
# 2 47.9847 59.0358 29.6920 -0.0001 2.7104 0.0005
# 3 44.6159 29.6920 79.7478 0.0000 -4.7414 0.0001
# 4 0.0000 -0.0001 0.0000 27.0520 0.0000 -0.6093
# 5 11.2891 2.7104 -4.7414 0.0000 5.8683 0.0000
# 6 0.0001 0.0005 0.0001 -0.6093 0.0000 28.7748
#
#
#
# Elastic Compliance Matrix: (Units=1/GPa)
#
#
# Indices 1 2 3 4 5 6 
#
# 1 0.012211 -0.005557 -0.006310 0.000000 -0.026023 0.000000
# 2 -0.005557 0.025054 -0.006588 0.000000 -0.006204 0.000000
# 3 -0.006310 -0.006588 0.020406 0.000000 0.031669 0.000000
# 4 0.000000 0.000000 0.000000 0.036983 0.000000 0.000783
# 5 -0.026023 -0.006204 0.031669 0.000000 0.248922 0.000000
# 6 0.000000 0.000000 0.000000 0.000783 0.000000 0.034769
#
#
# Mechanical properties :
#
#
# Convention : Reuss Voigt Hill
#
# Bulk Modulus (GPa) = 48.16827 59.35642 53.76235
# Shear Modulus (GPa) = 11.84339 23.49437 17.66888
#
# Velocity S-wave (km/s) = 2.54320 3.58199 3.10632
# Velocity P-wave (km/s) = 5.91010 7.03726 6.49816
#
# Compressibility (1/GPa) = 0.02076055
#
# Stress axis : x y z
#
# Youngs Moduli (GPa) = 81.89044 39.91358 49.00637
#
# Poissons Ratio (x) = 0.22181 0.30923
# Poissons Ratio (y) = 0.45508 0.32286
# Poissons Ratio (z) = 0.51673 0.26295
#
# Static dielectric constant tensor:
#      x y z
#    x 1.736950 0.000000 0.039450 
#    y 0.000000 1.644160 0.000000 
#    z 0.039450 0.000000 1.603200 
# 
# From -- ./inp_files/282134.got.cif
#   From: 2010.05.17/outbox.cif.g08.bks.cpg/sg12_142_cif.got.tgz:282134.got - 2010.06.03 13:09:07.
