data_PCOD9184341
_publ_section_title
;
Structure prediction by ZEFSAII (Michael W. Deem and Ramdas Pophale) SiO2 
 PCOD9184341
Probable space group: C 2/M
;
_chemical_formula_sum "Si O2"
_cell_formula_units_Z 56
_cell_length_a 9.012389
_cell_length_b 14.733309
_cell_length_c 20.814007
_cell_angle_alpha 90.000000
_cell_angle_beta 86.468817
_cell_angle_gamma 90.000000
_cell_volume 2758.484819
_symmetry_space_group_name_H-M "C 2/M"
_symmetry_group_IT_number 12
_symmetry_cell_setting 'monoclinic'
loop_
_space_group_symop_operation_xyz
x,y,z
-x,y,-z
-x,-y,-z
x,-y,z
1/2+x,1/2+y,z
1/2-x,1/2+y,-z
1/2-x,1/2-y,-z
1/2+x,1/2-y,z
loop_
_atom_site_type_symbol
_atom_site_label
_atom_site_fract_x
_atom_site_fract_y
_atom_site_fract_z
Si Si1 0.813274 0.296108 0.903775
Si Si2 0.875406 0.604528 0.654265
Si Si3 0.226787 0.598772 0.621233
Si Si4 0.331860 0.605883 0.976173
Si Si5 0.663485 0.284193 0.276568
Si Si6 0.821932 0.346131 0.513457
Si Si7 0.422241 0.242380 0.186598
O O1 0.819524 0.189410 0.925810
O O2 0.677565 0.302917 0.857679
O O3 0.964890 0.312928 0.861371
O O4 0.780485 0.360772 0.964600
O O5 0.854875 0.500000 0.673025
O O6 0.823133 0.677367 0.707523
O O7 0.798474 0.621550 0.586882
O O8 0.053000 0.620978 0.639382
O O9 0.257237 0.500000 0.647762
O O10 0.332633 0.668432 0.654704
O O11 0.240853 0.596548 0.544216
O O12 0.305282 0.500000 0.957716
O O13 0.500000 0.610051 0.000000
O O14 0.522233 0.296138 0.235209
O O15 0.806083 0.314594 0.231895
O O16 0.750000 0.250000 0.500000
O O17 0.000000 0.343274 0.500000
#
# Coordination Sequence:
#
# PCOD9184341 Si02
#       7
#     8   8   8   8   8   8   8
#     4  10  20  41  60  89 126 158 182 238 284 338
#     4  10  20  36  58  84 112 148 194 245 297 355
#     4  10  20  36  58  84 112 148 194 245 297 355
#     4  10  20  37  66  97 122 151 189 236 286 334
#     4  11  20  38  58  80 112 157 200 242 278 343
#     4  10  19  33  59  84 110 144 187 241 309 358
#     4  10  22  37  60  83 118 162 196 230 286 330
#
# _framework density 20.301000999999999
#
# number of rings (size 3 to 8) (size 9 to 14) (size 15 to 20)
#    0.000    1.857    4.286    0.429    0.000    1.714 
#    0.000   10.714    0.000    0.857    0.000    0.000 
#    0.000    0.000    0.000    0.000    0.000    0.000 
#
# Total GULP energy -156054.813036 kJ/mol
# GULP energy per Si atom -5573.386180 kJ/mol
# Density = 2.025479 g / cm^3
# Si number density = 20.301001 Si / 1000 Ang^3
#
#
#
# Elastic Constant Matrix: (Units=GPa)
#
#
# Indices 1 2 3 4 5 6 
#
# 1 55.5660 9.4877 17.4174 0.0000 7.3050 0.0000
# 2 9.4877 98.3699 25.1937 0.0000 8.9362 0.0000
# 3 17.4174 25.1937 78.7866 0.0000 11.7293 0.0000
# 4 0.0000 0.0000 0.0000 6.6898 0.0000 -4.2748
# 5 7.3050 8.9362 11.7293 0.0000 32.8663 0.0000
# 6 0.0000 0.0000 0.0000 -4.2748 0.0000 11.2269
#
#
#
# Elastic Compliance Matrix: (Units=1/GPa)
#
#
# Indices 1 2 3 4 5 6 
#
# 1 0.019649 -0.000688 -0.003698 0.000000 -0.002860 0.000000
# 2 -0.000688 0.011204 -0.003168 0.000000 -0.001763 0.000000
# 3 -0.003698 -0.003168 0.015073 0.000000 -0.003696 0.000000
# 4 0.000000 0.000000 0.000000 0.197546 0.000000 0.075219
# 5 -0.002860 -0.001763 -0.003696 0.000000 0.032860 0.000000
# 6 0.000000 0.000000 0.000000 0.075219 0.000000 0.117712
#
#
# Mechanical properties :
#
#
# Convention : Reuss Voigt Hill
#
# Bulk Modulus (GPa) = 32.44877 37.43556 34.94216
# Shear Modulus (GPa) = 11.92106 22.19820 17.05963
#
# Velocity S-wave (km/s) = 2.42588 3.31033 2.90200
# Velocity P-wave (km/s) = 4.88519 5.75251 5.33650
#
# Compressibility (1/GPa) = 0.03081781
#
# Stress axis : x y z
#
# Youngs Moduli (GPa) = 50.89237 89.25715 66.34240
#
# Poissons Ratio (x) = 0.06143 0.24533
# Poissons Ratio (y) = 0.03503 0.21017
# Poissons Ratio (z) = 0.18820 0.28277
#
# Static dielectric constant tensor:
#      x y z
#    x 1.733760 0.000000 -0.007830 
#    y 0.000000 1.722160 0.000000 
#    z -0.007830 0.000000 1.750620 
# 
# From -- ./inp_files/300148.got.cif
#   From: 2010.05.17/outbox.cif.g08.bks.cpg/sg12_151_cif.got.tgz:300148.got - 2010.06.03 13:09:07.
