data_PCOD9184423
_publ_section_title
;
Structure prediction by ZEFSAII (Michael W. Deem and Ramdas Pophale) SiO2 
 PCOD9184423
Probable space group: C 2/M
;
_chemical_formula_sum "Si O2"
_cell_formula_units_Z 60
_cell_length_a 12.346073
_cell_length_b 15.197782
_cell_length_c 18.343220
_cell_angle_alpha 90.000000
_cell_angle_beta 47.592593
_cell_angle_gamma 90.000000
_cell_volume 2541.309667
_symmetry_space_group_name_H-M "C 2/M"
_symmetry_group_IT_number 12
_symmetry_cell_setting 'monoclinic'
loop_
_space_group_symop_operation_xyz
x,y,z
-x,y,-z
-x,-y,-z
x,-y,z
1/2+x,1/2+y,z
1/2-x,1/2+y,-z
1/2-x,1/2-y,-z
1/2+x,1/2-y,z
loop_
_atom_site_type_symbol
_atom_site_label
_atom_site_fract_x
_atom_site_fract_y
_atom_site_fract_z
Si Si1 0.028729 0.840408 0.676601
Si Si2 0.571543 0.898531 0.126827
Si Si3 0.068577 0.601250 0.391541
Si Si4 0.828191 0.692512 0.787110
Si Si5 0.595495 0.500000 0.196132
Si Si6 0.766675 0.894240 0.688150
Si Si7 0.253734 0.898365 0.468152
Si Si8 0.334222 0.154981 0.059850
O O1 0.976769 0.749513 0.733056
O O2 0.898209 0.857650 0.676620
O O3 0.176794 0.840576 0.564253
O O4 0.025453 0.921827 0.732399
O O5 0.649015 0.889363 0.169957
O O6 0.398466 0.875983 0.210167
O O7 0.581988 0.000000 0.098446
O O8 0.659005 0.837570 0.030747
O O9 0.119346 0.500000 0.379361
O O10 0.179029 0.661406 0.293900
O O11 0.000000 0.632378 0.500000
O O12 0.926176 0.598528 0.403708
O O13 0.705653 0.757739 0.876003
O O14 0.720565 0.578103 0.130499
O O15 0.782641 0.869251 0.596743
O O16 0.782282 0.000000 0.686278
O O17 0.198780 0.000000 0.501062
O O18 0.500000 0.126835 0.000000
#
# Coordination Sequence:
#
# PCOD9184423 Si02
#       8
#     8   8   8   8   4   8   8   8
#     4  11  21  34  57  91 138 162 192 259 324 395
#     4  11  21  39  66  89 121 171 220 258 313 385
#     4  10  22  44  67  85 120 177 231 261 300 376
#     4  11  24  40  58  94 127 161 211 271 317 368
#     4  10  19  36  57  90 129 163 203 240 321 407
#     4  10  19  33  61  94 124 162 205 253 318 390
#     4  10  19  36  60  90 122 164 214 256 312 382
#     4  11  23  39  65  93 126 164 210 267 328 394
#
# _framework density 23.609873
#
# number of rings (size 3 to 8) (size 9 to 14) (size 15 to 20)
#    0.000    1.467    3.333    3.000    1.867    2.667 
#    4.800    0.000    0.000    1.600    0.000    0.000 
#    0.000    0.000    0.000    0.000    0.000    0.000 
#
# Total GULP energy -167134.037001 kJ/mol
# GULP energy per Si atom -5571.134567 kJ/mol
# Density = 2.355614 g / cm^3
# Si number density = 23.609873 Si / 1000 Ang^3
#
#
#
# Elastic Constant Matrix: (Units=GPa)
#
#
# Indices 1 2 3 4 5 6 
#
# 1 34.3574 -5.8296 -3.2897 0.0000 5.4876 0.0000
# 2 -5.8296 69.1128 35.4965 0.0000 -4.6298 0.0000
# 3 -3.2897 35.4965 121.9994 -0.0001 5.4461 0.0000
# 4 0.0000 0.0000 -0.0001 35.8099 0.0000 7.0311
# 5 5.4876 -4.6298 5.4461 0.0000 28.7453 0.0000
# 6 0.0000 0.0000 0.0000 7.0311 0.0000 21.0190
#
#
#
# Elastic Compliance Matrix: (Units=1/GPa)
#
#
# Indices 1 2 3 4 5 6 
#
# 1 0.030373 0.001927 0.000508 0.000000 -0.005584 0.000000
# 2 0.001927 0.017535 -0.005204 0.000000 0.003442 0.000000
# 3 0.000508 -0.005204 0.009850 0.000000 -0.002801 0.000000
# 4 0.000000 0.000000 0.000000 0.029888 0.000000 -0.009998
# 5 -0.005584 0.003442 -0.002801 0.000000 0.036939 0.000000
# 6 0.000000 0.000000 0.000000 -0.009998 0.000000 0.050921
#
#
# Mechanical properties :
#
#
# Convention : Reuss Voigt Hill
#
# Bulk Modulus (GPa) = 19.14975 30.91379 25.03177
# Shear Modulus (GPa) = 25.19523 30.38764 27.79144
#
# Velocity S-wave (km/s) = 3.27027 3.59147 3.43463
# Velocity P-wave (km/s) = 4.73160 5.50638 5.13363
#
# Compressibility (1/GPa) = 0.05222001
#
# Stress axis : x y z
#
# Youngs Moduli (GPa) = 32.92361 57.02947 101.52799
#
# Poissons Ratio (x) = -0.10991 -0.05153
# Poissons Ratio (y) = -0.06345 0.52831
# Poissons Ratio (z) = -0.01671 0.29676
#
# Static dielectric constant tensor:
#      x y z
#    x 1.940740 0.000000 0.080230 
#    y 0.000000 1.911120 0.000000 
#    z 0.080230 0.000000 1.966940 
# 
# From -- ./inp_files/311025.got.cif
#   From: 2010.05.17/outbox.cif.g08.bks.cpg/sg12_156_cif.got.tgz:311025.got - 2010.06.03 13:09:07.
