data_PCOD9184154
_publ_section_title
;
Structure prediction by ZEFSAII (Michael W. Deem and Ramdas Pophale) SiO2 
 PCOD9184154
Probable space group: C 2/M
;
_chemical_formula_sum "Si O2"
_cell_formula_units_Z 64
_cell_length_a 29.572595
_cell_length_b 13.954204
_cell_length_c 8.878462
_cell_angle_alpha 90.000000
_cell_angle_beta 119.816714
_cell_angle_gamma 90.000000
_cell_volume 3178.791327
_symmetry_space_group_name_H-M "C 2/M"
_symmetry_group_IT_number 12
_symmetry_cell_setting 'monoclinic'
loop_
_space_group_symop_operation_xyz
x,y,z
-x,y,-z
-x,-y,-z
x,-y,z
1/2+x,1/2+y,z
1/2-x,1/2+y,-z
1/2-x,1/2-y,-z
1/2+x,1/2-y,z
loop_
_atom_site_type_symbol
_atom_site_label
_atom_site_fract_x
_atom_site_fract_y
_atom_site_fract_z
Si Si1 0.069768 0.111834 0.179588
Si Si2 0.784725 0.298716 0.431131
Si Si3 0.161466 0.105846 0.540842
Si Si4 0.338350 0.111222 0.794128
Si Si5 0.289219 0.275189 0.927718
Si Si6 0.460301 0.107504 0.074480
Si Si7 0.886697 0.107184 0.218734
Si Si8 0.476049 0.694102 0.199372
O O1 0.128542 0.117913 0.333758
O O2 0.032015 0.153233 0.246665
O O3 0.057679 0.000000 0.136897
O O4 0.057568 0.168264 0.007408
O O5 0.750000 0.250000 0.500000
O O6 0.809059 0.205396 0.391595
O O7 0.823487 0.362258 0.595971
O O8 0.745169 0.341357 0.243021
O O9 0.123765 0.101446 0.621487
O O10 0.188345 0.000000 0.580126
O O11 0.309346 0.182905 0.863557
O O12 0.324168 0.000000 0.798281
O O13 0.400540 0.120138 0.921822
O O14 0.250000 0.250000 0.000000
O O15 0.340960 0.327931 0.072517
O O16 0.475257 0.191997 0.211976
O O17 0.465360 0.000000 0.143928
O O18 0.500000 0.116824 0.000000
O O19 0.943928 0.146263 0.278591
O O20 0.882605 0.000000 0.147384
#
# Coordination Sequence:
#
# PCOD9184154 Si02
#       8
#     8   8   8   8   8   8   8   8
#     4  10  20  33  55  86 118 152 187 230 286 348
#     4  10  22  37  58  82 113 150 196 246 291 343
#     4  10  22  39  58  83 118 156 190 231 292 353
#     4  10  22  40  62  87 117 154 196 246 300 351
#     4  11  22  40  60  86 119 154 198 245 293 355
#     4  10  19  33  57  87 114 145 188 239 295 348
#     4  11  23  38  58  85 119 155 194 236 290 358
#     4  11  19  35  58  87 118 149 188 240 287 344
#
# _framework density 20.133438000000002
#
# number of rings (size 3 to 8) (size 9 to 14) (size 15 to 20)
#    0.000    1.625    3.750    2.250    1.750    3.500 
#    0.000    1.875    0.000    0.750    0.000    0.875 
#    0.000    0.375    0.000    0.000    0.000    0.000 
#
# Total GULP energy -178407.211950 kJ/mol
# GULP energy per Si atom -5575.225373 kJ/mol
# Density = 2.008761 g / cm^3
# Si number density = 20.133438 Si / 1000 Ang^3
#
#
#
# Elastic Constant Matrix: (Units=GPa)
#
#
# Indices 1 2 3 4 5 6 
#
# 1 80.9235 17.4613 -7.2511 0.0000 -9.1592 0.0000
# 2 17.4613 114.4394 6.4222 0.0000 0.9536 0.0000
# 3 -7.2511 6.4222 46.3731 0.0000 -0.3305 0.0000
# 4 0.0000 0.0000 0.0000 7.9128 0.0000 -15.2779
# 5 -9.1592 0.9536 -0.3305 0.0000 20.0038 0.0000
# 6 0.0000 0.0000 0.0000 -15.2779 0.0000 13.2047
#
#
#
# Elastic Compliance Matrix: (Units=1/GPa)
#
#
# Indices 1 2 3 4 5 6 
#
# 1 0.013814 -0.002303 0.002525 0.000000 0.006476 0.000000
# 2 -0.002303 0.009195 -0.001644 0.000000 -0.001520 0.000000
# 3 0.002525 -0.001644 0.022198 0.000000 0.001601 0.000000
# 4 0.000000 0.000000 0.000000 -0.102420 0.000000 -0.118500
# 5 0.006476 -0.001520 0.001601 0.000000 0.053055 0.000000
# 6 0.000000 0.000000 0.000000 -0.118500 0.000000 -0.061374
#
#
# Mechanical properties :
#
#
# Convention : Reuss Voigt Hill
#
# Bulk Modulus (GPa) = 23.60649 30.55564 27.08107
# Shear Modulus (GPa) = -102.95168 23.23116 -39.86026
#
# Velocity S-wave (km/s) = -7.15861 3.40054 -4.45433
# Velocity P-wave (km/s) = 7.52178 5.53423 3.60204
#
# Compressibility (1/GPa) = 0.04236123
#
# Stress axis : x y z
#
# Youngs Moduli (GPa) = 72.39218 108.75890 45.04869
#
# Poissons Ratio (x) = 0.25051 -0.11375
# Poissons Ratio (y) = 0.16675 0.07408
# Poissons Ratio (z) = -0.18280 0.17884
#
# Static dielectric constant tensor:
#      x y z
#    x 1.708300 0.000000 0.021710 
#    y 0.000000 1.745800 0.000000 
#    z 0.021710 0.000000 1.745330 
# 
# From -- ./inp_files/111672.got.cif
#   From: 2010.05.17/outbox.cif.g08.bks.cpg/sg12_56_cif.got.tgz:111672.got - 2010.06.03 13:09:07.
