data_PCOD9184079
_publ_section_title
;
Structure prediction by ZEFSAII (Michael W. Deem and Ramdas Pophale) SiO2 
 PCOD9184079
Probable space group: C 2/M
;
_chemical_formula_sum "Si O2"
_cell_formula_units_Z 64
_cell_length_a 31.429948
_cell_length_b 7.474985
_cell_length_c 16.638217
_cell_angle_alpha 90.000000
_cell_angle_beta 133.153827
_cell_angle_gamma 90.000000
_cell_volume 2851.661702
_symmetry_space_group_name_H-M "C 2/M"
_symmetry_group_IT_number 12
_symmetry_cell_setting 'monoclinic'
loop_
_space_group_symop_operation_xyz
x,y,z
-x,y,-z
-x,-y,-z
x,-y,z
1/2+x,1/2+y,z
1/2-x,1/2+y,-z
1/2-x,1/2-y,-z
1/2+x,1/2-y,z
loop_
_atom_site_type_symbol
_atom_site_label
_atom_site_fract_x
_atom_site_fract_y
_atom_site_fract_z
Si Si1 0.401397 0.293775 0.685860
Si Si2 0.515622 0.783094 0.929959
Si Si3 0.289689 0.712114 0.628723
Si Si4 0.751584 0.791948 0.247819
Si Si5 0.136741 0.710953 0.015536
Si Si6 0.954797 0.219220 0.595935
Si Si7 0.876502 0.218823 0.350446
Si Si8 0.911678 0.784152 0.219217
O O1 0.616755 0.500000 0.349102
O O2 0.464810 0.286179 0.807149
O O3 0.353483 0.216529 0.684761
O O4 0.410781 0.217614 0.609071
O O5 0.578944 0.716974 0.984733
O O6 0.514625 0.000000 0.923634
O O7 0.500000 0.731109 0.000000
O O8 0.293000 0.500000 0.646878
O O9 0.250000 0.750000 0.500000
O O10 0.263586 0.786002 0.677431
O O11 0.815028 0.718213 0.307597
O O12 0.755443 0.000000 0.229199
O O13 0.696992 0.713258 0.127796
O O14 0.137672 0.500000 0.035932
O O15 0.125341 0.729791 0.906157
O O16 0.929348 0.272895 0.477139
O O17 0.020912 0.277637 0.698389
O O18 0.955406 0.000000 0.599486
O O19 0.885600 0.275595 0.270560
O O20 0.877499 0.000000 0.352223
O O21 0.912949 0.000000 0.221014
#
# Coordination Sequence:
#
# PCOD9184079 Si02
#       8
#     8   8   8   8   8   8   8   8
#     4  10  20  34  54  81 108 139 179 226 274 322
#     4  10  20  34  52  75 104 141 184 223 268 332
#     4  11  23  38  58  85 116 149 188 231 277 332
#     4  10  21  39  59  79 111 153 194 234 278 331
#     4  10  21  36  54  78 113 152 186 228 285 340
#     4   9  16  30  53  82 111 135 173 230 285 330
#     4   9  18  33  56  83 107 141 189 237 282 333
#     4  10  19  33  57  84 109 142 186 234 285 337
#
# _framework density 22.443055999999999
#
# number of rings (size 3 to 8) (size 9 to 14) (size 15 to 20)
#    0.000    2.125    1.250    2.250    0.000    6.750 
#    0.000    0.625    0.000    2.250    0.000    0.000 
#    0.000    0.000    0.000    0.000    0.000    0.000 
#
# Total GULP energy -178796.988133 kJ/mol
# GULP energy per Si atom -5587.405879 kJ/mol
# Density = 2.239197 g / cm^3
# Si number density = 22.443056 Si / 1000 Ang^3
#
#
#
# Elastic Constant Matrix: (Units=GPa)
#
#
# Indices 1 2 3 4 5 6 
#
# 1 118.2525 -9.2367 36.7576 0.0000 -7.1202 0.0000
# 2 -9.2367 61.6605 -18.3445 0.0000 6.3275 0.0000
# 3 36.7576 -18.3445 115.8367 0.0000 -4.2988 0.0000
# 4 0.0000 0.0000 0.0000 20.9682 0.0000 -5.2932
# 5 -7.1202 6.3275 -4.2988 0.0000 41.0526 0.0000
# 6 0.0000 0.0000 0.0000 -5.2932 0.0000 11.5155
#
#
#
# Elastic Compliance Matrix: (Units=1/GPa)
#
#
# Indices 1 2 3 4 5 6 
#
# 1 0.009464 0.000428 -0.002888 0.000000 0.001273 0.000000
# 2 0.000428 0.017268 0.002513 0.000000 -0.002324 0.000000
# 3 -0.002888 0.002513 0.009953 0.000000 0.000154 0.000000
# 4 0.000000 0.000000 0.000000 0.053951 0.000000 0.024799
# 5 0.001273 -0.002324 0.000154 0.000000 0.024954 0.000000
# 6 0.000000 0.000000 0.000000 0.024799 0.000000 0.098238
#
#
# Mechanical properties :
#
#
# Convention : Reuss Voigt Hill
#
# Bulk Modulus (GPa) = 27.18151 34.90027 31.04089
# Shear Modulus (GPa) = 22.12505 33.81215 27.96860
#
# Velocity S-wave (km/s) = 3.14320 3.88567 3.53399
# Velocity P-wave (km/s) = 5.03096 5.97625 5.52387
#
# Compressibility (1/GPa) = 0.03678972
#
# Stress axis : x y z
#
# Youngs Moduli (GPa) = 105.65979 57.91067 100.47250
#
# Poissons Ratio (x) = -0.02478 0.29019
# Poissons Ratio (y) = -0.04520 -0.25245
# Poissons Ratio (z) = 0.30517 -0.14551
#
# Static dielectric constant tensor:
#      x y z
#    x 1.829620 0.000000 0.006680 
#    y 0.000000 1.879110 0.000000 
#    z 0.006680 0.000000 1.801210 
# 
# From -- ./inp_files/250023.got.cif
#   From: 2010.05.17/outbox.cif.g08.bks.cpg/sg12_126_cif.got.tgz:250023.got - 2010.06.03 13:09:07.
