data_PCOD9184103
_publ_section_title
;
Structure prediction by ZEFSAII (Michael W. Deem and Ramdas Pophale) SiO2 
 PCOD9184103
Probable space group: C 2/M
;
_chemical_formula_sum "Si O2"
_cell_formula_units_Z 40
_cell_length_a 12.433417
_cell_length_b 20.637700
_cell_length_c 12.886443
_cell_angle_alpha 90.000000
_cell_angle_beta 142.909844
_cell_angle_gamma 90.000000
_cell_volume 1994.129038
_symmetry_space_group_name_H-M "C 2/M"
_symmetry_group_IT_number 12
_symmetry_cell_setting 'monoclinic'
loop_
_space_group_symop_operation_xyz
x,y,z
-x,y,-z
-x,-y,-z
x,-y,z
1/2+x,1/2+y,z
1/2-x,1/2+y,-z
1/2-x,1/2-y,-z
1/2+x,1/2-y,z
loop_
_atom_site_type_symbol
_atom_site_label
_atom_site_fract_x
_atom_site_fract_y
_atom_site_fract_z
Si Si1 0.702473 0.735836 0.162792
Si Si2 0.987412 0.314385 0.249155
Si Si3 0.293152 0.315127 0.626796
Si Si4 0.939213 0.136169 0.340373
Si Si5 0.611111 0.927716 0.979912
O O1 0.697488 0.677484 0.242571
O O2 0.834554 0.796397 0.286044
O O3 0.787548 0.708444 0.122368
O O4 0.500000 0.760191 0.000000
O O5 0.089338 0.325191 0.436283
O O6 0.117411 0.257298 0.307784
O O7 0.970670 0.374953 0.160932
O O8 0.402519 0.350309 0.619699
O O9 0.000000 0.110341 0.500000
O O10 0.804570 0.092798 0.170462
O O11 0.610953 0.000000 0.934451
O O12 0.500000 0.928121 0.000000
#
# Coordination Sequence:
#
# PCOD9184103 Si02
#       5
#     8   8   8   8   8
#     4  11  20  32  56  86 113 141 173 222 284 333
#     4  10  20  36  56  81 113 143 179 225 273 326
#     4  10  19  33  57  85 111 140 175 225 282 328
#     4  11  21  34  54  81 113 143 180 227 272 324
#     4  11  23  38  56  78 109 149 187 222 263 317
#
# _framework density 20.058883000000002
#
# number of rings (size 3 to 8) (size 9 to 14) (size 15 to 20)
#    0.000    1.400    0.000    9.600    0.000    3.600 
#    0.000    1.000    0.000    7.800    0.000    0.000 
#    0.000    0.000    0.000    0.000    0.000    0.000 
#
# Total GULP energy -111441.474945 kJ/mol
# GULP energy per Si atom -5572.073747 kJ/mol
# Density = 2.001323 g / cm^3
# Si number density = 20.058883 Si / 1000 Ang^3
#
#
#
# Elastic Constant Matrix: (Units=GPa)
#
#
# Indices 1 2 3 4 5 6 
#
# 1 99.8324 24.1080 24.6536 0.0000 8.3306 0.0000
# 2 24.1080 81.7450 36.5521 0.0000 -7.5080 0.0000
# 3 24.6536 36.5521 100.2200 0.0000 -8.2500 0.0000
# 4 0.0000 0.0000 0.0000 8.7457 0.0000 -6.4145
# 5 8.3306 -7.5080 -8.2500 0.0000 40.4297 0.0000
# 6 0.0000 0.0000 0.0000 -6.4145 0.0000 11.5145
#
#
#
# Elastic Compliance Matrix: (Units=1/GPa)
#
#
# Indices 1 2 3 4 5 6 
#
# 1 0.011473 -0.002752 -0.002090 0.000000 -0.003302 0.000000
# 2 -0.002752 0.015387 -0.004732 0.000000 0.002459 0.000000
# 3 -0.002090 -0.004732 0.012389 0.000000 0.002080 0.000000
# 4 0.000000 0.000000 0.000000 0.193337 0.000000 0.107704
# 5 -0.003302 0.002459 0.002080 0.000000 0.026296 0.000000
# 6 0.000000 0.000000 0.000000 0.107704 0.000000 0.146847
#
#
# Mechanical properties :
#
#
# Convention : Reuss Voigt Hill
#
# Bulk Modulus (GPa) = 49.75252 50.26945 50.01099
# Shear Modulus (GPa) = 11.58537 25.23688 18.41113
#
# Velocity S-wave (km/s) = 2.40587 3.55087 3.03290
# Velocity P-wave (km/s) = 5.70743 6.47510 6.10335
#
# Compressibility (1/GPa) = 0.02009948
#
# Stress axis : x y z
#
# Youngs Moduli (GPa) = 87.16023 64.99100 80.71355
#
# Poissons Ratio (x) = 0.17887 0.16872
# Poissons Ratio (y) = 0.23988 0.38197
# Poissons Ratio (z) = 0.18220 0.30756
#
# Static dielectric constant tensor:
#      x y z
#    x 1.790000 0.000000 0.020150 
#    y 0.000000 1.716810 0.000000 
#    z 0.020150 0.000000 1.818310 
# 
# From -- ./inp_files/134168.got.cif
#   From: 2010.05.17/outbox.cif.g08.bks.cpg/sg12_68_cif.got.tgz:134168.got - 2010.06.03 13:09:07.
