data_PCOD9184060
_publ_section_title
;
Structure prediction by ZEFSAII (Michael W. Deem and Ramdas Pophale) SiO2 
 PCOD9184060
Probable space group: C 2/M
;
_chemical_formula_sum "Si O2"
_cell_formula_units_Z 64
_cell_length_a 11.801066
_cell_length_b 18.125335
_cell_length_c 21.451023
_cell_angle_alpha 90.000000
_cell_angle_beta 52.470910
_cell_angle_gamma 90.000000
_cell_volume 3638.753710
_symmetry_space_group_name_H-M "C 2/M"
_symmetry_group_IT_number 12
_symmetry_cell_setting 'monoclinic'
loop_
_space_group_symop_operation_xyz
x,y,z
-x,y,-z
-x,-y,-z
x,-y,z
1/2+x,1/2+y,z
1/2-x,1/2+y,-z
1/2-x,1/2-y,-z
1/2+x,1/2-y,z
loop_
_atom_site_type_symbol
_atom_site_label
_atom_site_fract_x
_atom_site_fract_y
_atom_site_fract_z
Si Si1 0.997361 0.140369 0.360026
Si Si2 0.084294 0.687554 0.346419
Si Si3 0.997472 0.913347 0.898240
Si Si4 0.765144 0.086910 0.072607
Si Si5 0.983160 0.660064 0.772843
Si Si6 0.775957 0.663596 0.477876
Si Si7 0.588295 0.327430 0.745106
Si Si8 0.242041 0.916961 0.361133
O O1 0.838361 0.125672 0.439145
O O2 0.988633 0.136443 0.288662
O O3 0.048406 0.224876 0.357769
O O4 0.108521 0.091128 0.360141
O O5 0.084276 0.661636 0.274205
O O6 0.239927 0.671810 0.321425
O O7 0.946154 0.650719 0.425637
O O8 0.119945 0.906757 0.909831
O O9 0.041406 0.867412 0.823656
O O10 0.986673 0.000000 0.886139
O O11 0.849580 0.890950 0.981692
O O12 0.630201 0.134575 0.138147
O O13 0.727796 0.000000 0.080333
O O14 0.042829 0.741885 0.763897
O O15 0.115821 0.604428 0.724127
O O16 0.750000 0.750000 0.500000
O O17 0.734732 0.640261 0.421228
O O18 0.251343 0.000000 0.382949
#
# Coordination Sequence:
#
# PCOD9184060 Si02
#       8
#     8   8   8   8   8   8   8   8
#     4  10  21  34  51  79 110 148 185 216 272 333
#     4   9  18  34  52  79 108 138 187 237 268 313
#     4   9  19  34  55  81 108 141 179 231 285 331
#     4   9  17  33  56  81 107 138 184 231 281 332
#     4  10  19  33  57  83 108 146 188 229 274 327
#     4   9  20  36  56  78 105 145 189 232 272 315
#     4  11  20  34  57  79 116 146 183 230 275 334
#     4  11  22  37  57  84 117 146 182 229 274 329
#
# _framework density 17.588439999999999
#
# number of rings (size 3 to 8) (size 9 to 14) (size 15 to 20)
#    0.000    2.250    2.500    2.250    0.000    2.500 
#    0.000    0.000    0.000    0.750    0.000    6.125 
#    0.000    0.000    0.000    0.000    0.000    0.000 
#
# Total GULP energy -178383.542343 kJ/mol
# GULP energy per Si atom -5574.485698 kJ/mol
# Density = 1.754841 g / cm^3
# Si number density = 17.588440 Si / 1000 Ang^3
#
#
#
# Elastic Constant Matrix: (Units=GPa)
#
#
# Indices 1 2 3 4 5 6 
#
# 1 69.5974 35.4188 40.5808 0.0000 -5.4458 0.0000
# 2 35.4188 46.9174 36.1976 0.0000 -2.7906 0.0000
# 3 40.5808 36.1976 107.0680 0.0000 -14.8782 0.0000
# 4 0.0000 0.0000 0.0000 20.8982 0.0000 13.6998
# 5 -5.4458 -2.7906 -14.8782 0.0000 23.0502 0.0000
# 6 0.0000 0.0000 0.0000 13.6998 0.0000 -9.9323
#
#
#
# Elastic Compliance Matrix: (Units=1/GPa)
#
#
# Indices 1 2 3 4 5 6 
#
# 1 0.024649 -0.015515 -0.003899 0.000000 0.001429 0.000000
# 2 -0.015515 0.038802 -0.007793 0.000000 -0.003998 0.000000
# 3 -0.003899 -0.007793 0.014493 0.000000 0.007490 0.000000
# 4 0.000000 0.000000 0.000000 0.025129 0.000000 0.034661
# 5 0.001429 -0.003998 0.007490 0.000000 0.048072 0.000000
# 6 0.000000 0.000000 0.000000 0.034661 0.000000 -0.052873
#
#
# Mechanical properties :
#
#
# Convention : Reuss Voigt Hill
#
# Bulk Modulus (GPa) = 42.49911 49.77525 46.13718
# Shear Modulus (GPa) = 31.14709 14.22891 22.68800
#
# Velocity S-wave (km/s) = 4.21275 2.84736 3.59547
# Velocity P-wave (km/s) = 6.91944 6.25871 6.59735
#
# Compressibility (1/GPa) = 0.02352990
#
# Stress axis : x y z
#
# Youngs Moduli (GPa) = 40.56924 25.77220 68.99891
#
# Poissons Ratio (x) = 0.39986 0.26899
# Poissons Ratio (y) = 0.62945 0.53771
# Poissons Ratio (z) = 0.15816 0.20084
#
# Static dielectric constant tensor:
#      x y z
#    x 1.609600 0.000000 -0.015670 
#    y 0.000000 1.602890 0.000000 
#    z -0.015670 0.000000 1.600410 
# 
# From -- ./inp_files/263942.got.cif
#   From: 2010.05.17/outbox.cif.g08.bks.cpg/sg12_132_cif.got.tgz:263942.got - 2010.06.03 13:09:07.
