data_PCOD9184506
_publ_section_title
;
Structure prediction by ZEFSAII (Michael W. Deem and Ramdas Pophale) SiO2 
 PCOD9184506
Probable space group: C 2/M
;
_chemical_formula_sum "Si O2"
_cell_formula_units_Z 56
_cell_length_a 15.018961
_cell_length_b 12.477450
_cell_length_c 17.889688
_cell_angle_alpha 90.000000
_cell_angle_beta 65.592761
_cell_angle_gamma 90.000000
_cell_volume 3052.889915
_symmetry_space_group_name_H-M "C 2/M"
_symmetry_group_IT_number 12
_symmetry_cell_setting 'monoclinic'
loop_
_space_group_symop_operation_xyz
x,y,z
-x,y,-z
-x,-y,-z
x,-y,z
1/2+x,1/2+y,z
1/2-x,1/2+y,-z
1/2-x,1/2-y,-z
1/2+x,1/2-y,z
loop_
_atom_site_type_symbol
_atom_site_label
_atom_site_fract_x
_atom_site_fract_y
_atom_site_fract_z
Si Si1 0.599727 0.882253 0.188234
Si Si2 0.963438 0.126565 0.139408
Si Si3 0.022813 0.127140 0.405910
Si Si4 0.215018 0.263209 0.858412
Si Si5 0.083611 0.689669 0.030116
Si Si6 0.072550 0.751651 0.695241
Si Si7 0.246568 0.625120 0.695887
O O1 0.681426 0.794169 0.176403
O O2 0.583693 0.879217 0.104674
O O3 0.500403 0.846792 0.262431
O O4 0.631462 0.000000 0.201111
O O5 0.867296 0.174542 0.132591
O O6 0.951673 0.164104 0.229540
O O7 0.052254 0.192053 0.070726
O O8 0.972613 0.000000 0.129188
O O9 0.137840 0.147183 0.350926
O O10 0.000000 0.151557 0.500000
O O11 0.956025 0.194406 0.372564
O O12 0.005619 0.000000 0.399925
O O13 0.213987 0.349412 0.792318
O O14 0.183584 0.309669 0.949216
O O15 0.000000 0.656204 0.000000
O O16 0.181046 0.704587 0.668327
O O17 0.230185 0.500000 0.683734
#
# Coordination Sequence:
#
# PCOD9184506 Si02
#       7
#     8   8   8   8   8   8   8
#     4  11  21  33  51  75 107 148 187 231 279 325
#     4   9  18  32  52  75 106 145 184 234 285 323
#     4  10  21  39  64  90 114 145 186 230 279 339
#     4  10  19  34  51  77 108 142 190 236 275 327
#     4   9  20  33  47  71 105 143 193 236 275 326
#     4  10  20  36  57  84 115 147 186 230 276 337
#     4  10  21  38  61  85 114 152 186 225 284 341
#
# _framework density 18.343274999999998
#
# number of rings (size 3 to 8) (size 9 to 14) (size 15 to 20)
#    0.000    2.143    1.429    2.571    0.000    4.571 
#    0.000    0.000    0.000    1.714    0.000    0.000 
#    0.000    0.000    0.000    0.000    0.000    0.000 
#
# Total GULP energy -156243.417679 kJ/mol
# GULP energy per Si atom -5580.122060 kJ/mol
# Density = 1.830152 g / cm^3
# Si number density = 18.343275 Si / 1000 Ang^3
#
#
#
# Elastic Constant Matrix: (Units=GPa)
#
#
# Indices 1 2 3 4 5 6 
#
# 1 62.9744 25.1919 21.3947 0.0000 15.9285 0.0000
# 2 25.1919 60.2854 30.4527 0.0000 5.1404 0.0000
# 3 21.3947 30.4527 74.8523 0.0000 19.3139 0.0000
# 4 0.0000 0.0000 0.0000 -48.2323 0.0000 0.1801
# 5 15.9285 5.1404 19.3139 0.0000 27.6063 0.0000
# 6 0.0000 0.0000 0.0000 0.1801 0.0000 20.6235
#
#
#
# Elastic Compliance Matrix: (Units=1/GPa)
#
#
# Indices 1 2 3 4 5 6 
#
# 1 0.021999 -0.008203 -0.000085 0.000000 -0.011106 0.000000
# 2 -0.008203 0.024081 -0.009172 0.000000 0.006666 0.000000
# 3 -0.000085 -0.009172 0.020333 0.000000 -0.012468 0.000000
# 4 0.000000 0.000000 0.000000 -0.020732 0.000000 0.000181
# 5 -0.011106 0.006666 -0.012468 0.000000 0.050114 0.000000
# 6 0.000000 0.000000 0.000000 0.000181 0.000000 0.048487
#
#
# Mechanical properties :
#
#
# Convention : Reuss Voigt Hill
#
# Bulk Modulus (GPa) = 31.75421 39.13230 35.44326
# Shear Modulus (GPa) = 26.35770 8.07103 17.21437
#
# Velocity S-wave (km/s) = 3.79478 2.09989 3.06675
# Velocity P-wave (km/s) = 6.04559 5.22102 5.64837
#
# Compressibility (1/GPa) = 0.03149189
#
# Stress axis : x y z
#
# Youngs Moduli (GPa) = 45.45661 41.52735 49.18197
#
# Poissons Ratio (x) = 0.34065 0.00417
# Poissons Ratio (y) = 0.37288 0.45111
# Poissons Ratio (z) = 0.00386 0.38090
#
# Static dielectric constant tensor:
#      x y z
#    x 1.649990 0.000000 0.001230 
#    y 0.000000 1.613640 0.000000 
#    z 0.001230 0.000000 1.623310 
# 
# From -- ./inp_files/268834.got.cif
#   From: 2010.05.17/outbox.cif.g08.bks.cpg/sg12_135_cif.got.tgz:268834.got - 2010.06.03 13:09:07.
