data_PCOD9184425
_publ_section_title
;
Structure prediction by ZEFSAII (Michael W. Deem and Ramdas Pophale) SiO2 
 PCOD9184425
Probable space group: C 2/M
;
_chemical_formula_sum "Si O2"
_cell_formula_units_Z 64
_cell_length_a 31.435727
_cell_length_b 17.321602
_cell_length_c 12.589935
_cell_angle_alpha 90.000000
_cell_angle_beta 27.906182
_cell_angle_gamma 90.000000
_cell_volume 3208.516363
_symmetry_space_group_name_H-M "C 2/M"
_symmetry_group_IT_number 12
_symmetry_cell_setting 'monoclinic'
loop_
_space_group_symop_operation_xyz
x,y,z
-x,y,-z
-x,-y,-z
x,-y,z
1/2+x,1/2+y,z
1/2-x,1/2+y,-z
1/2-x,1/2-y,-z
1/2+x,1/2-y,z
loop_
_atom_site_type_symbol
_atom_site_label
_atom_site_fract_x
_atom_site_fract_y
_atom_site_fract_z
Si Si1 0.042804 0.822330 0.010205
Si Si2 0.780428 0.359352 0.772534
Si Si3 0.602733 0.311696 0.287406
Si Si4 0.795497 0.590308 0.168901
Si Si5 0.604931 0.125940 0.271669
Si Si6 0.830807 0.688548 0.293225
Si Si7 0.134200 0.192469 0.461590
Si Si8 0.222746 0.085773 0.679960
O O1 0.964361 0.808246 0.268644
O O2 0.081680 0.740477 0.884413
O O3 0.129880 0.865322 0.868823
O O4 0.000000 0.862108 0.000000
O O5 0.844767 0.389514 0.726557
O O6 0.820415 0.277819 0.638783
O O7 0.760830 0.411460 0.714865
O O8 0.681414 0.344324 0.040690
O O9 0.500000 0.339854 0.500000
O O10 0.603881 0.219326 0.267595
O O11 0.629583 0.327796 0.348507
O O12 0.795909 0.500000 0.198786
O O13 0.838326 0.648956 0.160781
O O14 0.695413 0.627614 0.381618
O O15 0.842343 0.597375 0.949406
O O16 0.500000 0.099428 0.500000
O O17 0.750000 0.750000 0.500000
O O18 0.803593 0.619965 0.430577
O O19 0.200820 0.000000 0.694114
#
# Coordination Sequence:
#
# PCOD9184425 Si02
#       8
#     8   8   8   8   8   8   8   8
#     4  11  23  39  68  98 121 163 219 277 322 384
#     4  11  20  40  65  96 130 177 224 269 324 375
#     4  10  19  33  61  95 124 166 219 277 317 365
#     4  12  24  40  63  93 134 172 209 264 331 395
#     4  10  22  38  65  95 128 174 224 273 317 375
#     4  10  23  42  65  89 118 160 215 267 317 376
#     4  11  20  37  62  93 125 162 218 271 319 373
#     4  11  24  42  65  94 134 174 208 259 333 401
#
# _framework density 19.946915000000001
#
# number of rings (size 3 to 8) (size 9 to 14) (size 15 to 20)
#    0.000    1.250    2.500    5.625    5.250    1.500 
#    0.000    0.000    0.000    3.000    0.000    0.000 
#    0.000    0.000    0.000    0.000    0.000    0.000 
#
# Total GULP energy -178533.890251 kJ/mol
# GULP energy per Si atom -5579.184070 kJ/mol
# Density = 1.990152 g / cm^3
# Si number density = 19.946915 Si / 1000 Ang^3
#
#
#
# Elastic Constant Matrix: (Units=GPa)
#
#
# Indices 1 2 3 4 5 6 
#
# 1 86.6293 35.6908 18.9158 0.0000 -4.8825 0.0000
# 2 35.6908 59.5399 31.0391 0.0000 -7.2495 0.0000
# 3 18.9158 31.0391 118.1918 0.0000 -0.7768 0.0000
# 4 0.0000 0.0000 0.0000 0.4852 0.0000 1.9343
# 5 -4.8825 -7.2495 -0.7768 0.0000 34.9106 0.0000
# 6 0.0000 0.0000 0.0000 1.9343 0.0000 4.8918
#
#
#
# Elastic Compliance Matrix: (Units=1/GPa)
#
#
# Indices 1 2 3 4 5 6 
#
# 1 0.015332 -0.009132 -0.000054 0.000000 0.000247 0.000000
# 2 -0.009132 0.025453 -0.005197 0.000000 0.003893 0.000000
# 3 -0.000054 -0.005197 0.009829 0.000000 -0.000868 0.000000
# 4 0.000000 0.000000 0.000000 -3.576062 0.000000 1.414009
# 5 0.000247 0.003893 -0.000868 0.000000 0.029468 0.000000
# 6 0.000000 0.000000 0.000000 1.414009 0.000000 -0.354690
#
#
# Mechanical properties :
#
#
# Convention : Reuss Voigt Hill
#
# Bulk Modulus (GPa) = 45.77378 48.40581 47.08980
# Shear Modulus (GPa) = -1.31075 19.97187 9.33056
#
# Velocity S-wave (km/s) = -0.81151 3.16769 2.16514
# Velocity P-wave (km/s) = 4.70314 6.13995 5.46894
#
# Compressibility (1/GPa) = 0.02184657
#
# Stress axis : x y z
#
# Youngs Moduli (GPa) = 65.22498 39.28786 101.74375
#
# Poissons Ratio (x) = 0.35879 0.00547
# Poissons Ratio (y) = 0.59566 0.52879
# Poissons Ratio (z) = 0.00351 0.20419
#
# Static dielectric constant tensor:
#      x y z
#    x 1.860640 0.000000 -0.252780 
#    y 0.000000 1.686720 0.000000 
#    z -0.252780 0.000000 2.325350 
# 
# From -- ./inp_files/190055.got.cif
#   From: 2010.05.17/outbox.cif.g08.bks.cpg/sg12_96_cif.got.tgz:190055.got - 2010.06.03 13:09:07.
