data_PCOD9184479
_publ_section_title
;
Structure prediction by ZEFSAII (Michael W. Deem and Ramdas Pophale) SiO2 
 PCOD9184479
Probable space group: C 2/M
;
_chemical_formula_sum "Si O2"
_cell_formula_units_Z 64
_cell_length_a 25.911378
_cell_length_b 8.161208
_cell_length_c 20.168563
_cell_angle_alpha 90.000000
_cell_angle_beta 62.643663
_cell_angle_gamma 90.000000
_cell_volume 3788.034909
_symmetry_space_group_name_H-M "C 2/M"
_symmetry_group_IT_number 12
_symmetry_cell_setting 'monoclinic'
loop_
_space_group_symop_operation_xyz
x,y,z
-x,y,-z
-x,-y,-z
x,-y,z
1/2+x,1/2+y,z
1/2-x,1/2+y,-z
1/2-x,1/2-y,-z
1/2+x,1/2-y,z
loop_
_atom_site_type_symbol
_atom_site_label
_atom_site_fract_x
_atom_site_fract_y
_atom_site_fract_z
Si Si1 0.040912 0.195132 0.827055
Si Si2 0.263767 0.697904 0.654752
Si Si3 0.639305 0.301345 0.668990
Si Si4 0.752238 0.700235 0.189618
Si Si5 0.798161 0.194543 0.918628
Si Si6 0.113306 0.698477 0.911116
Si Si7 0.412091 0.805913 0.924726
Si Si8 0.312160 0.697642 0.493188
O O1 0.084343 0.256607 0.743785
O O2 0.070957 0.236792 0.879376
O O3 0.976596 0.266732 0.862646
O O4 0.036423 0.000000 0.823678
O O5 0.266330 0.500000 0.654201
O O6 0.198850 0.745010 0.669237
O O7 0.271704 0.756948 0.725171
O O8 0.308769 0.756199 0.571322
O O9 0.639318 0.500000 0.670039
O O10 0.642529 0.246969 0.589967
O O11 0.750766 0.500000 0.190719
O O12 0.718137 0.759389 0.144825
O O13 0.820105 0.746135 0.143037
O O14 0.861479 0.239660 0.907723
O O15 0.794112 0.000000 0.917270
O O16 0.750000 0.250000 0.000000
O O17 0.110156 0.500000 0.911517
O O18 0.096300 0.756420 0.994772
O O19 0.404137 0.000000 0.932615
O O20 0.315084 0.500000 0.493178
O O21 0.250000 0.750000 0.500000
#
# Coordination Sequence:
#
# PCOD9184479 Si02
#       8
#     8   8   8   8   8   8   8   8
#     4  11  22  33  47  71  99 129 161 196 236 283
#     4   9  15  26  46  68  91 122 159 187 220 276
#     4   9  17  28  41  64  99 127 150 185 233 274
#     4   9  17  30  49  72  96 123 156 193 235 277
#     4  11  21  36  54  72  95 124 159 201 243 284
#     4  10  19  34  51  68  95 128 159 194 237 280
#     4  11  23  38  52  68  91 126 166 205 242 279
#     4   8  14  24  40  63  91 123 152 183 221 271
#
# _framework density 16.895303999999999
#
# number of rings (size 3 to 8) (size 9 to 14) (size 15 to 20)
#    0.000    2.250    2.500    1.500    0.000    3.000 
#    0.000    1.250    0.000    0.000    0.000    0.875 
#    0.000    7.000    0.000    0.000    0.000    0.000 
#
# Total GULP energy -178373.594563 kJ/mol
# GULP energy per Si atom -5574.174830 kJ/mol
# Density = 1.685685 g / cm^3
# Si number density = 16.895304 Si / 1000 Ang^3
#
#
#
# Elastic Constant Matrix: (Units=GPa)
#
#
# Indices 1 2 3 4 5 6 
#
# 1 89.7619 1.5808 61.7504 0.0002 12.7620 0.0004
# 2 1.5808 11.3879 3.9528 0.0002 4.8393 -0.0007
# 3 61.7504 3.9528 147.6575 0.0000 30.5160 -0.0001
# 4 0.0002 0.0002 0.0000 12.3712 0.0000 -1.8028
# 5 12.7620 4.8393 30.5160 0.0000 16.0290 0.0002
# 6 0.0004 -0.0007 -0.0001 -1.8028 0.0002 21.9445
#
#
#
# Elastic Compliance Matrix: (Units=1/GPa)
#
#
# Indices 1 2 3 4 5 6 
#
# 1 0.015640 0.000118 -0.006534 0.000000 -0.000049 0.000000
# 2 0.000118 0.103973 0.006057 -0.000002 -0.043016 0.000004
# 3 -0.006534 0.006057 0.014254 0.000000 -0.023763 0.000001
# 4 0.000000 -0.000002 0.000000 0.081813 0.000001 0.006721
# 5 -0.000049 -0.043016 -0.023763 0.000001 0.120652 -0.000002
# 6 0.000000 0.000004 0.000001 0.006721 -0.000002 0.046122
#
#
# Mechanical properties :
#
#
# Convention : Reuss Voigt Hill
#
# Bulk Modulus (GPa) = 7.51036 42.59725 25.05381
# Shear Modulus (GPa) = 11.69444 22.17050 16.93247
#
# Velocity S-wave (km/s) = 2.63377 3.62640 3.16919
# Velocity P-wave (km/s) = 3.70187 6.54229 5.31533
#
# Compressibility (1/GPa) = 0.13314942
#
# Stress axis : x y z
#
# Youngs Moduli (GPa) = 63.93734 9.61789 70.15721
#
# Poissons Ratio (x) = -0.00113 0.45839
# Poissons Ratio (y) = -0.00752 -0.42497
# Poissons Ratio (z) = 0.41775 -0.05826
#
# Static dielectric constant tensor:
#      x y z
#    x 1.525350 0.000000 0.024330 
#    y 0.000000 1.595440 0.000000 
#    z 0.024330 0.000000 1.627960 
# 
# From -- ./inp_files/323663.got.cif
#   From: 2010.05.17/outbox.cif.g08.bks.cpg/sg12_162_cif.got.tgz:323663.got - 2010.06.03 13:09:07.
