data_PCOD9184063
_publ_section_title
;
Structure prediction by ZEFSAII (Michael W. Deem and Ramdas Pophale) SiO2 
 PCOD9184063
Probable space group: C 2/M
;
_chemical_formula_sum "Si O2"
_cell_formula_units_Z 48
_cell_length_a 19.627836
_cell_length_b 8.864115
_cell_length_c 16.054093
_cell_angle_alpha 90.000000
_cell_angle_beta 102.858727
_cell_angle_gamma 90.000000
_cell_volume 2723.098434
_symmetry_space_group_name_H-M "C 2/M"
_symmetry_group_IT_number 12
_symmetry_cell_setting 'monoclinic'
loop_
_space_group_symop_operation_xyz
x,y,z
-x,y,-z
-x,-y,-z
x,-y,z
1/2+x,1/2+y,z
1/2-x,1/2+y,-z
1/2-x,1/2-y,-z
1/2+x,1/2-y,z
loop_
_atom_site_type_symbol
_atom_site_label
_atom_site_fract_x
_atom_site_fract_y
_atom_site_fract_z
Si Si1 0.980112 0.181043 0.400721
Si Si2 0.555186 0.179799 0.263388
Si Si3 0.663772 0.320873 0.724025
Si Si4 0.588129 0.179604 0.860474
Si Si5 0.689998 0.679372 0.219095
Si Si6 0.314213 0.180389 0.965526
O O1 0.899282 0.214157 0.356628
O O2 0.000000 0.222315 0.500000
O O3 0.026749 0.264428 0.344644
O O4 0.989499 0.000000 0.393486
O O5 0.492341 0.215399 0.181093
O O6 0.625676 0.261169 0.255870
O O7 0.565293 0.000000 0.266326
O O8 0.675380 0.500000 0.728214
O O9 0.635061 0.267844 0.806237
O O10 0.735875 0.237344 0.726189
O O11 0.597584 0.000000 0.847440
O O12 0.616645 0.210022 0.960296
O O13 0.689862 0.500000 0.214557
O O14 0.682742 0.747768 0.124409
O O15 0.305175 0.000000 0.955897
O O16 0.250000 0.250000 0.000000
#
# Coordination Sequence:
#
# PCOD9184063 Si02
#       6
#     8   8   8   8   8   8
#     4   9  19  38  63  89 114 140 174 220 276 338
#     4  10  21  38  58  82 112 145 184 229 278 329
#     4  10  19  33  57  83 109 144 184 224 270 330
#     4   9  19  35  55  78 108 145 185 230 275 322
#     4  12  24  37  53  78 114 152 188 232 279 320
#     4  11  21  34  54  81 111 147 190 233 274 321
#
# _framework density 17.62698
#
# number of rings (size 3 to 8) (size 9 to 14) (size 15 to 20)
#    0.000    1.833    1.667    3.000    0.000    3.000 
#    0.000    4.167    0.000    0.000    0.000    0.000 
#    0.000    0.000    0.000    0.000    0.000    0.000 
#
# Total GULP energy -134030.444341 kJ/mol
# GULP energy per Si atom -5584.601848 kJ/mol
# Density = 1.758686 g / cm^3
# Si number density = 17.626980 Si / 1000 Ang^3
#
#
#
# Elastic Constant Matrix: (Units=GPa)
#
#
# Indices 1 2 3 4 5 6 
#
# 1 145.8000 75.4396 65.5271 0.0000 1.0522 0.0000
# 2 75.4396 88.5123 51.0843 0.0000 4.3450 0.0000
# 3 65.5271 51.0843 108.4347 0.0000 16.3662 0.0000
# 4 0.0000 0.0000 0.0000 24.6234 0.0000 -4.0827
# 5 1.0522 4.3450 16.3662 0.0000 18.2654 0.0000
# 6 0.0000 0.0000 0.0000 -4.0827 0.0000 28.0226
#
#
#
# Elastic Compliance Matrix: (Units=1/GPa)
#
#
# Indices 1 2 3 4 5 6 
#
# 1 0.013762 -0.009218 -0.004839 0.000000 0.005736 0.000000
# 2 -0.009218 0.021866 -0.004655 0.000000 -0.000499 0.000000
# 3 -0.004839 -0.004655 0.016340 0.000000 -0.013255 0.000000
# 4 0.000000 0.000000 0.000000 0.041617 0.000000 0.006063
# 5 0.005736 -0.000499 -0.013255 0.000000 0.066414 0.000000
# 6 0.000000 0.000000 0.000000 0.006063 0.000000 0.036569
#
#
# Mechanical properties :
#
#
# Convention : Reuss Voigt Hill
#
# Bulk Modulus (GPa) = 68.76381 80.76101 74.76241
# Shear Modulus (GPa) = 20.93452 24.22869 22.58160
#
# Velocity S-wave (km/s) = 3.44995 3.71148 3.58310
# Velocity P-wave (km/s) = 7.41383 8.01766 7.72165
#
# Compressibility (1/GPa) = 0.01454253
#
# Stress axis : x y z
#
# Youngs Moduli (GPa) = 72.66505 45.73406 61.19786
#
# Poissons Ratio (x) = 0.42157 0.29617
# Poissons Ratio (y) = 0.66981 0.28490
# Poissons Ratio (z) = 0.35166 0.21291
#
# Static dielectric constant tensor:
#      x y z
#    x 1.596390 0.000000 0.033290 
#    y 0.000000 1.586430 0.000000 
#    z 0.033290 0.000000 1.577260 
# 
# From -- ./inp_files/221608.got.cif
#   From: 2010.05.17/outbox.cif.g08.bks.cpg/sg12_111_cif.got.tgz:221608.got - 2010.06.03 13:09:07.
