data_PCOD9184841
_publ_section_title
;
Structure prediction by ZEFSAII (Michael W. Deem and Ramdas Pophale) SiO2 
 PCOD9184841
Probable space group: C 2/M
;
_chemical_formula_sum "Si O2"
_cell_formula_units_Z 56
_cell_length_a 14.728997
_cell_length_b 7.724917
_cell_length_c 28.501115
_cell_angle_alpha 90.000000
_cell_angle_beta 121.288861
_cell_angle_gamma 90.000000
_cell_volume 2771.221965
_symmetry_space_group_name_H-M "C 2/M"
_symmetry_group_IT_number 12
_symmetry_cell_setting 'monoclinic'
loop_
_space_group_symop_operation_xyz
x,y,z
-x,y,-z
-x,-y,-z
x,-y,z
1/2+x,1/2+y,z
1/2-x,1/2+y,-z
1/2-x,1/2-y,-z
1/2+x,1/2-y,z
loop_
_atom_site_type_symbol
_atom_site_label
_atom_site_fract_x
_atom_site_fract_y
_atom_site_fract_z
Si Si1 0.257571 0.296325 0.268704
Si Si2 0.080983 0.798380 0.559437
Si Si3 0.811801 0.287812 0.648404
Si Si4 0.573378 0.702119 0.950219
Si Si5 0.986709 0.701135 0.356289
Si Si6 0.845202 0.790501 0.856862
Si Si7 0.740808 0.710347 0.069378
O O1 0.276163 0.500000 0.280094
O O2 0.196215 0.234680 0.299101
O O3 0.374512 0.213816 0.299170
O O4 0.193347 0.268593 0.204005
O O5 0.200882 0.727552 0.595346
O O6 0.031803 0.788073 0.598298
O O7 0.000000 0.719863 0.500000
O O8 0.094650 0.000000 0.550379
O O9 0.813622 0.500000 0.648551
O O10 0.915745 0.229224 0.648337
O O11 0.553440 0.500000 0.955139
O O12 0.461532 0.775564 0.903381
O O13 0.658052 0.719206 0.930994
O O14 0.635698 0.770648 0.012586
O O15 0.008394 0.500000 0.371956
O O16 0.767658 0.740602 0.878752
O O17 0.848445 0.000000 0.856209
O O18 0.744170 0.500000 0.067036
#
# Coordination Sequence:
#
# PCOD9184841 Si02
#       7
#     8   8   8   8   8   8   8
#     4  10  21  37  53  72 100 132 169 210 254 303
#     4   9  18  34  54  78 110 142 170 203 246 296
#     4   8  17  34  53  72  99 136 169 202 249 297
#     4   9  18  33  52  74 100 130 166 206 247 300
#     4  10  19  34  55  76 101 134 172 211 251 294
#     4  10  20  34  52  74 100 131 167 206 253 303
#     4   9  18  33  52  73 100 133 165 202 252 304
#
# _framework density 20.207691000000001
#
# number of rings (size 3 to 8) (size 9 to 14) (size 15 to 20)
#    0.000    2.714    0.000    2.143    0.000    4.857 
#    0.000   11.429    0.000    4.286    0.000    0.000 
#    0.000    0.000    0.000    0.000    0.000    0.000 
#
# Total GULP energy -156173.266744 kJ/mol
# GULP energy per Si atom -5577.616669 kJ/mol
# Density = 2.016170 g / cm^3
# Si number density = 20.207691 Si / 1000 Ang^3
#
#
#
# Elastic Constant Matrix: (Units=GPa)
#
#
# Indices 1 2 3 4 5 6 
#
# 1 118.0555 -7.5325 42.0452 0.0000 1.4712 0.0000
# 2 -7.5325 30.2307 -8.6212 0.0000 1.5064 0.0000
# 3 42.0452 -8.6212 92.6452 0.0000 -1.5501 0.0000
# 4 0.0000 0.0000 0.0000 19.0209 0.0000 -4.2946
# 5 1.4712 1.5064 -1.5501 0.0000 8.9618 0.0000
# 6 0.0000 0.0000 0.0000 -4.2946 0.0000 16.1878
#
#
#
# Elastic Compliance Matrix: (Units=1/GPa)
#
#
# Indices 1 2 3 4 5 6 
#
# 1 0.010213 0.001381 -0.004552 0.000000 -0.002696 0.000000
# 2 0.001381 0.034409 0.002482 0.000000 -0.005581 0.000000
# 3 -0.004552 0.002482 0.013134 0.000000 0.002602 0.000000
# 4 0.000000 0.000000 0.000000 0.055924 0.000000 0.014837
# 5 -0.002696 -0.005581 0.002602 0.000000 0.113415 0.000000
# 6 0.000000 0.000000 0.000000 0.014837 0.000000 0.065711
#
#
# Mechanical properties :
#
#
# Convention : Reuss Voigt Hill
#
# Bulk Modulus (GPa) = 17.73717 32.52382 25.13049
# Shear Modulus (GPa) = 15.97562 23.17009 19.57285
#
# Velocity S-wave (km/s) = 2.81476 3.38982 3.11559
# Velocity P-wave (km/s) = 4.40004 5.60811 5.04040
#
# Compressibility (1/GPa) = 0.05637879
#
# Stress axis : x y z
#
# Youngs Moduli (GPa) = 97.91049 29.06217 76.13792
#
# Poissons Ratio (x) = -0.04014 0.34656
# Poissons Ratio (y) = -0.13523 -0.18896
# Poissons Ratio (z) = 0.44566 -0.07213
#
# Static dielectric constant tensor:
#      x y z
#    x 1.707330 0.000000 0.010380 
#    y 0.000000 1.777430 0.000000 
#    z 0.010380 0.000000 1.700800 
# 
# From -- ./inp_files/360016.got.cif
#   From: 2010.05.17/outbox.cif.g08.bks.cpg/sg12_181_cif.got.tgz:360016.got - 2010.06.03 13:09:07.
