data_PCOD9184330
_publ_section_title
;
Structure prediction by ZEFSAII (Michael W. Deem and Ramdas Pophale) SiO2 
 PCOD9184330
Probable space group: C 2/M
;
_chemical_formula_sum "Si O2"
_cell_formula_units_Z 40
_cell_length_a 26.973497
_cell_length_b 14.043446
_cell_length_c 7.541605
_cell_angle_alpha 90.000000
_cell_angle_beta 36.733247
_cell_angle_gamma 90.000000
_cell_volume 1708.604236
_symmetry_space_group_name_H-M "C 2/M"
_symmetry_group_IT_number 12
_symmetry_cell_setting 'monoclinic'
loop_
_space_group_symop_operation_xyz
x,y,z
-x,y,-z
-x,-y,-z
x,-y,z
1/2+x,1/2+y,z
1/2-x,1/2+y,-z
1/2-x,1/2-y,-z
1/2+x,1/2-y,z
loop_
_atom_site_type_symbol
_atom_site_label
_atom_site_fract_x
_atom_site_fract_y
_atom_site_fract_z
Si Si1 0.324532 0.395360 0.128236
Si Si2 0.000398 0.108203 0.283404
Si Si3 0.312888 0.193616 0.993736
Si Si4 0.372034 0.746885 0.470678
Si Si5 0.636860 0.106583 0.800626
O O1 0.333936 0.500000 0.016091
O O2 0.327885 0.305694 0.990202
O O3 0.235321 0.393209 0.473751
O O4 0.401714 0.384861 0.039989
O O5 0.944439 0.182033 0.340493
O O6 0.000000 0.121394 0.500000
O O7 0.974167 0.000000 0.320445
O O8 0.213587 0.186032 0.304998
O O9 0.364768 0.136138 0.989576
O O10 0.343981 0.178271 0.706206
O O11 0.395866 0.810792 0.233650
O O12 0.604471 0.000000 0.863004
#
# Coordination Sequence:
#
# PCOD9184330 Si02
#       5
#     8   8   8   8   8
#     4   9  17  33  58  86 118 150 180 230 295 351
#     4  10  19  33  58  92 124 151 182 231 299 364
#     4  10  20  36  58  85 117 155 194 237 286 339
#     4  10  20  35  60  87 114 155 196 232 288 350
#     4  10  22  40  59  83 118 154 199 249 281 328
#
# _framework density 23.410920999999998
#
# number of rings (size 3 to 8) (size 9 to 14) (size 15 to 20)
#    0.000    2.200    2.000    2.400    0.000    1.600 
#    0.000    7.000    0.000   13.800    0.000    0.000 
#    0.000    0.000    0.000    0.000    0.000    0.000 
#
# Total GULP energy -111769.838438 kJ/mol
# GULP energy per Si atom -5588.491922 kJ/mol
# Density = 2.335764 g / cm^3
# Si number density = 23.410921 Si / 1000 Ang^3
#
#
#
# Elastic Constant Matrix: (Units=GPa)
#
#
# Indices 1 2 3 4 5 6 
#
# 1 118.0694 57.1727 16.9604 0.0000 -7.3124 0.0000
# 2 57.1727 113.2401 18.1916 0.0000 -15.1479 0.0000
# 3 16.9604 18.1916 37.8542 0.0000 -10.9623 0.0000
# 4 0.0000 0.0000 0.0000 15.9838 0.0000 -15.9730
# 5 -7.3124 -15.1479 -10.9623 0.0000 42.9663 0.0000
# 6 0.0000 0.0000 0.0000 -15.9730 0.0000 23.8636
#
#
#
# Elastic Compliance Matrix: (Units=1/GPa)
#
#
# Indices 1 2 3 4 5 6 
#
# 1 0.011449 -0.005433 -0.002709 0.000000 -0.000658 0.000000
# 2 -0.005433 0.012378 -0.002719 0.000000 0.002745 0.000000
# 3 -0.002709 -0.002719 0.030802 0.000000 0.006439 0.000000
# 4 0.000000 0.000000 0.000000 0.188949 0.000000 0.126472
# 5 -0.000658 0.002745 0.006439 0.000000 0.025773 0.000000
# 6 0.000000 0.000000 0.000000 0.126472 0.000000 0.126558
#
#
# Mechanical properties :
#
#
# Convention : Reuss Voigt Hill
#
# Bulk Modulus (GPa) = 30.38929 50.42367 40.40648
# Shear Modulus (GPa) = 11.66589 28.35203 20.00896
#
# Velocity S-wave (km/s) = 2.23471 3.48380 2.92667
# Velocity P-wave (km/s) = 4.43481 6.14555 5.35889
#
# Compressibility (1/GPa) = 0.03290633
#
# Stress axis : x y z
#
# Youngs Moduli (GPa) = 87.34471 80.78877 32.46498
#
# Poissons Ratio (x) = 0.43894 0.08795
# Poissons Ratio (y) = 0.47456 0.08828
# Poissons Ratio (z) = 0.23664 0.21967
#
# Static dielectric constant tensor:
#      x y z
#    x 1.927410 0.000000 0.035720 
#    y 0.000000 1.861170 0.000000 
#    z 0.035720 0.000000 1.995820 
# 
# From -- ./inp_files/103867.got.cif
#   From: 2010.05.17/outbox.cif.g08.bks.cpg/sg12_52_cif.got.tgz:103867.got - 2010.06.03 13:09:07.
