data_PCOD9184173
_publ_section_title
;
Structure prediction by ZEFSAII (Michael W. Deem and Ramdas Pophale) SiO2 
 PCOD9184173
Probable space group: C 2/M
;
_chemical_formula_sum "Si O2"
_cell_formula_units_Z 56
_cell_length_a 16.458936
_cell_length_b 13.864287
_cell_length_c 12.245921
_cell_angle_alpha 90.000000
_cell_angle_beta 63.530142
_cell_angle_gamma 90.000000
_cell_volume 2501.472717
_symmetry_space_group_name_H-M "C 2/M"
_symmetry_group_IT_number 12
_symmetry_cell_setting 'monoclinic'
loop_
_space_group_symop_operation_xyz
x,y,z
-x,y,-z
-x,-y,-z
x,-y,z
1/2+x,1/2+y,z
1/2-x,1/2+y,-z
1/2-x,1/2-y,-z
1/2+x,1/2-y,z
loop_
_atom_site_type_symbol
_atom_site_label
_atom_site_fract_x
_atom_site_fract_y
_atom_site_fract_z
Si Si1 0.226212 0.326135 0.854387
Si Si2 0.920011 0.329172 0.626553
Si Si3 0.129400 0.892277 0.591423
Si Si4 0.832473 0.385366 0.473706
Si Si5 0.595585 0.392404 0.361521
Si Si6 0.635333 0.168373 0.121021
Si Si7 0.430944 0.224561 0.224134
O O1 0.298549 0.385408 0.739728
O O2 0.288868 0.240688 0.870231
O O3 0.141353 0.292949 0.829961
O O4 0.183365 0.376928 0.987152
O O5 0.840323 0.334085 0.586448
O O6 0.937696 0.216923 0.648523
O O7 0.896755 0.385576 0.749880
O O8 0.000000 0.365629 0.500000
O O9 0.230828 0.861920 0.500172
O O10 0.084256 0.893595 0.499303
O O11 0.086768 0.827538 0.709880
O O12 0.134902 0.000000 0.630895
O O13 0.843426 0.500000 0.479134
O O14 0.901209 0.346276 0.341724
O O15 0.567210 0.500000 0.335935
O O16 0.538215 0.211237 0.135759
#
# Coordination Sequence:
#
# PCOD9184173 Si02
#       7
#     8   8   8   8   8   8   8
#     4  10  22  38  62  84 123 168 203 255 304 361
#     4  11  20  37  58  86 127 158 200 260 311 364
#     4  10  19  33  58  92 122 152 200 253 307 369
#     4  11  22  35  57  91 125 159 201 252 312 374
#     4  10  19  33  57  87 122 161 198 246 309 367
#     4  10  22  39  59  92 118 157 220 249 293 379
#     4  12  20  39  65  86 123 166 202 254 318 360
#
# _framework density 22.386813
#
# number of rings (size 3 to 8) (size 9 to 14) (size 15 to 20)
#    0.000    1.429    4.286    2.571    0.000    0.571 
#    0.000    5.714    0.000   12.857    0.000    0.000 
#    0.000    0.000    0.000    0.000    0.000    0.000 
#
# Total GULP energy -155959.051623 kJ/mol
# GULP energy per Si atom -5569.966129 kJ/mol
# Density = 2.233586 g / cm^3
# Si number density = 22.386813 Si / 1000 Ang^3
#
#
#
# Elastic Constant Matrix: (Units=GPa)
#
#
# Indices 1 2 3 4 5 6 
#
# 1 114.4568 9.5748 15.3423 0.0000 5.5864 0.0000
# 2 9.5748 95.2836 13.8407 0.0000 2.0140 0.0000
# 3 15.3423 13.8407 140.0904 0.0000 0.8504 0.0000
# 4 0.0000 0.0000 0.0000 -18.4053 0.0000 -4.0068
# 5 5.5864 2.0140 0.8504 0.0000 30.8338 0.0000
# 6 0.0000 0.0000 0.0000 -4.0068 0.0000 15.2095
#
#
#
# Elastic Compliance Matrix: (Units=1/GPa)
#
#
# Indices 1 2 3 4 5 6 
#
# 1 0.008996 -0.000740 -0.000903 0.000000 -0.001557 0.000000
# 2 -0.000740 0.010722 -0.000975 0.000000 -0.000539 0.000000
# 3 -0.000903 -0.000975 0.007333 0.000000 0.000025 0.000000
# 4 0.000000 0.000000 0.000000 -0.051385 0.000000 -0.013537
# 5 -0.001557 -0.000539 0.000025 0.000000 0.032749 0.000000
# 6 0.000000 0.000000 0.000000 -0.013537 0.000000 0.062182
#
#
# Mechanical properties :
#
#
# Convention : Reuss Voigt Hill
#
# Bulk Modulus (GPa) = 45.83750 47.48292 46.66021
# Shear Modulus (GPa) = 60.16522 26.26579 43.21551
#
# Velocity S-wave (km/s) = 5.18976 3.42902 4.39840
# Velocity P-wave (km/s) = 7.51207 6.07732 6.83246
#
# Compressibility (1/GPa) = 0.02181620
#
# Stress axis : x y z
#
# Youngs Moduli (GPa) = 111.16309 93.26295 136.36463
#
# Poissons Ratio (x) = 0.06901 0.12309
# Poissons Ratio (y) = 0.08226 0.13296
# Poissons Ratio (z) = 0.10034 0.09093
#
# Static dielectric constant tensor:
#      x y z
#    x 2.057310 0.000000 -0.038410 
#    y 0.000000 1.832630 0.000000 
#    z -0.038410 0.000000 1.829530 
# 
# From -- ./inp_files/156542.got.cif
#   From: 2010.05.17/outbox.cif.g08.bks.cpg/sg12_79_cif.got.tgz:156542.got - 2010.06.03 13:09:07.
