data_PCOD9184942
_publ_section_title
;
Structure prediction by ZEFSAII (Michael W. Deem and Ramdas Pophale) SiO2 
 PCOD9184942
Probable space group: C 2/M
;
_chemical_formula_sum "Si O2"
_cell_formula_units_Z 64
_cell_length_a 12.120374
_cell_length_b 18.221930
_cell_length_c 28.587220
_cell_angle_alpha 90.000000
_cell_angle_beta 35.232698
_cell_angle_gamma 90.000000
_cell_volume 3642.350804
_symmetry_space_group_name_H-M "C 2/M"
_symmetry_group_IT_number 12
_symmetry_cell_setting 'monoclinic'
loop_
_space_group_symop_operation_xyz
x,y,z
-x,y,-z
-x,-y,-z
x,-y,z
1/2+x,1/2+y,z
1/2-x,1/2+y,-z
1/2-x,1/2-y,-z
1/2+x,1/2-y,z
loop_
_atom_site_type_symbol
_atom_site_label
_atom_site_fract_x
_atom_site_fract_y
_atom_site_fract_z
Si Si1 0.852022 0.088195 0.320130
Si Si2 0.570347 0.694487 0.620118
Si Si3 0.155532 0.165060 0.485713
Si Si4 0.290716 0.208218 0.768765
Si Si5 0.957478 0.585000 0.648904
Si Si6 0.031345 0.418033 0.045476
Si Si7 0.814716 0.181738 0.836117
Si Si8 0.839876 0.809119 0.934397
O O1 0.874334 0.131733 0.361399
O O2 0.654982 0.103877 0.360405
O O3 0.016445 0.122595 0.229641
O O4 0.872035 0.000000 0.318648
O O5 0.730692 0.759140 0.565830
O O6 0.564074 0.670281 0.568703
O O7 0.368165 0.731277 0.704783
O O8 0.320856 0.104393 0.431602
O O9 0.000000 0.150971 0.500000
O O10 0.375819 0.133473 0.719463
O O11 0.366754 0.245123 0.789892
O O12 0.067060 0.196627 0.854047
O O13 0.923499 0.500000 0.669165
O O14 0.001548 0.500000 0.074308
O O15 0.875115 0.359226 0.117156
O O16 0.242688 0.386745 0.981130
O O17 0.000000 0.421719 0.000000
O O18 0.778582 0.202499 0.901940
O O19 0.750000 0.750000 0.000000
#
# Coordination Sequence:
#
# PCOD9184942 Si02
#       8
#     8   8   8   8   8   8   8   8
#     4  10  20  35  58  86 118 148 184 241 297 343
#     4   9  22  36  58  87 116 148 195 234 285 344
#     4  10  22  38  61  83 115 154 190 234 280 339
#     4  10  20  35  55  81 111 152 182 235 276 338
#     4  10  22  38  58  88 115 147 191 234 291 351
#     4   9  18  30  48  78 108 137 176 229 281 323
#     4  10  19  34  55  79 113 145 190 233 281 340
#     4  11  20  32  54  80 114 146 190 229 279 333
#
# _framework density 17.571069999999999
#
# number of rings (size 3 to 8) (size 9 to 14) (size 15 to 20)
#    0.000    2.125    2.500    0.375    5.250    2.750 
#    0.000    1.250    0.000    0.750    0.000    1.750 
#    0.000    0.000    0.000    0.000    0.000    0.000 
#
# Total GULP energy -178256.127954 kJ/mol
# GULP energy per Si atom -5570.503999 kJ/mol
# Density = 1.753108 g / cm^3
# Si number density = 17.571070 Si / 1000 Ang^3
#
#
#
# Elastic Constant Matrix: (Units=GPa)
#
#
# Indices 1 2 3 4 5 6 
#
# 1 77.3863 43.7166 40.1519 0.0004 -0.1485 0.0003
# 2 43.7166 81.8121 10.7273 0.0024 8.1471 0.0005
# 3 40.1519 10.7273 80.6859 0.0045 -0.3610 -0.0007
# 4 0.0004 0.0024 0.0045 13.4537 -0.0019 -0.4395
# 5 -0.1485 8.1471 -0.3610 -0.0019 35.3418 0.0000
# 6 0.0003 0.0005 -0.0007 -0.4395 0.0000 21.8013
#
#
#
# Elastic Compliance Matrix: (Units=1/GPa)
#
#
# Indices 1 2 3 4 5 6 
#
# 1 0.025876 -0.012651 -0.011182 0.000006 0.002911 0.000000
# 2 -0.012651 0.018926 0.003760 -0.000005 -0.004378 0.000000
# 3 -0.011182 0.003760 0.017455 -0.000006 -0.000735 0.000000
# 4 0.000006 -0.000005 -0.000006 0.074378 0.000005 0.001499
# 5 0.002911 -0.004378 -0.000735 0.000005 0.029309 0.000000
# 6 0.000000 0.000000 0.000000 0.001499 0.000000 0.045899
#
#
# Mechanical properties :
#
#
# Convention : Reuss Voigt Hill
#
# Bulk Modulus (GPa) = 45.22576 47.67509 46.45043
# Shear Modulus (GPa) = 19.27830 23.80527 21.54179
#
# Velocity S-wave (km/s) = 3.31594 3.68475 3.50520
# Velocity P-wave (km/s) = 6.36044 6.73014 6.54790
#
# Compressibility (1/GPa) = 0.02211129
#
# Stress axis : x y z
#
# Youngs Moduli (GPa) = 38.64600 52.83734 57.29017
#
# Poissons Ratio (x) = 0.66842 0.64060
# Poissons Ratio (y) = 0.48889 -0.21538
# Poissons Ratio (z) = 0.43213 -0.19864
#
# Static dielectric constant tensor:
#      x y z
#    x 1.599970 0.000000 -0.012680 
#    y 0.000000 1.600870 0.000000 
#    z -0.012680 0.000000 1.627100 
# 
# From -- ./inp_files/374440.got.cif
#   From: 2010.05.17/outbox.cif.g08.bks.cpg/sg12_188_cif.got.tgz:374440.got - 2010.06.03 13:09:07.
