data_PCOD9184590
_publ_section_title
;
Structure prediction by ZEFSAII (Michael W. Deem and Ramdas Pophale) SiO2 
 PCOD9184590
Probable space group: C 2/M
;
_chemical_formula_sum "Si O2"
_cell_formula_units_Z 56
_cell_length_a 7.794105
_cell_length_b 26.500069
_cell_length_c 18.963889
_cell_angle_alpha 90.000000
_cell_angle_beta 128.060680
_cell_angle_gamma 90.000000
_cell_volume 3083.990728
_symmetry_space_group_name_H-M "C 2/M"
_symmetry_group_IT_number 12
_symmetry_cell_setting 'monoclinic'
loop_
_space_group_symop_operation_xyz
x,y,z
-x,y,-z
-x,-y,-z
x,-y,z
1/2+x,1/2+y,z
1/2-x,1/2+y,-z
1/2-x,1/2-y,-z
1/2+x,1/2-y,z
loop_
_atom_site_type_symbol
_atom_site_label
_atom_site_fract_x
_atom_site_fract_y
_atom_site_fract_z
Si Si1 0.139804 0.693389 0.397646
Si Si2 0.053133 0.193389 0.397646
Si Si3 0.948566 0.500000 0.602870
Si Si4 0.528655 0.099372 0.715598
Si Si5 0.360045 0.500000 0.602870
Si Si6 0.191582 0.058020 0.098668
Si Si7 0.618139 0.599372 0.715598
Si Si8 0.104421 0.441980 0.098668
O O1 0.051584 0.750000 0.367723
O O2 0.351180 0.689426 0.400787
O O3 0.229495 0.687235 0.500000
O O4 0.977764 0.648973 0.334194
O O5 0.024818 0.148973 0.334194
O O6 0.969278 0.549848 0.655501
O O7 0.152103 0.500000 0.601402
O O8 0.731717 0.500000 0.500000
O O9 0.745493 0.088611 0.815636
O O10 0.334611 0.105711 0.723074
O O11 0.497224 0.549848 0.655501
O O12 0.407427 0.056037 0.104951
O O13 0.136400 0.000000 0.104457
O O14 0.000000 0.077778 0.000000
O O15 0.701415 0.588611 0.815636
O O16 0.176971 0.500000 0.104457
O O17 0.000000 0.422222 0.000000
#
# Coordination Sequence:
#
# PCOD9184590 Si02
#       8
#     8   8   4   8   4   8   8   8
#     4   9  18  32  51  73  96 126 164 204 243 285
#     4   9  18  32  51  73  96 126 164 204 243 285
#     4  11  23  33  44  71 106 133 158 197 248 293
#     4  10  19  34  53  72  96 131 170 201 238 294
#     4  11  23  33  44  71 106 133 158 197 248 293
#     4   9  17  30  48  71  97 125 160 201 241 287
#     4  10  19  34  53  72  96 131 170 201 238 294
#     4   9  17  30  48  71  97 125 160 201 241 287
#
# _framework density 18.158290999999998
#
# number of rings (size 3 to 8) (size 9 to 14) (size 15 to 20)
#    0.000    2.429    1.429    1.286    0.000    4.571 
#    0.000    2.857    0.000    0.857    0.000    6.000 
#    0.000    0.000    0.000    0.000    0.000    0.000 
#
# Total GULP energy -156193.087791 kJ/mol
# GULP energy per Si atom -5578.324564 kJ/mol
# Density = 1.811696 g / cm^3
# Si number density = 18.158291 Si / 1000 Ang^3
#
#
#
# Elastic Constant Matrix: (Units=GPa)
#
#
# Indices 1 2 3 4 5 6 
#
# 1 19.2111 -2.4668 1.9558 0.0000 0.0009 0.0000
# 2 -2.4668 146.9566 105.2262 0.0000 0.0047 0.0000
# 3 1.9558 105.2262 177.0802 0.0000 0.0060 0.0000
# 4 0.0000 0.0000 0.0000 -254.1490 0.0000 -0.0114
# 5 0.0009 0.0047 0.0060 0.0000 18.5639 0.0000
# 6 0.0000 0.0000 0.0000 -0.0114 0.0000 18.4939
#
#
#
# Elastic Compliance Matrix: (Units=1/GPa)
#
#
# Indices 1 2 3 4 5 6 
#
# 1 0.052539 0.002258 -0.001922 0.000000 -0.000002 0.000000
# 2 0.002258 0.011941 -0.007121 0.000000 -0.000001 0.000000
# 3 -0.001922 -0.007121 0.009900 0.000000 -0.000001 0.000000
# 4 0.000000 0.000000 0.000000 -0.003935 0.000000 -0.000002
# 5 -0.000002 -0.000001 -0.000001 0.000000 0.053868 0.000000
# 6 0.000000 0.000000 0.000000 -0.000002 0.000000 0.054072
#
#
# Mechanical properties :
#
#
# Convention : Reuss Voigt Hill
#
# Bulk Modulus (GPa) = 16.44453 61.40869 38.92661
# Shear Modulus (GPa) = 23.55987 -27.51607 -1.97810
#
# Velocity S-wave (km/s) = 3.60595 -3.89697 -1.04486
# Velocity P-wave (km/s) = 5.13936 3.69371 4.47530
#
# Compressibility (1/GPa) = 0.06081049
#
# Stress axis : x y z
#
# Youngs Moduli (GPa) = 19.03354 83.74183 101.01177
#
# Poissons Ratio (x) = -0.18911 0.19416
# Poissons Ratio (y) = -0.04298 0.71930
# Poissons Ratio (z) = 0.03659 0.59632
#
# Static dielectric constant tensor:
#      x y z
#    x 1.658880 0.000000 0.000000 
#    y 0.000000 1.601800 0.000000 
#    z 0.000000 0.000000 1.644080 
# 
# From -- ./inp_files/125330.got.cif
#   From: 2010.05.17/outbox.cif.g08.bks.cpg/sg12_63_cif.got.tgz:125330.got - 2010.06.03 13:09:07.
