data_PCOD9184323
_publ_section_title
;
Structure prediction by ZEFSAII (Michael W. Deem and Ramdas Pophale) SiO2 
 PCOD9184323
Probable space group: C 2/M
;
_chemical_formula_sum "Si O2"
_cell_formula_units_Z 48
_cell_length_a 18.813564
_cell_length_b 14.021821
_cell_length_c 16.673889
_cell_angle_alpha 90.000000
_cell_angle_beta 151.450931
_cell_angle_gamma 90.000000
_cell_volume 2102.130263
_symmetry_space_group_name_H-M "C 2/M"
_symmetry_group_IT_number 12
_symmetry_cell_setting 'monoclinic'
loop_
_space_group_symop_operation_xyz
x,y,z
-x,y,-z
-x,-y,-z
x,-y,z
1/2+x,1/2+y,z
1/2-x,1/2+y,-z
1/2-x,1/2-y,-z
1/2+x,1/2-y,z
loop_
_atom_site_type_symbol
_atom_site_label
_atom_site_fract_x
_atom_site_fract_y
_atom_site_fract_z
Si Si1 0.584023 0.385905 0.278356
Si Si2 0.357441 0.392620 0.918523
Si Si3 0.439738 0.732364 0.270029
Si Si4 0.301269 0.786894 0.372462
Si Si5 0.334730 0.110449 0.044412
Si Si6 0.903133 0.604605 0.823385
O O1 0.586643 0.500000 0.295014
O O2 0.561206 0.322103 0.333961
O O3 0.725323 0.356241 0.364462
O O4 0.435558 0.362282 0.078388
O O5 0.300734 0.500000 0.871223
O O6 0.239909 0.329686 0.754965
O O7 0.500000 0.395028 0.000000
O O8 0.531204 0.765465 0.437390
O O9 0.374374 0.824847 0.159986
O O10 0.302992 0.658445 0.139395
O O11 0.212168 0.688744 0.291128
O O12 0.480535 0.112922 0.133549
O O13 0.300854 0.000000 0.029818
O O14 0.831675 0.500000 0.749184
O O15 0.000000 0.610967 0.000000
#
# Coordination Sequence:
#
# PCOD9184323 Si02
#       6
#     8   8   8   8   8   8
#     4  10  19  33  58  90 123 158 196 240 298 360
#     4   8  16  31  54  86 118 151 187 234 294 351
#     4  11  23  38  58  90 120 157 197 245 306 357
#     4  11  20  34  57  92 119 147 196 256 293 340
#     4  10  23  42  60  80 119 164 199 239 297 363
#     4  10  21  38  62  86 113 156 204 246 291 350
#
# _framework density 22.83398
#
# number of rings (size 3 to 8) (size 9 to 14) (size 15 to 20)
#    0.000    2.000    1.667    4.000    0.000    2.667 
#    0.000    0.833    0.000    3.000    0.000    5.833 
#    0.000    0.000    0.000    0.000    0.000    0.000 
#
# Total GULP energy -134325.281700 kJ/mol
# GULP energy per Si atom -5596.886738 kJ/mol
# Density = 2.278201 g / cm^3
# Si number density = 22.833980 Si / 1000 Ang^3
#
#
#
# Elastic Constant Matrix: (Units=GPa)
#
#
# Indices 1 2 3 4 5 6 
#
# 1 44.9117 26.4367 20.1069 0.0001 0.0870 0.0000
# 2 26.4367 151.7713 74.8155 0.0002 -1.5724 0.0000
# 3 20.1069 74.8155 126.5453 0.0001 -14.5378 0.0000
# 4 0.0001 0.0002 0.0001 -26.2046 0.0001 -10.7395
# 5 0.0870 -1.5724 -14.5378 0.0001 31.5454 0.0000
# 6 0.0000 0.0000 0.0000 -10.7395 0.0000 13.1408
#
#
#
# Elastic Compliance Matrix: (Units=1/GPa)
#
#
# Indices 1 2 3 4 5 6 
#
# 1 0.025203 -0.003329 -0.002179 0.000000 -0.001240 0.000000
# 2 -0.003329 0.009884 -0.005551 0.000000 -0.002056 0.000000
# 3 -0.002179 -0.005551 0.012142 0.000000 0.005325 0.000000
# 4 0.000000 0.000000 0.000000 -0.028586 0.000000 -0.023363
# 5 -0.001240 -0.002056 0.005325 0.000000 0.034055 0.000000
# 6 0.000000 0.000000 0.000000 -0.023363 0.000000 0.057005
#
#
# Mechanical properties :
#
#
# Convention : Reuss Voigt Hill
#
# Bulk Modulus (GPa) = 39.82162 62.88296 51.35229
# Shear Modulus (GPa) = 35.66579 17.15426 26.41002
#
# Velocity S-wave (km/s) = 3.95645 2.74389 3.40459
# Velocity P-wave (km/s) = 6.19264 6.13494 6.16386
#
# Compressibility (1/GPa) = 0.02511199
#
# Stress axis : x y z
#
# Youngs Moduli (GPa) = 39.67731 101.17802 82.35966
#
# Poissons Ratio (x) = 0.33681 0.17946
# Poissons Ratio (y) = 0.13208 0.45715
# Poissons Ratio (z) = 0.08645 0.56160
#
# Static dielectric constant tensor:
#      x y z
#    x 1.899010 0.000000 0.015450 
#    y 0.000000 1.837150 0.000000 
#    z 0.015450 0.000000 1.826740 
# 
# From -- ./inp_files/325708.got.cif
#   From: 2010.05.17/outbox.cif.g08.bks.cpg/sg12_163_cif.got.tgz:325708.got - 2010.06.03 13:09:07.
