data_PCOD9184312
_publ_section_title
;
Structure prediction by ZEFSAII (Michael W. Deem and Ramdas Pophale) SiO2 
 PCOD9184312
Probable space group: C 2/M
;
_chemical_formula_sum "Si O2"
_cell_formula_units_Z 56
_cell_length_a 13.943031
_cell_length_b 18.748547
_cell_length_c 12.909431
_cell_angle_alpha 90.000000
_cell_angle_beta 122.146551
_cell_angle_gamma 90.000000
_cell_volume 2857.302935
_symmetry_space_group_name_H-M "C 2/M"
_symmetry_group_IT_number 12
_symmetry_cell_setting 'monoclinic'
loop_
_space_group_symop_operation_xyz
x,y,z
-x,y,-z
-x,-y,-z
x,-y,z
1/2+x,1/2+y,z
1/2-x,1/2+y,-z
1/2-x,1/2-y,-z
1/2+x,1/2-y,z
loop_
_atom_site_type_symbol
_atom_site_label
_atom_site_fract_x
_atom_site_fract_y
_atom_site_fract_z
Si Si1 0.371329 0.205012 0.456136
Si Si2 0.722730 0.341339 0.184044
Si Si3 0.972520 0.914672 0.803346
Si Si4 0.258569 0.415488 0.015545
Si Si5 0.579474 0.417441 0.455423
Si Si6 0.869232 0.315697 0.895555
Si Si7 0.291664 0.843127 0.625057
O O1 0.500000 0.218450 0.500000
O O2 0.308754 0.160681 0.329994
O O3 0.364417 0.167509 0.563882
O O4 0.297841 0.277266 0.422641
O O5 0.606053 0.375911 0.158632
O O6 0.694543 0.260391 0.134364
O O7 0.769389 0.385259 0.114010
O O8 0.938331 0.886169 0.669282
O O9 0.106090 0.903370 0.893639
O O10 0.951066 0.000000 0.798583
O O11 0.237815 0.500000 0.011532
O O12 0.191632 0.371761 0.063971
O O13 0.500000 0.387148 0.500000
O O14 0.546320 0.500000 0.424774
O O15 0.708709 0.409951 0.563973
O O16 0.858257 0.341287 0.770309
O O17 0.000000 0.306849 0.000000
#
# Coordination Sequence:
#
# PCOD9184312 Si02
#       7
#     8   8   8   8   8   8   8
#     4  10  22  38  63  91 122 160 199 249 307 363
#     4  11  22  41  65  94 124 157 204 259 312 364
#     4  10  20  37  63  93 125 157 203 258 308 364
#     4  11  24  41  63  91 124 166 208 251 310 370
#     4  10  19  33  58  89 120 157 201 250 302 358
#     4  11  25  41  62  92 125 164 207 253 305 368
#     4  10  21  40  59  89 122 161 199 246 303 363
#
# _framework density 19.598903
#
# number of rings (size 3 to 8) (size 9 to 14) (size 15 to 20)
#    0.000    1.571    1.429    3.429    2.000    4.286 
#    0.000    0.000    0.000    2.143    0.000    0.000 
#    0.000    0.000    0.000    0.000    0.000    0.000 
#
# Total GULP energy -156433.547875 kJ/mol
# GULP energy per Si atom -5586.912424 kJ/mol
# Density = 1.955429 g / cm^3
# Si number density = 19.598903 Si / 1000 Ang^3
#
#
#
# Elastic Constant Matrix: (Units=GPa)
#
#
# Indices 1 2 3 4 5 6 
#
# 1 97.8507 29.0610 50.0099 0.0000 -21.0819 0.0000
# 2 29.0610 60.7883 26.4215 0.0000 -19.9636 0.0000
# 3 50.0099 26.4215 115.9822 0.0000 -28.7978 0.0000
# 4 0.0000 0.0000 0.0000 21.3899 0.0000 -4.7427
# 5 -21.0819 -19.9636 -28.7978 0.0000 30.7375 0.0000
# 6 0.0000 0.0000 0.0000 -4.7427 0.0000 15.5182
#
#
#
# Elastic Compliance Matrix: (Units=1/GPa)
#
#
# Indices 1 2 3 4 5 6 
#
# 1 0.014356 -0.003880 -0.004544 0.000000 0.003069 0.000000
# 2 -0.003880 0.022256 -0.000611 0.000000 0.011222 0.000000
# 3 -0.004544 -0.000611 0.012834 0.000000 0.008510 0.000000
# 4 0.000000 0.000000 0.000000 0.050149 0.000000 0.015327
# 5 0.003069 0.011222 0.008510 0.000000 0.049900 0.000000
# 6 0.000000 0.000000 0.000000 0.015327 0.000000 0.069125
#
#
# Mechanical properties :
#
#
# Convention : Reuss Voigt Hill
#
# Bulk Modulus (GPa) = 31.87203 53.95623 42.91413
# Shear Modulus (GPa) = 20.23080 24.80437 22.51759
#
# Velocity S-wave (km/s) = 3.21634 3.56139 3.39325
# Velocity P-wave (km/s) = 5.48549 6.67093 6.10704
#
# Compressibility (1/GPa) = 0.03137547
#
# Stress axis : x y z
#
# Youngs Moduli (GPa) = 69.65938 44.93107 77.92054
#
# Poissons Ratio (x) = 0.17434 0.35408
# Poissons Ratio (y) = 0.27029 0.04759
# Poissons Ratio (z) = 0.31654 0.02744
#
# Static dielectric constant tensor:
#      x y z
#    x 1.657840 0.000000 -0.015540 
#    y 0.000000 1.707190 0.000000 
#    z -0.015540 0.000000 1.704340 
# 
# From -- ./inp_files/133979.got.cif
#   From: 2010.05.17/outbox.cif.g08.bks.cpg/sg12_67_cif.got.tgz:133979.got - 2010.06.03 13:09:07.
