data_PCOD9184782
_publ_section_title
;
Structure prediction by ZEFSAII (Michael W. Deem and Ramdas Pophale) SiO2 
 PCOD9184782
Probable space group: C 2/M
;
_chemical_formula_sum "Si O2"
_cell_formula_units_Z 64
_cell_length_a 17.200542
_cell_length_b 27.071135
_cell_length_c 13.524804
_cell_angle_alpha 90.000000
_cell_angle_beta 146.643477
_cell_angle_gamma 90.000000
_cell_volume 3462.752917
_symmetry_space_group_name_H-M "C 2/M"
_symmetry_group_IT_number 12
_symmetry_cell_setting 'monoclinic'
loop_
_space_group_symop_operation_xyz
x,y,z
-x,y,-z
-x,-y,-z
x,-y,z
1/2+x,1/2+y,z
1/2-x,1/2+y,-z
1/2-x,1/2-y,-z
1/2+x,1/2-y,z
loop_
_atom_site_type_symbol
_atom_site_label
_atom_site_fract_x
_atom_site_fract_y
_atom_site_fract_z
Si Si1 0.631472 0.443166 0.339452
Si Si2 0.324875 0.942409 0.733655
Si Si3 0.229639 0.651981 0.595117
Si Si4 0.280338 0.844733 0.190706
Si Si5 0.500373 0.719320 0.888579
Si Si6 0.456919 0.813868 0.197829
Si Si7 0.862141 0.593088 0.983453
Si Si8 0.793067 0.943969 0.991371
O O1 0.660956 0.500000 0.340189
O O2 0.705757 0.435400 0.524636
O O3 0.700596 0.401934 0.343320
O O4 0.462691 0.437542 0.167964
O O5 0.479545 0.929655 0.854282
O O6 0.325454 0.000000 0.763433
O O7 0.303939 0.911091 0.810751
O O8 0.172413 0.657238 0.645768
O O9 0.353059 0.692028 0.712836
O O10 0.107699 0.662392 0.386682
O O11 0.371610 0.813645 0.209851
O O12 0.123090 0.821847 0.018968
O O13 0.275980 0.901138 0.148209
O O14 0.527487 0.761440 0.837454
O O15 0.500000 0.740635 0.000000
O O16 0.378343 0.851401 0.040348
O O17 0.766970 0.564565 0.962062
O O18 0.760485 0.000000 0.925195
#
# Coordination Sequence:
#
# PCOD9184782 Si02
#       8
#     8   8   8   8   8   8   8   8
#     4  10  21  35  57  83 113 148 188 231 276 334
#     4  10  19  34  54  80 113 150 182 227 282 331
#     4  11  21  40  57  84 115 146 189 227 280 328
#     4  10  22  39  59  83 115 147 184 233 275 334
#     4  10  22  38  62  84 108 145 187 232 279 333
#     4  11  22  37  60  83 113 148 186 230 281 328
#     4  10  20  33  55  81 112 146 185 231 272 337
#     4  10  20  36  57  83 111 149 189 229 280 330
#
# _framework density 18.482405
#
# number of rings (size 3 to 8) (size 9 to 14) (size 15 to 20)
#    0.000    1.750    2.500    2.625    1.750    1.000 
#    0.000    3.125    0.000    3.750    0.000    0.000 
#    0.000    0.000    0.000    0.000    0.000    0.000 
#
# Total GULP energy -178624.871118 kJ/mol
# GULP energy per Si atom -5582.027222 kJ/mol
# Density = 1.844034 g / cm^3
# Si number density = 18.482405 Si / 1000 Ang^3
#
#
#
# Elastic Constant Matrix: (Units=GPa)
#
#
# Indices 1 2 3 4 5 6 
#
# 1 82.0332 42.7637 9.9080 0.0000 -14.0466 0.0000
# 2 42.7637 85.9449 12.5085 0.0000 -20.7763 0.0000
# 3 9.9080 12.5085 26.2152 0.0000 -7.7166 0.0000
# 4 0.0000 0.0000 0.0000 17.8012 0.0000 1.5265
# 5 -14.0466 -20.7763 -7.7166 0.0000 20.7487 0.0000
# 6 0.0000 0.0000 0.0000 1.5265 0.0000 24.2222
#
#
#
# Elastic Compliance Matrix: (Units=1/GPa)
#
#
# Indices 1 2 3 4 5 6 
#
# 1 0.016781 -0.007255 -0.001881 0.000000 0.003396 0.000000
# 2 -0.007255 0.018722 -0.002379 0.000000 0.012951 0.000000
# 3 -0.001881 -0.002379 0.043700 0.000000 0.012597 0.000000
# 4 0.000000 0.000000 0.000000 0.056481 0.000000 -0.003559
# 5 0.003396 0.012951 0.012597 0.000000 0.068148 0.000000
# 6 0.000000 0.000000 0.000000 -0.003559 0.000000 0.041509
#
#
# Mechanical properties :
#
#
# Convention : Reuss Voigt Hill
#
# Bulk Modulus (GPa) = 17.80212 36.06152 26.93182
# Shear Modulus (GPa) = 17.41583 21.15529 19.28556
#
# Velocity S-wave (km/s) = 3.07301 3.38689 3.23376
# Velocity P-wave (km/s) = 4.71636 5.90325 5.34286
#
# Compressibility (1/GPa) = 0.05617308
#
# Stress axis : x y z
#
# Youngs Moduli (GPa) = 59.59161 53.41260 22.88341
#
# Poissons Ratio (x) = 0.38750 0.04304
# Poissons Ratio (y) = 0.43233 0.05444
# Poissons Ratio (z) = 0.11209 0.12707
#
# Static dielectric constant tensor:
#      x y z
#    x 1.636210 0.000000 0.000380 
#    y 0.000000 1.625480 0.000000 
#    z 0.000380 0.000000 1.626760 
# 
# From -- ./inp_files/149757.got.cif
#   From: 2010.05.17/outbox.cif.g08.bks.cpg/sg12_75_cif.got.tgz:149757.got - 2010.06.03 13:09:07.
