data_PCOD9184084
_publ_section_title
;
Structure prediction by ZEFSAII (Michael W. Deem and Ramdas Pophale) SiO2 
 PCOD9184084
Probable space group: C 2/M
;
_chemical_formula_sum "Si O2"
_cell_formula_units_Z 64
_cell_length_a 21.985075
_cell_length_b 15.092954
_cell_length_c 26.865715
_cell_angle_alpha 90.000000
_cell_angle_beta 157.590911
_cell_angle_gamma 90.000000
_cell_volume 3398.387538
_symmetry_space_group_name_H-M "C 2/M"
_symmetry_group_IT_number 12
_symmetry_cell_setting 'monoclinic'
loop_
_space_group_symop_operation_xyz
x,y,z
-x,y,-z
-x,-y,-z
x,-y,z
1/2+x,1/2+y,z
1/2-x,1/2+y,-z
1/2-x,1/2-y,-z
1/2+x,1/2-y,z
loop_
_atom_site_type_symbol
_atom_site_label
_atom_site_fract_x
_atom_site_fract_y
_atom_site_fract_z
Si Si1 0.163929 0.273249 0.859097
Si Si2 0.898753 0.598241 0.696056
Si Si3 0.056097 0.096689 0.804804
Si Si4 0.732656 0.849377 0.507696
Si Si5 0.440909 0.395153 0.512722
Si Si6 0.446793 0.226633 0.338534
Si Si7 0.455018 0.597790 0.088883
Si Si8 0.337966 0.398142 0.845900
O O1 0.098315 0.261084 0.753613
O O2 0.034288 0.326860 0.794290
O O3 0.181428 0.175073 0.893115
O O4 0.323497 0.329287 0.978186
O O5 0.964514 0.500000 0.756795
O O6 0.827965 0.597543 0.586144
O O7 0.749858 0.615848 0.620492
O O8 0.899643 0.115207 0.653745
O O9 0.003616 0.099410 0.822238
O O10 0.121836 0.000000 0.842904
O O11 0.750000 0.750000 0.500000
O O12 0.603537 0.836273 0.453800
O O13 0.500000 0.382793 0.500000
O O14 0.475038 0.500000 0.551209
O O15 0.519691 0.318959 0.607378
O O16 0.300535 0.171069 0.249396
O O17 0.385264 0.500000 0.024310
O O18 0.607074 0.607904 0.169372
O O19 0.290307 0.500000 0.821502
O O20 0.500000 0.380287 0.000000
#
# Coordination Sequence:
#
# PCOD9184084 Si02
#       8
#     8   8   8   8   8   8   8   8
#     4  11  20  36  58  86 114 142 190 237 275 331
#     4  10  19  33  57  84 110 146 187 232 278 326
#     4  11  22  36  55  82 118 152 180 226 286 336
#     4  11  19  36  55  83 118 143 182 228 281 333
#     4  10  21  37  55  81 118 155 188 225 275 333
#     4  11  21  34  60  87 110 146 190 232 279 330
#     4  10  22  39  59  83 112 150 188 228 283 338
#     4  10  21  38  58  81 112 148 189 229 275 339
#
# _framework density 18.832460999999999
#
# number of rings (size 3 to 8) (size 9 to 14) (size 15 to 20)
#    0.000    1.500    5.000    1.125    0.000    6.000 
#    0.000    0.000    0.000    3.750    0.000    0.000 
#    0.000    0.000    0.000    0.000    0.000    0.000 
#
# Total GULP energy -178448.750369 kJ/mol
# GULP energy per Si atom -5576.523449 kJ/mol
# Density = 1.878960 g / cm^3
# Si number density = 18.832461 Si / 1000 Ang^3
#
#
#
# Elastic Constant Matrix: (Units=GPa)
#
#
# Indices 1 2 3 4 5 6 
#
# 1 83.2923 45.2647 12.8190 0.0019 16.4354 0.0020
# 2 45.2647 128.5813 28.4826 0.0068 23.0299 -0.0043
# 3 12.8190 28.4826 35.2670 0.0008 11.1789 -0.0019
# 4 0.0019 0.0068 0.0008 7.6268 0.0011 -4.8030
# 5 16.4354 23.0299 11.1789 0.0011 24.6841 -0.0022
# 6 0.0020 -0.0043 -0.0019 -4.8030 -0.0022 22.1127
#
#
#
# Elastic Compliance Matrix: (Units=1/GPa)
#
#
# Indices 1 2 3 4 5 6 
#
# 1 0.015630 -0.004336 -0.000190 -0.000001 -0.006275 -0.000003
# 2 -0.004336 0.011587 -0.006153 -0.000008 -0.005136 0.000000
# 3 -0.000190 -0.006153 0.036820 0.000004 -0.010807 0.000002
# 4 -0.000001 -0.000008 0.000004 0.151894 0.000002 0.032992
# 5 -0.006275 -0.005136 -0.010807 0.000002 0.054376 0.000004
# 6 -0.000003 0.000000 0.000002 0.032992 0.000004 0.052389
#
#
# Mechanical properties :
#
#
# Convention : Reuss Voigt Hill
#
# Bulk Modulus (GPa) = 23.43212 46.69701 35.06456
# Shear Modulus (GPa) = 13.95556 21.58967 17.77261
#
# Velocity S-wave (km/s) = 2.72515 3.38954 3.07534
# Velocity P-wave (km/s) = 4.72984 6.33786 5.59195
#
# Compressibility (1/GPa) = 0.04267647
#
# Stress axis : x y z
#
# Youngs Moduli (GPa) = 63.98011 86.30599 27.15951
#
# Poissons Ratio (x) = 0.37424 0.00516
# Poissons Ratio (y) = 0.27743 0.16713
# Poissons Ratio (z) = 0.01217 0.53108
#
# Static dielectric constant tensor:
#      x y z
#    x 1.685560 0.000000 -0.008190 
#    y 0.000000 1.695450 0.000000 
#    z -0.008190 0.000000 1.659730 
# 
# From -- ./inp_files/344068.got.cif
#   From: 2010.05.17/outbox.cif.g08.bks.cpg/sg12_173_cif.got.tgz:344068.got - 2010.06.03 13:09:07.
