data_PCOD9184182
_publ_section_title
;
Structure prediction by ZEFSAII (Michael W. Deem and Ramdas Pophale) SiO2 
 PCOD9184182
Probable space group: C 2/M
;
_chemical_formula_sum "Si O2"
_cell_formula_units_Z 64
_cell_length_a 14.651632
_cell_length_b 9.524344
_cell_length_c 22.910969
_cell_angle_alpha 90.000000
_cell_angle_beta 86.118139
_cell_angle_gamma 90.000000
_cell_volume 3189.826141
_symmetry_space_group_name_H-M "C 2/M"
_symmetry_group_IT_number 12
_symmetry_cell_setting 'monoclinic'
loop_
_space_group_symop_operation_xyz
x,y,z
-x,y,-z
-x,-y,-z
x,-y,z
1/2+x,1/2+y,z
1/2-x,1/2+y,-z
1/2-x,1/2-y,-z
1/2+x,1/2-y,z
loop_
_atom_site_type_symbol
_atom_site_label
_atom_site_fract_x
_atom_site_fract_y
_atom_site_fract_z
Si Si1 0.647902 0.661204 0.136655
Si Si2 0.471850 0.333436 0.566436
Si Si3 0.964772 0.164380 0.092279
Si Si4 0.179217 0.660580 0.245673
Si Si5 0.084351 0.333099 0.658712
Si Si6 0.690120 0.163309 0.956689
Si Si7 0.599890 0.340395 0.771673
Si Si8 0.799787 0.163561 0.643111
O O1 0.631120 0.500000 0.155595
O O2 0.572844 0.692980 0.090271
O O3 0.638063 0.761715 0.191824
O O4 0.748219 0.669192 0.104797
O O5 0.500000 0.292421 0.500000
O O6 0.492022 0.500000 0.572653
O O7 0.526261 0.245476 0.612227
O O8 0.364052 0.314430 0.584496
O O9 0.905224 0.262637 0.053874
O O10 0.933927 0.185129 0.161147
O O11 0.949346 0.000000 0.077996
O O12 0.149556 0.500000 0.250375
O O13 0.289571 0.664434 0.232610
O O14 0.162175 0.742195 0.306124
O O15 0.068328 0.500000 0.659638
O O16 0.067294 0.266838 0.723491
O O17 0.192337 0.307656 0.640261
O O18 0.680611 0.000000 0.973975
O O19 0.750000 0.250000 0.000000
O O20 0.572885 0.500000 0.756461
O O21 0.807517 0.000000 0.660065
#
# Coordination Sequence:
#
# PCOD9184182 Si02
#       8
#     8   8   8   8   8   8   8   8
#     4  10  22  38  59  87 117 153 192 234 288 344
#     4  10  22  40  60  81 110 153 200 238 281 345
#     4  10  21  39  61  86 116 153 194 236 287 343
#     4  10  19  33  57  88 118 148 188 237 285 338
#     4  10  21  36  56  84 116 149 187 238 291 340
#     4  11  24  42  63  86 117 156 197 241 287 338
#     4   9  18  34  57  84 116 152 187 229 284 346
#     4   9  20  38  57  80 114 153 189 231 288 347
#
# _framework density 20.063789
#
# number of rings (size 3 to 8) (size 9 to 14) (size 15 to 20)
#    0.000    2.125    1.250    1.125    1.750    4.250 
#    0.000    2.500    0.000    0.000    0.000    0.000 
#    0.000    0.000    0.000    0.000    0.000    0.000 
#
# Total GULP energy -178790.833341 kJ/mol
# GULP energy per Si atom -5587.213542 kJ/mol
# Density = 2.001812 g / cm^3
# Si number density = 20.063789 Si / 1000 Ang^3
#
#
#
# Elastic Constant Matrix: (Units=GPa)
#
#
# Indices 1 2 3 4 5 6 
#
# 1 61.9374 31.6409 9.9745 0.0000 7.5160 0.0000
# 2 31.6409 66.7188 29.5725 0.0000 16.4016 0.0000
# 3 9.9745 29.5725 57.4229 0.0000 1.9943 0.0000
# 4 0.0000 0.0000 0.0000 28.7079 0.0000 10.3820
# 5 7.5160 16.4016 1.9943 0.0000 31.7421 0.0000
# 6 0.0000 0.0000 0.0000 10.3820 0.0000 27.7130
#
#
#
# Elastic Compliance Matrix: (Units=1/GPa)
#
#
# Indices 1 2 3 4 5 6 
#
# 1 0.021486 -0.011236 0.002034 0.000000 0.000591 0.000000
# 2 -0.011236 0.028590 -0.012378 0.000000 -0.011335 0.000000
# 3 0.002034 -0.012378 0.023282 0.000000 0.004452 0.000000
# 4 0.000000 0.000000 0.000000 0.040292 0.000000 -0.015095
# 5 0.000591 -0.011335 0.004452 0.000000 0.036941 0.000000
# 6 0.000000 0.000000 0.000000 -0.015095 0.000000 0.041739
#
#
# Mechanical properties :
#
#
# Convention : Reuss Voigt Hill
#
# Bulk Modulus (GPa) = 33.11661 36.49498 34.80580
# Shear Modulus (GPa) = 20.36184 25.29203 22.82693
#
# Velocity S-wave (km/s) = 3.18914 3.55432 3.37667
# Velocity P-wave (km/s) = 5.48655 5.92226 5.70857
#
# Compressibility (1/GPa) = 0.03019633
#
# Stress axis : x y z
#
# Youngs Moduli (GPa) = 46.54129 34.97717 42.95253
#
# Poissons Ratio (x) = 0.39302 -0.08737
# Poissons Ratio (y) = 0.52296 0.53168
# Poissons Ratio (z) = -0.09467 0.43296
#
# Static dielectric constant tensor:
#      x y z
#    x 1.744630 0.000000 -0.032410 
#    y 0.000000 1.678790 0.000000 
#    z -0.032410 0.000000 1.679130 
# 
# From -- ./inp_files/338747.got.cif
#   From: 2010.05.17/outbox.cif.g08.bks.cpg/sg12_170_cif.got.tgz:338747.got - 2010.06.03 13:09:07.
