data_PCOD9184203
_publ_section_title
;
Structure prediction by ZEFSAII (Michael W. Deem and Ramdas Pophale) SiO2 
 PCOD9184203
Probable space group: C 2/M
;
_chemical_formula_sum "Si O2"
_cell_formula_units_Z 56
_cell_length_a 15.614115
_cell_length_b 17.310678
_cell_length_c 12.741360
_cell_angle_alpha 90.000000
_cell_angle_beta 56.192431
_cell_angle_gamma 90.000000
_cell_volume 2861.552596
_symmetry_space_group_name_H-M "C 2/M"
_symmetry_group_IT_number 12
_symmetry_cell_setting 'monoclinic'
loop_
_space_group_symop_operation_xyz
x,y,z
-x,y,-z
-x,-y,-z
x,-y,z
1/2+x,1/2+y,z
1/2-x,1/2+y,-z
1/2-x,1/2-y,-z
1/2+x,1/2-y,z
loop_
_atom_site_type_symbol
_atom_site_label
_atom_site_fract_x
_atom_site_fract_y
_atom_site_fract_z
Si Si1 0.522195 0.331561 0.365429
Si Si2 0.718609 0.914549 0.415486
Si Si3 0.577307 0.744220 0.867384
Si Si4 0.600709 0.186466 0.625248
Si Si5 0.284449 0.233400 0.857613
Si Si6 0.041563 0.914455 0.793922
Si Si7 0.904041 0.411062 0.715567
O O1 0.500000 0.357042 0.500000
O O2 0.440283 0.262236 0.404800
O O3 0.630977 0.291327 0.254332
O O4 0.498955 0.397453 0.295673
O O5 0.705867 0.846119 0.506964
O O6 0.834218 0.914524 0.293391
O O7 0.638850 0.903368 0.374036
O O8 0.701193 0.000000 0.473254
O O9 0.597833 0.792418 0.748634
O O10 0.684607 0.730413 0.852146
O O11 0.519745 0.663987 0.873119
O O12 0.500000 0.785518 0.000000
O O13 0.519523 0.118826 0.652450
O O14 0.336365 0.149353 0.825826
O O15 0.250000 0.250000 0.000000
O O16 0.007026 0.000000 0.853967
O O17 0.892885 0.500000 0.752854
#
# Coordination Sequence:
#
# PCOD9184203 Si02
#       7
#     8   8   8   8   8   8   8
#     4  10  22  36  59  86 117 158 195 234 291 348
#     4  10  19  33  57  90 120 150 186 237 294 346
#     4  11  23  39  61  85 114 153 197 245 290 342
#     4  10  20  33  57  87 119 148 190 237 293 348
#     4  11  22  40  61  85 118 153 199 244 290 349
#     4  10  22  38  57  86 119 150 194 241 288 341
#     4  10  19  35  59  88 118 149 188 241 293 343
#
# _framework density 19.569796
#
# number of rings (size 3 to 8) (size 9 to 14) (size 15 to 20)
#    0.000    1.714    1.429    5.143    2.000    2.857 
#    0.000    2.143    0.000    7.714    0.000    0.000 
#    0.000    0.000    0.000    0.000    0.000    0.000 
#
# Total GULP energy -156207.434872 kJ/mol
# GULP energy per Si atom -5578.836960 kJ/mol
# Density = 1.952525 g / cm^3
# Si number density = 19.569796 Si / 1000 Ang^3
#
#
#
# Elastic Constant Matrix: (Units=GPa)
#
#
# Indices 1 2 3 4 5 6 
#
# 1 66.2454 3.4390 10.9203 0.0000 11.5099 0.0000
# 2 3.4390 69.1325 18.2835 0.0000 4.7856 0.0000
# 3 10.9203 18.2835 77.7380 0.0000 18.5454 0.0000
# 4 0.0000 0.0000 0.0000 19.4583 0.0000 -3.2746
# 5 11.5099 4.7856 18.5454 0.0000 28.7789 0.0000
# 6 0.0000 0.0000 0.0000 -3.2746 0.0000 12.5129
#
#
#
# Elastic Compliance Matrix: (Units=1/GPa)
#
#
# Indices 1 2 3 4 5 6 
#
# 1 0.016274 -0.000180 -0.000825 0.000000 -0.005947 0.000000
# 2 -0.000180 0.015428 -0.003555 0.000000 -0.000203 0.000000
# 3 -0.000825 -0.003555 0.016066 0.000000 -0.009432 0.000000
# 4 0.000000 0.000000 0.000000 0.053759 0.000000 0.014069
# 5 -0.005947 -0.000203 -0.009432 0.000000 0.043238 0.000000
# 6 0.000000 0.000000 0.000000 0.014069 0.000000 0.083599
#
#
# Mechanical properties :
#
#
# Convention : Reuss Voigt Hill
#
# Bulk Modulus (GPa) = 25.87426 30.93350 28.40388
# Shear Modulus (GPa) = 19.97073 24.18158 22.07615
#
# Velocity S-wave (km/s) = 3.19797 3.51901 3.36232
# Velocity P-wave (km/s) = 5.18520 5.68791 5.44236
#
# Compressibility (1/GPa) = 0.03864845
#
# Stress axis : x y z
#
# Youngs Moduli (GPa) = 61.44764 64.81657 62.24396
#
# Poissons Ratio (x) = 0.01164 0.05136
# Poissons Ratio (y) = 0.01104 0.22128
# Poissons Ratio (z) = 0.05070 0.23042
#
# Static dielectric constant tensor:
#      x y z
#    x 1.721340 0.000000 -0.033540 
#    y 0.000000 1.707650 0.000000 
#    z -0.033540 0.000000 1.739340 
# 
# From -- ./inp_files/146053.got.cif
#   From: 2010.05.17/outbox.cif.g08.bks.cpg/sg12_74_cif.got.tgz:146053.got - 2010.06.03 13:09:07.
