data_PCOD9184248
_publ_section_title
;
Structure prediction by ZEFSAII (Michael W. Deem and Ramdas Pophale) SiO2 
 PCOD9184248
Probable space group: C 2/M
;
_chemical_formula_sum "Si O2"
_cell_formula_units_Z 56
_cell_length_a 19.854325
_cell_length_b 22.899507
_cell_length_c 18.084224
_cell_angle_alpha 90.000000
_cell_angle_beta 158.664245
_cell_angle_gamma 90.000000
_cell_volume 2991.456670
_symmetry_space_group_name_H-M "C 2/M"
_symmetry_group_IT_number 12
_symmetry_cell_setting 'monoclinic'
loop_
_space_group_symop_operation_xyz
x,y,z
-x,y,-z
-x,-y,-z
x,-y,z
1/2+x,1/2+y,z
1/2-x,1/2+y,-z
1/2-x,1/2-y,-z
1/2+x,1/2-y,z
loop_
_atom_site_type_symbol
_atom_site_label
_atom_site_fract_x
_atom_site_fract_y
_atom_site_fract_z
Si Si1 0.693183 0.099139 0.479149
Si Si2 0.234731 0.765579 0.070392
Si Si3 0.522576 0.322987 0.435899
Si Si4 0.294342 0.902252 0.117228
Si Si5 0.532174 0.567397 0.116938
Si Si6 0.519208 0.565807 0.705871
Si Si7 0.848426 0.711565 0.663522
O O1 0.502196 0.075473 0.317626
O O2 0.830621 0.106028 0.690943
O O3 0.830764 0.066805 0.562594
O O4 0.620712 0.152937 0.353782
O O5 0.374387 0.723865 0.255570
O O6 0.285042 0.833517 0.128906
O O7 0.250000 0.750000 0.000000
O O8 0.025872 0.746240 0.874271
O O9 0.500000 0.325308 0.500000
O O10 0.491300 0.386815 0.369030
O O11 0.715294 0.302648 0.595917
O O12 0.168213 0.932896 0.049374
O O13 0.181298 0.912691 0.926106
O O14 0.602748 0.500000 0.189021
O O15 0.500000 0.587212 0.000000
O O16 0.553469 0.500000 0.716029
O O17 0.750000 0.750000 0.500000
#
# Coordination Sequence:
#
# PCOD9184248 Si02
#       7
#     8   8   8   8   8   8   8
#     4  10  19  33  58  86 107 143 202 247 287 355
#     4  12  20  39  63  90 119 157 198 243 299 363
#     4  11  24  40  58  91 127 158 202 246 301 362
#     4  11  20  37  62  87 114 149 202 251 298 359
#     4  10  23  40  53  77 120 159 195 247 304 353
#     4  10  21  37  60  87 116 154 200 250 298 353
#     4  11  19  36  64  82 115 156 192 243 296 346
#
# _framework density 18.719978000000001
#
# number of rings (size 3 to 8) (size 9 to 14) (size 15 to 20)
#    0.000    1.286    4.286    3.429    0.000    3.714 
#    7.714    1.429    0.000    0.000    0.000    6.000 
#    0.000    0.000    0.000    0.000    0.000    0.000 
#
# Total GULP energy -156064.122013 kJ/mol
# GULP energy per Si atom -5573.718643 kJ/mol
# Density = 1.867737 g / cm^3
# Si number density = 18.719978 Si / 1000 Ang^3
#
#
#
# Elastic Constant Matrix: (Units=GPa)
#
#
# Indices 1 2 3 4 5 6 
#
# 1 134.0809 22.4057 55.9649 0.0001 -6.7947 0.0000
# 2 22.4057 108.9559 31.4951 0.0001 -3.6762 0.0000
# 3 55.9649 31.4951 91.7636 0.0003 20.3932 0.0000
# 4 0.0001 0.0001 0.0003 -7.0109 0.0001 9.4680
# 5 -6.7947 -3.6762 20.3932 0.0001 33.2684 0.0000
# 6 0.0000 0.0000 0.0000 9.4680 0.0000 8.6546
#
#
#
# Elastic Compliance Matrix: (Units=1/GPa)
#
#
# Indices 1 2 3 4 5 6 
#
# 1 0.011506 0.000482 -0.008934 0.000000 0.007880 0.000000
# 2 0.000482 0.010638 -0.004895 0.000000 0.004275 0.000000
# 3 -0.008934 -0.004895 0.021478 0.000000 -0.015531 0.000000
# 4 0.000000 0.000000 0.000000 -0.057575 0.000000 0.062986
# 5 0.007880 0.004275 -0.015531 0.000000 0.041661 0.000000
# 6 0.000000 0.000000 0.000000 0.062986 0.000000 0.046640
#
#
# Mechanical properties :
#
#
# Convention : Reuss Voigt Hill
#
# Bulk Modulus (GPa) = 59.07355 61.61463 60.34409
# Shear Modulus (GPa) = 46.86695 21.97806 34.42251
#
# Velocity S-wave (km/s) = 5.00901 3.43015 4.29279
# Velocity P-wave (km/s) = 8.06712 6.97662 7.54161
#
# Compressibility (1/GPa) = 0.01692805
#
# Stress axis : x y z
#
# Youngs Moduli (GPa) = 86.91212 94.00121 46.55931
#
# Poissons Ratio (x) = -0.04533 0.41595
# Poissons Ratio (y) = -0.04191 0.22792
# Poissons Ratio (z) = 0.77646 0.46017
#
# Static dielectric constant tensor:
#      x y z
#    x 1.648110 0.000000 0.039880 
#    y 0.000000 1.655880 0.000000 
#    z 0.039880 0.000000 1.658460 
# 
# From -- ./inp_files/286355.got.cif
#   From: 2010.05.17/outbox.cif.g08.bks.cpg/sg12_144_cif.got.tgz:286355.got - 2010.06.03 13:09:07.
