data_PCOD9184565
_publ_section_title
;
Structure prediction by ZEFSAII (Michael W. Deem and Ramdas Pophale) SiO2 
 PCOD9184565
Probable space group: C 2/M
;
_chemical_formula_sum "Si O2"
_cell_formula_units_Z 56
_cell_length_a 8.865377
_cell_length_b 25.478425
_cell_length_c 16.004706
_cell_angle_alpha 90.000000
_cell_angle_beta 118.228843
_cell_angle_gamma 90.000000
_cell_volume 3185.118989
_symmetry_space_group_name_H-M "C 2/M"
_symmetry_group_IT_number 12
_symmetry_cell_setting 'monoclinic'
loop_
_space_group_symop_operation_xyz
x,y,z
-x,y,-z
-x,-y,-z
x,-y,z
1/2+x,1/2+y,z
1/2-x,1/2+y,-z
1/2-x,1/2-y,-z
1/2+x,1/2-y,z
loop_
_atom_site_type_symbol
_atom_site_label
_atom_site_fract_x
_atom_site_fract_y
_atom_site_fract_z
Si Si1 0.799175 0.322172 0.931511
Si Si2 0.247373 0.860535 0.731323
Si Si3 0.525819 0.438956 0.407293
Si Si4 0.915126 0.330563 0.279055
Si Si5 0.302782 0.297431 0.930804
Si Si6 0.480873 0.274741 0.595305
Si Si7 0.698066 0.143072 0.577609
O O1 0.763739 0.350777 0.835298
O O2 0.725810 0.262264 0.910439
O O3 0.739372 0.339328 0.007477
O O4 0.000000 0.319933 0.000000
O O5 0.136417 0.911719 0.680135
O O6 0.429009 0.857573 0.730697
O O7 0.133376 0.812717 0.665738
O O8 0.500000 0.434065 0.500000
O O9 0.541806 0.500000 0.389989
O O10 0.694109 0.405516 0.429071
O O11 0.767495 0.317214 0.174645
O O12 0.817908 0.360746 0.327088
O O13 0.994377 0.279165 0.346938
O O14 0.500000 0.289081 0.000000
O O15 0.500000 0.269643 0.500000
O O16 0.306000 0.305627 0.575101
O O17 0.500000 0.144284 0.500000
#
# Coordination Sequence:
#
# PCOD9184565 Si02
#       7
#     8   8   8   8   8   8   8
#     4  10  19  34  52  78 115 158 198 228 265 319
#     4  11  21  36  59  83 113 153 196 231 280 345
#     4  10  23  44  66  84 107 142 189 249 306 353
#     4  12  22  34  53  85 120 158 189 230 275 331
#     4  10  22  32  50  81 119 158 197 231 262 319
#     4  11  23  35  51  77 120 164 191 220 270 339
#     4  11  23  37  56  85 115 147 193 235 281 344
#
# _framework density 17.581759999999999
#
# number of rings (size 3 to 8) (size 9 to 14) (size 15 to 20)
#    0.000    1.286    2.857    4.714    4.000    2.000 
#    0.000    1.429    0.000    0.429    0.000    1.000 
#    0.000    0.000    0.000    0.000    0.000    0.000 
#
# Total GULP energy -156000.018024 kJ/mol
# GULP energy per Si atom -5571.429215 kJ/mol
# Density = 1.754174 g / cm^3
# Si number density = 17.581760 Si / 1000 Ang^3
#
#
#
# Elastic Constant Matrix: (Units=GPa)
#
#
# Indices 1 2 3 4 5 6 
#
# 1 85.4755 38.7831 41.5213 0.0000 -3.8989 0.0000
# 2 38.7831 79.4560 33.5864 0.0000 -5.2915 0.0000
# 3 41.5213 33.5864 152.9377 0.0000 -12.6283 0.0000
# 4 0.0000 0.0000 0.0000 35.9363 0.0000 -2.5181
# 5 -3.8989 -5.2915 -12.6283 0.0000 32.4981 0.0000
# 6 0.0000 0.0000 0.0000 -2.5181 0.0000 10.9508
#
#
#
# Elastic Compliance Matrix: (Units=1/GPa)
#
#
# Indices 1 2 3 4 5 6 
#
# 1 0.016133 -0.006650 -0.002944 0.000000 -0.000291 0.000000
# 2 -0.006650 0.016653 -0.001750 0.000000 0.001234 0.000000
# 3 -0.002944 -0.001750 0.007924 0.000000 0.002441 0.000000
# 4 0.000000 0.000000 0.000000 0.028283 0.000000 0.006503
# 5 -0.000291 0.001234 0.002441 0.000000 0.031885 0.000000
# 6 0.000000 0.000000 0.000000 0.006503 0.000000 0.092813
#
#
# Mechanical properties :
#
#
# Convention : Reuss Voigt Hill
#
# Bulk Modulus (GPa) = 55.48411 60.62787 58.05599
# Shear Modulus (GPa) = 22.48345 29.47561 25.97953
#
# Velocity S-wave (km/s) = 3.57990 4.09894 3.84818
# Velocity P-wave (km/s) = 6.97953 7.54718 7.26890
#
# Compressibility (1/GPa) = 0.01802318
#
# Stress axis : x y z
#
# Youngs Moduli (GPa) = 61.98403 60.04826 126.20424
#
# Poissons Ratio (x) = 0.39931 0.37151
# Poissons Ratio (y) = 0.41218 0.22085
# Poissons Ratio (z) = 0.18246 0.10508
#
# Static dielectric constant tensor:
#      x y z
#    x 1.614600 0.000000 -0.061440 
#    y 0.000000 1.587660 0.000000 
#    z -0.061440 0.000000 1.656660 
# 
# From -- ./inp_files/199946.got.cif
#   From: 2010.05.17/outbox.cif.g08.bks.cpg/sg12_100_cif.got.tgz:199946.got - 2010.06.03 13:09:07.
