data_PCOD9184457
_publ_section_title
;
Structure prediction by ZEFSAII (Michael W. Deem and Ramdas Pophale) SiO2 
 PCOD9184457
Probable space group: C 2/M
;
_chemical_formula_sum "Si O2"
_cell_formula_units_Z 56
_cell_length_a 21.971619
_cell_length_b 29.355793
_cell_length_c 18.443565
_cell_angle_alpha 90.000000
_cell_angle_beta 18.387003
_cell_angle_gamma 90.000000
_cell_volume 3752.398507
_symmetry_space_group_name_H-M "C 2/M"
_symmetry_group_IT_number 12
_symmetry_cell_setting 'monoclinic'
loop_
_space_group_symop_operation_xyz
x,y,z
-x,y,-z
-x,-y,-z
x,-y,z
1/2+x,1/2+y,z
1/2-x,1/2+y,-z
1/2-x,1/2-y,-z
1/2+x,1/2-y,z
loop_
_atom_site_type_symbol
_atom_site_label
_atom_site_fract_x
_atom_site_fract_y
_atom_site_fract_z
Si Si1 0.928685 0.210004 0.658662
Si Si2 0.071715 0.685832 0.304985
Si Si3 0.397605 0.311510 0.386375
Si Si4 0.319818 0.632435 0.238297
Si Si5 0.268759 0.052049 0.770619
Si Si6 0.423090 0.621358 0.918540
Si Si7 0.972610 0.287759 0.812190
O O1 0.939909 0.264686 0.647851
O O2 0.000000 0.193190 0.500000
O O3 0.063346 0.193505 0.572625
O O4 0.706876 0.201029 0.932888
O O5 0.074000 0.692287 0.214903
O O6 0.878683 0.658417 0.540435
O O7 0.254553 0.657827 0.126583
O O8 0.492982 0.358517 0.250867
O O9 0.499542 0.266982 0.232905
O O10 0.174544 0.306473 0.615073
O O11 0.300724 0.586457 0.213273
O O12 0.393070 0.623198 0.236222
O O13 0.500000 0.659573 0.000000
O O14 0.500000 0.052408 0.500000
O O15 0.203140 0.000000 0.837056
O O16 0.185345 0.074047 0.939658
#
# Coordination Sequence:
#
# PCOD9184457 Si02
#       7
#     8   8   8   8   8   8   8
#     4  11  23  31  46  67 101 131 158 215 259 283
#     4  11  19  33  48  69  95 128 176 207 237 294
#     4  10  19  34  49  68  89 129 171 204 249 291
#     4  10  22  30  47  74  93 127 173 210 238 282
#     4  10  21  35  50  73 107 136 162 207 254 289
#     4  11  19  32  54  67  90 130 174 197 243 294
#     4  10  19  34  49  65  95 125 165 215 249 288
#
# _framework density 14.923788
#
# number of rings (size 3 to 8) (size 9 to 14) (size 15 to 20)
#    0.000    1.571    5.714    0.857    4.000    3.143 
#    0.000    0.000    0.000    0.000    0.000    0.000 
#    0.000    0.571    0.000    1.429    0.000    0.143 
#
# Total GULP energy -155922.361065 kJ/mol
# GULP energy per Si atom -5568.655752 kJ/mol
# Density = 1.488982 g / cm^3
# Si number density = 14.923788 Si / 1000 Ang^3
#
#
#
# Elastic Constant Matrix: (Units=GPa)
#
#
# Indices 1 2 3 4 5 6 
#
# 1 71.6676 15.5662 39.7351 -0.1542 4.7604 0.0726
# 2 15.5662 62.6197 27.9220 -0.3449 2.4245 0.1678
# 3 39.7351 27.9220 83.6865 -0.0162 2.2299 -0.0414
# 4 -0.1542 -0.3449 -0.0162 8.9334 -0.0835 9.1682
# 5 4.7604 2.4245 2.2299 -0.0835 29.9786 0.0407
# 6 0.0726 0.1678 -0.0414 9.1682 0.0407 12.4372
#
#
#
# Elastic Compliance Matrix: (Units=1/GPa)
#
#
# Indices 1 2 3 4 5 6 
#
# 1 0.019141 -0.000741 -0.008779 0.001606 -0.002320 -0.001307
# 2 -0.000741 0.018859 -0.005916 0.003981 -0.000952 -0.003202
# 3 -0.008779 -0.005916 0.018078 -0.002205 0.000519 0.001815
# 4 0.001606 0.003981 -0.002205 0.460887 0.001332 -0.339824
# 5 -0.002320 -0.000952 0.000519 0.001332 0.033769 -0.001064
# 6 -0.001307 -0.003202 0.001815 -0.339824 -0.001064 0.330970
#
#
# Mechanical properties :
#
#
# Convention : Reuss Voigt Hill
#
# Bulk Modulus (GPa) = 39.67435 42.71340 41.19387
# Shear Modulus (GPa) = 5.42901 19.25320 12.34110
#
# Velocity S-wave (km/s) = 1.90938 3.59569 2.87878
# Velocity P-wave (km/s) = 5.61278 6.77657 6.22194
#
# Compressibility (1/GPa) = 0.02520520
#
# Stress axis : x y z
#
# Youngs Moduli (GPa) = 52.24438 53.02542 55.31473
#
# Poissons Ratio (x) = 0.03930 0.48563
# Poissons Ratio (y) = 0.03872 0.32723
# Poissons Ratio (z) = 0.45868 0.31369
#
# Static dielectric constant tensor:
#      x y z
#    x 1.516180 -0.000020 0.002190 
#    y -0.000020 1.479690 0.000080 
#    z 0.002190 0.000080 1.540390 
# 
# From -- ./inp_files/286597.got.cif
#   From: 2010.05.17/outbox.cif.g08.bks.cpg/sg12_144_cif.got.tgz:286597.got - 2010.06.03 13:09:07.
