data_PCOD9184577
_publ_section_title
;
Structure prediction by ZEFSAII (Michael W. Deem and Ramdas Pophale) SiO2 
 PCOD9184577
Probable space group: C 2/M
;
_chemical_formula_sum "Si O2"
_cell_formula_units_Z 60
_cell_length_a 12.466085
_cell_length_b 20.007633
_cell_length_c 24.279448
_cell_angle_alpha 90.000000
_cell_angle_beta 147.827401
_cell_angle_gamma 90.000000
_cell_volume 3224.489745
_symmetry_space_group_name_H-M "C 2/M"
_symmetry_group_IT_number 12
_symmetry_cell_setting 'monoclinic'
loop_
_space_group_symop_operation_xyz
x,y,z
-x,y,-z
-x,-y,-z
x,-y,z
1/2+x,1/2+y,z
1/2-x,1/2+y,-z
1/2-x,1/2-y,-z
1/2+x,1/2-y,z
loop_
_atom_site_type_symbol
_atom_site_label
_atom_site_fract_x
_atom_site_fract_y
_atom_site_fract_z
Si Si1 0.500000 0.669165 0.000000
Si Si2 0.178859 0.076884 0.236258
Si Si3 0.778723 0.653692 0.388523
Si Si4 0.366323 0.815614 0.235512
Si Si5 0.194962 0.811852 0.622577
Si Si6 0.600107 0.079044 0.102558
Si Si7 0.087039 0.169369 0.699061
Si Si8 0.208007 0.074930 0.002202
O O1 0.318826 0.702326 0.886567
O O2 0.374479 0.624979 0.988586
O O3 0.195558 0.108679 0.303368
O O4 0.296487 0.123223 0.243584
O O5 0.247759 0.000000 0.264814
O O6 0.947321 0.077692 0.116041
O O7 0.791904 0.730524 0.372917
O O8 0.640121 0.652000 0.382377
O O9 0.000000 0.630852 0.500000
O O10 0.581639 0.832450 0.301154
O O11 0.394403 0.748508 0.282557
O O12 0.150831 0.840749 0.663886
O O13 0.000000 0.828864 0.500000
O O14 0.776957 0.127246 0.199289
O O15 0.427025 0.087642 0.073398
O O16 0.657820 0.000000 0.125837
O O17 0.500000 0.095420 0.000000
O O18 0.200718 0.000000 0.022336
#
# Coordination Sequence:
#
# PCOD9184577 Si02
#       8
#     4   8   8   8   8   8   8   8
#     4  10  19  34  52  86 117 148 184 248 286 352
#     4  10  20  38  59  85 120 155 196 243 291 349
#     4  10  22  36  59  86 113 149 199 247 297 348
#     4  10  22  37  58  89 122 152 204 239 305 351
#     4  10  22  39  63  85 116 160 203 250 292 356
#     4  10  21  37  58  85 119 158 193 230 293 363
#     4  11  22  38  60  89 119 155 194 251 296 351
#     4   9  18  33  55  78 109 153 192 226 277 349
#
# _framework density 18.607595
#
# number of rings (size 3 to 8) (size 9 to 14) (size 15 to 20)
#    0.000    2.000    1.333    1.800    2.800    4.000 
#    0.000    2.667    0.000    0.800    0.000    0.000 
#    0.000    0.000    0.000    0.000    0.000    0.000 
#
# Total GULP energy -167296.649276 kJ/mol
# GULP energy per Si atom -5576.554976 kJ/mol
# Density = 1.856524 g / cm^3
# Si number density = 18.607595 Si / 1000 Ang^3
#
#
#
# Elastic Constant Matrix: (Units=GPa)
#
#
# Indices 1 2 3 4 5 6 
#
# 1 81.4445 17.3207 31.5719 0.0003 7.8083 0.0001
# 2 17.3207 42.4708 14.5325 0.0003 6.1256 0.0002
# 3 31.5719 14.5325 56.4556 0.0019 17.3418 0.0009
# 4 0.0003 0.0003 0.0019 16.6642 -0.0002 -14.8871
# 5 7.8083 6.1256 17.3418 -0.0002 31.4086 0.0001
# 6 0.0001 0.0002 0.0009 -14.8871 0.0001 19.6111
#
#
#
# Elastic Compliance Matrix: (Units=1/GPa)
#
#
# Indices 1 2 3 4 5 6 
#
# 1 0.016285 -0.003927 -0.008536 0.000003 0.001430 0.000003
# 2 -0.003927 0.026838 -0.004100 0.000000 -0.001994 0.000000
# 3 -0.008536 -0.004100 0.027269 -0.000013 -0.012135 -0.000011
# 4 0.000003 0.000000 -0.000013 0.186459 0.000007 0.141544
# 5 0.001430 -0.001994 -0.012135 0.000007 0.038572 0.000006
# 6 0.000003 0.000000 -0.000011 0.141544 0.000006 0.158440
#
#
# Mechanical properties :
#
#
# Convention : Reuss Voigt Hill
#
# Bulk Modulus (GPa) = 26.83315 34.13567 30.48441
# Shear Modulus (GPa) = 10.01180 21.33318 15.67249
#
# Velocity S-wave (km/s) = 2.32211 3.38964 2.90533
# Velocity P-wave (km/s) = 4.65203 5.80555 5.26050
#
# Compressibility (1/GPa) = 0.03726733
#
# Stress axis : x y z
#
# Youngs Moduli (GPa) = 61.40551 37.26122 36.67134
#
# Poissons Ratio (x) = 0.14633 0.31301
# Poissons Ratio (y) = 0.24115 0.15034
# Poissons Ratio (z) = 0.52414 0.15276
#
# Static dielectric constant tensor:
#      x y z
#    x 1.650750 0.000000 0.015600 
#    y 0.000000 1.622270 0.000000 
#    z 0.015600 0.000000 1.693070 
# 
# From -- ./inp_files/336882.got.cif
#   From: 2010.05.17/outbox.cif.g08.bks.cpg/sg12_169_cif.got.tgz:336882.got - 2010.06.03 13:09:07.
