data_PCOD9184420
_publ_section_title
;
Structure prediction by ZEFSAII (Michael W. Deem and Ramdas Pophale) SiO2 
 PCOD9184420
Probable space group: C 2/M
;
_chemical_formula_sum "Si O2"
_cell_formula_units_Z 56
_cell_length_a 18.332745
_cell_length_b 15.337584
_cell_length_c 11.428431
_cell_angle_alpha 90.000000
_cell_angle_beta 60.487585
_cell_angle_gamma 90.000000
_cell_volume 2796.498452
_symmetry_space_group_name_H-M "C 2/M"
_symmetry_group_IT_number 12
_symmetry_cell_setting 'monoclinic'
loop_
_space_group_symop_operation_xyz
x,y,z
-x,y,-z
-x,-y,-z
x,-y,z
1/2+x,1/2+y,z
1/2-x,1/2+y,-z
1/2-x,1/2-y,-z
1/2+x,1/2-y,z
loop_
_atom_site_type_symbol
_atom_site_label
_atom_site_fract_x
_atom_site_fract_y
_atom_site_fract_z
Si Si1 0.660263 0.230243 0.013098
Si Si2 0.248697 0.095500 0.214318
Si Si3 0.591698 0.394595 0.461533
Si Si4 0.983550 0.602362 0.871786
Si Si5 0.181620 0.846483 0.633139
Si Si6 0.900174 0.903650 0.062393
Si Si7 0.835921 0.359410 0.370310
O O1 0.689484 0.163300 0.890482
O O2 0.626414 0.322649 0.995989
O O3 0.750000 0.250000 0.000000
O O4 0.583900 0.172131 0.124495
O O5 0.155570 0.131236 0.307405
O O6 0.283074 0.087647 0.317701
O O7 0.248494 0.000000 0.157585
O O8 0.500000 0.362421 0.500000
O O9 0.591034 0.500000 0.462241
O O10 0.626525 0.366626 0.560444
O O11 0.957613 0.500000 0.886498
O O12 0.068494 0.614064 0.728542
O O13 0.000000 0.620228 0.000000
O O14 0.144062 0.891730 0.776751
O O15 0.174062 0.742596 0.652913
O O16 0.279618 0.869746 0.531883
O O17 0.879205 0.000000 0.031147
O O18 0.000000 0.899387 0.000000
#
# Coordination Sequence:
#
# PCOD9184420 Si02
#       7
#     8   8   8   8   8   8   8
#     4  12  25  40  60  87 125 160 203 255 317 377
#     4  10  19  35  58  87 117 150 198 254 311 358
#     4   9  19  33  53  85 122 158 200 248 299 358
#     4  11  21  37  64  92 120 155 202 264 317 364
#     4  10  19  35  60  88 125 162 204 250 304 366
#     4  11  24  42  64  87 120 166 213 253 301 370
#     4  10  19  33  61  93 121 149 199 256 303 362
#
# _framework density 20.025041999999999
#
# number of rings (size 3 to 8) (size 9 to 14) (size 15 to 20)
#    0.000    1.571    2.857    2.571    0.000    5.143 
#    0.000    2.857    0.000    0.000    0.000    2.000 
#    0.000    0.000    0.000    0.000    0.000    0.000 
#
# Total GULP energy -155976.945441 kJ/mol
# GULP energy per Si atom -5570.605194 kJ/mol
# Density = 1.997946 g / cm^3
# Si number density = 20.025042 Si / 1000 Ang^3
#
#
#
# Elastic Constant Matrix: (Units=GPa)
#
#
# Indices 1 2 3 4 5 6 
#
# 1 96.1856 36.2136 31.2461 0.0000 -35.4083 0.0000
# 2 36.2136 110.8412 23.4419 0.0000 -16.0868 0.0000
# 3 31.2461 23.4419 80.7052 0.0000 -38.9024 0.0000
# 4 0.0000 0.0000 0.0000 107.5808 0.0000 31.5287
# 5 -35.4083 -16.0868 -38.9024 0.0000 34.9671 0.0000
# 6 0.0000 0.0000 0.0000 31.5287 0.0000 34.1073
#
#
#
# Elastic Compliance Matrix: (Units=1/GPa)
#
#
# Indices 1 2 3 4 5 6 
#
# 1 0.018448 -0.003799 0.004579 0.000000 0.022028 0.000000
# 2 -0.003799 0.010527 -0.002387 0.000000 -0.001659 0.000000
# 3 0.004579 -0.002387 0.028071 0.000000 0.034769 0.000000
# 4 0.000000 0.000000 0.000000 0.012749 0.000000 -0.011785
# 5 0.022028 -0.001659 0.034769 0.000000 0.088823 0.000000
# 6 0.000000 0.000000 0.000000 -0.011785 0.000000 0.040214
#
#
# Mechanical properties :
#
#
# Convention : Reuss Voigt Hill
#
# Bulk Modulus (GPa) = 18.57586 52.17058 35.37322
# Shear Modulus (GPa) = 22.72840 48.45307 35.59073
#
# Velocity S-wave (km/s) = 3.37263 4.92430 4.22039
# Velocity P-wave (km/s) = 4.94597 7.64467 6.43830
#
# Compressibility (1/GPa) = 0.05383330
#
# Stress axis : x y z
#
# Youngs Moduli (GPa) = 54.20565 94.99365 35.62405
#
# Poissons Ratio (x) = 0.36086 -0.16312
# Poissons Ratio (y) = 0.20592 0.08502
# Poissons Ratio (z) = -0.24821 0.22672
#
# Static dielectric constant tensor:
#      x y z
#    x 1.757130 0.000000 0.018310 
#    y 0.000000 1.741270 0.000000 
#    z 0.018310 0.000000 1.992510 
# 
# From -- ./inp_files/156534.got.cif
#   From: 2010.05.17/outbox.cif.g08.bks.cpg/sg12_79_cif.got.tgz:156534.got - 2010.06.03 13:09:07.
