data_PCOD9184954
_publ_section_title
;
Structure prediction by ZEFSAII (Michael W. Deem and Ramdas Pophale) SiO2 
 PCOD9184954
Probable space group: C 2/M
;
_chemical_formula_sum "Si O2"
_cell_formula_units_Z 44
_cell_length_a 20.298956
_cell_length_b 14.380203
_cell_length_c 20.234491
_cell_angle_alpha 90.000000
_cell_angle_beta 158.519389
_cell_angle_gamma 90.000000
_cell_volume 2162.883639
_symmetry_space_group_name_H-M "C 2/M"
_symmetry_group_IT_number 12
_symmetry_cell_setting 'monoclinic'
loop_
_space_group_symop_operation_xyz
x,y,z
-x,y,-z
-x,-y,-z
x,-y,z
1/2+x,1/2+y,z
1/2-x,1/2+y,-z
1/2-x,1/2-y,-z
1/2+x,1/2-y,z
loop_
_atom_site_type_symbol
_atom_site_label
_atom_site_fract_x
_atom_site_fract_y
_atom_site_fract_z
Si Si1 0.851193 0.109364 0.636230
Si Si2 0.682923 0.834569 0.151101
Si Si3 0.662366 0.602705 0.834463
Si Si4 0.026109 0.389939 0.660569
Si Si5 0.000000 0.273299 0.500000
Si Si6 0.867299 0.780874 0.018116
O O1 0.642254 0.131233 0.448591
O O2 0.958109 0.119617 0.667014
O O3 0.870308 0.000000 0.672582
O O4 0.962253 0.174516 0.789121
O O5 0.807836 0.890438 0.216105
O O6 0.820253 0.790225 0.331106
O O7 0.602514 0.752367 0.029086
O O8 0.500000 0.886248 0.000000
O O9 0.715551 0.500000 0.907517
O O10 0.788518 0.686367 0.977427
O O11 0.031636 0.500000 0.653227
O O12 0.003947 0.334886 0.570474
O O13 0.207636 0.355019 0.863903
#
# Coordination Sequence:
#
# PCOD9184954 Si02
#       6
#     8   8   8   8   4   8
#     4  10  19  34  55  80 108 135 168 211 262 310
#     4   9  19  34  54  74 102 136 174 214 254 304
#     4   9  20  36  54  78 105 135 175 220 256 302
#     4  10  20  33  55  80 107 139 169 208 259 312
#     4  10  19  36  51  78 104 136 175 212 251 308
#     4   9  19  34  54  77 106 136 171 212 254 310
#
# _framework density 20.343212000000001
#
# number of rings (size 3 to 8) (size 9 to 14) (size 15 to 20)
#    1.091    1.455    0.000    2.455    0.000    1.091 
#    0.000    0.455    0.000   12.000    0.000    0.000 
#    0.000    0.000    0.000    0.000    0.000    0.000 
#
# Total GULP energy -122473.331559 kJ/mol
# GULP energy per Si atom -5566.969616 kJ/mol
# Density = 2.029691 g / cm^3
# Si number density = 20.343212 Si / 1000 Ang^3
#
#
#
# Elastic Constant Matrix: (Units=GPa)
#
#
# Indices 1 2 3 4 5 6 
#
# 1 53.0894 2.3124 5.7730 -0.0041 9.9718 -0.0009
# 2 2.3124 62.7627 15.9182 -0.0042 0.7683 0.0009
# 3 5.7730 15.9182 63.1649 -0.0101 11.1007 0.0042
# 4 -0.0041 -0.0042 -0.0101 13.1774 -0.0017 5.1062
# 5 9.9718 0.7683 11.1007 -0.0017 25.7288 0.0029
# 6 -0.0009 0.0009 0.0042 5.1062 0.0029 13.9199
#
#
#
# Elastic Compliance Matrix: (Units=1/GPa)
#
#
# Indices 1 2 3 4 5 6 
#
# 1 0.020349 -0.000563 -0.000362 0.000004 -0.007714 0.000002
# 2 -0.000563 0.017087 -0.004548 0.000002 0.001670 -0.000001
# 3 -0.000362 -0.004548 0.018354 0.000015 -0.007643 -0.000009
# 4 0.000004 0.000002 0.000015 0.088462 0.000001 -0.032450
# 5 -0.007714 0.001670 -0.007643 0.000001 0.045104 -0.000008
# 6 0.000002 -0.000001 -0.000009 -0.032450 -0.000008 0.083743
#
#
# Mechanical properties :
#
#
# Convention : Reuss Voigt Hill
#
# Bulk Modulus (GPa) = 22.30042 25.22491 23.76267
# Shear Modulus (GPa) = 16.72276 20.89944 18.81110
#
# Velocity S-wave (km/s) = 2.87022 3.20870 3.04417
# Velocity P-wave (km/s) = 4.68723 5.11412 4.90532
#
# Compressibility (1/GPa) = 0.04484220
#
# Stress axis : x y z
#
# Youngs Moduli (GPa) = 49.14261 58.52450 54.48415
#
# Poissons Ratio (x) = 0.03297 0.01974
# Poissons Ratio (y) = 0.02769 0.24780
# Poissons Ratio (z) = 0.01780 0.26618
#
# Static dielectric constant tensor:
#      x y z
#    x 1.794910 0.000000 0.048600 
#    y 0.000000 1.741300 0.000000 
#    z 0.048600 0.000000 1.680390 
# 
# From -- ./inp_files/347430.got.cif
#   From: 2010.05.17/outbox.cif.g08.bks.cpg/sg12_174_cif.got.tgz:347430.got - 2010.06.03 13:09:07.
