data_PCOD9184481
_publ_section_title
;
Structure prediction by ZEFSAII (Michael W. Deem and Ramdas Pophale) SiO2 
 PCOD9184481
Probable space group: C 2/M
;
_chemical_formula_sum "Si O2"
_cell_formula_units_Z 48
_cell_length_a 24.576877
_cell_length_b 9.039720
_cell_length_c 15.496133
_cell_angle_alpha 90.000000
_cell_angle_beta 122.008026
_cell_angle_gamma 90.000000
_cell_volume 2919.358788
_symmetry_space_group_name_H-M "C 2/M"
_symmetry_group_IT_number 12
_symmetry_cell_setting 'monoclinic'
loop_
_space_group_symop_operation_xyz
x,y,z
-x,y,-z
-x,-y,-z
x,-y,z
1/2+x,1/2+y,z
1/2-x,1/2+y,-z
1/2-x,1/2-y,-z
1/2+x,1/2-y,z
loop_
_atom_site_type_symbol
_atom_site_label
_atom_site_fract_x
_atom_site_fract_y
_atom_site_fract_z
Si Si1 0.506309 0.171248 0.763725
Si Si2 0.557172 0.178932 0.114236
Si Si3 0.344742 0.170391 0.060755
Si Si4 0.177315 0.321990 0.761913
Si Si5 0.457921 0.676726 0.381499
Si Si6 0.318331 0.676034 0.861450
O O1 0.461283 0.223476 0.803830
O O2 0.578311 0.172050 0.863143
O O3 0.509408 0.263392 0.678694
O O4 0.491041 0.000000 0.730314
O O5 0.624826 0.244335 0.141803
O O6 0.559746 0.000000 0.113561
O O7 0.500000 0.223833 0.000000
O O8 0.318338 0.214842 0.132196
O O9 0.325627 0.000000 0.025835
O O10 0.326717 0.276127 0.967973
O O11 0.168838 0.500000 0.750779
O O12 0.113362 0.245502 0.673555
O O13 0.245073 0.282529 0.775666
O O14 0.500000 0.717797 0.500000
O O15 0.452908 0.500000 0.372949
O O16 0.324573 0.500000 0.858503
#
# Coordination Sequence:
#
# PCOD9184481 Si02
#       6
#     8   8   8   8   8   8
#     4   9  18  33  53  75 100 135 175 207 243 297
#     4  10  19  34  51  69 102 144 178 206 239 292
#     4   9  16  30  48  67  98 138 173 204 243 295
#     4   9  20  35  49  70 101 135 170 206 249 304
#     4  10  21  36  56  81 103 123 157 213 269 306
#     4  11  21  30  45  73 105 136 172 210 246 288
#
# _framework density 16.441967000000002
#
# number of rings (size 3 to 8) (size 9 to 14) (size 15 to 20)
#    0.000    2.333    1.667    2.500    0.000    6.333 
#    0.000    0.000    0.000    1.000    0.000    0.000 
#    0.000    0.000    0.000    0.000    0.000    0.000 
#
# Total GULP energy -133826.404468 kJ/mol
# GULP energy per Si atom -5576.100186 kJ/mol
# Density = 1.640454 g / cm^3
# Si number density = 16.441967 Si / 1000 Ang^3
#
#
#
# Elastic Constant Matrix: (Units=GPa)
#
#
# Indices 1 2 3 4 5 6 
#
# 1 148.4906 42.8560 69.1391 0.0000 18.0182 0.0000
# 2 42.8560 27.7927 37.5355 0.0000 -0.6988 0.0000
# 3 69.1391 37.5355 92.0050 0.0000 -3.1487 0.0000
# 4 0.0000 0.0000 0.0000 23.6644 0.0000 -1.7039
# 5 18.0182 -0.6988 -3.1487 0.0000 10.0808 0.0000
# 6 0.0000 0.0000 0.0000 -1.7039 0.0000 21.0756
#
#
#
# Elastic Compliance Matrix: (Units=1/GPa)
#
#
# Indices 1 2 3 4 5 6 
#
# 1 0.024796 -0.026802 -0.009379 0.000000 -0.049107 0.000000
# 2 -0.026802 0.109326 -0.022806 0.000000 0.048362 0.000000
# 3 -0.009379 -0.022806 0.028041 0.000000 0.023942 0.000000
# 4 0.000000 0.000000 0.000000 0.042505 0.000000 0.003436
# 5 -0.049107 0.048362 0.023942 0.000000 0.197802 0.000000
# 6 0.000000 0.000000 0.000000 0.003436 0.000000 0.047726
#
#
# Mechanical properties :
#
#
# Convention : Reuss Voigt Hill
#
# Bulk Modulus (GPa) = 22.63069 63.03884 42.83477
# Shear Modulus (GPa) = 8.57781 18.88135 13.72958
#
# Velocity S-wave (km/s) = 2.28656 3.39243 2.89283
# Velocity P-wave (km/s) = 4.55686 7.33268 6.10464
#
# Compressibility (1/GPa) = 0.04418778
#
# Stress axis : x y z
#
# Youngs Moduli (GPa) = 40.32950 9.14695 35.66247
#
# Poissons Ratio (x) = 0.24516 0.33449
# Poissons Ratio (y) = 1.08093 0.81331
# Poissons Ratio (z) = 0.37826 0.20860
#
# Static dielectric constant tensor:
#      x y z
#    x 1.578190 0.000000 0.009220 
#    y 0.000000 1.549630 0.000000 
#    z 0.009220 0.000000 1.531670 
# 
# From -- ./inp_files/287270.got.cif
#   From: 2010.05.17/outbox.cif.g08.bks.cpg/sg12_144_cif.got.tgz:287270.got - 2010.06.03 13:09:07.
