data_PCOD9184167
_publ_section_title
;
Structure prediction by ZEFSAII (Michael W. Deem and Ramdas Pophale) SiO2 
 PCOD9184167
Probable space group: C 2/M
;
_chemical_formula_sum "Si O2"
_cell_formula_units_Z 52
_cell_length_a 21.648747
_cell_length_b 19.618185
_cell_length_c 9.110902
_cell_angle_alpha 90.000000
_cell_angle_beta 134.825437
_cell_angle_gamma 90.000000
_cell_volume 2744.461290
_symmetry_space_group_name_H-M "C 2/M"
_symmetry_group_IT_number 12
_symmetry_cell_setting 'monoclinic'
loop_
_space_group_symop_operation_xyz
x,y,z
-x,y,-z
-x,-y,-z
x,-y,z
1/2+x,1/2+y,z
1/2-x,1/2+y,-z
1/2-x,1/2-y,-z
1/2+x,1/2-y,z
loop_
_atom_site_type_symbol
_atom_site_label
_atom_site_fract_x
_atom_site_fract_y
_atom_site_fract_z
Si Si1 0.000000 0.241450 0.000000
Si Si2 0.671401 0.179928 0.235004
Si Si3 0.229116 0.680611 0.654210
Si Si4 0.282290 0.420337 0.247436
Si Si5 0.094802 0.731116 0.649660
Si Si6 0.942907 0.852075 0.642346
Si Si7 0.636636 0.354556 0.906256
O O1 0.074731 0.289626 0.058630
O O2 0.047161 0.191227 0.193188
O O3 0.738201 0.242189 0.318773
O O4 0.686858 0.157550 0.430706
O O5 0.700167 0.121628 0.171101
O O6 0.163386 0.684362 0.681673
O O7 0.311955 0.640403 0.855169
O O8 0.265900 0.500000 0.213495
O O9 0.363134 0.403500 0.493442
O O10 0.313900 0.392452 0.142186
O O11 0.076501 0.794386 0.510518
O O12 0.129549 0.773325 0.848975
O O13 0.000000 0.697056 0.500000
O O14 0.038115 0.880617 0.761405
#
# Coordination Sequence:
#
# PCOD9184167 Si02
#       7
#     4   8   8   8   8   8   8
#     4  12  20  36  60  94 122 140 192 250 320 348
#     4  11  22  35  57  86 117 154 186 248 301 350
#     4  11  18  34  56  87 119 142 189 248 313 348
#     4  11  24  42  57  80 121 169 206 229 275 351
#     4   9  17  28  47  83 116 142 176 230 298 352
#     4  10  19  33  57  87 120 150 184 240 295 352
#     4  10  20  32  57  85 113 151 189 241 292 350
#
# _framework density 18.947251999999999
#
# number of rings (size 3 to 8) (size 9 to 14) (size 15 to 20)
#    0.000    1.538    6.154    2.769    0.000    1.231 
#    0.000    1.538    0.000    0.000    0.000    1.077 
#    0.000    0.000    0.000    0.000    0.000    0.000 
#
# Total GULP energy -145028.882597 kJ/mol
# GULP energy per Si atom -5578.033946 kJ/mol
# Density = 1.890413 g / cm^3
# Si number density = 18.947252 Si / 1000 Ang^3
#
#
#
# Elastic Constant Matrix: (Units=GPa)
#
#
# Indices 1 2 3 4 5 6 
#
# 1 100.8624 35.9987 3.5865 0.0000 15.0889 0.0000
# 2 35.9987 60.5422 12.3101 0.0000 -4.8694 0.0000
# 3 3.5865 12.3101 54.9936 0.0000 -8.8036 0.0000
# 4 0.0000 0.0000 0.0000 11.0084 0.0000 2.2338
# 5 15.0889 -4.8694 -8.8036 0.0000 23.0216 0.0000
# 6 0.0000 0.0000 0.0000 2.2338 0.0000 9.2505
#
#
#
# Elastic Compliance Matrix: (Units=1/GPa)
#
#
# Indices 1 2 3 4 5 6 
#
# 1 0.015375 -0.009990 -0.000765 0.000000 -0.012482 0.000000
# 2 -0.009990 0.023914 -0.003029 0.000000 0.010448 0.000000
# 3 -0.000765 -0.003029 0.020121 0.000000 0.007555 0.000000
# 4 0.000000 0.000000 0.000000 0.095520 0.000000 -0.023066
# 5 -0.012482 0.010448 0.007555 0.000000 0.056718 0.000000
# 6 0.000000 0.000000 0.000000 -0.023066 0.000000 0.113672
#
#
# Mechanical properties :
#
#
# Convention : Reuss Voigt Hill
#
# Bulk Modulus (GPa) = 31.40513 35.57655 33.49084
# Shear Modulus (GPa) = 13.75507 19.62294 16.68900
#
# Velocity S-wave (km/s) = 2.69730 3.22166 2.97107
# Velocity P-wave (km/s) = 5.12948 5.71456 5.42991
#
# Compressibility (1/GPa) = 0.03184193
#
# Stress axis : x y z
#
# Youngs Moduli (GPa) = 65.04193 41.81664 49.69864
#
# Poissons Ratio (x) = 0.41776 0.03800
# Poissons Ratio (y) = 0.64979 0.15054
# Poissons Ratio (z) = 0.04973 0.12666
#
# Static dielectric constant tensor:
#      x y z
#    x 1.757300 0.000000 -0.021930 
#    y 0.000000 1.615960 0.000000 
#    z -0.021930 0.000000 1.748710 
# 
# From -- ./inp_files/99160.got.cif
#   From: 2010.05.17/outbox.cif.g08.bks.cpg/sg12_50_cif.got.tgz:99160.got - 2010.06.03 13:09:07.
