data_PCOD9184076
_publ_section_title
;
Structure prediction by ZEFSAII (Michael W. Deem and Ramdas Pophale) SiO2 
 PCOD9184076
Probable space group: C 2/M
;
_chemical_formula_sum "Si O2"
_cell_formula_units_Z 56
_cell_length_a 19.132938
_cell_length_b 8.743740
_cell_length_c 23.251538
_cell_angle_alpha 90.000000
_cell_angle_beta 128.200297
_cell_angle_gamma 90.000000
_cell_volume 3056.836989
_symmetry_space_group_name_H-M "C 2/M"
_symmetry_group_IT_number 12
_symmetry_cell_setting 'monoclinic'
loop_
_space_group_symop_operation_xyz
x,y,z
-x,y,-z
-x,-y,-z
x,-y,z
1/2+x,1/2+y,z
1/2-x,1/2+y,-z
1/2-x,1/2-y,-z
1/2+x,1/2-y,z
loop_
_atom_site_type_symbol
_atom_site_label
_atom_site_fract_x
_atom_site_fract_y
_atom_site_fract_z
Si Si1 0.344511 0.315263 0.067338
Si Si2 0.297302 0.683506 0.791432
Si Si3 0.492830 0.686500 0.930172
Si Si4 0.819967 0.817121 0.368281
Si Si5 0.147859 0.184150 0.796084
Si Si6 0.513948 0.683029 0.628206
Si Si7 0.673677 0.818486 0.501367
O O1 0.340910 0.500000 0.062723
O O2 0.423663 0.263022 0.065605
O O3 0.362731 0.273195 0.142947
O O4 0.250000 0.250000 0.000000
O O5 0.294408 0.500000 0.786213
O O6 0.398243 0.732238 0.855306
O O7 0.256096 0.754100 0.712682
O O8 0.233398 0.737979 0.810675
O O9 0.493969 0.500000 0.931089
O O10 0.500000 0.737042 0.000000
O O11 0.913900 0.781336 0.384762
O O12 0.816467 0.745639 0.429206
O O13 0.813252 0.000000 0.368422
O O14 0.063171 0.222164 0.713069
O O15 0.159425 0.000000 0.797959
O O16 0.498205 0.500000 0.619068
O O17 0.422397 0.767918 0.571149
O O18 0.750000 0.750000 0.500000
O O19 0.680666 0.000000 0.505763
#
# Coordination Sequence:
#
# PCOD9184076 Si02
#       7
#     8   8   8   8   8   8   8
#     4  10  20  35  54  77 106 142 183 224 272 326
#     4  10  19  33  57  84 108 140 183 227 269 320
#     4   9  18  32  51  77 109 144 181 223 271 323
#     4  10  21  39  61  84 114 149 183 224 276 332
#     4   9  19  35  55  79 110 145 177 219 277 334
#     4   9  19  37  59  81 109 147 185 224 277 336
#     4  12  25  39  57  83 115 148 186 232 278 326
#
# _framework density 18.319590000000002
#
# number of rings (size 3 to 8) (size 9 to 14) (size 15 to 20)
#    0.000    2.143    0.000    4.286    0.000    7.429 
#    0.000    4.286    0.000    3.857    0.000    0.000 
#    0.000    0.000    0.000    0.000    0.000    0.000 
#
# Total GULP energy -156383.205697 kJ/mol
# GULP energy per Si atom -5585.114489 kJ/mol
# Density = 1.827789 g / cm^3
# Si number density = 18.319590 Si / 1000 Ang^3
#
#
#
# Elastic Constant Matrix: (Units=GPa)
#
#
# Indices 1 2 3 4 5 6 
#
# 1 170.8622 62.4513 141.5967 0.0000 -3.3591 0.0000
# 2 62.4513 52.4505 62.3587 0.0000 1.2164 0.0000
# 3 141.5967 62.3587 165.9909 0.0000 1.6099 0.0000
# 4 0.0000 0.0000 0.0000 30.0416 0.0000 3.5523
# 5 -3.3591 1.2164 1.6099 0.0000 36.6185 0.0000
# 6 0.0000 0.0000 0.0000 3.5523 0.0000 27.1071
#
#
#
# Elastic Compliance Matrix: (Units=1/GPa)
#
#
# Indices 1 2 3 4 5 6 
#
# 1 0.021524 -0.006926 -0.015787 0.000000 0.002899 0.000000
# 2 -0.006926 0.036695 -0.007863 0.000000 -0.001509 0.000000
# 3 -0.015787 -0.007863 0.022467 0.000000 -0.002175 0.000000
# 4 0.000000 0.000000 0.000000 0.033811 0.000000 -0.004431
# 5 0.002899 -0.001509 -0.002175 0.000000 0.027720 0.000000
# 6 0.000000 0.000000 0.000000 -0.004431 0.000000 0.037471
#
#
# Mechanical properties :
#
#
# Convention : Reuss Voigt Hill
#
# Bulk Modulus (GPa) = 51.19259 102.45743 76.82501
# Shear Modulus (GPa) = 20.21408 26.94658 23.58033
#
# Velocity S-wave (km/s) = 3.32537 3.83941 3.59160
# Velocity P-wave (km/s) = 6.53827 8.70080 7.69587
#
# Compressibility (1/GPa) = 0.01953408
#
# Stress axis : x y z
#
# Youngs Moduli (GPa) = 46.45876 27.25149 44.51065
#
# Poissons Ratio (x) = 0.18875 0.70271
# Poissons Ratio (y) = 0.32178 0.34997
# Poissons Ratio (z) = 0.73346 0.21427
#
# Static dielectric constant tensor:
#      x y z
#    x 1.604660 0.000000 -0.007240 
#    y 0.000000 1.617280 0.000000 
#    z -0.007240 0.000000 1.613550 
# 
# From -- ./inp_files/342524.got.cif
#   From: 2010.05.17/outbox.cif.g08.bks.cpg/sg12_172_cif.got.tgz:342524.got - 2010.06.03 13:09:07.
