data_PCOD9184772
_publ_section_title
;
Structure prediction by ZEFSAII (Michael W. Deem and Ramdas Pophale) SiO2 
 PCOD9184772
Probable space group: C 2/M
;
_chemical_formula_sum "Si O2"
_cell_formula_units_Z 64
_cell_length_a 24.858289
_cell_length_b 22.241817
_cell_length_c 11.301999
_cell_angle_alpha 90.000000
_cell_angle_beta 147.262161
_cell_angle_gamma 90.000000
_cell_volume 3379.326782
_symmetry_space_group_name_H-M "C 2/M"
_symmetry_group_IT_number 12
_symmetry_cell_setting 'monoclinic'
loop_
_space_group_symop_operation_xyz
x,y,z
-x,y,-z
-x,-y,-z
x,-y,z
1/2+x,1/2+y,z
1/2-x,1/2+y,-z
1/2-x,1/2-y,-z
1/2+x,1/2-y,z
loop_
_atom_site_type_symbol
_atom_site_label
_atom_site_fract_x
_atom_site_fract_y
_atom_site_fract_z
Si Si1 0.200587 0.274851 0.026155
Si Si2 0.942570 0.190370 0.090290
Si Si3 0.018676 0.641618 0.662621
Si Si4 0.484521 0.433368 0.828368
Si Si5 0.255175 0.432792 0.427023
Si Si6 0.269335 0.312333 0.601756
Si Si7 0.962508 0.570095 0.062099
Si Si8 0.376565 0.237481 0.493190
O O1 0.128483 0.223595 0.947446
O O2 0.130405 0.331893 0.877444
O O3 0.250000 0.250000 0.000000
O O4 0.294645 0.282435 0.287456
O O5 0.963651 0.120203 0.145769
O O6 0.045735 0.226218 0.283192
O O7 0.880799 0.192975 0.855728
O O8 0.003065 0.605228 0.756555
O O9 0.000000 0.611328 0.500000
O O10 0.943494 0.699008 0.526781
O O11 0.523192 0.500000 0.872749
O O12 0.366789 0.431791 0.582784
O O13 0.500000 0.425151 0.000000
O O14 0.245946 0.500000 0.467147
O O15 0.253349 0.374213 0.505196
O O16 0.158044 0.427383 0.165474
O O17 0.250000 0.250000 0.500000
O O18 0.189801 0.310261 0.559872
O O19 0.992665 0.500000 0.126037
O O20 0.000000 0.591865 0.000000
#
# Coordination Sequence:
#
# PCOD9184772 Si02
#       8
#     8   8   8   8   8   8   8   8
#     4  10  21  40  59  81 116 152 200 251 309 363
#     4  10  22  34  54  84 112 155 204 243 310 366
#     4  11  22  39  64  88 117 160 204 249 301 367
#     4  10  19  34  54  79 117 157 196 241 291 365
#     4  10  21  36  56  80 118 166 198 235 303 375
#     4  11  22  33  52  84 122 155 200 255 304 363
#     4  10  23  42  63  90 123 161 203 251 307 360
#     4  10  22  36  53  83 118 155 199 255 304 363
#
# _framework density 18.938683999999999
#
# number of rings (size 3 to 8) (size 9 to 14) (size 15 to 20)
#    0.000    1.750    2.500    1.500    7.000    0.250 
#    0.000    0.000    0.000    0.750    0.000    0.875 
#    0.000    0.000    0.000    0.000    0.000    0.000 
#
# Total GULP energy -178272.921987 kJ/mol
# GULP energy per Si atom -5571.028812 kJ/mol
# Density = 1.889558 g / cm^3
# Si number density = 18.938684 Si / 1000 Ang^3
#
#
#
# Elastic Constant Matrix: (Units=GPa)
#
#
# Indices 1 2 3 4 5 6 
#
# 1 53.9888 19.9488 36.0631 0.0000 -8.8886 0.0000
# 2 19.9488 87.9236 47.3119 0.0000 -13.3086 0.0000
# 3 36.0631 47.3119 123.4220 0.0000 8.9541 0.0000
# 4 0.0000 0.0000 0.0000 25.8150 0.0000 2.1818
# 5 -8.8886 -13.3086 8.9541 0.0000 26.6530 0.0000
# 6 0.0000 0.0000 0.0000 2.1818 0.0000 15.6616
#
#
#
# Elastic Compliance Matrix: (Units=1/GPa)
#
#
# Indices 1 2 3 4 5 6 
#
# 1 0.026087 0.000567 -0.008704 0.000000 0.011907 0.000000
# 2 0.000567 0.016959 -0.007477 0.000000 0.011169 0.000000
# 3 -0.008704 -0.007477 0.014343 0.000000 -0.011454 0.000000
# 4 0.000000 0.000000 0.000000 0.039199 0.000000 -0.005461
# 5 0.011907 0.011169 -0.011454 0.000000 0.050915 0.000000
# 6 0.000000 0.000000 0.000000 -0.005461 0.000000 0.064611
#
#
# Mechanical properties :
#
#
# Convention : Reuss Voigt Hill
#
# Bulk Modulus (GPa) = 38.22441 52.44244 45.33343
# Shear Modulus (GPa) = 19.83648 24.42662 22.13155
#
# Velocity S-wave (km/s) = 3.23988 3.59524 3.42217
# Velocity P-wave (km/s) = 5.85002 6.70709 6.29317
#
# Compressibility (1/GPa) = 0.02616129
#
# Stress axis : x y z
#
# Youngs Moduli (GPa) = 38.33325 58.96651 69.72262
#
# Poissons Ratio (x) = -0.03343 0.60684
# Poissons Ratio (y) = -0.02173 0.52130
# Poissons Ratio (z) = 0.33364 0.44088
#
# Static dielectric constant tensor:
#      x y z
#    x 1.718850 0.000000 -0.015070 
#    y 0.000000 1.918270 0.000000 
#    z -0.015070 0.000000 1.709540 
# 
# From -- ./inp_files/184720.got.cif
#   From: 2010.05.17/outbox.cif.g08.bks.cpg/sg12_93_cif.got.tgz:184720.got - 2010.06.03 13:09:07.
