data_PCOD9184518
_publ_section_title
;
Structure prediction by ZEFSAII (Michael W. Deem and Ramdas Pophale) SiO2 
 PCOD9184518
Probable space group: C 2/M
;
_chemical_formula_sum "Si O2"
_cell_formula_units_Z 48
_cell_length_a 25.053763
_cell_length_b 10.458934
_cell_length_c 16.365981
_cell_angle_alpha 90.000000
_cell_angle_beta 37.474201
_cell_angle_gamma 90.000000
_cell_volume 2609.123216
_symmetry_space_group_name_H-M "C 2/M"
_symmetry_group_IT_number 12
_symmetry_cell_setting 'monoclinic'
loop_
_space_group_symop_operation_xyz
x,y,z
-x,y,-z
-x,-y,-z
x,-y,z
1/2+x,1/2+y,z
1/2-x,1/2+y,-z
1/2-x,1/2-y,-z
1/2+x,1/2-y,z
loop_
_atom_site_type_symbol
_atom_site_label
_atom_site_fract_x
_atom_site_fract_y
_atom_site_fract_z
Si Si1 0.200575 0.500000 0.462666
Si Si2 0.584023 0.236172 0.629883
Si Si3 0.205780 0.769556 0.177245
Si Si4 0.731533 0.000000 0.236080
Si Si5 0.421564 0.354512 0.539221
Si Si6 0.612776 0.753611 0.116982
Si Si7 0.915409 0.000000 0.954894
Si Si8 0.393390 0.500000 0.296313
O O1 0.154157 0.624696 0.557145
O O2 0.190138 0.500000 0.376442
O O3 0.303320 0.500000 0.357105
O O4 0.588621 0.274255 0.529385
O O5 0.484345 0.187168 0.767184
O O6 0.602553 0.368242 0.655932
O O7 0.208792 0.626024 0.211088
O O8 0.163559 0.851670 0.300310
O O9 0.144722 0.769414 0.170939
O O10 0.302584 0.813640 0.030967
O O11 0.837647 0.000000 0.114590
O O12 0.500000 0.302584 0.500000
O O13 0.444471 0.500000 0.488262
O O14 0.598916 0.620557 0.086719
O O15 0.014961 0.000000 0.864698
#
# Coordination Sequence:
#
# PCOD9184518 Si02
#       8
#     4   8   8   4   8   8   4   4
#     4  12  24  36  58  81 110 141 180 240 294 326
#     4  11  21  39  56  83 111 142 182 231 276 324
#     4  10  19  34  51  80 112 148 176 206 262 328
#     4  10  20  34  52  81 114 138 175 220 275 335
#     4  11  21  33  56  82 109 146 186 218 257 324
#     4   9  19  33  53  78 111 148 177 211 257 326
#     4   8  18  35  58  77 103 139 189 231 257 313
#     4  10  22  41  61  76  98 145 198 236 271 322
#
# _framework density 18.396985999999998
#
# number of rings (size 3 to 8) (size 9 to 14) (size 15 to 20)
#    0.000    1.833    4.167    0.500    1.167    1.000 
#    3.000    1.667    0.000    0.000    0.000    1.167 
#    0.000    0.000    0.000    0.000    0.000    0.000 
#
# Total GULP energy -133765.649150 kJ/mol
# GULP energy per Si atom -5573.568715 kJ/mol
# Density = 1.835511 g / cm^3
# Si number density = 18.396986 Si / 1000 Ang^3
#
#
#
# Elastic Constant Matrix: (Units=GPa)
#
#
# Indices 1 2 3 4 5 6 
#
# 1 46.9428 9.4191 12.2810 0.0000 -17.8437 0.0000
# 2 9.4191 56.5689 9.0601 0.0001 -7.2259 0.0000
# 3 12.2810 9.0601 85.6467 0.0000 -9.4854 0.0000
# 4 0.0000 0.0001 0.0000 21.3441 0.0000 -2.1902
# 5 -17.8437 -7.2259 -9.4854 0.0000 30.9501 0.0000
# 6 0.0000 0.0000 0.0000 -2.1902 0.0000 3.3897
#
#
#
# Elastic Compliance Matrix: (Units=1/GPa)
#
#
# Indices 1 2 3 4 5 6 
#
# 1 0.028019 -0.002419 -0.002107 0.000000 0.014944 0.000000
# 2 -0.002419 0.018620 -0.001341 0.000000 0.002541 0.000000
# 3 -0.002107 -0.001341 0.012371 0.000000 0.002263 0.000000
# 4 0.000000 0.000000 0.000000 0.050178 0.000000 0.032422
# 5 0.014944 0.002541 0.002263 0.000000 0.042213 0.000000
# 6 0.000000 0.000000 0.000000 0.032422 0.000000 0.315960
#
#
# Mechanical properties :
#
#
# Convention : Reuss Voigt Hill
#
# Bulk Modulus (GPa) = 21.15278 27.85319 24.50298
# Shear Modulus (GPa) = 10.10400 21.69666 15.90033
#
# Velocity S-wave (km/s) = 2.34609 3.43791 2.94307
# Velocity P-wave (km/s) = 4.34301 5.56164 4.98967
#
# Compressibility (1/GPa) = 0.04727512
#
# Stress axis : x y z
#
# Youngs Moduli (GPa) = 35.68959 53.70620 80.83717
#
# Poissons Ratio (x) = 0.12992 0.17031
# Poissons Ratio (y) = 0.08634 0.10843
# Poissons Ratio (z) = 0.07519 0.07204
#
# Static dielectric constant tensor:
#      x y z
#    x 1.600470 0.000000 -0.029170 
#    y 0.000000 1.635900 0.000000 
#    z -0.029170 0.000000 1.687540 
# 
# From -- ./inp_files/174911.got.cif
#   From: 2010.05.17/outbox.cif.g08.bks.cpg/sg12_88_cif.got.tgz:174911.got - 2010.06.03 13:09:07.
