data_PCOD9184439
_publ_section_title
;
Structure prediction by ZEFSAII (Michael W. Deem and Ramdas Pophale) SiO2 
 PCOD9184439
Probable space group: C 2/M
;
_chemical_formula_sum "Si O2"
_cell_formula_units_Z 48
_cell_length_a 31.490215
_cell_length_b 8.400811
_cell_length_c 8.926321
_cell_angle_alpha 90.000000
_cell_angle_beta 86.459924
_cell_angle_gamma 90.000000
_cell_volume 2356.892917
_symmetry_space_group_name_H-M "C 2/M"
_symmetry_group_IT_number 12
_symmetry_cell_setting 'monoclinic'
loop_
_space_group_symop_operation_xyz
x,y,z
-x,y,-z
-x,-y,-z
x,-y,z
1/2+x,1/2+y,z
1/2-x,1/2+y,-z
1/2-x,1/2-y,-z
1/2+x,1/2-y,z
loop_
_atom_site_type_symbol
_atom_site_label
_atom_site_fract_x
_atom_site_fract_y
_atom_site_fract_z
Si Si1 0.680510 0.000000 0.671392
Si Si2 0.199340 0.173115 0.120179
Si Si3 0.990569 0.173884 0.824336
Si Si4 0.895711 0.500000 0.546431
Si Si5 0.891404 0.500000 0.063770
Si Si6 0.532838 0.000000 0.717276
Si Si7 0.105253 0.754636 0.195935
Si Si8 0.722380 0.682316 0.769255
O O1 0.649755 0.000000 0.823433
O O2 0.706353 0.167697 0.674195
O O3 0.647049 0.000000 0.542655
O O4 0.151131 0.164883 0.183596
O O5 0.227442 0.297421 0.206346
O O6 0.220370 0.000000 0.138061
O O7 0.202135 0.202421 0.940950
O O8 0.940180 0.163722 0.808398
O O9 0.006805 0.335087 0.740116
O O10 0.009435 0.000000 0.774624
O O11 0.000000 0.192579 0.000000
O O12 0.937810 0.500000 0.435552
O O13 0.896294 0.650354 0.654759
O O14 0.933363 0.500000 0.154673
O O15 0.892358 0.648007 0.953488
O O16 0.713314 0.500000 0.719735
#
# Coordination Sequence:
#
# PCOD9184439 Si02
#       8
#     4   8   8   4   4   4   8   8
#     4  11  20  44  60  93 124 169 217 265 303 387
#     4  10  20  35  61  96 127 159 208 267 320 373
#     4  11  23  39  68 102 128 161 214 267 322 377
#     4  10  27  40  66  90 132 172 222 251 327 374
#     4  10  19  33  67  85 119 166 206 265 317 346
#     4  11  21  46  63  94 126 172 210 266 309 390
#     4  11  21  39  60  94 126 169 205 267 309 381
#     4  10  21  35  63  97 123 160 210 266 319 373
#
# _framework density 20.365798000000002
#
# number of rings (size 3 to 8) (size 9 to 14) (size 15 to 20)
#    0.000    1.500    4.167    1.750    3.500    1.333 
#    0.000    8.333    0.000    0.000    0.000    0.000 
#    0.000    0.000    0.000    0.000    0.000    0.000 
#
# Total GULP energy -133824.758834 kJ/mol
# GULP energy per Si atom -5576.031618 kJ/mol
# Density = 2.031944 g / cm^3
# Si number density = 20.365798 Si / 1000 Ang^3
#
#
#
# Elastic Constant Matrix: (Units=GPa)
#
#
# Indices 1 2 3 4 5 6 
#
# 1 119.6591 59.5671 30.9766 0.0000 -0.7687 0.0000
# 2 59.5671 147.5941 33.5736 0.0000 7.0452 0.0000
# 3 30.9766 33.5736 70.5287 0.0000 5.2146 0.0000
# 4 0.0000 0.0000 0.0000 -8.2520 0.0000 -29.4475
# 5 -0.7687 7.0452 5.2146 0.0000 12.8687 0.0000
# 6 0.0000 0.0000 0.0000 -29.4475 0.0000 34.8312
#
#
#
# Elastic Compliance Matrix: (Units=1/GPa)
#
#
# Indices 1 2 3 4 5 6 
#
# 1 0.011228 -0.003969 -0.003353 0.000000 0.004202 0.000000
# 2 -0.003969 0.009099 -0.002270 0.000000 -0.004299 0.000000
# 3 -0.003353 -0.002270 0.017169 0.000000 -0.005915 0.000000
# 4 0.000000 0.000000 0.000000 -0.030168 0.000000 -0.025505
# 5 0.004202 -0.004299 -0.005915 0.000000 0.082709 0.000000
# 6 0.000000 0.000000 0.000000 -0.025505 0.000000 0.007147
#
#
# Mechanical properties :
#
#
# Convention : Reuss Voigt Hill
#
# Bulk Modulus (GPa) = 54.60983 65.11296 59.86139
# Shear Modulus (GPa) = 40.82556 22.13389 31.47973
#
# Velocity S-wave (km/s) = 4.48215 3.30027 3.93582
# Velocity P-wave (km/s) = 7.32522 6.82374 7.07893
#
# Compressibility (1/GPa) = 0.01831172
#
# Stress axis : x y z
#
# Youngs Moduli (GPa) = 89.06334 109.90309 58.24451
#
# Poissons Ratio (x) = 0.43625 0.19527
# Poissons Ratio (y) = 0.35353 0.13222
# Poissons Ratio (z) = 0.29859 0.24949
#
# Static dielectric constant tensor:
#      x y z
#    x 1.723550 0.000000 -0.000840 
#    y 0.000000 1.778460 0.000000 
#    z -0.000840 0.000000 1.683100 
# 
# From -- ./inp_files/108883.got.cif
#   From: 2010.05.17/outbox.cif.g08.bks.cpg/sg12_55_cif.got.tgz:108883.got - 2010.06.03 13:09:07.
