data_PCOD9184148
_publ_section_title
;
Structure prediction by ZEFSAII (Michael W. Deem and Ramdas Pophale) SiO2 
 PCOD9184148
Probable space group: C 2/M
;
_chemical_formula_sum "Si O2"
_cell_formula_units_Z 48
_cell_length_a 19.684285
_cell_length_b 8.806575
_cell_length_c 17.036426
_cell_angle_alpha 90.000000
_cell_angle_beta 122.743828
_cell_angle_gamma 90.000000
_cell_volume 2483.998925
_symmetry_space_group_name_H-M "C 2/M"
_symmetry_group_IT_number 12
_symmetry_cell_setting 'monoclinic'
loop_
_space_group_symop_operation_xyz
x,y,z
-x,y,-z
-x,-y,-z
x,-y,z
1/2+x,1/2+y,z
1/2-x,1/2+y,-z
1/2-x,1/2-y,-z
1/2+x,1/2-y,z
loop_
_atom_site_type_symbol
_atom_site_label
_atom_site_fract_x
_atom_site_fract_y
_atom_site_fract_z
Si Si1 0.300544 0.178621 0.426627
Si Si2 0.196371 0.319257 0.897292
Si Si3 0.361153 0.175357 0.707804
Si Si4 0.732918 0.322668 0.752062
Si Si5 0.471617 0.320634 0.231502
Si Si6 0.464096 0.681097 0.561200
O O1 0.215939 0.263706 0.389873
O O2 0.314762 0.227900 0.344042
O O3 0.379215 0.235843 0.520264
O O4 0.289563 0.000000 0.427148
O O5 0.204519 0.500000 0.899867
O O6 0.223572 0.246108 0.831543
O O7 0.102951 0.271694 0.849642
O O8 0.250000 0.250000 0.000000
O O9 0.323808 0.183401 0.772774
O O10 0.441506 0.271558 0.747595
O O11 0.376718 0.000000 0.698140
O O12 0.707463 0.500000 0.734543
O O13 0.458720 0.500000 0.212202
O O14 0.478038 0.290006 0.329053
O O15 0.500000 0.727558 0.500000
O O16 0.448870 0.500000 0.549090
#
# Coordination Sequence:
#
# PCOD9184148 Si02
#       6
#     8   8   8   8   8   8
#     4  10  19  33  57  86 118 158 203 243 291 353
#     4  12  25  42  66  92 121 155 198 248 303 363
#     4   9  20  38  61  86 122 164 201 246 302 357
#     4   9  19  38  62  87 120 159 199 243 297 354
#     4  11  23  39  62  90 123 157 203 256 303 358
#     4  10  21  36  55  83 121 164 203 246 300 355
#
# _framework density 19.323678999999998
#
# number of rings (size 3 to 8) (size 9 to 14) (size 15 to 20)
#    1.000    0.833    0.000    5.000    0.000    3.667 
#    0.000    0.833    0.000    5.000    0.000    0.000 
#    0.000    0.000    0.000    0.000    0.000    0.000 
#
# Total GULP energy -133967.366716 kJ/mol
# GULP energy per Si atom -5581.973613 kJ/mol
# Density = 1.927970 g / cm^3
# Si number density = 19.323679 Si / 1000 Ang^3
#
#
#
# Elastic Constant Matrix: (Units=GPa)
#
#
# Indices 1 2 3 4 5 6 
#
# 1 74.6170 13.3475 13.7487 0.0000 10.2071 0.0000
# 2 13.3475 67.0819 21.3736 0.0000 10.0954 0.0000
# 3 13.7487 21.3736 64.7724 0.0000 14.4691 0.0000
# 4 0.0000 0.0000 0.0000 26.3315 0.0000 4.3759
# 5 10.2071 10.0954 14.4691 0.0000 22.4865 0.0000
# 6 0.0000 0.0000 0.0000 4.3759 0.0000 33.4857
#
#
#
# Elastic Compliance Matrix: (Units=1/GPa)
#
#
# Indices 1 2 3 4 5 6 
#
# 1 0.014651 -0.001711 -0.001438 0.000000 -0.004957 0.000000
# 2 -0.001711 0.017277 -0.004413 0.000000 -0.004140 0.000000
# 3 -0.001438 -0.004413 0.019400 0.000000 -0.009849 0.000000
# 4 0.000000 0.000000 0.000000 0.038820 0.000000 -0.005073
# 5 -0.004957 -0.004140 -0.009849 0.000000 0.054917 0.000000
# 6 0.000000 0.000000 0.000000 -0.005073 0.000000 0.030526
#
#
# Mechanical properties :
#
#
# Convention : Reuss Voigt Hill
#
# Bulk Modulus (GPa) = 27.62115 33.71233 30.66674
# Shear Modulus (GPa) = 24.65680 26.99419 25.82550
#
# Velocity S-wave (km/s) = 3.57597 3.74163 3.65974
# Velocity P-wave (km/s) = 5.60135 6.01252 5.81057
#
# Compressibility (1/GPa) = 0.03620414
#
# Stress axis : x y z
#
# Youngs Moduli (GPa) = 68.25540 57.88138 51.54575
#
# Poissons Ratio (x) = 0.09903 0.07412
# Poissons Ratio (y) = 0.11678 0.22747
# Poissons Ratio (z) = 0.09815 0.25543
#
# Static dielectric constant tensor:
#      x y z
#    x 1.714010 0.000000 -0.026780 
#    y 0.000000 1.635330 0.000000 
#    z -0.026780 0.000000 1.671840 
# 
# From -- ./inp_files/280529.got.cif
#   From: 2010.05.17/outbox.cif.g08.bks.cpg/sg12_141_cif.got.tgz:280529.got - 2010.06.03 13:09:07.
