data_PCOD9184478
_publ_section_title
;
Structure prediction by ZEFSAII (Michael W. Deem and Ramdas Pophale) SiO2 
 PCOD9184478
Probable space group: C 2/M
;
_chemical_formula_sum "Si O2"
_cell_formula_units_Z 64
_cell_length_a 24.570511
_cell_length_b 7.506549
_cell_length_c 18.113299
_cell_angle_alpha 90.000000
_cell_angle_beta 72.324019
_cell_angle_gamma 90.000000
_cell_volume 3183.088661
_symmetry_space_group_name_H-M "C 2/M"
_symmetry_group_IT_number 12
_symmetry_cell_setting 'monoclinic'
loop_
_space_group_symop_operation_xyz
x,y,z
-x,y,-z
-x,-y,-z
x,-y,z
1/2+x,1/2+y,z
1/2-x,1/2+y,-z
1/2-x,1/2-y,-z
1/2+x,1/2-y,z
loop_
_atom_site_type_symbol
_atom_site_label
_atom_site_fract_x
_atom_site_fract_y
_atom_site_fract_z
Si Si1 0.183422 0.290552 0.676072
Si Si2 0.862886 0.215432 0.460897
Si Si3 0.508814 0.715501 0.581987
Si Si4 0.397971 0.795520 0.721124
Si Si5 0.422553 0.781317 0.185286
Si Si6 0.431023 0.795098 0.019824
Si Si7 0.808342 0.208208 0.635274
Si Si8 0.446099 0.780753 0.852860
O O1 0.183073 0.500000 0.694790
O O2 0.175859 0.270234 0.591550
O O3 0.127021 0.218035 0.739738
O O4 0.245106 0.215194 0.673010
O O5 0.928053 0.275542 0.421027
O O6 0.839654 0.281514 0.549289
O O7 0.864971 0.000000 0.462312
O O8 0.500000 0.764385 0.500000
O O9 0.505888 0.500000 0.587197
O O10 0.457932 0.786343 0.652796
O O11 0.349749 0.716964 0.688173
O O12 0.410628 0.718973 0.796785
O O13 0.381577 0.000000 0.738049
O O14 0.410112 0.719848 0.106333
O O15 0.487051 0.727550 0.180463
O O16 0.423953 0.000000 0.183656
O O17 0.411010 0.000000 0.025548
O O18 0.500000 0.798013 0.000000
O O19 0.421810 0.719028 0.942035
O O20 0.799465 0.000000 0.622027
O O21 0.446032 0.000000 0.853543
#
# Coordination Sequence:
#
# PCOD9184478 Si02
#       8
#     8   8   8   8   8   8   8   8
#     4  10  20  32  50  72  93 118 156 208 244 266
#     4  10  20  34  51  67  89 124 160 191 231 288
#     4  10  19  34  51  66  93 129 156 182 228 289
#     4  11  21  31  48  73  97 121 157 204 240 267
#     4   8  13  24  43  69  96 118 146 186 233 282
#     4   7  10  19  38  63  94 126 144 168 226 292
#     4  10  21  37  49  61  90 132 166 192 234 288
#     4   8  14  24  40  68 101 122 142 183 237 284
#
# _framework density 20.106258
#
# number of rings (size 3 to 8) (size 9 to 14) (size 15 to 20)
#    0.000    2.750    1.250    3.000    0.000    2.750 
#    0.000    0.000    0.000    0.750    0.000    1.750 
#    0.000    9.500    0.000    0.000    0.000    0.125 
#
# Total GULP energy -178465.214954 kJ/mol
# GULP energy per Si atom -5577.037967 kJ/mol
# Density = 2.006049 g / cm^3
# Si number density = 20.106258 Si / 1000 Ang^3
#
#
#
# Elastic Constant Matrix: (Units=GPa)
#
#
# Indices 1 2 3 4 5 6 
#
# 1 108.1960 -2.1824 49.0363 0.0000 11.8533 0.0000
# 2 -2.1824 46.6855 -6.7254 0.0000 -6.1670 0.0000
# 3 49.0363 -6.7254 117.7868 0.0000 27.8796 0.0000
# 4 0.0000 0.0000 0.0000 20.6197 0.0000 28.9211
# 5 11.8533 -6.1670 27.8796 0.0000 19.0191 0.0000
# 6 0.0000 0.0000 0.0000 28.9211 0.0000 23.6789
#
#
#
# Elastic Compliance Matrix: (Units=1/GPa)
#
#
# Indices 1 2 3 4 5 6 
#
# 1 0.011394 -0.000181 -0.004684 0.000000 -0.000293 0.000000
# 2 -0.000181 0.022416 -0.000600 0.000000 0.008261 0.000000
# 3 -0.004684 -0.000600 0.014947 0.000000 -0.019186 0.000000
# 4 0.000000 0.000000 0.000000 -0.068008 0.000000 0.083064
# 5 -0.000293 0.008261 -0.019186 0.000000 0.083564 0.000000
# 6 0.000000 0.000000 0.000000 0.083064 0.000000 -0.059222
#
#
# Mechanical properties :
#
#
# Convention : Reuss Voigt Hill
#
# Bulk Modulus (GPa) = 26.43663 39.21393 32.82528
# Shear Modulus (GPa) = 174.64106 28.16620 101.40363
#
# Velocity S-wave (km/s) = 9.32993 3.74688 7.10938
# Velocity P-wave (km/s) = 11.36840 6.18583 9.15164
#
# Compressibility (1/GPa) = 0.03782630
#
# Stress axis : x y z
#
# Youngs Moduli (GPa) = 87.76542 44.61054 66.90299
#
# Poissons Ratio (x) = 0.00807 0.31341
# Poissons Ratio (y) = 0.01588 0.04015
# Poissons Ratio (z) = 0.41114 0.02677
#
# Static dielectric constant tensor:
#      x y z
#    x 1.690340 0.000000 0.003030 
#    y 0.000000 1.772500 0.000000 
#    z 0.003030 0.000000 1.729330 
# 
# From -- ./inp_files/287592.got.cif
#   From: 2010.05.17/outbox.cif.g08.bks.cpg/sg12_144_cif.got.tgz:287592.got - 2010.06.03 13:09:07.
