data_PCOD9184331
_publ_section_title
;
Structure prediction by ZEFSAII (Michael W. Deem and Ramdas Pophale) SiO2 
 PCOD9184331
Probable space group: C 2/M
;
_chemical_formula_sum "Si O2"
_cell_formula_units_Z 64
_cell_length_a 26.821041
_cell_length_b 18.222918
_cell_length_c 11.062621
_cell_angle_alpha 90.000000
_cell_angle_beta 146.795614
_cell_angle_gamma 90.000000
_cell_volume 2960.988061
_symmetry_space_group_name_H-M "C 2/M"
_symmetry_group_IT_number 12
_symmetry_cell_setting 'monoclinic'
loop_
_space_group_symop_operation_xyz
x,y,z
-x,y,-z
-x,-y,-z
x,-y,z
1/2+x,1/2+y,z
1/2-x,1/2+y,-z
1/2-x,1/2-y,-z
1/2+x,1/2-y,z
loop_
_atom_site_type_symbol
_atom_site_label
_atom_site_fract_x
_atom_site_fract_y
_atom_site_fract_z
Si Si1 0.976066 0.193123 0.091312
Si Si2 0.854441 0.259485 0.427363
Si Si3 0.517207 0.584699 0.706446
Si Si4 0.109146 0.417722 0.491732
Si Si5 0.201129 0.283291 0.283701
Si Si6 0.161647 0.414192 0.861009
Si Si7 0.358450 0.652547 0.237516
Si Si8 0.404614 0.914920 0.007029
O O1 0.980342 0.111108 0.151558
O O2 0.050131 0.239016 0.317312
O O3 0.877885 0.227434 0.912549
O O4 0.000000 0.197801 0.000000
O O5 0.834040 0.344208 0.416101
O O6 0.776887 0.211503 0.333639
O O7 0.861423 0.233666 0.302264
O O8 0.540151 0.500000 0.734084
O O9 0.417360 0.602412 0.450181
O O10 0.586795 0.637264 0.774144
O O11 0.147065 0.500000 0.546983
O O12 0.095871 0.411499 0.610709
O O13 0.014158 0.411549 0.227936
O O14 0.250000 0.250000 0.500000
O O15 0.148833 0.360717 0.190197
O O16 0.185298 0.500000 0.922630
O O17 0.255101 0.372894 0.020552
O O18 0.121148 0.391520 0.907712
O O19 0.379278 0.000000 0.937043
#
# Coordination Sequence:
#
# PCOD9184331 Si02
#       8
#     8   8   8   8   8   8   8   8
#     4  11  24  44  65  90 126 171 226 283 337 396
#     4  11  23  41  65  95 128 176 222 269 342 404
#     4  10  22  40  62  91 130 174 214 265 332 398
#     4  10  22  39  61  93 134 173 217 271 334 400
#     4  12  24  43  69  93 126 171 223 286 332 398
#     4  10  19  33  58  92 132 168 207 261 324 396
#     4  10  20  37  60  93 130 171 213 258 320 407
#     4  10  21  41  65  94 129 173 218 270 337 403
#
# _framework density 21.614405999999999
#
# number of rings (size 3 to 8) (size 9 to 14) (size 15 to 20)
#    0.000    1.500    3.750    1.875    1.750    3.250 
#    4.500    1.250    0.000    2.250    0.000    0.000 
#    0.000    0.000    0.000    0.000    0.000    0.000 
#
# Total GULP energy -178651.033125 kJ/mol
# GULP energy per Si atom -5582.844785 kJ/mol
# Density = 2.156521 g / cm^3
# Si number density = 21.614406 Si / 1000 Ang^3
#
#
#
# Elastic Constant Matrix: (Units=GPa)
#
#
# Indices 1 2 3 4 5 6 
#
# 1 17.4996 9.7420 9.3584 0.0000 4.6466 0.0000
# 2 9.7420 108.7464 29.4502 0.0000 -8.5127 0.0000
# 3 9.3584 29.4502 89.7986 0.0000 3.1795 0.0000
# 4 0.0000 0.0000 0.0000 29.8792 0.0000 -1.4783
# 5 4.6466 -8.5127 3.1795 0.0000 26.0175 0.0000
# 6 0.0000 0.0000 0.0000 -1.4783 0.0000 21.6510
#
#
#
# Elastic Compliance Matrix: (Units=1/GPa)
#
#
# Indices 1 2 3 4 5 6 
#
# 1 0.066266 -0.005731 -0.004561 0.000000 -0.013152 0.000000
# 2 -0.005731 0.010960 -0.003174 0.000000 0.004997 0.000000
# 3 -0.004561 -0.003174 0.012715 0.000000 -0.001778 0.000000
# 4 0.000000 0.000000 0.000000 0.033582 0.000000 0.002293
# 5 -0.013152 0.004997 -0.001778 0.000000 0.042637 0.000000
# 6 0.000000 0.000000 0.000000 0.002293 0.000000 0.046344
#
#
# Mechanical properties :
#
#
# Convention : Reuss Voigt Hill
#
# Bulk Modulus (GPa) = 15.87059 34.79395 25.33227
# Shear Modulus (GPa) = 19.19846 26.67584 22.93715
#
# Velocity S-wave (km/s) = 2.98354 3.51689 3.26114
# Velocity P-wave (km/s) = 4.38489 5.71173 5.09171
#
# Compressibility (1/GPa) = 0.06300962
#
# Stress axis : x y z
#
# Youngs Moduli (GPa) = 15.09074 91.24190 78.64573
#
# Poissons Ratio (x) = 0.52289 0.35868
# Poissons Ratio (y) = 0.08648 0.24963
# Poissons Ratio (z) = 0.06882 0.28961
#
# Static dielectric constant tensor:
#      x y z
#    x 1.787760 0.000000 -0.027710 
#    y 0.000000 1.803550 0.000000 
#    z -0.027710 0.000000 1.781730 
# 
# From -- ./inp_files/190104.got.cif
#   From: 2010.05.17/outbox.cif.g08.bks.cpg/sg12_96_cif.got.tgz:190104.got - 2010.06.03 13:09:07.
