data_PCOD9184393
_publ_section_title
;
Structure prediction by ZEFSAII (Michael W. Deem and Ramdas Pophale) SiO2 
 PCOD9184393
Probable space group: C 2/M
;
_chemical_formula_sum "Si O2"
_cell_formula_units_Z 56
_cell_length_a 10.750533
_cell_length_b 16.609886
_cell_length_c 16.058980
_cell_angle_alpha 90.000000
_cell_angle_beta 73.631224
_cell_angle_gamma 90.000000
_cell_volume 2751.344443
_symmetry_space_group_name_H-M "C 2/M"
_symmetry_group_IT_number 12
_symmetry_cell_setting 'monoclinic'
loop_
_space_group_symop_operation_xyz
x,y,z
-x,y,-z
-x,-y,-z
x,-y,z
1/2+x,1/2+y,z
1/2-x,1/2+y,-z
1/2-x,1/2-y,-z
1/2+x,1/2-y,z
loop_
_atom_site_type_symbol
_atom_site_label
_atom_site_fract_x
_atom_site_fract_y
_atom_site_fract_z
Si Si1 0.605850 0.902078 0.546892
Si Si2 0.962538 0.145582 0.913486
Si Si3 0.579415 0.095098 0.273956
Si Si4 0.367887 0.404529 0.270599
Si Si5 0.047236 0.669172 0.105927
Si Si6 0.317266 0.090821 0.073694
Si Si7 0.896436 0.901378 0.450170
O O1 0.500000 0.873343 0.500000
O O2 0.545168 0.883065 0.647798
O O3 0.751691 0.874755 0.502967
O O4 0.608182 0.000000 0.540453
O O5 0.927127 0.239680 0.924412
O O6 0.835635 0.101443 0.903033
O O7 0.073647 0.134970 0.823279
O O8 0.000000 0.118526 0.000000
O O9 0.712143 0.104256 0.300751
O O10 0.586793 0.148632 0.191070
O O11 0.570803 0.000000 0.252959
O O12 0.394929 0.500000 0.258224
O O13 0.422267 0.375940 0.349624
O O14 0.895543 0.649384 0.120215
O O15 0.125700 0.612341 0.027837
O O16 0.350133 0.000000 0.090817
O O17 0.000000 0.875654 0.500000
O O18 0.896861 0.000000 0.449012
#
# Coordination Sequence:
#
# PCOD9184393 Si02
#       7
#     8   8   8   8   8   8   8
#     4   9  15  28  51  82 114 148 195 247 297 359
#     4  12  25  40  62  87 124 166 206 251 315 381
#     4  10  19  33  60  89 117 153 204 256 300 356
#     4  10  21  36  58  91 123 157 203 256 306 367
#     4  11  23  39  61  85 120 161 205 250 313 372
#     4  11  23  41  63  87 119 158 207 264 309 364
#     4   9  17  31  54  85 125 162 194 249 317 367
#
# _framework density 20.353684000000001
#
# number of rings (size 3 to 8) (size 9 to 14) (size 15 to 20)
#    0.000    1.714    2.857    3.429    2.000    3.429 
#    0.000    2.857    0.000    1.714    0.000    0.000 
#    0.000    0.000    0.000    0.000    0.000    0.000 
#
# Total GULP energy -156329.078161 kJ/mol
# GULP energy per Si atom -5583.181363 kJ/mol
# Density = 2.030736 g / cm^3
# Si number density = 20.353684 Si / 1000 Ang^3
#
#
#
# Elastic Constant Matrix: (Units=GPa)
#
#
# Indices 1 2 3 4 5 6 
#
# 1 88.7424 1.1254 33.6126 0.0000 0.9704 0.0000
# 2 1.1254 20.7044 -2.2320 0.0000 3.2804 0.0000
# 3 33.6126 -2.2320 92.7739 0.0000 7.9482 0.0000
# 4 0.0000 0.0000 0.0000 16.3770 0.0000 3.7243
# 5 0.9704 3.2804 7.9482 0.0000 37.4614 0.0000
# 6 0.0000 0.0000 0.0000 3.7243 0.0000 13.6333
#
#
#
# Elastic Compliance Matrix: (Units=1/GPa)
#
#
# Indices 1 2 3 4 5 6 
#
# 1 0.013116 -0.001365 -0.004854 0.000000 0.000810 0.000000
# 2 -0.001365 0.049347 0.002087 0.000000 -0.004729 0.000000
# 3 -0.004854 0.002087 0.012826 0.000000 -0.002778 0.000000
# 4 0.000000 0.000000 0.000000 0.065106 0.000000 -0.017785
# 5 0.000810 -0.004729 -0.002778 0.000000 0.027677 0.000000
# 6 0.000000 0.000000 0.000000 -0.017785 0.000000 0.078209
#
#
# Mechanical properties :
#
#
# Convention : Reuss Voigt Hill
#
# Bulk Modulus (GPa) = 14.91979 29.69252 22.30615
# Shear Modulus (GPa) = 18.05801 24.80862 21.43332
#
# Velocity S-wave (km/s) = 2.98184 3.49503 3.24858
# Velocity P-wave (km/s) = 4.38193 5.55940 5.00541
#
# Compressibility (1/GPa) = 0.06702506
#
# Stress axis : x y z
#
# Youngs Moduli (GPa) = 76.24528 20.26451 77.96804
#
# Poissons Ratio (x) = 0.02765 0.37846
# Poissons Ratio (y) = 0.10404 -0.16270
# Poissons Ratio (z) = 0.37010 -0.04229
#
# Static dielectric constant tensor:
#      x y z
#    x 1.741770 0.000000 -0.006960 
#    y 0.000000 1.707610 0.000000 
#    z -0.006960 0.000000 1.718110 
# 
# From -- ./inp_files/206123.got.cif
#   From: 2010.05.17/outbox.cif.g08.bks.cpg/sg12_104_cif.got.tgz:206123.got - 2010.06.03 13:09:07.
