data_PCOD9184827
_publ_section_title
;
Structure prediction by ZEFSAII (Michael W. Deem and Ramdas Pophale) SiO2 
 PCOD9184827
Probable space group: C 2/M
;
_chemical_formula_sum "Si O2"
_cell_formula_units_Z 64
_cell_length_a 19.567463
_cell_length_b 7.524879
_cell_length_c 18.975028
_cell_angle_alpha 90.000000
_cell_angle_beta 87.208268
_cell_angle_gamma 90.000000
_cell_volume 2790.620180
_symmetry_space_group_name_H-M "C 2/M"
_symmetry_group_IT_number 12
_symmetry_cell_setting 'monoclinic'
loop_
_space_group_symop_operation_xyz
x,y,z
-x,y,-z
-x,-y,-z
x,-y,z
1/2+x,1/2+y,z
1/2-x,1/2+y,-z
1/2-x,1/2-y,-z
1/2+x,1/2-y,z
loop_
_atom_site_type_symbol
_atom_site_label
_atom_site_fract_x
_atom_site_fract_y
_atom_site_fract_z
Si Si1 0.089735 0.783246 0.690244
Si Si2 0.240789 0.214867 0.741895
Si Si3 0.884305 0.215940 0.923489
Si Si4 0.485682 0.297603 0.808563
Si Si5 0.204879 0.287511 0.403623
Si Si6 0.411925 0.209508 0.074900
Si Si7 0.260447 0.796311 0.099491
Si Si8 0.648269 0.712205 0.546139
O O1 0.163132 0.736936 0.721769
O O2 0.026773 0.717006 0.740711
O O3 0.094672 0.726005 0.608097
O O4 0.086676 0.000000 0.692578
O O5 0.292995 0.271946 0.677401
O O6 0.255674 0.293414 0.816701
O O7 0.242458 0.000000 0.747513
O O8 0.806457 0.281924 0.933649
O O9 0.919611 0.283528 0.850052
O O10 0.883615 0.000000 0.920699
O O11 0.925078 0.269402 0.991237
O O12 0.468068 0.500000 0.789785
O O13 0.539081 0.300001 0.871292
O O14 0.209897 0.500000 0.401122
O O15 0.277188 0.218406 0.432008
O O16 0.145789 0.247480 0.462923
O O17 0.335111 0.285451 0.087785
O O18 0.413161 0.000000 0.092410
O O19 0.266473 0.000000 0.075818
O O20 0.649781 0.500000 0.552870
#
# Coordination Sequence:
#
# PCOD9184827 Si02
#       8
#     8   8   8   8   8   8   8   8
#     4   8  14  26  45  68  91 118 156 195 229 274
#     4   9  16  28  47  68  92 124 160 194 231 280
#     4  10  22  37  52  71  95 125 161 197 236 285
#     4  10  19  34  55  73  93 126 162 196 235 282
#     4   8  14  23  36  60  92 121 150 186 227 273
#     4  11  22  35  52  73  97 124 154 197 245 285
#     4  10  21  35  49  71  99 124 157 199 240 281
#     4   8  13  22  37  59  89 121 149 182 227 275
#
# _framework density 22.933971
#
# number of rings (size 3 to 8) (size 9 to 14) (size 15 to 20)
#    0.000    2.750    1.250    2.625    0.000    3.500 
#    0.000    2.500    0.000    0.000    0.000    0.875 
#    0.000    7.000    0.000    0.000    0.000    0.000 
#
# Total GULP energy -178454.102916 kJ/mol
# GULP energy per Si atom -5576.690716 kJ/mol
# Density = 2.288177 g / cm^3
# Si number density = 22.933971 Si / 1000 Ang^3
#
#
#
# Elastic Constant Matrix: (Units=GPa)
#
#
# Indices 1 2 3 4 5 6 
#
# 1 49.1469 1.4776 -4.0764 0.0000 -17.3745 0.0000
# 2 1.4776 70.7297 2.2201 0.0000 -2.7960 0.0000
# 3 -4.0764 2.2201 128.4040 0.0000 -36.5793 0.0000
# 4 0.0000 0.0000 0.0000 22.6765 0.0000 -2.6100
# 5 -17.3745 -2.7960 -36.5793 0.0000 29.3687 0.0000
# 6 0.0000 0.0000 0.0000 -2.6100 0.0000 1.8692
#
#
#
# Elastic Compliance Matrix: (Units=1/GPa)
#
#
# Indices 1 2 3 4 5 6 
#
# 1 0.032383 0.000261 0.010056 0.000000 0.031708 0.000000
# 2 0.000261 0.014198 0.000297 0.000000 0.001877 0.000000
# 3 0.010056 0.000297 0.015197 0.000000 0.024906 0.000000
# 4 0.000000 0.000000 0.000000 0.052542 0.000000 0.073364
# 5 0.031708 0.001877 0.024906 0.000000 0.084008 0.000000
# 6 0.000000 0.000000 0.000000 0.073364 0.000000 0.637412
#
#
# Mechanical properties :
#
#
# Convention : Reuss Voigt Hill
#
# Bulk Modulus (GPa) = 12.04701 27.50257 19.77479
# Shear Modulus (GPa) = 5.93698 27.36018 16.64858
#
# Velocity S-wave (km/s) = 1.61070 3.45773 2.69724
# Velocity P-wave (km/s) = 2.95355 5.28765 4.28268
#
# Compressibility (1/GPa) = 0.08300815
#
# Stress axis : x y z
#
# Youngs Moduli (GPa) = 30.88052 70.43376 65.80156
#
# Poissons Ratio (x) = -0.01840 -0.66173
# Poissons Ratio (y) = -0.00807 -0.01957
# Poissons Ratio (z) = -0.31055 -0.02095
#
# Static dielectric constant tensor:
#      x y z
#    x 1.862490 0.000000 -0.059190 
#    y 0.000000 1.931940 0.000000 
#    z -0.059190 0.000000 1.908890 
# 
# From -- ./inp_files/319137.got.cif
#   From: 2010.05.17/outbox.cif.g08.bks.cpg/sg12_160_cif.got.tgz:319137.got - 2010.06.03 13:09:07.
