data_PCOD9184282
_publ_section_title
;
Structure prediction by ZEFSAII (Michael W. Deem and Ramdas Pophale) SiO2 
 PCOD9184282
Probable space group: C 2/M
;
_chemical_formula_sum "Si O2"
_cell_formula_units_Z 48
_cell_length_a 20.892916
_cell_length_b 8.870118
_cell_length_c 34.477043
_cell_angle_alpha 90.000000
_cell_angle_beta 24.522749
_cell_angle_gamma 90.000000
_cell_volume 2651.939418
_symmetry_space_group_name_H-M "C 2/M"
_symmetry_group_IT_number 12
_symmetry_cell_setting 'monoclinic'
loop_
_space_group_symop_operation_xyz
x,y,z
-x,y,-z
-x,-y,-z
x,-y,z
1/2+x,1/2+y,z
1/2-x,1/2+y,-z
1/2-x,1/2-y,-z
1/2+x,1/2-y,z
loop_
_atom_site_type_symbol
_atom_site_label
_atom_site_fract_x
_atom_site_fract_y
_atom_site_fract_z
Si Si1 0.173531 0.820034 0.795999
Si Si2 0.099260 0.680492 0.103178
Si Si3 0.429435 0.180147 0.790527
Si Si4 0.337374 0.679347 0.392631
Si Si5 0.342119 0.822520 0.110913
Si Si6 0.525315 0.819688 0.605430
O O1 0.147066 0.763691 0.854419
O O2 0.352160 0.784003 0.688064
O O3 0.051767 0.741316 0.835192
O O4 0.153346 0.000000 0.805241
O O5 0.106090 0.500000 0.096197
O O6 0.092087 0.720371 0.152628
O O7 0.250000 0.750000 0.000000
O O8 0.589956 0.238118 0.684192
O O9 0.296212 0.256092 0.838332
O O10 0.419628 0.000000 0.791957
O O11 0.353550 0.500000 0.379435
O O12 0.431334 0.734072 0.378888
O O13 0.159215 0.714852 0.500655
O O14 0.315860 0.000000 0.132631
O O15 0.500000 0.805599 0.000000
O O16 0.532488 0.000000 0.609481
#
# Coordination Sequence:
#
# PCOD9184282 Si02
#       6
#     8   8   8   8   8   8
#     4  11  22  38  61  87 118 154 193 239 293 351
#     4  11  25  43  62  84 116 157 200 244 295 353
#     4  11  23  39  58  84 117 154 195 241 295 350
#     4  10  19  33  58  88 118 153 193 239 292 347
#     4  11  23  37  57  86 116 147 192 246 293 347
#     4   9  19  35  56  87 121 153 190 237 294 350
#
# _framework density 18.099961
#
# number of rings (size 3 to 8) (size 9 to 14) (size 15 to 20)
#    0.000    1.500    1.667    3.500    0.000    8.000 
#    0.000    0.833    0.000    5.000    0.000    0.000 
#    0.000    0.000    0.000    0.000    0.000    0.000 
#
# Total GULP energy -134127.364153 kJ/mol
# GULP energy per Si atom -5588.640173 kJ/mol
# Density = 1.805876 g / cm^3
# Si number density = 18.099961 Si / 1000 Ang^3
#
#
#
# Elastic Constant Matrix: (Units=GPa)
#
#
# Indices 1 2 3 4 5 6 
#
# 1 56.7708 17.5062 24.4826 -0.0041 6.4642 -0.0219
# 2 17.5062 41.0625 36.7792 -0.0044 6.9227 -0.0236
# 3 24.4826 36.7792 111.0038 -0.0066 9.1121 -0.0049
# 4 -0.0041 -0.0044 -0.0066 31.3998 -0.0005 -0.1629
# 5 6.4642 6.9227 9.1121 -0.0005 30.3426 -0.0014
# 6 -0.0219 -0.0236 -0.0049 -0.1629 -0.0014 32.2568
#
#
#
# Elastic Compliance Matrix: (Units=1/GPa)
#
#
# Indices 1 2 3 4 5 6 
#
# 1 0.020848 -0.006474 -0.002266 0.000001 -0.002284 0.000009
# 2 -0.006474 0.037269 -0.010597 0.000002 -0.003941 0.000021
# 3 -0.002266 -0.010597 0.013105 0.000001 -0.001035 -0.000007
# 4 0.000001 0.000002 0.000001 0.031848 -0.000001 0.000161
# 5 -0.002284 -0.003941 -0.001035 -0.000001 0.034654 -0.000003
# 6 0.000009 0.000021 -0.000007 0.000161 -0.000003 0.031002
#
#
# Mechanical properties :
#
#
# Convention : Reuss Voigt Hill
#
# Bulk Modulus (GPa) = 30.72313 40.70811 35.71562
# Shear Modulus (GPa) = 22.90964 27.47112 25.19038
#
# Velocity S-wave (km/s) = 3.56157 3.90005 3.73465
# Velocity P-wave (km/s) = 5.82443 6.54370 6.19452
#
# Compressibility (1/GPa) = 0.03254876
#
# Stress axis : x y z
#
# Youngs Moduli (GPa) = 47.96585 26.83171 76.30929
#
# Poissons Ratio (x) = 0.17370 0.17290
# Poissons Ratio (y) = 0.31052 0.80866
# Poissons Ratio (z) = 0.10868 0.28434
#
# Static dielectric constant tensor:
#      x y z
#    x 1.577040 0.000000 -0.002250 
#    y 0.000000 1.607050 0.000000 
#    z -0.002250 0.000000 1.637020 
# 
# From -- ./inp_files/274118.got.cif
#   From: 2010.05.17/outbox.cif.g08.bks.cpg/sg12_138_cif.got.tgz:274118.got - 2010.06.03 13:09:07.
