data_PCOD9184153
_publ_section_title
;
Structure prediction by ZEFSAII (Michael W. Deem and Ramdas Pophale) SiO2 
 PCOD9184153
Probable space group: C 2/M
;
_chemical_formula_sum "Si O2"
_cell_formula_units_Z 40
_cell_length_a 17.937639
_cell_length_b 10.906606
_cell_length_c 9.729425
_cell_angle_alpha 90.000000
_cell_angle_beta 71.234159
_cell_angle_gamma 90.000000
_cell_volume 1802.267438
_symmetry_space_group_name_H-M "C 2/M"
_symmetry_group_IT_number 12
_symmetry_cell_setting 'monoclinic'
loop_
_space_group_symop_operation_xyz
x,y,z
-x,y,-z
-x,-y,-z
x,-y,z
1/2+x,1/2+y,z
1/2-x,1/2+y,-z
1/2-x,1/2-y,-z
1/2+x,1/2-y,z
loop_
_atom_site_type_symbol
_atom_site_label
_atom_site_fract_x
_atom_site_fract_y
_atom_site_fract_z
Si Si1 0.753297 0.826058 0.779659
Si Si2 0.086681 0.220521 0.428528
Si Si3 0.397797 0.133393 0.308259
Si Si4 0.570203 0.855422 0.149877
Si Si5 0.678227 0.364696 0.972705
O O1 0.836621 0.853776 0.661685
O O2 0.679284 0.870170 0.738606
O O3 0.765431 0.871230 0.927602
O O4 0.732464 0.681755 0.815339
O O5 0.108841 0.274996 0.562409
O O6 0.077493 0.319182 0.308580
O O7 0.000000 0.162583 0.500000
O O8 0.477000 0.157921 0.175450
O O9 0.410784 0.000000 0.364185
O O10 0.617414 0.746044 0.044364
O O11 0.591468 0.000000 0.113691
O O12 0.643705 0.500000 0.970767
#
# Coordination Sequence:
#
# PCOD9184153 Si02
#       5
#     8   8   8   8   8
#     4  10  21  35  56  82 113 146 189 234 278 328
#     4   9  18  34  57  83 112 146 183 228 281 336
#     4  10  19  33  57  87 113 142 186 235 278 327
#     4   9  19  36  60  87 114 147 186 227 275 333
#     4  10  22  39  58  80 113 154 190 228 278 334
#
# _framework density 22.194265999999999
#
# number of rings (size 3 to 8) (size 9 to 14) (size 15 to 20)
#    0.000    2.400    0.000    1.800    0.000   12.000 
#    0.000    4.000    0.000   55.800    0.000    0.000 
#    0.000    0.000    0.000    0.000    0.000    0.000 
#
# Total GULP energy -111426.200934 kJ/mol
# GULP energy per Si atom -5571.310047 kJ/mol
# Density = 2.214375 g / cm^3
# Si number density = 22.194266 Si / 1000 Ang^3
#
#
#
# Elastic Constant Matrix: (Units=GPa)
#
#
# Indices 1 2 3 4 5 6 
#
# 1 160.8473 40.8013 34.7817 0.0000 -24.3983 0.0000
# 2 40.8013 130.6111 34.4119 0.0000 -20.6024 0.0000
# 3 34.7817 34.4119 70.4483 0.0000 -20.2637 0.0000
# 4 0.0000 0.0000 0.0000 4.8484 0.0000 -7.4411
# 5 -24.3983 -20.6024 -20.2637 0.0000 39.6045 0.0000
# 6 0.0000 0.0000 0.0000 -7.4411 0.0000 14.0263
#
#
#
# Elastic Compliance Matrix: (Units=1/GPa)
#
#
# Indices 1 2 3 4 5 6 
#
# 1 0.007452 -0.001299 -0.002250 0.000000 0.002764 0.000000
# 2 -0.001299 0.009284 -0.003206 0.000000 0.002388 0.000000
# 3 -0.002250 -0.003206 0.018753 0.000000 0.006541 0.000000
# 4 0.000000 0.000000 0.000000 1.110058 0.000000 0.588897
# 5 0.002764 0.002388 0.006541 0.000000 0.031542 0.000000
# 6 0.000000 0.000000 0.000000 0.588897 0.000000 0.383710
#
#
# Mechanical properties :
#
#
# Convention : Reuss Voigt Hill
#
# Bulk Modulus (GPa) = 45.49843 64.65518 55.07681
# Shear Modulus (GPa) = 3.16128 28.48995 15.82562
#
# Velocity S-wave (km/s) = 1.19476 3.58671 2.67320
# Velocity P-wave (km/s) = 4.73792 6.80789 5.86495
#
# Compressibility (1/GPa) = 0.02197878
#
# Stress axis : x y z
#
# Youngs Moduli (GPa) = 134.18470 107.71536 53.32418
#
# Poissons Ratio (x) = 0.13996 0.11996
# Poissons Ratio (y) = 0.17435 0.17097
# Poissons Ratio (z) = 0.30187 0.34537
#
# Static dielectric constant tensor:
#      x y z
#    x 1.843660 0.000000 -0.057220 
#    y 0.000000 1.894440 0.000000 
#    z -0.057220 0.000000 1.851660 
# 
# From -- ./inp_files/152706.got.cif
#   From: 2010.05.17/outbox.cif.g08.bks.cpg/sg12_77_cif.got.tgz:152706.got - 2010.06.03 13:09:07.
