data_PCOD9184124
_publ_section_title
;
Structure prediction by ZEFSAII (Michael W. Deem and Ramdas Pophale) SiO2 
 PCOD9184124
Probable space group: C 2/M
;
_chemical_formula_sum "Si O2"
_cell_formula_units_Z 48
_cell_length_a 26.430737
_cell_length_b 23.092112
_cell_length_c 12.007453
_cell_angle_alpha 90.000000
_cell_angle_beta 22.481661
_cell_angle_gamma 90.000000
_cell_volume 2802.384611
_symmetry_space_group_name_H-M "C 2/M"
_symmetry_group_IT_number 12
_symmetry_cell_setting 'monoclinic'
loop_
_space_group_symop_operation_xyz
x,y,z
-x,y,-z
-x,-y,-z
x,-y,z
1/2+x,1/2+y,z
1/2-x,1/2+y,-z
1/2-x,1/2-y,-z
1/2+x,1/2-y,z
loop_
_atom_site_type_symbol
_atom_site_label
_atom_site_fract_x
_atom_site_fract_y
_atom_site_fract_z
Si Si1 0.641755 0.568904 0.155713
Si Si2 0.966321 0.666731 0.805739
Si Si3 0.378086 0.068745 0.834874
Si Si4 0.879268 0.758938 0.810527
Si Si5 0.221462 0.151902 0.805169
Si Si6 0.377175 0.263282 0.167564
O O1 0.500000 0.579855 0.500000
O O2 0.658135 0.500000 0.112596
O O3 0.751971 0.589830 0.020066
O O4 0.669067 0.596076 0.978608
O O5 0.899608 0.606329 0.902803
O O6 0.947507 0.703745 0.730237
O O7 0.119101 0.653746 0.524937
O O8 0.905707 0.709122 0.024297
O O9 0.500000 0.074997 0.500000
O O10 0.365005 0.000000 0.886277
O O11 0.000000 0.788099 0.500000
O O12 0.750000 0.750000 0.000000
O O13 0.823755 0.798027 0.019993
O O14 0.153144 0.175518 0.832286
O O15 0.250000 0.250000 0.500000
O O16 0.500000 0.268377 0.000000
#
# Coordination Sequence:
#
# PCOD9184124 Si02
#       6
#     8   8   8   8   8   8
#     4  10  21  36  55  86 123 153 181 217 265 331
#     4  11  21  34  56  80 109 144 187 229 271 335
#     4  10  19  33  57  85 117 152 181 213 265 334
#     4  11  20  30  46  76 114 142 169 216 268 327
#     4  11  21  34  57  80 105 148 187 224 277 335
#     4  11  24  41  58  79 106 142 190 246 299 327
#
# _framework density 17.128270000000001
#
# number of rings (size 3 to 8) (size 9 to 14) (size 15 to 20)
#    0.000    1.333    5.000    2.000    0.000    1.333 
#    0.000    0.000    0.000    2.000    0.000    0.000 
#    0.000    0.000    0.000    0.000    0.000    0.000 
#
# Total GULP energy -133657.016334 kJ/mol
# GULP energy per Si atom -5569.042347 kJ/mol
# Density = 1.708929 g / cm^3
# Si number density = 17.128270 Si / 1000 Ang^3
#
#
#
# Elastic Constant Matrix: (Units=GPa)
#
#
# Indices 1 2 3 4 5 6 
#
# 1 122.8077 42.8234 55.9494 -0.0007 -15.6944 -0.0001
# 2 42.8234 78.5359 19.3282 0.0007 -0.9350 0.0000
# 3 55.9494 19.3282 115.1466 0.0021 -13.8049 0.0001
# 4 -0.0007 0.0007 0.0021 17.3179 -0.0005 4.5977
# 5 -15.6944 -0.9350 -13.8049 -0.0005 29.8934 -0.0001
# 6 -0.0001 0.0000 0.0001 4.5977 -0.0001 34.9040
#
#
#
# Elastic Compliance Matrix: (Units=1/GPa)
#
#
# Indices 1 2 3 4 5 6 
#
# 1 0.012901 -0.005809 -0.004767 0.000001 0.004390 0.000000
# 2 -0.005809 0.015909 -0.000163 -0.000001 -0.002628 0.000000
# 3 -0.004767 -0.000163 0.011356 -0.000002 0.002736 0.000000
# 4 0.000001 -0.000001 -0.000002 0.059836 0.000001 -0.007882
# 5 0.004390 -0.002628 0.002736 0.000001 0.036939 0.000000
# 6 0.000000 0.000000 0.000000 -0.007882 0.000000 0.029688
#
#
# Mechanical properties :
#
#
# Convention : Reuss Voigt Hill
#
# Bulk Modulus (GPa) = 53.50886 61.41026 57.45956
# Shear Modulus (GPa) = 25.72824 29.64900 27.68862
#
# Velocity S-wave (km/s) = 3.87989 4.16504 4.02499
# Velocity P-wave (km/s) = 7.16793 7.68512 7.43103
#
# Compressibility (1/GPa) = 0.01868849
#
# Stress axis : x y z
#
# Youngs Moduli (GPa) = 77.51040 62.85575 88.05588
#
# Poissons Ratio (x) = 0.36515 0.41979
# Poissons Ratio (y) = 0.45028 0.01434
# Poissons Ratio (z) = 0.36952 0.01023
#
# Static dielectric constant tensor:
#      x y z
#    x 1.614130 0.000000 0.013910 
#    y 0.000000 1.622630 0.000000 
#    z 0.013910 0.000000 1.568960 
# 
# From -- ./inp_files/121868.got.cif
#   From: 2010.05.17/outbox.cif.g08.bks.cpg/sg12_61_cif.got.tgz:121868.got - 2010.06.03 13:09:07.
