data_PCOD9184799
_publ_section_title
;
Structure prediction by ZEFSAII (Michael W. Deem and Ramdas Pophale) SiO2 
 PCOD9184799
Probable space group: C 2/M
;
_chemical_formula_sum "Si O2"
_cell_formula_units_Z 48
_cell_length_a 13.499127
_cell_length_b 17.601287
_cell_length_c 16.779801
_cell_angle_alpha 90.000000
_cell_angle_beta 34.397757
_cell_angle_gamma 90.000000
_cell_volume 2252.346309
_symmetry_space_group_name_H-M "C 2/M"
_symmetry_group_IT_number 12
_symmetry_cell_setting 'monoclinic'
loop_
_space_group_symop_operation_xyz
x,y,z
-x,y,-z
-x,-y,-z
x,-y,z
1/2+x,1/2+y,z
1/2-x,1/2+y,-z
1/2-x,1/2-y,-z
1/2+x,1/2-y,z
loop_
_atom_site_type_symbol
_atom_site_label
_atom_site_fract_x
_atom_site_fract_y
_atom_site_fract_z
Si Si1 0.250981 0.253761 0.176398
Si Si2 0.570405 0.193338 0.694362
Si Si3 0.508875 0.306930 0.119495
Si Si4 0.738193 0.084004 0.822338
Si Si5 0.104202 0.913798 0.514972
Si Si6 0.191204 0.585196 0.037073
O O1 0.353222 0.315923 0.159889
O O2 0.292102 0.170767 0.187188
O O3 0.049271 0.276535 0.299298
O O4 0.344630 0.256819 0.026958
O O5 0.575709 0.264733 0.749768
O O6 0.752743 0.150067 0.561371
O O7 0.451257 0.132850 0.821069
O O8 0.618917 0.378578 0.073763
O O9 0.949788 0.084230 0.682401
O O10 0.694442 0.000000 0.814557
O O11 0.660244 0.084355 0.962600
O O12 0.000000 0.900141 0.500000
O O13 0.178903 0.000000 0.459884
O O14 0.187256 0.500000 0.069002
#
# Coordination Sequence:
#
# PCOD9184799 Si02
#       6
#     8   8   8   8   8   8
#     4  10  19  34  55  82 110 143 180 221 269 321
#     4  11  19  36  56  79 108 144 183 222 265 317
#     4  10  19  34  54  82 114 140 174 229 272 310
#     4  10  19  35  55  78 108 141 177 221 274 319
#     4  10  22  37  52  77 112 145 176 222 277 322
#     4  10  19  35  58  82 106 143 183 219 268 320
#
# _framework density 21.311108999999998
#
# number of rings (size 3 to 8) (size 9 to 14) (size 15 to 20)
#    0.000    1.833    3.333    2.500    0.000    0.667 
#    0.000   10.000    0.000    0.000    0.000    3.500 
#    0.000    0.000    0.000    0.000    0.000    0.000 
#
# Total GULP energy -133841.036393 kJ/mol
# GULP energy per Si atom -5576.709850 kJ/mol
# Density = 2.126260 g / cm^3
# Si number density = 21.311109 Si / 1000 Ang^3
#
#
#
# Elastic Constant Matrix: (Units=GPa)
#
#
# Indices 1 2 3 4 5 6 
#
# 1 52.9212 7.0118 1.3029 -0.0004 -23.6192 0.0004
# 2 7.0118 58.7818 16.4959 0.0022 -8.7428 -0.0003
# 3 1.3029 16.4959 72.9148 0.0029 -20.0861 -0.0001
# 4 -0.0004 0.0022 0.0029 37.4483 0.0000 -13.2142
# 5 -23.6192 -8.7428 -20.0861 0.0000 26.6385 -0.0006
# 6 0.0004 -0.0003 -0.0001 -13.2142 -0.0006 19.6707
#
#
#
# Elastic Compliance Matrix: (Units=1/GPa)
#
#
# Indices 1 2 3 4 5 6 
#
# 1 0.036789 -0.001418 0.010755 0.000000 0.040263 0.000000
# 2 -0.001418 0.018500 -0.003577 -0.000001 0.002117 0.000000
# 3 0.010755 -0.003577 0.020996 -0.000001 0.024194 0.000000
# 4 0.000000 -0.000001 -0.000001 0.035000 -0.000001 0.023512
# 5 0.040263 0.002117 0.024194 -0.000001 0.092177 0.000002
# 6 0.000000 0.000000 0.000000 0.023512 0.000002 0.066632
#
#
# Mechanical properties :
#
#
# Convention : Reuss Voigt Hill
#
# Bulk Modulus (GPa) = 11.38887 26.02658 18.70772
# Shear Modulus (GPa) = 17.37066 27.40531 22.38799
#
# Velocity S-wave (km/s) = 2.85809 3.58992 3.24471
# Velocity P-wave (km/s) = 4.03079 5.42426 4.77859
#
# Compressibility (1/GPa) = 0.08780505
#
# Stress axis : x y z
#
# Youngs Moduli (GPa) = 27.18218 54.05443 47.62735
#
# Poissons Ratio (x) = 0.07665 -0.51222
# Poissons Ratio (y) = 0.03855 0.17035
# Poissons Ratio (z) = -0.29234 0.19334
#
# Static dielectric constant tensor:
#      x y z
#    x 1.800640 0.000000 -0.008440 
#    y 0.000000 1.803040 0.000000 
#    z -0.008440 0.000000 1.822060 
# 
# From -- ./inp_files/216230.got.cif
#   From: 2010.05.17/outbox.cif.g08.bks.cpg/sg12_109_cif.got.tgz:216230.got - 2010.06.03 13:09:07.
