data_PCOD9184511
_publ_section_title
;
Structure prediction by ZEFSAII (Michael W. Deem and Ramdas Pophale) SiO2 
 PCOD9184511
Probable space group: C 2/M
;
_chemical_formula_sum "Si O2"
_cell_formula_units_Z 48
_cell_length_a 15.339721
_cell_length_b 12.731314
_cell_length_c 20.757313
_cell_angle_alpha 90.000000
_cell_angle_beta 40.147463
_cell_angle_gamma 90.000000
_cell_volume 2613.713191
_symmetry_space_group_name_H-M "C 2/M"
_symmetry_group_IT_number 12
_symmetry_cell_setting 'monoclinic'
loop_
_space_group_symop_operation_xyz
x,y,z
-x,y,-z
-x,-y,-z
x,-y,z
1/2+x,1/2+y,z
1/2-x,1/2+y,-z
1/2-x,1/2-y,-z
1/2+x,1/2-y,z
loop_
_atom_site_type_symbol
_atom_site_label
_atom_site_fract_x
_atom_site_fract_y
_atom_site_fract_z
Si Si1 0.386712 0.747391 0.236294
Si Si2 0.047542 0.765283 0.602787
Si Si3 0.864180 0.622409 0.118627
Si Si4 0.271635 0.877055 0.413785
Si Si5 0.083573 0.876429 0.205302
Si Si6 0.376101 0.120441 0.621373
O O1 0.378009 0.796783 0.170235
O O2 0.348135 0.840945 0.306806
O O3 0.528092 0.694955 0.178172
O O4 0.271464 0.659427 0.316470
O O5 0.123114 0.826837 0.503429
O O6 0.146250 0.674890 0.573791
O O7 0.011881 0.844261 0.680354
O O8 0.917617 0.704150 0.651791
O O9 0.847448 0.500000 0.150716
O O10 0.734823 0.644805 0.145968
O O11 0.000000 0.627297 0.000000
O O12 0.265031 0.000000 0.423619
O O13 0.072326 0.000000 0.197055
O O14 0.500000 0.124993 0.500000
O O15 0.369098 0.000000 0.647383
#
# Coordination Sequence:
#
# PCOD9184511 Si02
#       6
#     8   8   8   8   8   8
#     4  11  21  37  58  84 115 150 195 236 285 335
#     4  10  19  34  51  78 113 153 191 227 278 332
#     4  10  22  41  64  87 113 147 188 240 300 352
#     4  10  20  32  50  78 113 148 189 234 274 327
#     4  10  21  37  60  86 115 151 191 233 285 345
#     4  11  21  34  52  79 116 156 194 231 276 333
#
# _framework density 18.364678000000001
#
# number of rings (size 3 to 8) (size 9 to 14) (size 15 to 20)
#    0.000    1.667    3.333    2.000    0.000    0.667 
#    0.000    0.833    0.000    2.000    0.000    0.000 
#    0.000    0.000    0.000    0.000    0.000    0.000 
#
# Total GULP energy -133818.687565 kJ/mol
# GULP energy per Si atom -5575.778649 kJ/mol
# Density = 1.832288 g / cm^3
# Si number density = 18.364678 Si / 1000 Ang^3
#
#
#
# Elastic Constant Matrix: (Units=GPa)
#
#
# Indices 1 2 3 4 5 6 
#
# 1 106.2640 54.2363 36.5933 0.0000 -16.1600 0.0000
# 2 54.2363 102.7716 46.6663 0.0000 -14.9713 0.0000
# 3 36.5933 46.6663 51.9870 0.0000 -8.8382 0.0000
# 4 0.0000 0.0000 0.0000 17.3919 0.0000 -3.5018
# 5 -16.1600 -14.9713 -8.8382 0.0000 19.0545 0.0000
# 6 0.0000 0.0000 0.0000 -3.5018 0.0000 25.8314
#
#
#
# Elastic Compliance Matrix: (Units=1/GPa)
#
#
# Indices 1 2 3 4 5 6 
#
# 1 0.014355 -0.004303 -0.005153 0.000000 0.006403 0.000000
# 2 -0.004303 0.018513 -0.012742 0.000000 0.004987 0.000000
# 3 -0.005153 -0.012742 0.034583 0.000000 0.001659 0.000000
# 4 0.000000 0.000000 0.000000 0.059112 0.000000 0.008013
# 5 0.006403 0.004987 0.001659 0.000000 0.062599 0.000000
# 6 0.000000 0.000000 0.000000 0.008013 0.000000 0.039799
#
#
# Mechanical properties :
#
#
# Convention : Reuss Voigt Hill
#
# Bulk Modulus (GPa) = 43.37481 59.55715 51.46598
# Shear Modulus (GPa) = 17.79088 20.69067 19.24077
#
# Velocity S-wave (km/s) = 3.11586 3.36021 3.24034
# Velocity P-wave (km/s) = 6.05100 6.89604 6.48730
#
# Compressibility (1/GPa) = 0.02305486
#
# Stress axis : x y z
#
# Youngs Moduli (GPa) = 69.66181 54.01477 28.91595
#
# Poissons Ratio (x) = 0.23242 0.14901
# Poissons Ratio (y) = 0.29975 0.36845
# Poissons Ratio (z) = 0.35899 0.68826
#
# Static dielectric constant tensor:
#      x y z
#    x 1.680120 0.000000 -0.024760 
#    y 0.000000 1.607240 0.000000 
#    z -0.024760 0.000000 1.632150 
# 
# From -- ./inp_files/143114.got.cif
#   From: 2010.05.17/outbox.cif.g08.bks.cpg/sg12_72_cif.got.tgz:143114.got - 2010.06.03 13:09:07.
