data_PCOD9184673
_publ_section_title
;
Structure prediction by ZEFSAII (Michael W. Deem and Ramdas Pophale) SiO2 
 PCOD9184673
Probable space group: C 2/M
;
_chemical_formula_sum "Si O2"
_cell_formula_units_Z 64
_cell_length_a 24.662417
_cell_length_b 7.494321
_cell_length_c 20.436305
_cell_angle_alpha 90.000000
_cell_angle_beta 129.482809
_cell_angle_gamma 90.000000
_cell_volume 2915.303282
_symmetry_space_group_name_H-M "C 2/M"
_symmetry_group_IT_number 12
_symmetry_cell_setting 'monoclinic'
loop_
_space_group_symop_operation_xyz
x,y,z
-x,y,-z
-x,-y,-z
x,-y,z
1/2+x,1/2+y,z
1/2-x,1/2+y,-z
1/2-x,1/2-y,-z
1/2+x,1/2-y,z
loop_
_atom_site_type_symbol
_atom_site_label
_atom_site_fract_x
_atom_site_fract_y
_atom_site_fract_z
Si Si1 0.327441 0.712965 0.587252
Si Si2 0.328212 0.281438 0.736088
Si Si3 0.658830 0.714241 0.869604
Si Si4 0.324811 0.795296 0.337476
Si Si5 0.582718 0.717100 0.466546
Si Si6 0.067055 0.796530 0.686192
Si Si7 0.919933 0.781876 0.927477
Si Si8 0.181949 0.214111 0.034100
O O1 0.335385 0.500000 0.596991
O O2 0.250000 0.750000 0.500000
O O3 0.336566 0.781495 0.667943
O O4 0.382453 0.774060 0.575136
O O5 0.326606 0.500000 0.733245
O O6 0.252260 0.223932 0.705163
O O7 0.388033 0.228054 0.833054
O O8 0.651048 0.500000 0.866749
O O9 0.597404 0.785910 0.775933
O O10 0.735236 0.747630 0.896422
O O11 0.660190 0.781824 0.945173
O O12 0.371249 0.789010 0.438743
O O13 0.368964 0.701346 0.315320
O O14 0.316317 0.000000 0.309427
O O15 0.586135 0.500000 0.475898
O O16 0.501930 0.777964 0.401920
O O17 0.046785 0.000000 0.686959
O O18 0.867236 0.721908 0.944802
O O19 0.919846 0.000000 0.928309
O O20 0.000000 0.724453 0.000000
O O21 0.175071 0.000000 0.027792
#
# Coordination Sequence:
#
# PCOD9184673 Si02
#       8
#     8   8   8   8   8   8   8   8
#     4  10  19  34  54  74 100 133 170 212 254 297
#     4   9  18  31  49  75 103 131 166 210 255 300
#     4   9  18  32  51  74 100 134 171 207 250 301
#     4  11  21  34  53  75 102 134 169 211 258 309
#     4  10  21  35  52  73 100 136 172 212 259 304
#     4  10  21  35  49  72 105 135 170 212 255 307
#     4   9  17  29  48  76 106 132 162 206 257 303
#     4   9  17  31  52  76 102 131 168 211 251 298
#
# _framework density 21.953119000000001
#
# number of rings (size 3 to 8) (size 9 to 14) (size 15 to 20)
#    0.000    2.375    1.250    1.500    0.000    4.500 
#    0.000    5.000    0.000    0.375    0.000    1.750 
#    0.000    0.000    0.000    0.000    0.000    0.000 
#
# Total GULP energy -178722.196010 kJ/mol
# GULP energy per Si atom -5585.068625 kJ/mol
# Density = 2.190315 g / cm^3
# Si number density = 21.953119 Si / 1000 Ang^3
#
#
#
# Elastic Constant Matrix: (Units=GPa)
#
#
# Indices 1 2 3 4 5 6 
#
# 1 40.6107 -5.2938 33.2292 0.0000 -23.0152 0.0000
# 2 -5.2938 59.7921 -7.1246 0.0001 -0.0386 -0.0003
# 3 33.2292 -7.1246 162.1500 0.0000 0.0282 0.0000
# 4 0.0000 0.0001 0.0000 5.7878 0.0000 6.5273
# 5 -23.0152 -0.0386 0.0282 0.0000 20.8820 0.0000
# 6 0.0000 -0.0003 0.0000 6.5273 0.0000 10.9436
#
#
#
# Elastic Compliance Matrix: (Units=1/GPa)
#
#
# Indices 1 2 3 4 5 6 
#
# 1 0.122403 0.007974 -0.024757 -0.000001 0.134955 0.000001
# 2 0.007974 0.017332 -0.000874 -0.000002 0.008822 0.000002
# 3 -0.024757 -0.000874 0.011207 0.000000 -0.027303 0.000000
# 4 -0.000001 -0.000002 0.000000 0.527837 -0.000002 -0.314829
# 5 0.134955 0.008822 -0.027303 -0.000002 0.196682 0.000001
# 6 0.000001 0.000002 0.000000 -0.314829 0.000001 0.279157
#
#
# Mechanical properties :
#
#
# Convention : Reuss Voigt Hill
#
# Bulk Modulus (GPa) = 8.64840 33.79716 21.22278
# Shear Modulus (GPa) = 4.07009 23.63882 13.85445
#
# Velocity S-wave (km/s) = 1.36309 3.28500 2.51488
# Velocity P-wave (km/s) = 2.53484 5.46048 4.25689
#
# Compressibility (1/GPa) = 0.11562831
#
# Stress axis : x y z
#
# Youngs Moduli (GPa) = 8.16974 57.69619 89.23099
#
# Poissons Ratio (x) = -0.46008 2.20909
# Poissons Ratio (y) = -0.06515 0.07800
# Poissons Ratio (z) = 0.20226 0.05043
#
# Static dielectric constant tensor:
#      x y z
#    x 1.763800 0.000000 -0.012000 
#    y 0.000000 7.019530 0.000000 
#    z -0.012000 0.000000 1.794010 
# 
# From -- ./inp_files/324229.got.cif
#   From: 2010.05.17/outbox.cif.g08.bks.cpg/sg12_163_cif.got.tgz:324229.got - 2010.06.03 13:09:07.
