data_PCOD9184050
_publ_section_title
;
Structure prediction by ZEFSAII (Michael W. Deem and Ramdas Pophale) SiO2 
 PCOD9184050
Probable space group: C 2/M
;
_chemical_formula_sum "Si O2"
_cell_formula_units_Z 48
_cell_length_a 10.108957
_cell_length_b 16.156241
_cell_length_c 27.557090
_cell_angle_alpha 90.000000
_cell_angle_beta 36.183357
_cell_angle_gamma 90.000000
_cell_volume 2657.083606
_symmetry_space_group_name_H-M "C 2/M"
_symmetry_group_IT_number 12
_symmetry_cell_setting 'monoclinic'
loop_
_space_group_symop_operation_xyz
x,y,z
-x,y,-z
-x,-y,-z
x,-y,z
1/2+x,1/2+y,z
1/2-x,1/2+y,-z
1/2-x,1/2-y,-z
1/2+x,1/2-y,z
loop_
_atom_site_type_symbol
_atom_site_label
_atom_site_fract_x
_atom_site_fract_y
_atom_site_fract_z
Si Si1 0.866809 0.907629 0.349781
Si Si2 0.661179 0.093275 0.999547
Si Si3 0.977044 0.819885 0.168280
Si Si4 0.727352 0.832832 0.824291
Si Si5 0.748033 0.757062 0.558160
Si Si6 0.586087 0.093107 0.335038
O O1 0.830391 0.830390 0.395927
O O2 0.682319 0.901463 0.361487
O O3 0.106445 0.895134 0.252507
O O4 0.851335 0.000000 0.375955
O O5 0.867278 0.149675 0.921947
O O6 0.736565 0.000000 0.987659
O O7 0.500000 0.090199 0.000000
O O8 0.502979 0.127122 0.088694
O O9 0.837720 0.741249 0.192018
O O10 0.800955 0.889433 0.237370
O O11 0.134380 0.803385 0.168735
O O12 0.750000 0.750000 0.500000
O O13 0.589243 0.833163 0.620453
O O14 0.000000 0.773316 0.500000
O O15 0.499760 0.000000 0.352836
#
# Coordination Sequence:
#
# PCOD9184050 Si02
#       6
#     8   8   8   8   8   8
#     4  10  21  39  63  87 114 155 195 232 283 348
#     4   9  17  30  51  83 113 145 193 234 265 322
#     4  10  19  33  57  82 114 151 188 230 280 329
#     4  10  19  33  57  83 114 149 188 233 277 330
#     4  12  24  40  63  86 116 147 187 246 297 343
#     4  10  21  39  62  87 116 153 194 235 285 345
#
# _framework density 18.064917999999999
#
# number of rings (size 3 to 8) (size 9 to 14) (size 15 to 20)
#    0.000    1.833    3.333    1.500    0.000    5.333 
#    0.000    0.000    0.000    4.000    0.000    0.000 
#    0.000    0.000    0.000    0.000    0.000    0.000 
#
# Total GULP energy -133878.539467 kJ/mol
# GULP energy per Si atom -5578.272478 kJ/mol
# Density = 1.802380 g / cm^3
# Si number density = 18.064918 Si / 1000 Ang^3
#
#
#
# Elastic Constant Matrix: (Units=GPa)
#
#
# Indices 1 2 3 4 5 6 
#
# 1 51.0086 33.4647 26.3245 0.0050 -8.3139 -0.0010
# 2 33.4647 135.6723 36.9962 0.0025 -10.2018 -0.0014
# 3 26.3245 36.9962 87.2482 0.0171 -10.4379 -0.0052
# 4 0.0050 0.0025 0.0171 14.3652 -0.0060 2.6979
# 5 -8.3139 -10.2018 -10.4379 -0.0060 22.8611 0.0018
# 6 -0.0010 -0.0014 -0.0052 2.6979 0.0018 22.4083
#
#
#
# Elastic Compliance Matrix: (Units=1/GPa)
#
#
# Indices 1 2 3 4 5 6 
#
# 1 0.026222 -0.004632 -0.005346 0.000000 0.005028 -0.000001
# 2 -0.004632 0.009261 -0.002366 0.000004 0.001368 -0.000001
# 3 -0.005346 -0.002366 0.014512 -0.000014 0.003626 0.000004
# 4 0.000000 0.000004 -0.000014 0.071223 0.000014 -0.008575
# 5 0.005028 0.001368 0.003626 0.000014 0.047837 -0.000004
# 6 -0.000001 -0.000001 0.000004 -0.008575 -0.000004 0.045659
#
#
# Mechanical properties :
#
#
# Convention : Reuss Voigt Hill
#
# Bulk Modulus (GPa) = 39.51472 51.94441 45.72957
# Shear Modulus (GPa) = 20.17455 23.73650 21.95552
#
# Velocity S-wave (km/s) = 3.34545 3.62878 3.48999
# Velocity P-wave (km/s) = 6.06992 6.80986 6.45051
#
# Compressibility (1/GPa) = 0.02530702
#
# Stress axis : x y z
#
# Youngs Moduli (GPa) = 38.13606 107.97704 68.91079
#
# Poissons Ratio (x) = 0.50015 0.36840
# Poissons Ratio (y) = 0.17664 0.16303
# Poissons Ratio (z) = 0.20388 0.25546
#
# Static dielectric constant tensor:
#      x y z
#    x 1.583660 0.000000 0.005040 
#    y 0.000000 1.615330 0.000000 
#    z 0.005040 0.000000 1.646410 
# 
# From -- ./inp_files/204367.got.cif
#   From: 2010.05.17/outbox.cif.g08.bks.cpg/sg12_103_cif.got.tgz:204367.got - 2010.06.03 13:09:07.
