data_PCOD9184980
_publ_section_title
;
Structure prediction by ZEFSAII (Michael W. Deem and Ramdas Pophale) SiO2 
 PCOD9184980
Probable space group: C 2/M
;
_chemical_formula_sum "Si O2"
_cell_formula_units_Z 56
_cell_length_a 30.609206
_cell_length_b 8.946142
_cell_length_c 12.674638
_cell_angle_alpha 90.000000
_cell_angle_beta 105.502553
_cell_angle_gamma 90.000000
_cell_volume 3344.479707
_symmetry_space_group_name_H-M "C 2/M"
_symmetry_group_IT_number 12
_symmetry_cell_setting 'monoclinic'
loop_
_space_group_symop_operation_xyz
x,y,z
-x,y,-z
-x,-y,-z
x,-y,z
1/2+x,1/2+y,z
1/2-x,1/2+y,-z
1/2-x,1/2-y,-z
1/2+x,1/2-y,z
loop_
_atom_site_type_symbol
_atom_site_label
_atom_site_fract_x
_atom_site_fract_y
_atom_site_fract_z
Si Si1 0.300903 0.177558 0.409630
Si Si2 0.443611 0.178282 0.624112
Si Si3 0.451719 0.678424 0.023276
Si Si4 0.108999 0.320683 0.192407
Si Si5 0.705528 0.821562 0.345071
Si Si6 0.452384 0.178582 0.254195
Si Si7 0.892085 0.177963 0.394419
O O1 0.305086 0.209008 0.538231
O O2 0.251221 0.235237 0.345771
O O3 0.341343 0.260447 0.376720
O O4 0.304854 0.000000 0.397804
O O5 0.419357 0.213645 0.719496
O O6 0.496921 0.209635 0.669431
O O7 0.420463 0.266155 0.514334
O O8 0.437520 0.000000 0.601201
O O9 0.449166 0.500000 0.034196
O O10 0.449104 0.757021 0.134553
O O11 0.500000 0.715262 0.000000
O O12 0.413031 0.736774 0.919708
O O13 0.105882 0.500000 0.174456
O O14 0.161256 0.282156 0.249215
O O15 0.713211 0.000000 0.341560
O O16 0.416100 0.253038 0.307722
O O17 0.446658 0.000000 0.249047
O O18 0.892125 0.000000 0.389446
#
# Coordination Sequence:
#
# PCOD9184980 Si02
#       7
#     8   8   8   8   8   8   8
#     4  10  19  34  55  80 112 146 184 224 272 333
#     4  10  20  36  56  81 111 148 189 226 269 329
#     4  11  23  37  55  82 114 145 185 235 279 320
#     4  10  19  35  58  82 112 148 187 227 272 327
#     4   9  18  33  54  82 112 142 181 229 276 323
#     4  11  23  39  59  78 107 151 195 230 271 329
#     4  12  24  36  54  81 116 150 184 228 281 332
#
# _framework density 16.744008999999998
#
# number of rings (size 3 to 8) (size 9 to 14) (size 15 to 20)
#    0.000    1.571    2.857    3.000    0.000    5.143 
#    0.000    0.000    0.000    0.857    0.000    0.000 
#    0.000    0.000    0.000    0.000    0.000    0.000 
#
# Total GULP energy -156446.548556 kJ/mol
# GULP energy per Si atom -5587.376734 kJ/mol
# Density = 1.670590 g / cm^3
# Si number density = 16.744009 Si / 1000 Ang^3
#
#
#
# Elastic Constant Matrix: (Units=GPa)
#
#
# Indices 1 2 3 4 5 6 
#
# 1 150.4212 79.9962 72.8664 0.0000 -0.4883 0.0000
# 2 79.9962 73.3781 51.7623 0.0000 -3.0246 0.0000
# 3 72.8664 51.7623 74.8758 0.0000 -0.9298 0.0000
# 4 0.0000 0.0000 0.0000 22.6281 0.0000 -0.4491
# 5 -0.4883 -3.0246 -0.9298 0.0000 27.8185 0.0000
# 6 0.0000 0.0000 0.0000 -0.4491 0.0000 28.7369
#
#
#
# Elastic Compliance Matrix: (Units=1/GPa)
#
#
# Indices 1 2 3 4 5 6 
#
# 1 0.017864 -0.014170 -0.007607 0.000000 -0.001481 0.000000
# 2 -0.014170 0.037985 -0.012426 0.000000 0.003466 0.000000
# 3 -0.007607 -0.012426 0.029343 0.000000 -0.000504 0.000000
# 4 0.000000 0.000000 0.000000 0.044207 0.000000 0.000691
# 5 -0.001481 0.003466 -0.000504 0.000000 0.036281 0.000000
# 6 0.000000 0.000000 0.000000 0.000691 0.000000 0.034809
#
#
# Mechanical properties :
#
#
# Convention : Reuss Voigt Hill
#
# Bulk Modulus (GPa) = 59.57943 78.65830 69.11887
# Shear Modulus (GPa) = 18.21554 22.10669 20.16111
#
# Velocity S-wave (km/s) = 3.30189 3.63750 3.47375
# Velocity P-wave (km/s) = 7.08494 8.04493 7.58015
#
# Compressibility (1/GPa) = 0.01678432
#
# Stress axis : x y z
#
# Youngs Moduli (GPa) = 55.97822 26.32632 34.08004
#
# Poissons Ratio (x) = 0.37305 0.25925
# Poissons Ratio (y) = 0.79322 0.42349
# Poissons Ratio (z) = 0.42584 0.32714
#
# Static dielectric constant tensor:
#      x y z
#    x 1.554020 0.000000 0.006000 
#    y 0.000000 1.556780 0.000000 
#    z 0.006000 0.000000 1.534040 
# 
# From -- ./inp_files/186805.got.cif
#   From: 2010.05.17/outbox.cif.g08.bks.cpg/sg12_94_cif.got.tgz:186805.got - 2010.06.03 13:09:07.
