data_PCOD9184314
_publ_section_title
;
Structure prediction by ZEFSAII (Michael W. Deem and Ramdas Pophale) SiO2 
 PCOD9184314
Probable space group: C 2/M
;
_chemical_formula_sum "Si O2"
_cell_formula_units_Z 64
_cell_length_a 28.811553
_cell_length_b 14.434379
_cell_length_c 11.994990
_cell_angle_alpha 90.000000
_cell_angle_beta 31.282177
_cell_angle_gamma 90.000000
_cell_volume 2590.263345
_symmetry_space_group_name_H-M "C 2/M"
_symmetry_group_IT_number 12
_symmetry_cell_setting 'monoclinic'
loop_
_space_group_symop_operation_xyz
x,y,z
-x,y,-z
-x,-y,-z
x,-y,z
1/2+x,1/2+y,z
1/2-x,1/2+y,-z
1/2-x,1/2-y,-z
1/2+x,1/2-y,z
loop_
_atom_site_type_symbol
_atom_site_label
_atom_site_fract_x
_atom_site_fract_y
_atom_site_fract_z
Si Si1 0.298938 0.134327 0.418561
Si Si2 0.642629 0.387560 0.156607
Si Si3 0.529156 0.387825 0.192002
Si Si4 0.662652 0.386483 0.369508
Si Si5 0.804899 0.390974 0.670470
Si Si6 0.487744 0.886195 0.396980
Si Si7 0.605835 0.668813 0.814966
Si Si8 0.846566 0.395607 0.081987
O O1 0.305773 0.112180 0.534987
O O2 0.346579 0.235646 0.316810
O O3 0.194344 0.108015 0.605049
O O4 0.352675 0.095818 0.202033
O O5 0.644114 0.500000 0.160562
O O6 0.721475 0.354800 0.912654
O O7 0.553442 0.366815 0.269910
O O8 0.656140 0.355770 0.254611
O O9 0.538465 0.500000 0.156807
O O10 0.426934 0.360377 0.381264
O O11 0.595219 0.340085 0.970118
O O12 0.661287 0.500000 0.373368
O O13 0.752487 0.350555 0.242187
O O14 0.804409 0.500000 0.698451
O O15 0.895923 0.351289 0.533478
O O16 0.500000 0.859745 0.500000
O O17 0.485650 0.000000 0.397943
O O18 0.568833 0.853258 0.152998
O O19 0.500000 0.653878 0.000000
O O20 0.841353 0.500000 0.045978
#
# Coordination Sequence:
#
# PCOD9184314 Si02
#       8
#     8   8   8   8   8   8   8   8
#     4  11  24  40  58  84 112 156 201 234 286 345
#     4   9  16  29  53  88 122 147 180 230 287 347
#     4  10  19  34  58  88 115 144 187 237 290 351
#     4   9  17  30  54  90 123 149 181 231 293 345
#     4  10  19  33  58  89 122 157 195 240 282 334
#     4   9  18  32  53  86 122 154 191 235 286 335
#     4  11  25  42  59  80 110 156 190 237 293 343
#     4  10  20  34  56  85 117 150 190 242 283 330
#
# _framework density 24.707913999999999
#
# number of rings (size 3 to 8) (size 9 to 14) (size 15 to 20)
#    0.000    2.125    1.250    2.250    1.750    5.250 
#    0.000    1.875    0.000    2.250    0.000    0.000 
#    0.000    0.000    0.000    0.000    0.000    0.125 
#
# Total GULP energy -178449.833018 kJ/mol
# GULP energy per Si atom -5576.557282 kJ/mol
# Density = 2.465168 g / cm^3
# Si number density = 24.707914 Si / 1000 Ang^3
#
#
#
# Elastic Constant Matrix: (Units=GPa)
#
#
# Indices 1 2 3 4 5 6 
#
# 1 105.6455 -5.1316 54.6513 0.0000 -8.8067 0.0000
# 2 -5.1316 48.0213 -5.2628 0.0000 0.6294 0.0000
# 3 54.6513 -5.2628 149.7281 0.0000 -1.3468 0.0000
# 4 0.0000 0.0000 0.0000 26.2624 0.0000 28.2459
# 5 -8.8067 0.6294 -1.3468 0.0000 43.0029 0.0000
# 6 0.0000 0.0000 0.0000 28.2459 0.0000 29.2428
#
#
#
# Elastic Compliance Matrix: (Units=1/GPa)
#
#
# Indices 1 2 3 4 5 6 
#
# 1 0.011921 0.000772 -0.004303 0.000000 0.002295 0.000000
# 2 0.000772 0.020958 0.000454 0.000000 -0.000134 0.000000
# 3 -0.004303 0.000454 0.008260 0.000000 -0.000629 0.000000
# 4 0.000000 0.000000 0.000000 -0.979746 0.000000 0.946348
# 5 0.002295 -0.000134 -0.000629 0.000000 0.023707 0.000000
# 6 0.000000 0.000000 0.000000 0.946348 0.000000 -0.879893
#
#
# Mechanical properties :
#
#
# Convention : Reuss Voigt Hill
#
# Bulk Modulus (GPa) = 28.58499 43.54542 36.06521
# Shear Modulus (GPa) = -2.81377 36.97747 17.08185
#
# Velocity S-wave (km/s) = -1.06831 3.87277 2.63221
# Velocity P-wave (km/s) = 3.17373 6.13678 4.88532
#
# Compressibility (1/GPa) = 0.03498339
#
# Stress axis : x y z
#
# Youngs Moduli (GPa) = 83.88857 47.71430 121.06875
#
# Poissons Ratio (x) = -0.03684 0.52099
# Poissons Ratio (y) = -0.06477 -0.05492
# Poissons Ratio (z) = 0.36100 -0.02164
#
# Static dielectric constant tensor:
#      x y z
#    x 1.954790 0.000000 -0.053930 
#    y 0.000000 2.136390 0.000000 
#    z -0.053930 0.000000 1.929210 
# 
# From -- ./inp_files/190043.got.cif
#   From: 2010.05.17/outbox.cif.g08.bks.cpg/sg12_96_cif.got.tgz:190043.got - 2010.06.03 13:09:07.
