data_PCOD9184726
_publ_section_title
;
Structure prediction by ZEFSAII (Michael W. Deem and Ramdas Pophale) SiO2 
 PCOD9184726
Probable space group: C 2/M
;
_chemical_formula_sum "Si O2"
_cell_formula_units_Z 56
_cell_length_a 24.420685
_cell_length_b 8.386490
_cell_length_c 14.941781
_cell_angle_alpha 90.000000
_cell_angle_beta 69.302452
_cell_angle_gamma 90.000000
_cell_volume 2862.630357
_symmetry_space_group_name_H-M "C 2/M"
_symmetry_group_IT_number 12
_symmetry_cell_setting 'monoclinic'
loop_
_space_group_symop_operation_xyz
x,y,z
-x,y,-z
-x,-y,-z
x,-y,z
1/2+x,1/2+y,z
1/2-x,1/2+y,-z
1/2-x,1/2-y,-z
1/2+x,1/2-y,z
loop_
_atom_site_type_symbol
_atom_site_label
_atom_site_fract_x
_atom_site_fract_y
_atom_site_fract_z
Si Si1 0.358374 0.311536 0.969949
Si Si2 0.513433 0.808512 0.096007
Si Si3 0.938594 0.185574 0.436086
Si Si4 0.820020 0.806612 0.800926
Si Si5 0.194088 0.690868 0.816137
Si Si6 0.601807 0.193152 0.724893
Si Si7 0.565759 0.185597 0.366149
O O1 0.350470 0.500000 0.986120
O O2 0.426319 0.274049 0.911799
O O3 0.321974 0.258061 0.904073
O O4 0.339403 0.227856 0.072273
O O5 0.457887 0.763304 0.188068
O O6 0.521260 0.000000 0.098297
O O7 0.500000 0.771291 0.000000
O O8 0.901257 0.236641 0.372201
O O9 0.925104 0.284617 0.533336
O O10 0.006909 0.219397 0.375133
O O11 0.930753 0.000000 0.461227
O O12 0.760378 0.749795 0.788615
O O13 0.877605 0.742530 0.719520
O O14 0.821592 0.000000 0.797674
O O15 0.196894 0.500000 0.805684
O O16 0.156072 0.749566 0.754293
O O17 0.603121 0.000000 0.718753
O O18 0.554530 0.000000 0.355169
#
# Coordination Sequence:
#
# PCOD9184726 Si02
#       7
#     8   8   8   8   8   8   8
#     4  11  22  34  53  83 116 149 191 239 287 335
#     4  10  19  34  54  77 108 148 190 229 278 335
#     4  11  22  38  62  89 118 147 179 229 289 343
#     4  10  22  39  58  83 114 151 192 237 287 333
#     4  10  21  39  59  78 112 157 197 234 277 335
#     4  10  20  36  58  84 113 150 194 235 279 336
#     4  11  22  39  63  89 115 145 186 233 279 337
#
# _framework density 19.562425999999999
#
# number of rings (size 3 to 8) (size 9 to 14) (size 15 to 20)
#    0.000    1.571    1.429    5.143    0.000    5.429 
#    0.000    0.714    0.000    0.000    0.000    0.000 
#    0.000    0.000    0.000    0.000    0.000    0.000 
#
# Total GULP energy -156509.184663 kJ/mol
# GULP energy per Si atom -5589.613738 kJ/mol
# Density = 1.951790 g / cm^3
# Si number density = 19.562426 Si / 1000 Ang^3
#
#
#
# Elastic Constant Matrix: (Units=GPa)
#
#
# Indices 1 2 3 4 5 6 
#
# 1 95.4937 -3.7173 36.6747 0.0000 21.3848 0.0000
# 2 -3.7173 6.5596 -5.8736 0.0000 2.8534 0.0000
# 3 36.6747 -5.8736 44.4747 0.0000 17.6611 0.0000
# 4 0.0000 0.0000 0.0000 23.2464 0.0000 2.3531
# 5 21.3848 2.8534 17.6611 0.0000 28.6110 0.0000
# 6 0.0000 0.0000 0.0000 2.3531 0.0000 20.1977
#
#
#
# Elastic Compliance Matrix: (Units=1/GPa)
#
#
# Indices 1 2 3 4 5 6 
#
# 1 0.015863 0.001788 -0.010685 0.000000 -0.005439 0.000000
# 2 0.001788 0.220527 0.048901 0.000000 -0.053516 0.000000
# 3 -0.010685 0.048901 0.048378 0.000000 -0.026754 0.000000
# 4 0.000000 0.000000 0.000000 0.043531 0.000000 -0.005072
# 5 -0.005439 -0.053516 -0.026754 0.000000 0.060869 0.000000
# 6 0.000000 0.000000 0.000000 -0.005072 0.000000 0.050102
#
#
# Mechanical properties :
#
#
# Convention : Reuss Voigt Hill
#
# Bulk Modulus (GPa) = 2.74140 22.29950 12.52045
# Shear Modulus (GPa) = 10.39818 22.37395 16.38607
#
# Velocity S-wave (km/s) = 2.30801 3.38556 2.89732
# Velocity P-wave (km/s) = 2.91667 5.16784 4.19604
#
# Compressibility (1/GPa) = 0.36477727
#
# Stress axis : x y z
#
# Youngs Moduli (GPa) = 63.03902 4.53459 20.67057
#
# Poissons Ratio (x) = -0.00811 0.22086
# Poissons Ratio (y) = -0.11273 -1.01081
# Poissons Ratio (z) = 0.67357 -0.22175
#
# Static dielectric constant tensor:
#      x y z
#    x 1.696200 0.000000 0.015320 
#    y 0.000000 1.670310 0.000000 
#    z 0.015320 0.000000 1.659580 
# 
# From -- ./inp_files/238271.got.cif
#   From: 2010.05.17/outbox.cif.g08.bks.cpg/sg12_120_cif.got.tgz:238271.got - 2010.06.03 13:09:07.
