data_PCOD9184781
_publ_section_title
;
Structure prediction by ZEFSAII (Michael W. Deem and Ramdas Pophale) SiO2 
 PCOD9184781
Probable space group: C 2/M
;
_chemical_formula_sum "Si O2"
_cell_formula_units_Z 64
_cell_length_a 16.098329
_cell_length_b 8.392653
_cell_length_c 24.646183
_cell_angle_alpha 90.000000
_cell_angle_beta 99.703040
_cell_angle_gamma 90.000000
_cell_volume 3282.253201
_symmetry_space_group_name_H-M "C 2/M"
_symmetry_group_IT_number 12
_symmetry_cell_setting 'monoclinic'
loop_
_space_group_symop_operation_xyz
x,y,z
-x,y,-z
-x,-y,-z
x,-y,z
1/2+x,1/2+y,z
1/2-x,1/2+y,-z
1/2-x,1/2-y,-z
1/2+x,1/2-y,z
loop_
_atom_site_type_symbol
_atom_site_label
_atom_site_fract_x
_atom_site_fract_y
_atom_site_fract_z
Si Si1 0.167022 0.194998 0.825334
Si Si2 0.392245 0.692247 0.434360
Si Si3 0.419221 0.694308 0.561538
Si Si4 0.690022 0.810385 0.242744
Si Si5 0.043350 0.692033 0.061510
Si Si6 0.782008 0.809985 0.633368
Si Si7 0.015997 0.811345 0.175363
Si Si8 0.264495 0.191244 0.940965
O O1 0.234231 0.248056 0.787872
O O2 0.199431 0.248764 0.888150
O O3 0.070619 0.244025 0.805982
O O4 0.167929 0.000000 0.825892
O O5 0.391169 0.500000 0.433078
O O6 0.391365 0.741598 0.497682
O O7 0.483170 0.743904 0.420609
O O8 0.310244 0.752459 0.394679
O O9 0.419235 0.500000 0.562429
O O10 0.353521 0.751384 0.599362
O O11 0.697534 0.740669 0.303425
O O12 0.600262 0.770077 0.206272
O O13 0.698031 0.000000 0.247096
O O14 0.035832 0.500000 0.067015
O O15 0.006548 0.775073 0.110409
O O16 0.141730 0.734025 0.068029
O O17 0.000000 0.736233 0.000000
O O18 0.783171 0.000000 0.630297
O O19 0.024865 0.000000 0.184578
O O20 0.260169 0.000000 0.941703
O O21 0.250000 0.250000 0.000000
#
# Coordination Sequence:
#
# PCOD9184781 Si02
#       8
#     8   8   8   8   8   8   8   8
#     4   9  20  39  60  78 107 147 184 225 282 340
#     4   9  17  35  60  85 112 157 203 230 275 347
#     4   8  17  34  58  84 118 156 194 236 282 341
#     4  11  23  43  62  78 109 156 197 233 280 348
#     4  10  20  35  56  83 117 151 183 223 276 341
#     4  11  22  36  55  86 120 148 187 245 295 329
#     4  11  22  38  61  86 109 139 185 240 289 333
#     4  10  19  34  54  80 112 145 180 222 272 334
#
# _framework density 19.498799999999999
#
# number of rings (size 3 to 8) (size 9 to 14) (size 15 to 20)
#    0.000    2.125    1.250    3.000    0.000    1.750 
#    0.000   11.250    0.000    0.000    0.000    0.000 
#    0.000    0.000    0.000    0.000    0.000    0.000 
#
# Total GULP energy -178669.346954 kJ/mol
# GULP energy per Si atom -5583.417092 kJ/mol
# Density = 1.945442 g / cm^3
# Si number density = 19.498800 Si / 1000 Ang^3
#
#
#
# Elastic Constant Matrix: (Units=GPa)
#
#
# Indices 1 2 3 4 5 6 
#
# 1 127.7930 10.0126 52.4383 0.0000 1.1723 0.0000
# 2 10.0126 9.8658 2.8701 0.0000 0.0937 0.0000
# 3 52.4383 2.8701 90.9324 0.0000 7.7741 0.0000
# 4 0.0000 0.0000 0.0000 27.6362 0.0000 0.3694
# 5 1.1723 0.0937 7.7741 0.0000 13.2358 0.0000
# 6 0.0000 0.0000 0.0000 0.3694 0.0000 18.6007
#
#
#
# Elastic Compliance Matrix: (Units=1/GPa)
#
#
# Indices 1 2 3 4 5 6 
#
# 1 0.011160 -0.009498 -0.006378 0.000000 0.002825 0.000000
# 2 -0.009498 0.110402 0.002093 0.000000 -0.001169 0.000000
# 3 -0.006378 0.002093 0.015332 0.000000 -0.008455 0.000000
# 4 0.000000 0.000000 0.000000 0.036194 0.000000 -0.000719
# 5 0.002825 -0.001169 -0.008455 0.000000 0.080277 0.000000
# 6 0.000000 0.000000 0.000000 -0.000719 0.000000 0.053776
#
#
# Mechanical properties :
#
#
# Convention : Reuss Voigt Hill
#
# Bulk Modulus (GPa) = 9.14676 39.91480 24.53078
# Shear Modulus (GPa) = 13.47165 22.77922 18.12544
#
# Velocity S-wave (km/s) = 2.63134 3.42166 3.05219
# Velocity P-wave (km/s) = 3.73270 6.01042 5.00291
#
# Compressibility (1/GPa) = 0.10932836
#
# Stress axis : x y z
#
# Youngs Moduli (GPa) = 89.60272 9.05779 65.22409
#
# Poissons Ratio (x) = 0.08603 0.41597
# Poissons Ratio (y) = 0.85105 -0.13649
# Poissons Ratio (z) = 0.57145 -0.01895
#
# Static dielectric constant tensor:
#      x y z
#    x 1.709920 0.000000 -0.006450 
#    y 0.000000 1.680870 0.000000 
#    z -0.006450 0.000000 1.660600 
# 
# From -- ./inp_files/338831.got.cif
#   From: 2010.05.17/outbox.cif.g08.bks.cpg/sg12_170_cif.got.tgz:338831.got - 2010.06.03 13:09:07.
