data_PCOD9184757
_publ_section_title
;
Structure prediction by ZEFSAII (Michael W. Deem and Ramdas Pophale) SiO2 
 PCOD9184757
Probable space group: C 2/M
;
_chemical_formula_sum "Si O2"
_cell_formula_units_Z 56
_cell_length_a 21.653550
_cell_length_b 7.936256
_cell_length_c 30.472117
_cell_angle_alpha 90.000000
_cell_angle_beta 149.296233
_cell_angle_gamma 90.000000
_cell_volume 2673.792770
_symmetry_space_group_name_H-M "C 2/M"
_symmetry_group_IT_number 12
_symmetry_cell_setting 'monoclinic'
loop_
_space_group_symop_operation_xyz
x,y,z
-x,y,-z
-x,-y,-z
x,-y,z
1/2+x,1/2+y,z
1/2-x,1/2+y,-z
1/2-x,1/2-y,-z
1/2+x,1/2-y,z
loop_
_atom_site_type_symbol
_atom_site_label
_atom_site_fract_x
_atom_site_fract_y
_atom_site_fract_z
Si Si1 0.723684 0.696002 0.694492
Si Si2 0.606304 0.792778 0.278761
Si Si3 0.894489 0.204263 0.875706
Si Si4 0.971004 0.305151 0.531177
Si Si5 0.162147 0.296760 0.906111
Si Si6 0.664609 0.704870 0.063336
Si Si7 0.739917 0.805227 0.443479
O O1 0.692902 0.500000 0.670338
O O2 0.785062 0.759991 0.687125
O O3 0.824736 0.716470 0.793050
O O4 0.602236 0.791326 0.633618
O O5 0.476907 0.737151 0.180341
O O6 0.639599 0.732447 0.348224
O O7 0.605950 0.000000 0.278096
O O8 0.835850 0.256342 0.886310
O O9 0.889257 0.000000 0.869265
O O10 0.035213 0.253646 0.963853
O O11 0.935529 0.500000 0.504879
O O12 0.867230 0.217779 0.495864
O O13 0.000000 0.235698 0.500000
O O14 0.157734 0.500000 0.902871
O O15 0.227803 0.236929 0.901753
O O16 0.250000 0.250000 0.000000
O O17 0.666005 0.500000 0.064486
O O18 0.750000 0.750000 0.500000
O O19 0.709872 0.000000 0.427781
#
# Coordination Sequence:
#
# PCOD9184757 Si02
#       7
#     8   8   8   8   8   8   8
#     4  11  21  35  56  84 114 149 190 238 299 362
#     4   9  20  36  56  80 115 157 193 232 296 362
#     4   9  17  32  52  78 107 145 191 240 287 342
#     4  11  23  40  63  89 114 148 197 250 298 356
#     4  10  19  34  54  79 108 147 189 230 279 344
#     4   8  16  31  52  74 107 148 189 232 287 342
#     4  11  23  42  64  90 125 165 202 247 303 364
#
# _framework density 20.944030999999999
#
# number of rings (size 3 to 8) (size 9 to 14) (size 15 to 20)
#    0.000    2.143    1.429    3.000    0.000    1.714 
#    0.000    7.143    0.000    0.000    0.000    0.000 
#    0.000    0.000    0.000    0.000    0.000    0.000 
#
# Total GULP energy -156255.496076 kJ/mol
# GULP energy per Si atom -5580.553431 kJ/mol
# Density = 2.089636 g / cm^3
# Si number density = 20.944031 Si / 1000 Ang^3
#
#
#
# Elastic Constant Matrix: (Units=GPa)
#
#
# Indices 1 2 3 4 5 6 
#
# 1 72.4094 -5.4521 43.6321 0.0001 -1.8423 0.0003
# 2 -5.4521 22.1036 5.0771 0.0001 -3.5801 0.0013
# 3 43.6321 5.0771 109.1819 0.0000 -13.2509 0.0000
# 4 0.0001 0.0001 0.0000 26.2280 0.0000 -5.5285
# 5 -1.8423 -3.5801 -13.2509 0.0000 34.3371 -0.0001
# 6 0.0003 0.0013 0.0000 -5.5285 -0.0001 14.5054
#
#
#
# Elastic Compliance Matrix: (Units=1/GPa)
#
#
# Indices 1 2 3 4 5 6 
#
# 1 0.019146 0.006354 -0.008122 0.000000 -0.001445 -0.000001
# 2 0.006354 0.048407 -0.004340 -0.000001 0.003713 -0.000005
# 3 -0.008122 -0.004340 0.013113 0.000000 0.004172 0.000001
# 4 0.000000 -0.000001 0.000000 0.041458 0.000000 0.015801
# 5 -0.001445 0.003713 0.004172 0.000000 0.031043 0.000000
# 6 -0.000001 -0.000005 0.000001 0.015801 0.000000 0.074962
#
#
# Mechanical properties :
#
#
# Convention : Reuss Voigt Hill
#
# Bulk Modulus (GPa) = 14.60892 32.24545 23.42718
# Shear Modulus (GPa) = 18.99974 25.70995 22.35485
#
# Velocity S-wave (km/s) = 3.01519 3.50745 3.27059
# Velocity P-wave (km/s) = 4.37175 5.64202 5.04701
#
# Compressibility (1/GPa) = 0.06845132
#
# Stress axis : x y z
#
# Youngs Moduli (GPa) = 52.22944 20.65813 76.25998
#
# Poissons Ratio (x) = -0.13127 0.61940
# Poissons Ratio (y) = -0.33188 0.33094
# Poissons Ratio (z) = 0.42422 0.08965
#
# Static dielectric constant tensor:
#      x y z
#    x 1.751080 0.000000 -0.015870 
#    y 0.000000 1.794470 0.000000 
#    z -0.015870 0.000000 1.769430 
# 
# From -- ./inp_files/380727.got.cif
#   From: 2010.05.17/outbox.cif.g08.bks.cpg/sg12_191_cif.got.tgz:380727.got - 2010.06.03 13:09:07.
