data_PCOD9184973
_publ_section_title
;
Structure prediction by ZEFSAII (Michael W. Deem and Ramdas Pophale) SiO2 
 PCOD9184973
Probable space group: C 2/M
;
_chemical_formula_sum "Si O2"
_cell_formula_units_Z 64
_cell_length_a 21.245424
_cell_length_b 9.221633
_cell_length_c 23.605033
_cell_angle_alpha 90.000000
_cell_angle_beta 50.113648
_cell_angle_gamma 90.000000
_cell_volume 3548.568497
_symmetry_space_group_name_H-M "C 2/M"
_symmetry_group_IT_number 12
_symmetry_cell_setting 'monoclinic'
loop_
_space_group_symop_operation_xyz
x,y,z
-x,y,-z
-x,-y,-z
x,-y,z
1/2+x,1/2+y,z
1/2-x,1/2+y,-z
1/2-x,1/2-y,-z
1/2+x,1/2-y,z
loop_
_atom_site_type_symbol
_atom_site_label
_atom_site_fract_x
_atom_site_fract_y
_atom_site_fract_z
Si Si1 0.866447 0.835568 0.449041
Si Si2 0.963544 0.828882 0.084516
Si Si3 0.258634 0.829711 0.682022
Si Si4 0.225813 0.329002 0.101809
Si Si5 0.618788 0.670614 0.072851
Si Si6 0.082491 0.656915 0.486053
Si Si7 0.307956 0.166901 0.382197
Si Si8 0.711680 0.825968 0.821061
O O1 0.927285 0.777723 0.461043
O O2 0.779560 0.825662 0.533507
O O3 0.867906 0.734440 0.393739
O O4 0.877859 0.000000 0.425262
O O5 0.881350 0.734141 0.132359
O O6 0.033811 0.788126 0.090040
O O7 0.943496 0.000000 0.105010
O O8 0.000000 0.817144 0.000000
O O9 0.345471 0.815633 0.600122
O O10 0.196661 0.762828 0.671405
O O11 0.256668 0.736841 0.739790
O O12 0.242807 0.000000 0.701795
O O13 0.212601 0.500000 0.120771
O O14 0.150989 0.262402 0.107995
O O15 0.246572 0.242423 0.147087
O O16 0.307937 0.316734 0.015674
O O17 0.612842 0.500000 0.091590
O O18 0.103217 0.500000 0.501725
O O19 0.000000 0.645939 0.500000
O O20 0.323837 0.000000 0.359517
O O21 0.712577 0.000000 0.823010
#
# Coordination Sequence:
#
# PCOD9184973 Si02
#       8
#     8   8   8   8   8   8   8   8
#     4   9  16  26  45  74 103 131 164 203 251 304
#     4  10  19  36  58  82 112 145 183 229 280 328
#     4  10  20  35  55  77 105 140 175 214 268 327
#     4  10  19  34  55  80 110 146 186 226 276 330
#     4   9  18  33  55  82 111 141 179 229 279 327
#     4   9  18  33  54  79 104 133 172 219 267 315
#     4   9  16  28  47  72 101 130 164 208 252 300
#     4  12  24  36  54  81 113 147 188 230 274 328
#
# _framework density 18.035443000000001
#
# number of rings (size 3 to 8) (size 9 to 14) (size 15 to 20)
#    0.000    2.250    1.250    2.625    0.000    5.000 
#    0.000    0.000    2.750    0.000    0.000    0.000 
#    0.000    0.000    0.000    0.000    0.000    0.000 
#
# Total GULP energy -178346.165418 kJ/mol
# GULP energy per Si atom -5573.317669 kJ/mol
# Density = 1.799439 g / cm^3
# Si number density = 18.035443 Si / 1000 Ang^3
#
#
#
# Elastic Constant Matrix: (Units=GPa)
#
#
# Indices 1 2 3 4 5 6 
#
# 1 122.0637 66.9786 32.2788 0.0000 30.7651 0.0001
# 2 66.9786 120.8953 44.2351 0.0000 25.0878 0.0003
# 3 32.2788 44.2351 37.6316 0.0000 21.9166 0.0000
# 4 0.0000 0.0000 0.0000 24.7119 0.0000 8.6684
# 5 30.7651 25.0878 21.9166 0.0000 22.7801 0.0000
# 6 0.0001 0.0003 0.0000 8.6684 0.0000 30.6975
#
#
#
# Elastic Compliance Matrix: (Units=1/GPa)
#
#
# Indices 1 2 3 4 5 6 
#
# 1 0.014893 -0.006455 0.005428 0.000000 -0.018227 0.000000
# 2 -0.006455 0.017321 -0.019995 0.000000 0.008878 0.000000
# 3 0.005428 -0.019995 0.083847 0.000000 -0.065979 0.000000
# 4 0.000000 0.000000 0.000000 0.044915 0.000000 -0.012683
# 5 -0.018227 0.008878 -0.065979 0.000000 0.122214 0.000000
# 6 0.000000 0.000000 0.000000 -0.012683 0.000000 0.036157
#
#
# Mechanical properties :
#
#
# Convention : Reuss Voigt Hill
#
# Bulk Modulus (GPa) = 13.51015 63.06396 38.28706
# Shear Modulus (GPa) = 12.95124 24.77778 18.86451
#
# Velocity S-wave (km/s) = 2.68264 3.71055 3.23765
# Velocity P-wave (km/s) = 4.13553 7.30754 5.93729
#
# Compressibility (1/GPa) = 0.07401842
#
# Stress axis : x y z
#
# Youngs Moduli (GPa) = 67.14705 57.73220 11.92650
#
# Poissons Ratio (x) = 0.37264 -0.06474
# Poissons Ratio (y) = 0.43341 0.23847
# Poissons Ratio (z) = -0.36450 1.15435
#
# Static dielectric constant tensor:
#      x y z
#    x 1.631250 0.000000 -0.008570 
#    y 0.000000 1.634090 0.000000 
#    z -0.008570 0.000000 1.605230 
# 
# From -- ./inp_files/319906.got.cif
#   From: 2010.05.17/outbox.cif.g08.bks.cpg/sg12_160_cif.got.tgz:319906.got - 2010.06.03 13:09:07.
