data_PCOD9184675
_publ_section_title
;
Structure prediction by ZEFSAII (Michael W. Deem and Ramdas Pophale) SiO2 
 PCOD9184675
Probable space group: C 2/M
;
_chemical_formula_sum "Si O2"
_cell_formula_units_Z 48
_cell_length_a 32.279463
_cell_length_b 8.659433
_cell_length_c 20.645746
_cell_angle_alpha 90.000000
_cell_angle_beta 28.081038
_cell_angle_gamma 90.000000
_cell_volume 2716.495008
_symmetry_space_group_name_H-M "C 2/M"
_symmetry_group_IT_number 12
_symmetry_cell_setting 'monoclinic'
loop_
_space_group_symop_operation_xyz
x,y,z
-x,y,-z
-x,-y,-z
x,-y,z
1/2+x,1/2+y,z
1/2-x,1/2+y,-z
1/2-x,1/2-y,-z
1/2+x,1/2-y,z
loop_
_atom_site_type_symbol
_atom_site_label
_atom_site_fract_x
_atom_site_fract_y
_atom_site_fract_z
Si Si1 0.558983 0.813904 0.856723
Si Si2 0.425345 0.684724 0.404290
Si Si3 0.764670 0.816410 0.336216
Si Si4 0.073922 0.187780 0.447464
Si Si5 0.546534 0.186129 0.127720
Si Si6 0.771343 0.313207 0.182251
O O1 0.655659 0.743663 0.729835
O O2 0.509490 0.771490 0.858980
O O3 0.565990 0.000000 0.849430
O O4 0.500000 0.765759 0.000000
O O5 0.418750 0.500000 0.412836
O O6 0.331245 0.752908 0.512471
O O7 0.440786 0.734624 0.457597
O O8 0.501759 0.740113 0.251690
O O9 0.782432 0.754105 0.238943
O O10 0.762779 0.000000 0.338630
O O11 0.174240 0.231907 0.291918
O O12 0.000000 0.245017 0.500000
O O13 0.070991 0.000000 0.450347
O O14 0.543785 0.000000 0.137477
O O15 0.647215 0.232701 0.974930
O O16 0.773530 0.500000 0.185624
#
# Coordination Sequence:
#
# PCOD9184675 Si02
#       6
#     8   8   8   8   8   8
#     4  10  19  34  54  74 102 140 182 218 253 303
#     4  10  21  36  54  75 106 140 172 214 265 314
#     4  11  21  33  52  77 105 137 179 222 258 303
#     4   8  15  31  57  82 100 129 175 216 252 308
#     4  10  20  34  53  76 105 140 175 215 259 306
#     4   9  17  33  55  77 104 140 176 210 258 312
#
# _framework density 17.669829
#
# number of rings (size 3 to 8) (size 9 to 14) (size 15 to 20)
#    0.000    2.333    1.667    3.000    0.000    2.333 
#    0.000    0.833    0.000   12.500    0.000    0.000 
#    0.000    0.000    0.000    0.000    0.000    0.000 
#
# Total GULP energy -133907.058142 kJ/mol
# GULP energy per Si atom -5579.460756 kJ/mol
# Density = 1.762961 g / cm^3
# Si number density = 17.669829 Si / 1000 Ang^3
#
#
#
# Elastic Constant Matrix: (Units=GPa)
#
#
# Indices 1 2 3 4 5 6 
#
# 1 115.3895 28.1371 77.3873 -0.0001 -25.1902 -0.0005
# 2 28.1371 24.2750 35.8387 -0.0031 -5.1873 -0.0006
# 3 77.3873 35.8387 165.9921 -0.0022 -11.2402 -0.0016
# 4 -0.0001 -0.0031 -0.0022 26.1474 -0.0006 8.8019
# 5 -25.1902 -5.1873 -11.2402 -0.0006 22.8262 0.0011
# 6 -0.0005 -0.0006 -0.0016 8.8019 0.0011 1.7987
#
#
#
# Elastic Compliance Matrix: (Units=1/GPa)
#
#
# Indices 1 2 3 4 5 6 
#
# 1 0.017748 -0.009791 -0.005157 -0.000004 0.014821 0.000010
# 2 -0.009791 0.067161 -0.009966 -0.000004 -0.000450 0.000033
# 3 -0.005157 -0.009966 0.010388 0.000004 -0.002840 -0.000012
# 4 -0.000004 -0.000004 0.000004 -0.059083 -0.000020 0.289126
# 5 0.014821 -0.000450 -0.002840 -0.000020 0.058665 0.000062
# 6 0.000010 0.000033 -0.000012 0.289126 0.000062 -0.858895
#
#
# Mechanical properties :
#
#
# Convention : Reuss Voigt Hill
#
# Bulk Modulus (GPa) = 21.99310 65.37587 43.68449
# Shear Modulus (GPa) = -7.15275 21.10734 6.97729
#
# Velocity S-wave (km/s) = -2.01415 3.45996 1.98929
# Velocity P-wave (km/s) = 2.65794 7.28290 5.48203
#
# Compressibility (1/GPa) = 0.04546880
#
# Stress axis : x y z
#
# Youngs Moduli (GPa) = 56.34510 14.88955 96.26597
#
# Poissons Ratio (x) = 0.14579 0.49640
# Poissons Ratio (y) = 0.55169 0.95941
# Poissons Ratio (z) = 0.29055 0.14839
#
# Static dielectric constant tensor:
#      x y z
#    x 1.588540 0.000000 -0.012100 
#    y 0.000000 1.594460 0.000000 
#    z -0.012100 0.000000 1.602110 
# 
# From -- ./inp_files/230360.got.cif
#   From: 2010.05.17/outbox.cif.g08.bks.cpg/sg12_116_cif.got.tgz:230360.got - 2010.06.03 13:09:07.
