data_PCOD9184860
_publ_section_title
;
Structure prediction by ZEFSAII (Michael W. Deem and Ramdas Pophale) SiO2 
 PCOD9184860
Probable space group: C 2/M
;
_chemical_formula_sum "Si O2"
_cell_formula_units_Z 56
_cell_length_a 24.445089
_cell_length_b 13.332415
_cell_length_c 11.696376
_cell_angle_alpha 90.000000
_cell_angle_beta 44.395528
_cell_angle_gamma 90.000000
_cell_volume 2666.897162
_symmetry_space_group_name_H-M "C 2/M"
_symmetry_group_IT_number 12
_symmetry_cell_setting 'monoclinic'
loop_
_space_group_symop_operation_xyz
x,y,z
-x,y,-z
-x,-y,-z
x,-y,z
1/2+x,1/2+y,z
1/2-x,1/2+y,-z
1/2-x,1/2-y,-z
1/2+x,1/2-y,z
loop_
_atom_site_type_symbol
_atom_site_label
_atom_site_fract_x
_atom_site_fract_y
_atom_site_fract_z
Si Si1 0.016243 0.389164 0.624195
Si Si2 0.286554 0.116111 0.492882
Si Si3 0.841831 0.882930 0.028675
Si Si4 0.557680 0.824585 0.814573
Si Si5 0.323496 0.803040 0.676867
Si Si6 0.571461 0.687669 0.323825
Si Si7 0.108935 0.884600 0.785252
O O1 0.984100 0.500000 0.652031
O O2 0.031810 0.373222 0.734971
O O3 0.101630 0.377915 0.437628
O O4 0.963317 0.295593 0.665652
O O5 0.352082 0.142372 0.302337
O O6 0.301223 0.192471 0.576014
O O7 0.195454 0.120810 0.600635
O O8 0.299301 0.000000 0.511921
O O9 0.757410 0.831046 0.141982
O O10 0.878845 0.858618 0.098047
O O11 0.824790 0.000000 0.062359
O O12 0.896252 0.862244 0.838919
O O13 0.558096 0.703354 0.806832
O O14 0.500000 0.856154 0.000000
O O15 0.360147 0.707582 0.685782
O O16 0.500000 0.637794 0.500000
O O17 0.081231 0.000000 0.815904
#
# Coordination Sequence:
#
# PCOD9184860 Si02
#       7
#     8   8   8   8   8   8   8
#     4  10  21  35  51  75 105 135 169 207 249 298
#     4   9  18  33  53  77 102 130 167 207 250 300
#     4  10  19  34  55  77 101 131 170 210 248 296
#     4  11  20  31  50  74 103 135 166 204 252 299
#     4   9  17  32  55  77  99 128 168 210 245 288
#     4  10  21  34  51  78 107 134 164 203 253 304
#     4   9  19  35  54  74  97 131 174 214 248 288
#
# _framework density 20.998184999999999
#
# number of rings (size 3 to 8) (size 9 to 14) (size 15 to 20)
#    0.000    2.286    0.000    5.143    0.000    5.429 
#    0.000    0.714    0.000    5.143    0.000   10.000 
#    0.000    0.000    0.000    0.000    0.000    0.000 
#
# Total GULP energy -156103.337831 kJ/mol
# GULP energy per Si atom -5575.119208 kJ/mol
# Density = 2.095039 g / cm^3
# Si number density = 20.998185 Si / 1000 Ang^3
#
#
#
# Elastic Constant Matrix: (Units=GPa)
#
#
# Indices 1 2 3 4 5 6 
#
# 1 26.5748 20.5699 16.9018 0.0000 -3.8499 0.0000
# 2 20.5699 38.5688 7.2739 0.0000 5.5785 0.0000
# 3 16.9018 7.2739 162.5928 0.0000 -3.8607 0.0000
# 4 0.0000 0.0000 0.0000 10.8758 0.0000 1.8825
# 5 -3.8499 5.5785 -3.8607 0.0000 28.3919 0.0000
# 6 0.0000 0.0000 0.0000 1.8825 0.0000 20.0794
#
#
#
# Elastic Compliance Matrix: (Units=1/GPa)
#
#
# Indices 1 2 3 4 5 6 
#
# 1 0.076650 -0.042413 -0.005644 0.000000 0.017960 0.000000
# 2 -0.042413 0.050441 0.001786 0.000000 -0.015419 0.000000
# 3 -0.005644 0.001786 0.006652 0.000000 -0.000212 0.000000
# 4 0.000000 0.000000 0.000000 0.093464 0.000000 -0.008762
# 5 0.017960 -0.015419 -0.000212 0.000000 0.040658 0.000000
# 6 0.000000 0.000000 0.000000 -0.008762 0.000000 0.050624
#
#
# Mechanical properties :
#
#
# Convention : Reuss Voigt Hill
#
# Bulk Modulus (GPa) = 24.27081 35.24750 29.75915
# Shear Modulus (GPa) = 11.77121 24.06880 17.92000
#
# Velocity S-wave (km/s) = 2.37023 3.38928 2.92448
# Velocity P-wave (km/s) = 4.36741 5.66910 5.06028
#
# Compressibility (1/GPa) = 0.04120176
#
# Stress axis : x y z
#
# Youngs Moduli (GPa) = 13.04623 19.82505 150.32828
#
# Poissons Ratio (x) = 0.84084 0.84846
# Poissons Ratio (y) = 0.55333 -0.26852
# Poissons Ratio (z) = 0.07363 -0.03541
#
# Static dielectric constant tensor:
#      x y z
#    x 1.809820 0.000000 -0.001430 
#    y 0.000000 1.763880 0.000000 
#    z -0.001430 0.000000 1.785340 
# 
# From -- ./inp_files/183436.got.cif
#   From: 2010.05.17/outbox.cif.g08.bks.cpg/sg12_92_cif.got.tgz:183436.got - 2010.06.03 13:09:07.
