data_PCOD9184912
_publ_section_title
;
Structure prediction by ZEFSAII (Michael W. Deem and Ramdas Pophale) SiO2 
 PCOD9184912
Probable space group: C 2/M
;
_chemical_formula_sum "Si O2"
_cell_formula_units_Z 56
_cell_length_a 29.544483
_cell_length_b 8.307903
_cell_length_c 14.833568
_cell_angle_alpha 90.000000
_cell_angle_beta 59.994802
_cell_angle_gamma 90.000000
_cell_volume 3152.980758
_symmetry_space_group_name_H-M "C 2/M"
_symmetry_group_IT_number 12
_symmetry_cell_setting 'monoclinic'
loop_
_space_group_symop_operation_xyz
x,y,z
-x,y,-z
-x,-y,-z
x,-y,z
1/2+x,1/2+y,z
1/2-x,1/2+y,-z
1/2-x,1/2-y,-z
1/2+x,1/2-y,z
loop_
_atom_site_type_symbol
_atom_site_label
_atom_site_fract_x
_atom_site_fract_y
_atom_site_fract_z
Si Si1 0.673194 0.689295 0.828598
Si Si2 0.506332 0.695022 0.888575
Si Si3 0.805580 0.309611 0.905051
Si Si4 0.215889 0.812946 0.264999
Si Si5 0.603096 0.193370 0.052455
Si Si6 0.202403 0.804623 0.482847
Si Si7 0.382314 0.695077 0.297730
O O1 0.686304 0.500000 0.819134
O O2 0.722212 0.790752 0.812492
O O3 0.657226 0.735044 0.743942
O O4 0.624258 0.725055 0.940331
O O5 0.506842 0.500000 0.889420
O O6 0.456743 0.753930 0.880857
O O7 0.560427 0.752250 0.788987
O O8 0.500000 0.747803 0.000000
O O9 0.804164 0.500000 0.915455
O O10 0.810569 0.266556 0.794954
O O11 0.855728 0.251493 0.912164
O O12 0.750000 0.250000 0.000000
O O13 0.206799 0.746872 0.375099
O O14 0.202000 0.000000 0.278918
O O15 0.605624 0.000000 0.042580
O O16 0.250000 0.750000 0.500000
O O17 0.147416 0.752651 0.582483
O O18 0.204244 0.000000 0.479558
O O19 0.385550 0.500000 0.297363
#
# Coordination Sequence:
#
# PCOD9184912 Si02
#       7
#     8   8   8   8   8   8   8
#     4  11  19  31  54  78 108 147 180 212 259 320
#     4  10  19  34  55  79 105 141 182 215 260 325
#     4  11  23  37  55  77 107 143 180 221 271 327
#     4  11  22  34  51  80 113 142 181 224 266 318
#     4  11  23  36  51  78 111 139 175 224 271 317
#     4  10  20  34  53  79 110 144 179 221 266 316
#     4   9  18  33  52  77 109 143 180 216 257 316
#
# _framework density 17.760971999999999
#
# number of rings (size 3 to 8) (size 9 to 14) (size 15 to 20)
#    0.000    1.571    4.286    1.714    0.000    2.571 
#    0.000    0.714    0.000    0.857    0.000    6.000 
#    0.000    0.000    0.000    0.000    0.000    0.000 
#
# Total GULP energy -156196.244126 kJ/mol
# GULP energy per Si atom -5578.437290 kJ/mol
# Density = 1.772055 g / cm^3
# Si number density = 17.760972 Si / 1000 Ang^3
#
#
#
# Elastic Constant Matrix: (Units=GPa)
#
#
# Indices 1 2 3 4 5 6 
#
# 1 99.5888 9.5801 42.5428 0.0000 -1.9792 0.0000
# 2 9.5801 18.5016 5.9022 0.0000 3.6742 0.0000
# 3 42.5428 5.9022 93.6257 0.0000 3.1313 0.0000
# 4 0.0000 0.0000 0.0000 15.9667 0.0000 2.4138
# 5 -1.9792 3.6742 3.1313 0.0000 26.7642 0.0000
# 6 0.0000 0.0000 0.0000 2.4138 0.0000 25.2532
#
#
#
# Elastic Compliance Matrix: (Units=1/GPa)
#
#
# Indices 1 2 3 4 5 6 
#
# 1 0.013025 -0.005410 -0.005657 0.000000 0.002368 0.000000
# 2 -0.005410 0.058821 -0.000970 0.000000 -0.008362 0.000000
# 3 -0.005657 -0.000970 0.013374 0.000000 -0.001850 0.000000
# 4 0.000000 0.000000 0.000000 0.063548 0.000000 -0.006074
# 5 0.002368 -0.008362 -0.001850 0.000000 0.038903 0.000000
# 6 0.000000 0.000000 0.000000 -0.006074 0.000000 0.040180
#
#
# Mechanical properties :
#
#
# Convention : Reuss Voigt Hill
#
# Bulk Modulus (GPa) = 16.35418 36.41848 26.38633
# Shear Modulus (GPa) = 18.36162 23.84289 21.10225
#
# Velocity S-wave (km/s) = 3.21879 3.66790 3.45066
# Velocity P-wave (km/s) = 4.80022 6.20381 5.54659
#
# Compressibility (1/GPa) = 0.06114643
#
# Stress axis : x y z
#
# Youngs Moduli (GPa) = 76.77409 17.00077 74.77071
#
# Poissons Ratio (x) = 0.09198 0.42296
# Poissons Ratio (y) = 0.41535 0.07254
# Poissons Ratio (z) = 0.43429 0.01649
#
# Static dielectric constant tensor:
#      x y z
#    x 1.607260 0.000000 0.007080 
#    y 0.000000 1.617410 0.000000 
#    z 0.007080 0.000000 1.621230 
# 
# From -- ./inp_files/243639.got.cif
#   From: 2010.05.17/outbox.cif.g08.bks.cpg/sg12_122_cif.got.tgz:243639.got - 2010.06.03 13:09:07.
