data_PCOD9185422
_publ_section_title
;
Structure prediction by ZEFSAII (Michael W. Deem and Ramdas Pophale) SiO2 
 PCOD9185422
Probable space group: C 2/M
;
_chemical_formula_sum "Si O2"
_cell_formula_units_Z 56
_cell_length_a 31.479786
_cell_length_b 7.628196
_cell_length_c 18.967267
_cell_angle_alpha 90.000000
_cell_angle_beta 144.527982
_cell_angle_gamma 90.000000
_cell_volume 2643.107958
_symmetry_space_group_name_H-M "C 2/M"
_symmetry_group_IT_number 12
_symmetry_cell_setting 'monoclinic'
loop_
_space_group_symop_operation_xyz
x,y,z
-x,y,-z
-x,-y,-z
x,-y,z
1/2+x,1/2+y,z
1/2-x,1/2+y,-z
1/2-x,1/2-y,-z
1/2+x,1/2-y,z
loop_
_atom_site_type_symbol
_atom_site_label
_atom_site_fract_x
_atom_site_fract_y
_atom_site_fract_z
Si Si1 0.282734 0.712948 0.274111
Si Si2 0.260735 0.294536 0.400872
Si Si3 0.633795 0.296112 0.999861
Si Si4 0.837294 0.788614 0.114753
Si Si5 0.136597 0.287148 0.340302
Si Si6 0.005774 0.293859 0.928409
Si Si7 0.080921 0.214171 0.632095
O O1 0.281317 0.500000 0.272493
O O2 0.268210 0.779583 0.333234
O O3 0.217501 0.774499 0.136199
O O4 0.360412 0.766144 0.347842
O O5 0.244264 0.500000 0.370194
O O6 0.195561 0.223623 0.361694
O O7 0.334588 0.275514 0.545591
O O8 0.614479 0.500000 0.970588
O O9 0.629677 0.222121 0.914950
O O10 0.582557 0.220390 0.992072
O O11 0.883957 0.727817 0.245624
O O12 0.842192 0.000000 0.120448
O O13 0.750000 0.750000 0.000000
O O14 0.138797 0.500000 0.345872
O O15 0.057644 0.224408 0.208560
O O16 0.010752 0.500000 0.086459
O O17 0.000000 0.219633 0.000000
O O18 0.000000 0.272904 0.500000
O O19 0.078877 0.000000 0.632020
#
# Coordination Sequence:
#
# PCOD9185422 Si02
#       7
#     8   8   8   8   8   8   8
#     4  10  19  34  57  79 103 144 191 229 272 335
#     4   9  18  32  53  78 102 136 182 225 269 327
#     4  11  23  35  54  85 115 145 184 235 290 336
#     4  10  20  36  58  83 112 147 186 232 281 335
#     4   9  18  33  51  74 105 140 177 222 276 327
#     4  10  21  38  58  79 109 148 190 231 271 331
#     4   9  18  33  55  82 109 141 185 234 278 325
#
# _framework density 21.187176999999998
#
# number of rings (size 3 to 8) (size 9 to 14) (size 15 to 20)
#    0.000    2.286    1.429    1.286    0.000    5.429 
#    0.000    5.714    0.000    1.714    0.000    0.000 
#    0.000    0.000    0.000    0.000    0.000    0.000 
#
# Total GULP energy -156261.532933 kJ/mol
# GULP energy per Si atom -5580.769033 kJ/mol
# Density = 2.113895 g / cm^3
# Si number density = 21.187177 Si / 1000 Ang^3
#
#
#
# Elastic Constant Matrix: (Units=GPa)
#
#
# Indices 1 2 3 4 5 6 
#
# 1 89.2093 -3.8397 33.7427 0.0000 -19.4684 0.0000
# 2 -3.8397 34.6230 -10.8174 0.0000 -5.4712 0.0000
# 3 33.7427 -10.8174 110.1448 0.0000 -0.0916 0.0000
# 4 0.0000 0.0000 0.0000 14.6776 0.0000 16.4749
# 5 -19.4684 -5.4712 -0.0916 0.0000 39.4936 0.0000
# 6 0.0000 0.0000 0.0000 16.4749 0.0000 -28.6733
#
#
#
# Elastic Compliance Matrix: (Units=1/GPa)
#
#
# Indices 1 2 3 4 5 6 
#
# 1 0.014496 0.001425 -0.004295 0.000000 0.007333 0.000000
# 2 0.001425 0.030628 0.002576 0.000000 0.004951 0.000000
# 3 -0.004295 0.002576 0.010646 0.000000 -0.001736 0.000000
# 4 0.000000 0.000000 0.000000 0.041419 0.000000 0.023798
# 5 0.007333 0.004951 -0.001736 0.000000 0.029617 0.000000
# 6 0.000000 0.000000 0.000000 0.023798 0.000000 -0.021202
#
#
# Mechanical properties :
#
#
# Convention : Reuss Voigt Hill
#
# Bulk Modulus (GPa) = 18.12237 30.23869 24.18053
# Shear Modulus (GPa) = 40.13288 19.42568 29.77928
#
# Velocity S-wave (km/s) = 4.35697 3.03125 3.75311
# Velocity P-wave (km/s) = 5.82091 5.15311 5.49716
#
# Compressibility (1/GPa) = 0.05518043
#
# Stress axis : x y z
#
# Youngs Moduli (GPa) = 68.98617 32.65026 93.93064
#
# Poissons Ratio (x) = -0.04651 0.40341
# Poissons Ratio (y) = -0.09827 -0.24193
# Poissons Ratio (z) = 0.29628 -0.08410
#
# Static dielectric constant tensor:
#      x y z
#    x 1.754780 0.000000 -0.020090 
#    y 0.000000 1.793100 0.000000 
#    z -0.020090 0.000000 1.748160 
# 
# From -- ./inp_files/292524.got.cif
#   From: 2010.05.17/outbox.cif.g08.bks.cpg/sg12_147_cif.got.tgz:292524.got - 2010.06.03 13:09:07.
