data_PCOD9185239
_publ_section_title
;
Structure prediction by ZEFSAII (Michael W. Deem and Ramdas Pophale) SiO2 
 PCOD9185239
Probable space group: C 2/M
;
_chemical_formula_sum "Si O2"
_cell_formula_units_Z 40
_cell_length_a 18.411808
_cell_length_b 13.658765
_cell_length_c 10.025276
_cell_angle_alpha 90.000000
_cell_angle_beta 120.832040
_cell_angle_gamma 90.000000
_cell_volume 2164.872038
_symmetry_space_group_name_H-M "C 2/M"
_symmetry_group_IT_number 12
_symmetry_cell_setting 'monoclinic'
loop_
_space_group_symop_operation_xyz
x,y,z
-x,y,-z
-x,-y,-z
x,-y,z
1/2+x,1/2+y,z
1/2-x,1/2+y,-z
1/2-x,1/2-y,-z
1/2+x,1/2-y,z
loop_
_atom_site_type_symbol
_atom_site_label
_atom_site_fract_x
_atom_site_fract_y
_atom_site_fract_z
Si Si1 0.245316 0.187851 0.203006
Si Si2 0.209813 0.889891 0.872620
Si Si3 0.924804 0.117266 0.823567
Si Si4 0.417364 0.108278 0.330285
Si Si5 0.528291 0.689590 0.680502
O O1 0.255667 0.303949 0.190002
O O2 0.163742 0.160983 0.210889
O O3 0.334326 0.141770 0.334538
O O4 0.235126 0.139031 0.046885
O O5 0.108115 0.881391 0.772842
O O6 0.236417 0.000000 0.865324
O O7 0.954613 0.159048 0.710189
O O8 0.917018 0.000000 0.809790
O O9 0.000000 0.139772 0.000000
O O10 0.500000 0.102084 0.500000
O O11 0.436492 0.201023 0.253674
O O12 0.403753 0.000000 0.258818
O O13 0.500000 0.687968 0.500000
#
# Coordination Sequence:
#
# PCOD9185239 Si02
#       5
#     8   8   8   8   8
#     4  10  20  34  56  83 110 143 189 231 268 330
#     4  10  19  34  56  81 111 146 183 227 280 329
#     4  11  21  35  56  83 114 146 184 230 278 329
#     4   9  18  35  57  80 109 149 190 225 271 330
#     4  10  21  36  56  84 116 147 183 230 280 330
#
# _framework density 18.476842999999999
#
# number of rings (size 3 to 8) (size 9 to 14) (size 15 to 20)
#    0.000    2.000    2.000    2.400    0.000    1.600 
#    0.000   10.000    0.000    6.000    0.000    0.000 
#    0.000    0.000    0.000    0.000    0.000    0.000 
#
# Total GULP energy -111535.210911 kJ/mol
# GULP energy per Si atom -5576.760546 kJ/mol
# Density = 1.843479 g / cm^3
# Si number density = 18.476843 Si / 1000 Ang^3
#
#
#
# Elastic Constant Matrix: (Units=GPa)
#
#
# Indices 1 2 3 4 5 6 
#
# 1 177.9972 64.7540 42.1933 0.0000 5.3724 0.0000
# 2 64.7540 154.1678 24.4691 0.0000 0.3672 0.0000
# 3 42.1933 24.4691 52.1150 0.0000 5.0649 0.0000
# 4 0.0000 0.0000 0.0000 12.4339 0.0000 9.0645
# 5 5.3724 0.3672 5.0649 0.0000 29.0803 0.0000
# 6 0.0000 0.0000 0.0000 9.0645 0.0000 17.4484
#
#
#
# Elastic Compliance Matrix: (Units=1/GPa)
#
#
# Indices 1 2 3 4 5 6 
#
# 1 0.007719 -0.002439 -0.005054 0.000000 -0.000515 0.000000
# 2 -0.002439 0.007786 -0.001745 0.000000 0.000656 0.000000
# 3 -0.005054 -0.001745 0.024420 0.000000 -0.003297 0.000000
# 4 0.000000 0.000000 0.000000 0.129452 0.000000 -0.067251
# 5 -0.000515 0.000656 -0.003297 0.000000 0.035049 0.000000
# 6 0.000000 0.000000 0.000000 -0.067251 0.000000 0.092249
#
#
# Mechanical properties :
#
#
# Convention : Reuss Voigt Hill
#
# Bulk Modulus (GPa) = 46.62211 71.90143 59.26177
# Shear Modulus (GPa) = 15.51347 28.65011 22.08179
#
# Velocity S-wave (km/s) = 2.90076 3.94203 3.46078
# Velocity P-wave (km/s) = 6.04208 7.72776 6.93632
#
# Compressibility (1/GPa) = 0.02144905
#
# Stress axis : x y z
#
# Youngs Moduli (GPa) = 129.55253 128.43305 40.94964
#
# Poissons Ratio (x) = 0.31321 0.20697
# Poissons Ratio (y) = 0.31594 0.07146
# Poissons Ratio (z) = 0.65480 0.22413
#
# Static dielectric constant tensor:
#      x y z
#    x 1.621080 0.000000 0.050650 
#    y 0.000000 1.679080 0.000000 
#    z 0.050650 0.000000 1.690750 
# 
# From -- ./inp_files/73337.got.cif
#   From: 2010.05.17/outbox.cif.g08.bks.cpg/sg12_37_cif.got.tgz:73337.got - 2010.06.03 13:09:07.
