data_PCOD9185444
_publ_section_title
;
Structure prediction by ZEFSAII (Michael W. Deem and Ramdas Pophale) SiO2 
 PCOD9185444
Probable space group: C 2/M
;
_chemical_formula_sum "Si O2"
_cell_formula_units_Z 56
_cell_length_a 16.730384
_cell_length_b 7.632612
_cell_length_c 20.431078
_cell_angle_alpha 90.000000
_cell_angle_beta 77.409074
_cell_angle_gamma 90.000000
_cell_volume 2546.235228
_symmetry_space_group_name_H-M "C 2/M"
_symmetry_group_IT_number 12
_symmetry_cell_setting 'monoclinic'
loop_
_space_group_symop_operation_xyz
x,y,z
-x,y,-z
-x,-y,-z
x,-y,z
1/2+x,1/2+y,z
1/2-x,1/2+y,-z
1/2-x,1/2-y,-z
1/2+x,1/2-y,z
loop_
_atom_site_type_symbol
_atom_site_label
_atom_site_fract_x
_atom_site_fract_y
_atom_site_fract_z
Si Si1 0.914980 0.210872 0.211081
Si Si2 0.050226 0.210258 0.653695
Si Si3 0.627839 0.210103 0.348054
Si Si4 0.265376 0.786091 0.788405
Si Si5 0.198241 0.710574 0.073678
Si Si6 0.978695 0.291561 0.932168
Si Si7 0.769431 0.210507 0.421548
O O1 0.958701 0.274283 0.269412
O O2 0.820321 0.265981 0.228748
O O3 0.954736 0.265371 0.135788
O O4 0.916777 0.000000 0.211502
O O5 0.138803 0.275142 0.612534
O O6 0.968180 0.249839 0.627827
O O7 0.055707 0.000000 0.654480
O O8 0.660477 0.271791 0.271138
O O9 0.694289 0.275493 0.389337
O O10 0.633563 0.000000 0.347808
O O11 0.268830 0.723986 0.862585
O O12 0.266436 0.000000 0.789227
O O13 0.195474 0.500000 0.079882
O O14 0.107139 0.780101 0.078287
O O15 0.250000 0.750000 0.000000
O O16 0.967719 0.500000 0.942172
O O17 0.000000 0.219497 0.000000
O O18 0.750000 0.250000 0.500000
O O19 0.771758 0.000000 0.412279
#
# Coordination Sequence:
#
# PCOD9185444 Si02
#       7
#     8   8   8   8   8   8   8
#     4  10  19  34  57  80 105 142 188 235 283 340
#     4  10  21  38  59  87 120 151 188 242 297 339
#     4  10  20  38  63  87 114 154 199 236 280 349
#     4   9  17  33  56  78 103 141 188 232 276 331
#     4  10  20  33  50  72 101 139 181 226 278 334
#     4  10  21  35  49  73 110 145 180 232 293 342
#     4  10  22  41  63  87 121 158 193 237 290 348
#
# _framework density 21.993254
#
# number of rings (size 3 to 8) (size 9 to 14) (size 15 to 20)
#    0.000    2.143    1.429    1.714    0.000    4.286 
#    0.000    4.286    0.000    0.000    0.000    0.000 
#    0.000    0.000    0.000    0.000    0.000    0.000 
#
# Total GULP energy -156326.729355 kJ/mol
# GULP energy per Si atom -5583.097477 kJ/mol
# Density = 2.194320 g / cm^3
# Si number density = 21.993254 Si / 1000 Ang^3
#
#
#
# Elastic Constant Matrix: (Units=GPa)
#
#
# Indices 1 2 3 4 5 6 
#
# 1 162.2030 1.4350 67.0868 0.0000 11.7288 0.0000
# 2 1.4350 38.2646 -1.7523 0.0000 6.6350 0.0000
# 3 67.0868 -1.7523 135.6280 0.0000 6.9622 0.0000
# 4 0.0000 0.0000 0.0000 20.2308 0.0000 -6.3927
# 5 11.7288 6.6350 6.9622 0.0000 30.2453 0.0000
# 6 0.0000 0.0000 0.0000 -6.3927 0.0000 10.0219
#
#
#
# Elastic Compliance Matrix: (Units=1/GPa)
#
#
# Indices 1 2 3 4 5 6 
#
# 1 0.007892 -0.000094 -0.003793 0.000000 -0.002166 0.000000
# 2 -0.000094 0.027228 0.000711 0.000000 -0.006100 0.000000
# 3 -0.003793 0.000711 0.009301 0.000000 -0.000826 0.000000
# 4 0.000000 0.000000 0.000000 0.061907 0.000000 0.039489
# 5 -0.002166 -0.006100 -0.000826 0.000000 0.035431 0.000000
# 6 0.000000 0.000000 0.000000 0.039489 0.000000 0.124970
#
#
# Mechanical properties :
#
#
# Convention : Reuss Voigt Hill
#
# Bulk Modulus (GPa) = 26.26861 52.18161 39.22511
# Shear Modulus (GPa) = 17.49652 30.05468 23.77560
#
# Velocity S-wave (km/s) = 2.82359 3.70069 3.29149
# Velocity P-wave (km/s) = 4.75396 6.48366 5.68498
#
# Compressibility (1/GPa) = 0.03806826
#
# Stress axis : x y z
#
# Youngs Moduli (GPa) = 126.71745 36.72729 107.51410
#
# Poissons Ratio (x) = 0.00345 0.40785
# Poissons Ratio (y) = 0.01191 -0.07649
# Poissons Ratio (z) = 0.48070 -0.02613
#
# Static dielectric constant tensor:
#      x y z
#    x 1.812850 0.000000 0.010250 
#    y 0.000000 1.830630 0.000000 
#    z 0.010250 0.000000 1.807150 
# 
# From -- ./inp_files/268855.got.cif
#   From: 2010.05.17/outbox.cif.g08.bks.cpg/sg12_135_cif.got.tgz:268855.got - 2010.06.03 13:09:07.
