data_PCOD9185895
_publ_section_title
;
Structure prediction by ZEFSAII (Michael W. Deem and Ramdas Pophale) SiO2 
 PCOD9185895
Probable space group: C 2/M
;
_chemical_formula_sum "Si O2"
_cell_formula_units_Z 64
_cell_length_a 29.366152
_cell_length_b 8.765439
_cell_length_c 19.445773
_cell_angle_alpha 90.000000
_cell_angle_beta 41.017955
_cell_angle_gamma 90.000000
_cell_volume 3285.075493
_symmetry_space_group_name_H-M "C 2/M"
_symmetry_group_IT_number 12
_symmetry_cell_setting 'monoclinic'
loop_
_space_group_symop_operation_xyz
x,y,z
-x,y,-z
-x,-y,-z
x,-y,z
1/2+x,1/2+y,z
1/2-x,1/2+y,-z
1/2-x,1/2-y,-z
1/2+x,1/2-y,z
loop_
_atom_site_type_symbol
_atom_site_label
_atom_site_fract_x
_atom_site_fract_y
_atom_site_fract_z
Si Si1 0.720727 0.320154 0.707427
Si Si2 0.894483 0.685557 0.892548
Si Si3 0.681200 0.818069 0.614427
Si Si4 0.418794 0.171355 0.606202
Si Si5 0.824107 0.320973 0.836464
Si Si6 0.047811 0.683577 0.673025
Si Si7 0.866538 0.824209 0.538826
Si Si8 0.795313 0.317572 0.122731
O O1 0.711322 0.500000 0.717385
O O2 0.676484 0.242945 0.697540
O O3 0.799915 0.277348 0.597957
O O4 0.708250 0.256589 0.798162
O O5 0.893421 0.500000 0.889965
O O6 0.842249 0.738724 0.891510
O O7 0.973117 0.732268 0.787086
O O8 0.863955 0.727104 0.001351
O O9 0.750000 0.750000 0.500000
O O10 0.611474 0.780102 0.651743
O O11 0.688587 0.000000 0.606654
O O12 0.500000 0.179855 0.500000
O O13 0.395531 0.186400 0.711144
O O14 0.382148 0.295798 0.600899
O O15 0.395161 0.000000 0.611146
O O16 0.804174 0.500000 0.863388
O O17 0.767657 0.235176 0.854886
O O18 0.046326 0.500000 0.664263
O O19 0.068458 0.764980 0.578758
O O20 0.851635 0.000000 0.541355
O O21 0.792869 0.500000 0.133310
#
# Coordination Sequence:
#
# PCOD9185895 Si02
#       8
#     8   8   8   8   8   8   8   8
#     4  12  24  40  61  85 117 157 200 243 297 360
#     4   9  20  39  62  88 117 157 204 244 288 352
#     4  11  22  37  63  94 123 153 193 242 298 359
#     4  10  20  34  54  80 116 162 202 235 287 359
#     4  10  19  34  58  85 117 157 201 242 289 351
#     4  10  21  40  64  88 118 158 197 236 294 366
#     4  12  23  35  56  86 121 153 192 247 302 350
#     4  11  22  38  61  88 120 155 201 256 296 339
#
# _framework density 19.482049
#
# number of rings (size 3 to 8) (size 9 to 14) (size 15 to 20)
#    0.000    1.375    2.500    4.125    0.000    2.750 
#    0.000    4.375    0.000    3.750    0.000    0.000 
#    0.000    0.000    0.000    0.000    0.000    0.000 
#
# Total GULP energy -178779.543501 kJ/mol
# GULP energy per Si atom -5586.860734 kJ/mol
# Density = 1.943771 g / cm^3
# Si number density = 19.482049 Si / 1000 Ang^3
#
#
#
# Elastic Constant Matrix: (Units=GPa)
#
#
# Indices 1 2 3 4 5 6 
#
# 1 77.2495 28.1824 30.6774 0.0014 16.4382 -0.0013
# 2 28.1824 52.9505 21.2771 0.0008 4.5222 0.0005
# 3 30.6774 21.2771 114.1919 -0.0050 11.4215 0.0020
# 4 0.0014 0.0008 -0.0050 20.7242 0.0026 4.3430
# 5 16.4382 4.5222 11.4215 0.0026 24.3073 -0.0005
# 6 -0.0013 0.0005 0.0020 4.3430 -0.0005 25.0205
#
#
#
# Elastic Compliance Matrix: (Units=1/GPa)
#
#
# Indices 1 2 3 4 5 6 
#
# 1 0.019168 -0.008292 -0.002584 -0.000001 -0.010206 0.000001
# 2 -0.008292 0.024105 -0.002493 -0.000001 0.002295 0.000000
# 3 -0.002584 -0.002493 0.010173 0.000003 -0.002569 -0.000002
# 4 -0.000001 -0.000001 0.000003 0.050074 -0.000007 -0.008692
# 5 -0.010206 0.002295 -0.002569 -0.000007 0.048822 0.000002
# 6 0.000001 0.000000 -0.000002 -0.008692 0.000002 0.041476
#
#
# Mechanical properties :
#
#
# Convention : Reuss Voigt Hill
#
# Bulk Modulus (GPa) = 37.44247 44.96284 41.20266
# Shear Modulus (GPa) = 21.79044 24.96074 23.37559
#
# Velocity S-wave (km/s) = 3.34801 3.58329 3.46765
# Velocity P-wave (km/s) = 5.84861 6.34423 6.10145
#
# Compressibility (1/GPa) = 0.02670764
#
# Stress axis : x y z
#
# Youngs Moduli (GPa) = 52.17021 41.48537 98.30166
#
# Poissons Ratio (x) = 0.34401 0.25397
# Poissons Ratio (y) = 0.43261 0.24509
# Poissons Ratio (z) = 0.13479 0.10343
#
# Static dielectric constant tensor:
#      x y z
#    x 1.693280 0.000000 0.001200 
#    y 0.000000 1.665530 0.000000 
#    z 0.001200 0.000000 1.693830 
# 
# From -- ./inp_files/295463.got.cif
#   From: 2010.05.17/outbox.cif.g08.bks.cpg/sg12_148_cif.got.tgz:295463.got - 2010.06.03 13:09:07.
