data_PCOD9185306
_publ_section_title
;
Structure prediction by ZEFSAII (Michael W. Deem and Ramdas Pophale) SiO2 
 PCOD9185306
Probable space group: C 2/M
;
_chemical_formula_sum "Si O2"
_cell_formula_units_Z 56
_cell_length_a 20.652321
_cell_length_b 7.658469
_cell_length_c 27.928149
_cell_angle_alpha 90.000000
_cell_angle_beta 144.814347
_cell_angle_gamma 90.000000
_cell_volume 2545.347587
_symmetry_space_group_name_H-M "C 2/M"
_symmetry_group_IT_number 12
_symmetry_cell_setting 'monoclinic'
loop_
_space_group_symop_operation_xyz
x,y,z
-x,y,-z
-x,-y,-z
x,-y,z
1/2+x,1/2+y,z
1/2-x,1/2+y,-z
1/2-x,1/2-y,-z
1/2+x,1/2-y,z
loop_
_atom_site_type_symbol
_atom_site_label
_atom_site_fract_x
_atom_site_fract_y
_atom_site_fract_z
Si Si1 0.106523 0.705130 0.291604
Si Si2 0.305059 0.209052 0.982284
Si Si3 0.445668 0.784693 0.847190
Si Si4 0.122569 0.212578 0.794949
Si Si5 0.700753 0.709018 0.522642
Si Si6 0.530949 0.203784 0.571159
Si Si7 0.219738 0.797519 0.755145
O O1 0.129563 0.500000 0.298779
O O2 0.077053 0.774728 0.221130
O O3 0.213256 0.778262 0.384771
O O4 0.996878 0.724196 0.258265
O O5 0.433020 0.273796 0.060783
O O6 0.310503 0.000000 0.980264
O O7 0.250000 0.250000 0.000000
O O8 0.221372 0.271886 0.890480
O O9 0.341345 0.723731 0.816045
O O10 0.446961 0.000000 0.847488
O O11 0.154160 0.275963 0.761105
O O12 0.116463 0.000000 0.792017
O O13 0.694802 0.500000 0.522468
O O14 0.750000 0.750000 0.500000
O O15 0.576597 0.776845 0.459235
O O16 0.500000 0.275498 0.500000
O O17 0.639124 0.288549 0.660640
O O18 0.557553 0.000000 0.581578
O O19 0.239687 0.000000 0.779113
#
# Coordination Sequence:
#
# PCOD9185306 Si02
#       7
#     8   8   8   8   8   8   8
#     4  10  20  35  56  80 106 144 188 228 274 333
#     4  10  19  34  56  83 113 145 184 228 277 332
#     4   9  18  34  57  81 107 142 186 229 271 329
#     4  10  21  34  54  85 115 145 182 231 284 331
#     4  11  23  38  59  86 116 151 194 241 291 347
#     4  11  24  41  60  84 116 153 195 243 294 346
#     4  10  21  38  58  82 113 148 189 234 285 343
#
# _framework density 22.000924999999999
#
# number of rings (size 3 to 8) (size 9 to 14) (size 15 to 20)
#    0.000    1.857    1.429    2.571    0.000    6.857 
#    0.000    4.286    0.000    0.000    0.000    3.000 
#    0.000    0.000    0.000    0.000    0.000    0.000 
#
# Total GULP energy -156499.800143 kJ/mol
# GULP energy per Si atom -5589.278577 kJ/mol
# Density = 2.195085 g / cm^3
# Si number density = 22.000925 Si / 1000 Ang^3
#
#
#
# Elastic Constant Matrix: (Units=GPa)
#
#
# Indices 1 2 3 4 5 6 
#
# 1 56.7063 -14.5306 -16.2910 0.0001 11.0665 0.0001
# 2 -14.5306 39.2966 -8.7551 -0.0009 -3.3699 0.0018
# 3 -16.2910 -8.7551 79.9713 0.0002 17.3917 -0.0001
# 4 0.0001 -0.0009 0.0002 10.9802 0.0000 -0.9113
# 5 11.0665 -3.3699 17.3917 0.0000 41.5274 -0.0001
# 6 0.0001 0.0018 -0.0001 -0.9113 -0.0001 20.5084
#
#
#
# Elastic Compliance Matrix: (Units=1/GPa)
#
#
# Indices 1 2 3 4 5 6 
#
# 1 0.024239 0.009971 0.007985 0.000000 -0.008995 -0.000001
# 2 0.009971 0.030224 0.005924 0.000002 -0.002685 -0.000003
# 3 0.007985 0.005924 0.016655 0.000000 -0.008622 0.000000
# 4 0.000000 0.000002 0.000000 0.091410 0.000000 0.004062
# 5 -0.008995 -0.002685 -0.008622 0.000000 0.029871 0.000000
# 6 -0.000001 -0.000003 0.000000 0.004062 0.000000 0.048941
#
#
# Mechanical properties :
#
#
# Convention : Reuss Voigt Hill
#
# Bulk Modulus (GPa) = 8.41199 10.75786 9.58493
# Shear Modulus (GPa) = 21.44034 28.97327 25.20680
#
# Velocity S-wave (km/s) = 3.12512 3.63286 3.38851
# Velocity P-wave (km/s) = 4.10531 4.74313 4.43570
#
# Compressibility (1/GPa) = 0.11887791
#
# Stress axis : x y z
#
# Youngs Moduli (GPa) = 41.25566 33.08642 60.04242
#
# Poissons Ratio (x) = -0.32989 -0.47946
# Poissons Ratio (y) = -0.41134 -0.35569
# Poissons Ratio (z) = -0.32944 -0.19600
#
# Static dielectric constant tensor:
#      x y z
#    x 1.779250 0.000000 -0.013230 
#    y 0.000000 1.844710 0.000000 
#    z -0.013230 0.000000 1.790510 
# 
# From -- ./inp_files/363235.got.cif
#   From: 2010.05.17/outbox.cif.g08.bks.cpg/sg12_182_cif.got.tgz:363235.got - 2010.06.03 13:09:07.
