data_PCOD9185695
_publ_section_title
;
Structure prediction by ZEFSAII (Michael W. Deem and Ramdas Pophale) SiO2 
 PCOD9185695
Probable space group: C 2/M
;
_chemical_formula_sum "Si O2"
_cell_formula_units_Z 52
_cell_length_a 27.232949
_cell_length_b 12.211265
_cell_length_c 8.793846
_cell_angle_alpha 90.000000
_cell_angle_beta 117.021603
_cell_angle_gamma 90.000000
_cell_volume 2605.143173
_symmetry_space_group_name_H-M "C 2/M"
_symmetry_group_IT_number 12
_symmetry_cell_setting 'monoclinic'
loop_
_space_group_symop_operation_xyz
x,y,z
-x,y,-z
-x,-y,-z
x,-y,z
1/2+x,1/2+y,z
1/2-x,1/2+y,-z
1/2-x,1/2-y,-z
1/2+x,1/2-y,z
loop_
_atom_site_type_symbol
_atom_site_label
_atom_site_fract_x
_atom_site_fract_y
_atom_site_fract_z
Si Si1 0.564711 0.000000 0.129843
Si Si2 0.580129 0.763899 0.682720
Si Si3 0.346607 0.000000 0.014322
Si Si4 0.860957 0.127857 0.814122
Si Si5 0.422113 0.227781 0.680788
Si Si6 0.446299 0.000000 0.315761
Si Si7 0.026551 0.875735 0.829916
Si Si8 0.805609 0.265247 0.985810
O O1 0.577505 0.108893 0.242487
O O2 0.500000 0.000000 0.000000
O O3 0.601698 0.000000 0.029780
O O4 0.579751 0.782544 0.503317
O O5 0.546893 0.658266 0.691028
O O6 0.641867 0.749428 0.829881
O O7 0.552000 0.869739 0.726788
O O8 0.377987 0.000000 0.223861
O O9 0.312144 0.109053 0.942592
O O10 0.872662 0.199697 0.681180
O O11 0.850123 0.000000 0.769568
O O12 0.918648 0.135364 0.990430
O O13 0.815434 0.183836 0.858287
O O14 0.477745 0.293468 0.800333
O O15 0.500000 0.000000 0.500000
O O16 0.006561 0.000000 0.812649
O O17 0.750000 0.250000 0.000000
#
# Coordination Sequence:
#
# PCOD9185695 Si02
#       8
#     4   8   4   8   8   4   8   8
#     4  12  25  34  58  90 131 168 186 229 304 368
#     4  10  23  36  57  88 116 152 198 241 292 349
#     4  10  22  40  62  93 116 156 209 239 293 372
#     4  10  21  37  58  84 115 151 196 234 282 350
#     4  12  22  35  56  85 125 154 189 234 291 353
#     4  10  19  34  57  86 124 153 187 240 290 354
#     4  10  21  37  55  81 118 162 197 229 274 347
#     4  10  22  43  66  82 109 148 202 256 296 341
#
# _framework density 19.960515000000001
#
# number of rings (size 3 to 8) (size 9 to 14) (size 15 to 20)
#    0.000    1.538    1.538    3.692    7.538    3.077 
#    0.000    0.769    0.000    0.000    0.000    0.000 
#    0.000    0.000    0.000    0.000    0.000    0.000 
#
# Total GULP energy -144932.500258 kJ/mol
# GULP energy per Si atom -5574.326933 kJ/mol
# Density = 1.991508 g / cm^3
# Si number density = 19.960515 Si / 1000 Ang^3
#
#
#
# Elastic Constant Matrix: (Units=GPa)
#
#
# Indices 1 2 3 4 5 6 
#
# 1 120.1310 55.3758 17.5914 0.0000 -29.1722 0.0000
# 2 55.3758 154.6584 28.2232 0.0000 -25.1720 0.0000
# 3 17.5914 28.2232 64.9842 0.0000 -26.5018 0.0000
# 4 0.0000 0.0000 0.0000 20.4897 0.0000 -8.3139
# 5 -29.1722 -25.1720 -26.5018 0.0000 31.3497 0.0000
# 6 0.0000 0.0000 0.0000 -8.3139 0.0000 20.1556
#
#
#
# Elastic Compliance Matrix: (Units=1/GPa)
#
#
# Indices 1 2 3 4 5 6 
#
# 1 0.011963 -0.002971 0.002471 0.000000 0.010835 0.000000
# 2 -0.002971 0.008239 -0.001837 0.000000 0.002298 0.000000
# 3 0.002471 -0.001837 0.024195 0.000000 0.021277 0.000000
# 4 0.000000 0.000000 0.000000 0.058616 0.000000 0.024178
# 5 0.010835 0.002298 0.021277 0.000000 0.061814 0.000000
# 6 0.000000 0.000000 0.000000 0.024178 0.000000 0.059587
#
#
# Mechanical properties :
#
#
# Convention : Reuss Voigt Hill
#
# Bulk Modulus (GPa) = 25.17441 60.23936 42.70688
# Shear Modulus (GPa) = 20.63327 30.30455 25.46891
#
# Velocity S-wave (km/s) = 3.21862 3.90067 3.57594
# Velocity P-wave (km/s) = 5.14316 7.10857 6.20419
#
# Compressibility (1/GPa) = 0.03972288
#
# Stress axis : x y z
#
# Youngs Moduli (GPa) = 83.59052 121.37747 41.33156
#
# Poissons Ratio (x) = 0.36058 -0.10212
# Poissons Ratio (y) = 0.24832 0.07592
# Poissons Ratio (z) = -0.20653 0.22294
#
# Static dielectric constant tensor:
#      x y z
#    x 1.696730 0.000000 -0.048370 
#    y 0.000000 1.730520 0.000000 
#    z -0.048370 0.000000 1.951570 
# 
# From -- ./inp_files/102718.got.cif
#   From: 2010.05.17/outbox.cif.g08.bks.cpg/sg12_52_cif.got.tgz:102718.got - 2010.06.03 13:09:07.
