data_PCOD9185440
_publ_section_title
;
Structure prediction by ZEFSAII (Michael W. Deem and Ramdas Pophale) SiO2 
 PCOD9185440
Probable space group: C 2/M
;
_chemical_formula_sum "Si O2"
_cell_formula_units_Z 64
_cell_length_a 18.559824
_cell_length_b 8.917420
_cell_length_c 21.640044
_cell_angle_alpha 90.000000
_cell_angle_beta 89.944478
_cell_angle_gamma 90.000000
_cell_volume 3581.549938
_symmetry_space_group_name_H-M "C 2/M"
_symmetry_group_IT_number 12
_symmetry_cell_setting 'monoclinic'
loop_
_space_group_symop_operation_xyz
x,y,z
-x,y,-z
-x,-y,-z
x,-y,z
1/2+x,1/2+y,z
1/2-x,1/2+y,-z
1/2-x,1/2-y,-z
1/2+x,1/2-y,z
loop_
_atom_site_type_symbol
_atom_site_label
_atom_site_fract_x
_atom_site_fract_y
_atom_site_fract_z
Si Si1 0.790686 0.821230 0.057052
Si Si2 0.458754 0.320165 0.563218
Si Si3 0.204887 0.179084 0.672216
Si Si4 0.300990 0.320365 0.190814
Si Si5 0.459965 0.680228 0.061997
Si Si6 0.455001 0.179939 0.324605
Si Si7 0.210535 0.820636 0.441116
Si Si8 0.040766 0.321982 0.812197
O O1 0.762604 0.781661 0.126220
O O2 0.875402 0.780018 0.056349
O O3 0.786007 0.000000 0.050745
O O4 0.750000 0.750000 0.000000
O O5 0.500000 0.280154 0.500000
O O6 0.466327 0.500000 0.571906
O O7 0.494621 0.237178 0.620805
O O8 0.374354 0.285105 0.557329
O O9 0.233052 0.208087 0.742226
O O10 0.123500 0.243199 0.668785
O O11 0.253261 0.255670 0.620525
O O12 0.202658 0.000000 0.662609
O O13 0.316863 0.500000 0.188179
O O14 0.376187 0.232048 0.190392
O O15 0.464589 0.500000 0.065631
O O16 0.489977 0.746268 0.126089
O O17 0.500000 0.730872 0.000000
O O18 0.486765 0.218237 0.256430
O O19 0.445992 0.000000 0.327006
O O20 0.250000 0.750000 0.500000
O O21 0.218568 0.000000 0.442685
O O22 0.036724 0.500000 0.819228
#
# Coordination Sequence:
#
# PCOD9185440 Si02
#       8
#     8   8   8   8   8   8   8   8
#     4   9  17  30  48  71  97 127 166 209 253 299
#     4  10  22  39  57  78 105 138 176 215 256 306
#     4  10  19  34  57  80 105 139 175 213 260 312
#     4   8  16  31  50  71  97 134 175 208 246 303
#     4   9  18  33  51  70  96 133 175 212 248 301
#     4  10  20  34  55  82 108 135 172 217 262 310
#     4  11  23  38  57  82 110 138 172 215 259 307
#     4   9  17  29  48  76 104 129 164 211 258 303
#
# _framework density 17.869357999999998
#
# number of rings (size 3 to 8) (size 9 to 14) (size 15 to 20)
#    0.000    2.500    0.000    3.000    0.000    6.500 
#    0.000    1.250    0.000    6.000    0.000    0.000 
#    0.000    0.000    0.000    0.000    0.000    0.000 
#
# Total GULP energy -178362.379112 kJ/mol
# GULP energy per Si atom -5573.824347 kJ/mol
# Density = 1.782869 g / cm^3
# Si number density = 17.869358 Si / 1000 Ang^3
#
#
#
# Elastic Constant Matrix: (Units=GPa)
#
#
# Indices 1 2 3 4 5 6 
#
# 1 69.3553 40.1609 82.2211 0.0000 -1.9526 0.0000
# 2 40.1609 41.0670 67.7023 0.0000 0.9634 0.0000
# 3 82.2211 67.7023 218.6524 0.0000 -0.4305 0.0000
# 4 0.0000 0.0000 0.0000 35.9127 0.0000 0.9861
# 5 -1.9526 0.9634 -0.4305 0.0000 33.2315 0.0000
# 6 0.0000 0.0000 0.0000 0.9861 0.0000 22.4092
#
#
#
# Elastic Compliance Matrix: (Units=1/GPa)
#
#
# Indices 1 2 3 4 5 6 
#
# 1 0.036387 -0.026766 -0.005390 0.000000 0.002844 0.000000
# 2 -0.026766 0.069520 -0.011468 0.000000 -0.003737 0.000000
# 3 -0.005390 -0.011468 0.010151 0.000000 0.000147 0.000000
# 4 0.000000 0.000000 0.000000 0.027879 0.000000 -0.001227
# 5 0.002844 -0.003737 0.000147 0.000000 0.030369 0.000000
# 6 0.000000 0.000000 0.000000 -0.001227 0.000000 0.044679
#
#
# Mechanical properties :
#
#
# Convention : Reuss Voigt Hill
#
# Bulk Modulus (GPa) = 34.70901 78.80481 56.75691
# Shear Modulus (GPa) = 15.83104 27.57670 21.70387
#
# Velocity S-wave (km/s) = 2.97969 3.93267 3.48887
# Velocity P-wave (km/s) = 5.59500 8.05093 6.93258
#
# Compressibility (1/GPa) = 0.02881096
#
# Stress axis : x y z
#
# Youngs Moduli (GPa) = 27.48239 14.38445 98.50885
#
# Poissons Ratio (x) = 0.38501 0.53092
# Poissons Ratio (y) = 0.73559 1.12971
# Poissons Ratio (z) = 0.14812 0.16496
#
# Static dielectric constant tensor:
#      x y z
#    x 1.586100 0.000000 -0.007350 
#    y 0.000000 1.604760 0.000000 
#    z -0.007350 0.000000 1.647230 
# 
# From -- ./inp_files/314055.got.cif
#   From: 2010.05.17/outbox.cif.g08.bks.cpg/sg12_158_cif.got.tgz:314055.got - 2010.06.03 13:09:07.
