data_PCOD9185662
_publ_section_title
;
Structure prediction by ZEFSAII (Michael W. Deem and Ramdas Pophale) SiO2 
 PCOD9185662
Probable space group: C 2/M
;
_chemical_formula_sum "Si O2"
_cell_formula_units_Z 44
_cell_length_a 24.753516
_cell_length_b 10.113137
_cell_length_c 24.520997
_cell_angle_alpha 90.000000
_cell_angle_beta 21.725033
_cell_angle_gamma 90.000000
_cell_volume 2272.175085
_symmetry_space_group_name_H-M "C 2/M"
_symmetry_group_IT_number 12
_symmetry_cell_setting 'monoclinic'
loop_
_space_group_symop_operation_xyz
x,y,z
-x,y,-z
-x,-y,-z
x,-y,z
1/2+x,1/2+y,z
1/2-x,1/2+y,-z
1/2-x,1/2-y,-z
1/2+x,1/2-y,z
loop_
_atom_site_type_symbol
_atom_site_label
_atom_site_fract_x
_atom_site_fract_y
_atom_site_fract_z
Si Si1 0.317613 0.151877 0.768638
Si Si2 0.756214 0.149979 0.650000
Si Si3 0.480567 0.343876 0.351522
Si Si4 0.001960 0.846625 0.096798
Si Si5 0.000000 0.753607 0.500000
Si Si6 0.383570 0.346917 0.887256
O O1 0.396950 0.252285 0.735418
O O2 0.401411 0.168168 0.633284
O O3 0.329096 0.000000 0.777473
O O4 0.145784 0.182189 0.926230
O O5 0.827747 0.187750 0.524431
O O6 0.632132 0.249640 0.785127
O O7 0.891364 0.161040 0.564900
O O8 0.701820 0.000000 0.698392
O O9 0.507883 0.500000 0.337537
O O10 0.494581 0.325567 0.273736
O O11 0.055242 0.829831 0.109512
O O12 0.960065 0.000000 0.127741
O O13 0.334730 0.500000 0.928165
O O14 0.250000 0.250000 0.000000
#
# Coordination Sequence:
#
# PCOD9185662 Si02
#       6
#     8   8   8   8   4   8
#     4  10  20  36  58  85 113 146 187 232 282 336
#     4  10  22  40  59  82 112 148 190 234 282 335
#     4   9  19  35  57  83 114 151 190 229 272 327
#     4  10  22  37  55  85 121 147 181 233 282 330
#     4  10  22  40  62  82 106 144 192 240 286 336
#     4  10  19  34  57  85 117 152 186 225 274 329
#
# _framework density 19.364705000000001
#
# number of rings (size 3 to 8) (size 9 to 14) (size 15 to 20)
#    0.000    2.182    1.818    0.545    0.000    7.273 
#    0.000    2.727    0.000    0.000    0.000    0.000 
#    0.000    0.000    0.000    0.000    0.000    0.000 
#
# Total GULP energy -122768.389748 kJ/mol
# GULP energy per Si atom -5580.381352 kJ/mol
# Density = 1.932063 g / cm^3
# Si number density = 19.364705 Si / 1000 Ang^3
#
#
#
# Elastic Constant Matrix: (Units=GPa)
#
#
# Indices 1 2 3 4 5 6 
#
# 1 38.3835 7.0961 31.8550 0.0000 15.4643 -0.0001
# 2 7.0961 63.6523 61.4662 -0.0015 -7.7606 0.0003
# 3 31.8550 61.4662 143.4135 -0.0018 11.1548 0.0008
# 4 0.0000 -0.0015 -0.0018 31.8678 0.0004 -3.3585
# 5 15.4643 -7.7606 11.1548 0.0004 27.8196 0.0000
# 6 -0.0001 0.0003 0.0008 -3.3585 0.0000 14.9076
#
#
#
# Elastic Compliance Matrix: (Units=1/GPa)
#
#
# Indices 1 2 3 4 5 6 
#
# 1 0.039933 0.000652 -0.007676 0.000000 -0.018938 0.000000
# 2 0.000652 0.031785 -0.014893 0.000001 0.014476 0.000000
# 3 -0.007676 -0.014893 0.015537 0.000000 -0.006117 0.000000
# 4 0.000000 0.000001 0.000000 0.032143 0.000000 0.007241
# 5 -0.018938 0.014476 -0.006117 0.000000 0.052964 0.000000
# 6 0.000000 0.000000 0.000000 0.007241 0.000000 0.068711
#
#
# Mechanical properties :
#
#
# Convention : Reuss Voigt Hill
#
# Bulk Modulus (GPa) = 23.03149 49.58708 36.30929
# Shear Modulus (GPa) = 16.70111 24.58780 20.64445
#
# Velocity S-wave (km/s) = 2.93994 3.56718 3.26864
# Velocity P-wave (km/s) = 4.84187 6.52908 5.74772
#
# Compressibility (1/GPa) = 0.04341882
#
# Stress axis : x y z
#
# Youngs Moduli (GPa) = 25.04198 31.46183 64.36271
#
# Poissons Ratio (x) = -0.02051 0.49407
# Poissons Ratio (y) = -0.01632 0.95858
# Poissons Ratio (z) = 0.19223 0.46857
#
# Static dielectric constant tensor:
#      x y z
#    x 1.686640 0.000000 0.041800 
#    y 0.000000 1.655520 0.000000 
#    z 0.041800 0.000000 1.683720 
# 
# From -- ./inp_files/368981.got.cif
#   From: 2010.05.17/outbox.cif.g08.bks.cpg/sg12_185_cif.got.tgz:368981.got - 2010.06.03 13:09:07.
