data_PCOD9185848
_publ_section_title
;
Structure prediction by ZEFSAII (Michael W. Deem and Ramdas Pophale) SiO2 
 PCOD9185848
Probable space group: C 2/M
;
_chemical_formula_sum "Si O2"
_cell_formula_units_Z 56
_cell_length_a 24.274423
_cell_length_b 7.517547
_cell_length_c 18.616654
_cell_angle_alpha 90.000000
_cell_angle_beta 44.195627
_cell_angle_gamma 90.000000
_cell_volume 2368.253821
_symmetry_space_group_name_H-M "C 2/M"
_symmetry_group_IT_number 12
_symmetry_cell_setting 'monoclinic'
loop_
_space_group_symop_operation_xyz
x,y,z
-x,y,-z
-x,-y,-z
x,-y,z
1/2+x,1/2+y,z
1/2-x,1/2+y,-z
1/2-x,1/2-y,-z
1/2+x,1/2-y,z
loop_
_atom_site_type_symbol
_atom_site_label
_atom_site_fract_x
_atom_site_fract_y
_atom_site_fract_z
Si Si1 0.627454 0.792689 0.186719
Si Si2 0.942851 0.216666 0.363509
Si Si3 0.165623 0.794956 0.666645
Si Si4 0.240722 0.202649 0.204096
Si Si5 0.369201 0.217727 0.973885
Si Si6 0.177578 0.796550 0.410409
Si Si7 0.470824 0.785306 0.105542
O O1 0.532830 0.777418 0.276916
O O2 0.669559 0.699273 0.213535
O O3 0.654178 0.722307 0.083702
O O4 0.649022 0.000000 0.171578
O O5 0.890080 0.276553 0.344832
O O6 0.897197 0.279001 0.477665
O O7 0.943238 0.000000 0.361829
O O8 0.248697 0.703153 0.603642
O O9 0.112182 0.783204 0.788313
O O10 0.183296 0.000000 0.634329
O O11 0.209585 0.287188 0.306771
O O12 0.265987 0.000000 0.199026
O O13 0.313314 0.280637 0.090613
O O14 0.459318 0.268112 0.905611
O O15 0.365990 0.000000 0.976462
O O16 0.156029 0.000000 0.412401
O O17 0.465500 0.000000 0.109531
O O18 0.500000 0.728143 0.000000
#
# Coordination Sequence:
#
# PCOD9185848 Si02
#       7
#     8   8   8   8   8   8   8
#     4  11  22  37  59  86 116 151 190 237 291 346
#     4  10  22  40  60  85 115 153 197 237 285 345
#     4  11  22  36  57  87 121 150 186 239 294 344
#     4  10  21  39  61  84 112 148 193 242 286 338
#     4   9  18  34  56  84 113 145 189 232 280 340
#     4  10  22  40  62  84 112 154 199 239 285 344
#     4  10  19  34  58  84 115 155 195 233 277 341
#
# _framework density 23.646113
#
# number of rings (size 3 to 8) (size 9 to 14) (size 15 to 20)
#    0.000    1.857    1.429    2.571    0.000    4.857 
#    0.000    4.286    0.000    0.000    0.000    0.000 
#    0.000    0.000    0.000    0.000    0.000    0.000 
#
# Total GULP energy -156580.878179 kJ/mol
# GULP energy per Si atom -5592.174221 kJ/mol
# Density = 2.359229 g / cm^3
# Si number density = 23.646113 Si / 1000 Ang^3
#
#
#
# Elastic Constant Matrix: (Units=GPa)
#
#
# Indices 1 2 3 4 5 6 
#
# 1 48.2067 -9.7812 -2.3724 -0.0031 0.8543 -0.0206
# 2 -9.7812 70.1885 -5.8390 0.0300 6.5814 -0.0228
# 3 -2.3724 -5.8390 130.9118 -0.0140 1.3493 -0.0157
# 4 -0.0031 0.0300 -0.0140 -4.5713 0.0056 -13.9141
# 5 0.8543 6.5814 1.3493 0.0056 28.3111 0.0115
# 6 -0.0206 -0.0228 -0.0157 -13.9141 0.0115 10.3078
#
#
#
# Elastic Compliance Matrix: (Units=1/GPa)
#
#
# Indices 1 2 3 4 5 6 
#
# 1 0.021438 0.003165 0.000544 -0.000031 -0.001409 0.000011
# 2 0.003165 0.015094 0.000768 -0.000009 -0.003641 0.000033
# 3 0.000544 0.000768 0.007689 -0.000013 -0.000561 -0.000002
# 4 -0.000031 -0.000009 -0.000013 -0.042820 0.000036 -0.057801
# 5 -0.001409 -0.003641 -0.000561 0.000036 0.036237 -0.000004
# 6 0.000011 0.000033 -0.000002 -0.057801 -0.000004 0.018990
#
#
# Mechanical properties :
#
#
# Convention : Reuss Voigt Hill
#
# Bulk Modulus (GPa) = 18.80600 23.70243 21.25422
# Shear Modulus (GPa) = 76.45495 24.62950 50.54222
#
# Velocity S-wave (km/s) = 5.69238 3.23086 4.62826
# Velocity P-wave (km/s) = 7.15364 4.89526 6.12936
#
# Compressibility (1/GPa) = 0.05317451
#
# Stress axis : x y z
#
# Youngs Moduli (GPa) = 46.64638 66.25278 130.06205
#
# Poissons Ratio (x) = -0.20968 -0.07078
# Poissons Ratio (y) = -0.14763 -0.09990
# Poissons Ratio (z) = -0.02538 -0.05089
#
# Static dielectric constant tensor:
#      x y z
#    x 1.863340 -0.000010 0.037630 
#    y -0.000010 1.979970 0.000010 
#    z 0.037630 0.000010 1.896280 
# 
# From -- ./inp_files/288225.got.cif
#   From: 2010.05.17/outbox.cif.g08.bks.cpg/sg12_145_cif.got.tgz:288225.got - 2010.06.03 13:09:07.
