data_PCOD9185944
_publ_section_title
;
Structure prediction by ZEFSAII (Michael W. Deem and Ramdas Pophale) SiO2 
 PCOD9185944
Probable space group: C 2/M
;
_chemical_formula_sum "Si O2"
_cell_formula_units_Z 48
_cell_length_a 26.331575
_cell_length_b 12.749163
_cell_length_c 14.803614
_cell_angle_alpha 90.000000
_cell_angle_beta 23.682262
_cell_angle_gamma 90.000000
_cell_volume 1996.133004
_symmetry_space_group_name_H-M "C 2/M"
_symmetry_group_IT_number 12
_symmetry_cell_setting 'monoclinic'
loop_
_space_group_symop_operation_xyz
x,y,z
-x,y,-z
-x,-y,-z
x,-y,z
1/2+x,1/2+y,z
1/2-x,1/2+y,-z
1/2-x,1/2-y,-z
1/2+x,1/2-y,z
loop_
_atom_site_type_symbol
_atom_site_label
_atom_site_fract_x
_atom_site_fract_y
_atom_site_fract_z
Si Si1 0.719296 0.121571 0.526048
Si Si2 0.394673 0.674482 0.093924
Si Si3 0.573841 0.887416 0.035137
Si Si4 0.975393 0.113415 0.768259
Si Si5 0.001412 0.319830 0.645524
Si Si6 0.817931 0.383315 0.800552
O O1 0.750000 0.250000 0.500000
O O2 0.776609 0.118606 0.331810
O O3 0.568327 0.118655 0.772685
O O4 0.756003 0.000000 0.503579
O O5 0.500000 0.677343 0.000000
O O6 0.356624 0.789892 0.122218
O O7 0.461972 0.623575 0.897714
O O8 0.554880 0.873751 0.173525
O O9 0.630144 0.000000 0.922608
O O10 0.048813 0.208217 0.604503
O O11 0.022815 0.000000 0.664727
O O12 0.830378 0.127039 0.971386
O O13 0.889482 0.308902 0.753876
O O14 0.113163 0.373658 0.408095
O O15 0.843742 0.500000 0.794701
#
# Coordination Sequence:
#
# PCOD9185944 Si02
#       6
#     8   8   8   8   8   8
#     4  11  23  40  59  84 114 152 194 241 288 341
#     4  11  22  38  59  84 112 152 199 235 285 337
#     4  10  21  38  60  85 119 151 189 239 293 343
#     4  10  22  37  55  80 113 149 185 232 281 333
#     4  10  19  34  58  87 111 142 189 231 278 336
#     4  10  19  35  60  84 109 143 184 227 279 337
#
# _framework density 24.046493999999999
#
# number of rings (size 3 to 8) (size 9 to 14) (size 15 to 20)
#    0.000    1.667    1.667    4.000    0.000    5.000 
#    0.000    1.667    0.000   12.000    0.000    0.000 
#    0.000    0.000    0.000    0.000    0.000    0.000 
#
# Total GULP energy -133898.319235 kJ/mol
# GULP energy per Si atom -5579.096635 kJ/mol
# Density = 2.399176 g / cm^3
# Si number density = 24.046494 Si / 1000 Ang^3
#
#
#
# Elastic Constant Matrix: (Units=GPa)
#
#
# Indices 1 2 3 4 5 6 
#
# 1 70.0047 33.2831 7.4606 0.0000 8.5340 0.0000
# 2 33.2831 170.5719 19.6581 0.0000 16.7015 0.0000
# 3 7.4606 19.6581 48.8728 0.0000 -1.0430 0.0000
# 4 0.0000 0.0000 0.0000 -2.5227 0.0000 -16.5202
# 5 8.5340 16.7015 -1.0430 0.0000 24.1707 0.0000
# 6 0.0000 0.0000 0.0000 -16.5202 0.0000 6.2252
#
#
#
# Elastic Compliance Matrix: (Units=1/GPa)
#
#
# Indices 1 2 3 4 5 6 
#
# 1 0.016162 -0.002590 -0.001511 0.000000 -0.003982 0.000000
# 2 -0.002590 0.007058 -0.002531 0.000000 -0.004072 0.000000
# 3 -0.001511 -0.002531 0.021779 0.000000 0.003222 0.000000
# 4 0.000000 0.000000 0.000000 -0.021569 0.000000 -0.057238
# 5 -0.003982 -0.004072 0.003222 0.000000 0.045731 0.000000
# 6 0.000000 0.000000 0.000000 -0.057238 0.000000 0.008741
#
#
# Mechanical properties :
#
#
# Convention : Reuss Voigt Hill
#
# Bulk Modulus (GPa) = 31.50851 45.58367 38.54609
# Shear Modulus (GPa) = 49.14321 20.84446 34.99384
#
# Velocity S-wave (km/s) = 4.52561 2.94741 3.81892
# Velocity P-wave (km/s) = 6.35923 5.52997 5.95904
#
# Compressibility (1/GPa) = 0.03173746
#
# Stress axis : x y z
#
# Youngs Moduli (GPa) = 61.87174 141.67684 45.91675
#
# Poissons Ratio (x) = 0.36690 0.06936
# Poissons Ratio (y) = 0.16023 0.11620
# Poissons Ratio (z) = 0.09346 0.35853
#
# Static dielectric constant tensor:
#      x y z
#    x 1.930960 0.000000 -0.026800 
#    y 0.000000 2.041730 0.000000 
#    z -0.026800 0.000000 1.912110 
# 
# From -- ./inp_files/212517.got.cif
#   From: 2010.05.17/outbox.cif.g08.bks.cpg/sg12_107_cif.got.tgz:212517.got - 2010.06.03 13:09:07.
