data_PCOD9185061
_publ_section_title
;
Structure prediction by ZEFSAII (Michael W. Deem and Ramdas Pophale) SiO2 
 PCOD9185061
Probable space group: C 2/M
;
_chemical_formula_sum "Si O2"
_cell_formula_units_Z 64
_cell_length_a 29.784024
_cell_length_b 8.058492
_cell_length_c 15.601851
_cell_angle_alpha 90.000000
_cell_angle_beta 127.003154
_cell_angle_gamma 90.000000
_cell_volume 2990.500495
_symmetry_space_group_name_H-M "C 2/M"
_symmetry_group_IT_number 12
_symmetry_cell_setting 'monoclinic'
loop_
_space_group_symop_operation_xyz
x,y,z
-x,y,-z
-x,-y,-z
x,-y,z
1/2+x,1/2+y,z
1/2-x,1/2+y,-z
1/2-x,1/2-y,-z
1/2+x,1/2-y,z
loop_
_atom_site_type_symbol
_atom_site_label
_atom_site_fract_x
_atom_site_fract_y
_atom_site_fract_z
Si Si1 0.828655 0.701214 0.820042
Si Si2 0.929189 0.196736 0.166672
Si Si3 0.208784 0.302284 0.740752
Si Si4 0.952694 0.698082 0.011565
Si Si5 0.007360 0.701167 0.410441
Si Si6 0.368932 0.797385 0.504697
Si Si7 0.187520 0.804622 0.903160
Si Si8 0.810405 0.300189 0.605068
O O1 0.828527 0.500000 0.821750
O O2 0.774598 0.758279 0.811302
O O3 0.819905 0.759993 0.712103
O O4 0.889597 0.761758 0.920447
O O5 0.961848 0.270218 0.122618
O O6 0.865483 0.266488 0.104802
O O7 0.961495 0.232516 0.291827
O O8 0.926423 0.000000 0.150036
O O9 0.203500 0.500000 0.737841
O O10 0.176976 0.241831 0.618426
O O11 0.181150 0.233125 0.795087
O O12 0.950904 0.500000 0.996303
O O13 0.000000 0.763358 0.000000
O O14 0.004331 0.500000 0.404847
O O15 0.069157 0.753215 0.451189
O O16 0.000000 0.754243 0.500000
O O17 0.353824 0.741157 0.582808
O O18 0.367202 0.000000 0.502542
O O19 0.185697 0.000000 0.914024
O O20 0.250000 0.750000 0.000000
O O21 0.813490 0.500000 0.612148
O O22 0.750000 0.250000 0.500000
#
# Coordination Sequence:
#
# PCOD9185061 Si02
#       8
#     8   8   8   8   8   8   8   8
#     4  10  21  36  58  87 120 156 202 253 302 354
#     4  11  25  43  62  90 126 161 196 249 311 363
#     4  11  21  36  60  89 120 155 193 239 297 357
#     4  10  23  42  65  89 115 159 212 257 299 352
#     4  10  21  39  65  92 120 159 205 250 294 353
#     4   9  19  34  56  85 117 152 196 243 289 346
#     4  11  24  41  62  88 119 153 194 242 296 355
#     4  10  19  34  55  83 119 156 196 246 298 352
#
# _framework density 21.4011
#
# number of rings (size 3 to 8) (size 9 to 14) (size 15 to 20)
#    0.000    1.750    1.250    2.625    1.750    6.000 
#    0.000    1.875    0.000    0.000    0.000    0.000 
#    0.000    0.000    0.000    0.000    0.000    0.000 
#
# Total GULP energy -178824.678797 kJ/mol
# GULP energy per Si atom -5588.271212 kJ/mol
# Density = 2.135239 g / cm^3
# Si number density = 21.401100 Si / 1000 Ang^3
#
#
#
# Elastic Constant Matrix: (Units=GPa)
#
#
# Indices 1 2 3 4 5 6 
#
# 1 154.5923 0.9492 22.2915 0.0000 -4.8976 0.0000
# 2 0.9492 13.8765 -6.9041 0.0000 4.9862 0.0000
# 3 22.2915 -6.9041 69.8192 0.0000 -2.5005 0.0000
# 4 0.0000 0.0000 0.0000 25.4015 0.0000 0.2983
# 5 -4.8976 4.9862 -2.5005 0.0000 38.2058 0.0000
# 6 0.0000 0.0000 0.0000 0.2983 0.0000 18.7306
#
#
#
# Elastic Compliance Matrix: (Units=1/GPa)
#
#
# Indices 1 2 3 4 5 6 
#
# 1 0.006851 -0.001991 -0.002349 0.000000 0.000984 0.000000
# 2 -0.001991 0.079915 0.008175 0.000000 -0.010150 0.000000
# 3 -0.002349 0.008175 0.015869 0.000000 -0.000329 0.000000
# 4 0.000000 0.000000 0.000000 0.039375 0.000000 -0.000627
# 5 0.000984 -0.010150 -0.000329 0.000000 0.027603 0.000000
# 6 0.000000 0.000000 0.000000 -0.000627 0.000000 0.053398
#
#
# Mechanical properties :
#
#
# Convention : Reuss Voigt Hill
#
# Bulk Modulus (GPa) = 9.06585 30.10679 19.58632
# Shear Modulus (GPa) = 19.83262 31.26436 25.54849
#
# Velocity S-wave (km/s) = 3.04749 3.82629 3.45888
# Velocity P-wave (km/s) = 4.07778 5.79819 5.01235
#
# Compressibility (1/GPa) = 0.11030400
#
# Stress axis : x y z
#
# Youngs Moduli (GPa) = 145.96977 12.51336 63.01512
#
# Poissons Ratio (x) = 0.02491 0.14802
# Poissons Ratio (y) = 0.29062 -0.51512
# Poissons Ratio (z) = 0.34287 -0.10229
#
# Static dielectric constant tensor:
#      x y z
#    x 1.766850 0.000000 -0.024580 
#    y 0.000000 1.768570 0.000000 
#    z -0.024580 0.000000 1.753850 
# 
# From -- ./inp_files/250121.got.cif
#   From: 2010.05.17/outbox.cif.g08.bks.cpg/sg12_126_cif.got.tgz:250121.got - 2010.06.03 13:09:07.
