data_PCOD9185244
_publ_section_title
;
Structure prediction by ZEFSAII (Michael W. Deem and Ramdas Pophale) SiO2 
 PCOD9185244
Probable space group: C 2/M
;
_chemical_formula_sum "Si O2"
_cell_formula_units_Z 48
_cell_length_a 14.945543
_cell_length_b 15.090151
_cell_length_c 28.371314
_cell_angle_alpha 90.000000
_cell_angle_beta 160.428128
_cell_angle_gamma 90.000000
_cell_volume 2143.459805
_symmetry_space_group_name_H-M "C 2/M"
_symmetry_group_IT_number 12
_symmetry_cell_setting 'monoclinic'
loop_
_space_group_symop_operation_xyz
x,y,z
-x,y,-z
-x,-y,-z
x,-y,z
1/2+x,1/2+y,z
1/2-x,1/2+y,-z
1/2-x,1/2-y,-z
1/2+x,1/2-y,z
loop_
_atom_site_type_symbol
_atom_site_label
_atom_site_fract_x
_atom_site_fract_y
_atom_site_fract_z
Si Si1 0.150420 0.743120 0.617029
Si Si2 0.210782 0.898855 0.525856
Si Si3 0.209652 0.650068 0.997552
Si Si4 0.272689 0.099392 0.263256
Si Si5 0.709321 0.278419 0.862044
Si Si6 0.638728 0.600282 0.737190
O O1 0.181072 0.677223 0.676112
O O2 0.446777 0.772965 0.748453
O O3 0.000000 0.692787 0.500000
O O4 0.960510 0.825563 0.533296
O O5 0.527987 0.882181 0.681104
O O6 0.108298 0.891398 0.420764
O O7 0.160528 0.000000 0.516414
O O8 0.456849 0.600046 0.097012
O O9 0.245040 0.651797 0.072116
O O10 0.250000 0.750000 0.000000
O O11 0.909771 0.616868 0.841452
O O12 0.342416 0.000000 0.314891
O O13 0.637653 0.329845 0.778722
O O14 0.000000 0.233868 0.000000
O O15 0.648119 0.500000 0.760385
#
# Coordination Sequence:
#
# PCOD9185244 Si02
#       6
#     8   8   8   8   8   8
#     4  11  22  36  58  83 113 152 191 238 291 344
#     4  10  22  39  58  82 115 155 198 240 283 339
#     4  10  20  34  54  80 115 151 183 224 275 343
#     4  10  21  37  58  86 117 149 188 236 289 343
#     4   9  20  33  50  80 110 141 180 228 283 337
#     4  10  19  34  56  81 112 149 188 234 289 344
#
# _framework density 22.393702999999999
#
# number of rings (size 3 to 8) (size 9 to 14) (size 15 to 20)
#    0.000    2.000    0.000    4.000    0.000    9.000 
#    0.000    0.000    0.000    0.500    0.000    0.000 
#    0.000    0.000    0.000    0.000    0.000    0.000 
#
# Total GULP energy -134013.281466 kJ/mol
# GULP energy per Si atom -5583.886728 kJ/mol
# Density = 2.234273 g / cm^3
# Si number density = 22.393703 Si / 1000 Ang^3
#
#
#
# Elastic Constant Matrix: (Units=GPa)
#
#
# Indices 1 2 3 4 5 6 
#
# 1 57.6523 35.9342 26.5859 -0.0026 29.8607 -0.0028
# 2 35.9342 91.9040 13.6151 0.0049 22.5040 0.0020
# 3 26.5859 13.6151 106.6464 0.0073 50.7809 -0.0282
# 4 -0.0026 0.0049 0.0073 29.5435 -0.0171 10.9213
# 5 29.8607 22.5040 50.7809 -0.0171 52.8473 0.0037
# 6 -0.0028 0.0020 -0.0282 10.9213 0.0037 -0.6499
#
#
#
# Elastic Compliance Matrix: (Units=1/GPa)
#
#
# Indices 1 2 3 4 5 6 
#
# 1 0.029213 -0.008247 -0.000078 0.000011 -0.012920 -0.000039
# 2 -0.008247 0.014642 0.001727 0.000000 -0.003234 -0.000015
# 3 -0.000078 0.001727 0.017522 0.000042 -0.017528 -0.000153
# 4 0.000011 0.000000 0.000042 0.004693 -0.000050 0.078867
# 5 -0.012920 -0.003234 -0.017528 -0.000050 0.044442 0.000215
# 6 -0.000039 -0.000015 -0.000153 0.078867 0.000215 -0.213345
#
#
# Mechanical properties :
#
#
# Convention : Reuss Voigt Hill
#
# Bulk Modulus (GPa) = 20.75540 45.38594 33.07067
# Shear Modulus (GPa) = -67.95743 28.35267 -19.80238
#
# Velocity S-wave (km/s) = -5.51476 3.56209 -2.97692
# Velocity P-wave (km/s) = 5.59120 6.10158 1.72739
#
# Compressibility (1/GPa) = 0.04818022
#
# Stress axis : x y z
#
# Youngs Moduli (GPa) = 34.23076 68.29834 57.07169
#
# Poissons Ratio (x) = 0.56327 0.00444
# Poissons Ratio (y) = 0.28231 -0.09854
# Poissons Ratio (z) = 0.00266 -0.11792
#
# Static dielectric constant tensor:
#      x y z
#    x 1.872460 0.000000 0.005010 
#    y 0.000000 1.823520 0.000000 
#    z 0.005010 0.000000 1.889480 
# 
# From -- ./inp_files/142733.got.cif
#   From: 2010.05.17/outbox.cif.g08.bks.cpg/sg12_72_cif.got.tgz:142733.got - 2010.06.03 13:09:07.
