data_PCOD9185911
_publ_section_title
;
Structure prediction by ZEFSAII (Michael W. Deem and Ramdas Pophale) SiO2 
 PCOD9185911
Probable space group: C 2/M
;
_chemical_formula_sum "Si O2"
_cell_formula_units_Z 56
_cell_length_a 16.649159
_cell_length_b 15.467316
_cell_length_c 17.105401
_cell_angle_alpha 90.000000
_cell_angle_beta 37.954919
_cell_angle_gamma 90.000000
_cell_volume 2709.223140
_symmetry_space_group_name_H-M "C 2/M"
_symmetry_group_IT_number 12
_symmetry_cell_setting 'monoclinic'
loop_
_space_group_symop_operation_xyz
x,y,z
-x,y,-z
-x,-y,-z
x,-y,z
1/2+x,1/2+y,z
1/2-x,1/2+y,-z
1/2-x,1/2-y,-z
1/2+x,1/2-y,z
loop_
_atom_site_type_symbol
_atom_site_label
_atom_site_fract_x
_atom_site_fract_y
_atom_site_fract_z
Si Si1 0.656492 0.831887 0.051918
Si Si2 0.095566 0.402891 0.269149
Si Si3 0.806579 0.595721 0.433440
Si Si4 0.641165 0.783124 0.748472
Si Si5 0.120596 0.096214 0.209606
Si Si6 0.607043 0.405452 0.726976
Si Si7 0.888490 0.770411 0.652339
O O1 0.641389 0.882308 0.145519
O O2 0.511484 0.808710 0.132306
O O3 0.750000 0.750000 0.000000
O O4 0.731594 0.885557 0.928486
O O5 0.134841 0.500000 0.262005
O O6 0.133918 0.325758 0.297051
O O7 0.938263 0.399343 0.383268
O O8 0.807467 0.500000 0.393647
O O9 0.808796 0.672917 0.370245
O O10 0.688413 0.598294 0.584023
O O11 0.643810 0.679290 0.745141
O O12 0.750587 0.808086 0.727350
O O13 0.070653 0.169133 0.306712
O O14 0.040947 0.101197 0.189512
O O15 0.101738 0.000000 0.256396
O O16 0.629488 0.500000 0.745987
O O17 0.000000 0.770033 0.500000
#
# Coordination Sequence:
#
# PCOD9185911 Si02
#       7
#     8   8   8   8   8   8   8
#     4  11  20  42  66  85 113 150 210 258 290 338
#     4  10  21  39  64  89 119 160 202 249 295 346
#     4   9  18  34  58  85 112 150 205 252 289 339
#     4  11  22  35  59  85 119 158 193 242 298 352
#     4  11  23  41  64  88 118 158 201 251 301 349
#     4  10  19  34  58  86 113 151 202 250 293 343
#     4  12  25  39  58  91 131 164 192 234 302 371
#
# _framework density 20.670131999999999
#
# number of rings (size 3 to 8) (size 9 to 14) (size 15 to 20)
#    0.000    1.429    2.857    3.429    0.000    2.857 
#    0.000    0.714    0.000    0.857    0.000    0.000 
#    0.000    0.000    0.000    0.000    0.000    0.000 
#
# Total GULP energy -156269.002817 kJ/mol
# GULP energy per Si atom -5581.035815 kJ/mol
# Density = 2.062309 g / cm^3
# Si number density = 20.670132 Si / 1000 Ang^3
#
#
#
# Elastic Constant Matrix: (Units=GPa)
#
#
# Indices 1 2 3 4 5 6 
#
# 1 51.2649 3.6174 7.0098 0.0000 -8.8121 0.0000
# 2 3.6174 85.7106 12.7021 0.0000 0.9840 0.0000
# 3 7.0098 12.7021 77.6585 0.0000 -6.6139 0.0001
# 4 0.0000 0.0000 0.0000 6.9811 0.0000 -5.8583
# 5 -8.8121 0.9840 -6.6139 0.0000 17.9500 -0.0001
# 6 0.0000 0.0000 0.0001 -5.8583 -0.0001 -8.3812
#
#
#
# Elastic Compliance Matrix: (Units=1/GPa)
#
#
# Indices 1 2 3 4 5 6 
#
# 1 0.021455 -0.000887 -0.000919 0.000000 0.010243 0.000000
# 2 -0.000887 0.012029 -0.002045 0.000000 -0.001848 0.000000
# 3 -0.000919 -0.002045 0.013695 0.000000 0.004707 0.000000
# 4 0.000000 0.000000 0.000000 0.090285 -0.000001 -0.063108
# 5 0.010243 -0.001848 0.004707 -0.000001 0.062575 0.000000
# 6 0.000000 0.000000 0.000000 -0.063108 0.000000 -0.075204
#
#
# Mechanical properties :
#
#
# Convention : Reuss Voigt Hill
#
# Bulk Modulus (GPa) = 25.33084 29.03254 27.18169
# Shear Modulus (GPa) = 34.31779 16.06363 25.19071
#
# Velocity S-wave (km/s) = 4.07905 2.79075 3.49478
# Velocity P-wave (km/s) = 5.87080 4.94576 5.42802
#
# Compressibility (1/GPa) = 0.03947757
#
# Stress axis : x y z
#
# Youngs Moduli (GPa) = 46.60812 83.13342 73.01826
#
# Poissons Ratio (x) = 0.07373 0.06712
# Poissons Ratio (y) = 0.04134 0.14931
# Poissons Ratio (z) = 0.04284 0.16999
#
# Static dielectric constant tensor:
#      x y z
#    x 1.724130 0.000000 -0.030140 
#    y 0.000000 1.774470 0.000000 
#    z -0.030140 0.000000 1.766840 
# 
# From -- ./inp_files/277817.got.cif
#   From: 2010.05.17/outbox.cif.g08.bks.cpg/sg12_139_cif.got.tgz:277817.got - 2010.06.03 13:09:07.
