data_PCOD9185164
_publ_section_title
;
Structure prediction by ZEFSAII (Michael W. Deem and Ramdas Pophale) SiO2 
 PCOD9185164
Probable space group: C 2/M
;
_chemical_formula_sum "Si O2"
_cell_formula_units_Z 60
_cell_length_a 15.022971
_cell_length_b 8.948373
_cell_length_c 22.023682
_cell_angle_alpha 90.000000
_cell_angle_beta 71.598558
_cell_angle_gamma 90.000000
_cell_volume 2809.284135
_symmetry_space_group_name_H-M "C 2/M"
_symmetry_group_IT_number 12
_symmetry_cell_setting 'monoclinic'
loop_
_space_group_symop_operation_xyz
x,y,z
-x,y,-z
-x,-y,-z
x,-y,z
1/2+x,1/2+y,z
1/2-x,1/2+y,-z
1/2-x,1/2-y,-z
1/2+x,1/2-y,z
loop_
_atom_site_type_symbol
_atom_site_label
_atom_site_fract_x
_atom_site_fract_y
_atom_site_fract_z
Si Si1 0.694108 0.180445 0.139928
Si Si2 0.895235 0.820940 0.094361
Si Si3 0.000000 0.755377 0.500000
Si Si4 0.398671 0.321008 0.948710
Si Si5 0.520922 0.817942 0.258661
Si Si6 0.177211 0.678151 0.675831
Si Si7 0.378949 0.171492 0.640979
Si Si8 0.335294 0.669461 0.448008
O O1 0.795917 0.234340 0.141247
O O2 0.675983 0.236165 0.075835
O O3 0.605182 0.234008 0.197633
O O4 0.695372 0.000000 0.140659
O O5 0.996806 0.764784 0.092848
O O6 0.898580 0.000000 0.102749
O O7 0.890825 0.797090 0.022441
O O8 0.933240 0.677449 0.564857
O O9 0.924197 0.835814 0.473553
O O10 0.391610 0.500000 0.940402
O O11 0.414582 0.768789 0.266678
O O12 0.553582 0.773718 0.319488
O O13 0.519084 0.000000 0.257007
O O14 0.183202 0.500000 0.678060
O O15 0.280415 0.742819 0.664183
O O16 0.149546 0.729942 0.614094
O O17 0.356500 0.000000 0.659126
O O18 0.310134 0.500000 0.435629
O O19 0.250000 0.750000 0.500000
#
# Coordination Sequence:
#
# PCOD9185164 Si02
#       8
#     8   8   4   8   8   8   8   8
#     4  10  19  34  56  79 108 150 192 228 275 334
#     4   8  16  31  53  80 112 150 184 224 279 338
#     4  12  24  38  64  90 120 140 184 232 290 334
#     4   9  17  32  53  81 114 145 184 231 281 329
#     4   9  21  40  57  78 112 151 189 229 281 340
#     4  11  23  41  60  82 113 148 185 234 285 333
#     4  11  23  40  62  87 112 148 189 232 286 347
#     4  12  25  40  61  90 119 147 182 227 284 345
#
# _framework density 21.357754
#
# number of rings (size 3 to 8) (size 9 to 14) (size 15 to 20)
#    0.000    1.867    2.667    2.400    0.000    2.667 
#    0.000    5.333    0.000    0.000    0.000    0.000 
#    0.000    0.000    0.000    0.000    0.000    0.000 
#
# Total GULP energy -167270.994504 kJ/mol
# GULP energy per Si atom -5575.699817 kJ/mol
# Density = 2.130914 g / cm^3
# Si number density = 21.357754 Si / 1000 Ang^3
#
#
#
# Elastic Constant Matrix: (Units=GPa)
#
#
# Indices 1 2 3 4 5 6 
#
# 1 150.8351 26.6226 14.5608 0.0000 -37.0727 0.0000
# 2 26.6226 26.2681 1.1199 0.0000 -12.4360 0.0000
# 3 14.5608 1.1199 32.5248 0.0000 -25.6550 0.0000
# 4 0.0000 0.0000 0.0000 8.3118 0.0000 13.1575
# 5 -37.0727 -12.4360 -25.6550 0.0000 43.0255 0.0000
# 6 0.0000 0.0000 0.0000 13.1575 0.0000 -1.7987
#
#
#
# Elastic Compliance Matrix: (Units=1/GPa)
#
#
# Indices 1 2 3 4 5 6 
#
# 1 0.009337 -0.006027 0.001887 0.000000 0.007428 0.000000
# 2 -0.006027 0.052974 0.016719 0.000000 0.020088 0.000000
# 3 0.001887 0.016719 0.064983 0.000000 0.045206 0.000000
# 4 0.000000 0.000000 0.000000 0.009564 0.000000 0.069961
# 5 0.007428 0.020088 0.045206 0.000000 0.062404 0.000000
# 6 0.000000 0.000000 0.000000 0.069961 0.000000 -0.044195
#
#
# Mechanical properties :
#
#
# Convention : Reuss Voigt Hill
#
# Bulk Modulus (GPa) = 6.55942 32.69272 19.62607
# Shear Modulus (GPa) = 27.66608 21.06269 24.36438
#
# Velocity S-wave (km/s) = 3.60302 3.14376 3.38120
# Velocity P-wave (km/s) = 4.51519 5.34023 4.94495
#
# Compressibility (1/GPa) = 0.15245259
#
# Stress axis : x y z
#
# Youngs Moduli (GPa) = 107.09945 18.87704 15.38864
#
# Poissons Ratio (x) = 0.11377 -0.02904
# Poissons Ratio (y) = 0.64546 -0.25728
# Poissons Ratio (z) = -0.20208 -0.31560
#
# Static dielectric constant tensor:
#      x y z
#    x 1.803920 0.000000 -0.043190 
#    y 0.000000 1.718110 0.000000 
#    z -0.043190 0.000000 1.816160 
# 
# From -- ./inp_files/338654.got.cif
#   From: 2010.05.17/outbox.cif.g08.bks.cpg/sg12_170_cif.got.tgz:338654.got - 2010.06.03 13:09:07.
