data_PCOD9185865
_publ_section_title
;
Structure prediction by ZEFSAII (Michael W. Deem and Ramdas Pophale) SiO2 
 PCOD9185865
Probable space group: C 2/M
;
_chemical_formula_sum "Si O2"
_cell_formula_units_Z 64
_cell_length_a 36.512370
_cell_length_b 10.099198
_cell_length_c 21.318759
_cell_angle_alpha 90.000000
_cell_angle_beta 154.601861
_cell_angle_gamma 90.000000
_cell_volume 3371.714100
_symmetry_space_group_name_H-M "C 2/M"
_symmetry_group_IT_number 12
_symmetry_cell_setting 'monoclinic'
loop_
_space_group_symop_operation_xyz
x,y,z
-x,y,-z
-x,-y,-z
x,-y,z
1/2+x,1/2+y,z
1/2-x,1/2+y,-z
1/2-x,1/2-y,-z
1/2+x,1/2-y,z
loop_
_atom_site_type_symbol
_atom_site_label
_atom_site_fract_x
_atom_site_fract_y
_atom_site_fract_z
Si Si1 0.795957 0.346770 0.785711
Si Si2 0.684075 0.657036 0.861229
Si Si3 0.168558 0.839011 0.691708
Si Si4 0.131787 0.852029 0.285026
Si Si5 0.017650 0.654962 0.929225
Si Si6 0.476764 0.853665 0.719907
Si Si7 0.799037 0.248167 0.477818
Si Si8 0.501928 0.344230 0.647209
O O1 0.185674 0.500000 0.171134
O O2 0.746573 0.289117 0.769176
O O3 0.732312 0.337677 0.628953
O O4 0.888227 0.291831 0.909457
O O5 0.707758 0.500000 0.901055
O O6 0.678282 0.697383 0.779170
O O7 0.590071 0.669394 0.745949
O O8 0.750000 0.750000 0.000000
O O9 0.078750 0.801371 0.520517
O O10 0.169951 0.000000 0.692025
O O11 0.058965 0.742382 0.162389
O O12 0.162720 0.834653 0.405142
O O13 0.216553 0.824455 0.376090
O O14 0.099758 0.000000 0.225011
O O15 0.006116 0.500000 0.929184
O O16 0.013144 0.662743 0.846302
O O17 0.374845 0.841654 0.571606
O O18 0.504091 0.742364 0.713358
O O19 0.500432 0.000000 0.733638
O O20 0.490132 0.500000 0.644101
#
# Coordination Sequence:
#
# PCOD9185865 Si02
#       8
#     8   8   8   8   8   8   8   8
#     4  10  19  34  58  85 109 144 193 237 274 322
#     4  10  22  38  60  87 118 151 186 229 279 332
#     4   9  18  35  60  84 110 146 192 235 273 319
#     4  10  21  37  58  82 112 149 184 228 287 342
#     4   9  21  37  54  80 113 146 188 234 277 333
#     4  10  20  35  56  83 114 148 181 225 286 339
#     4  10  20  35  58  83 110 142 191 237 275 331
#     4  10  20  36  59  86 111 144 191 236 272 323
#
# _framework density 18.981444
#
# number of rings (size 3 to 8) (size 9 to 14) (size 15 to 20)
#    0.000    2.250    1.250    1.125    1.750    8.000 
#    0.000    3.750    0.000    1.500    0.000    0.000 
#    0.000    0.000    0.000    0.000    0.000    0.000 
#
# Total GULP energy -178528.527079 kJ/mol
# GULP energy per Si atom -5579.016471 kJ/mol
# Density = 1.893824 g / cm^3
# Si number density = 18.981444 Si / 1000 Ang^3
#
#
#
# Elastic Constant Matrix: (Units=GPa)
#
#
# Indices 1 2 3 4 5 6 
#
# 1 93.7683 25.6554 12.6428 0.0000 0.9714 0.0000
# 2 25.6554 61.3012 13.6345 0.0000 4.7995 0.0000
# 3 12.6428 13.6345 72.2644 0.0000 7.4889 0.0000
# 4 0.0000 0.0000 0.0000 19.2214 0.0000 1.6228
# 5 0.9714 4.7995 7.4889 0.0000 21.4701 0.0000
# 6 0.0000 0.0000 0.0000 1.6228 0.0000 13.6795
#
#
#
# Elastic Compliance Matrix: (Units=1/GPa)
#
#
# Indices 1 2 3 4 5 6 
#
# 1 0.012166 -0.004878 -0.001311 0.000000 0.000997 0.000000
# 2 -0.004878 0.019145 -0.002426 0.000000 -0.003213 0.000000
# 3 -0.001311 -0.002426 0.015005 0.000000 -0.004632 0.000000
# 4 0.000000 0.000000 0.000000 0.052552 0.000000 -0.006234
# 5 0.000997 -0.003213 -0.004632 0.000000 0.048865 0.000000
# 6 0.000000 0.000000 0.000000 -0.006234 0.000000 0.073842
#
#
# Mechanical properties :
#
#
# Convention : Reuss Voigt Hill
#
# Bulk Modulus (GPa) = 34.38088 36.79992 35.59040
# Shear Modulus (GPa) = 20.12063 22.56760 21.34412
#
# Velocity S-wave (km/s) = 3.25932 3.45183 3.35695
# Velocity P-wave (km/s) = 5.68475 5.94274 5.81518
#
# Compressibility (1/GPa) = 0.02908594
#
# Stress axis : x y z
#
# Youngs Moduli (GPa) = 82.19838 52.23162 66.64320
#
# Poissons Ratio (x) = 0.25478 0.08740
# Poissons Ratio (y) = 0.40096 0.16167
# Poissons Ratio (z) = 0.10780 0.12671
#
# Static dielectric constant tensor:
#      x y z
#    x 1.662850 0.000000 0.011060 
#    y 0.000000 1.647220 0.000000 
#    z 0.011060 0.000000 1.663730 
# 
# From -- ./inp_files/296507.got.cif
#   From: 2010.05.17/outbox.cif.g08.bks.cpg/sg12_149_cif.got.tgz:296507.got - 2010.06.03 13:09:07.
