data_PCOD9185317
_publ_section_title
;
Structure prediction by ZEFSAII (Michael W. Deem and Ramdas Pophale) SiO2 
 PCOD9185317
Probable space group: C 2/M
;
_chemical_formula_sum "Si O2"
_cell_formula_units_Z 56
_cell_length_a 32.222457
_cell_length_b 8.597565
_cell_length_c 11.534937
_cell_angle_alpha 90.000000
_cell_angle_beta 117.587285
_cell_angle_gamma 90.000000
_cell_volume 2832.260653
_symmetry_space_group_name_H-M "C 2/M"
_symmetry_group_IT_number 12
_symmetry_cell_setting 'monoclinic'
loop_
_space_group_symop_operation_xyz
x,y,z
-x,y,-z
-x,-y,-z
x,-y,z
1/2+x,1/2+y,z
1/2-x,1/2+y,-z
1/2-x,1/2-y,-z
1/2+x,1/2-y,z
loop_
_atom_site_type_symbol
_atom_site_label
_atom_site_fract_x
_atom_site_fract_y
_atom_site_fract_z
Si Si1 0.806792 0.813983 0.836060
Si Si2 0.106018 0.311850 0.641598
Si Si3 0.296819 0.188574 0.350809
Si Si4 0.154377 0.313320 0.353261
Si Si5 0.437418 0.686179 0.639545
Si Si6 0.113327 0.314552 0.912977
Si Si7 0.523056 0.687202 0.908300
O O1 0.753234 0.755788 0.758777
O O2 0.832172 0.762339 0.750441
O O3 0.972182 0.000000 0.083181
O O4 0.836863 0.748827 0.980843
O O5 0.103103 0.500000 0.631480
O O6 0.158231 0.265146 0.666844
O O7 0.070534 0.242573 0.501759
O O8 0.099929 0.261629 0.766021
O O9 0.308556 0.233800 0.498340
O O10 0.295690 0.000000 0.347745
O O11 0.154693 0.500000 0.342862
O O12 0.104135 0.259900 0.337053
O O13 0.433048 0.500000 0.639634
O O14 0.486954 0.730395 0.759498
O O15 0.115349 0.500000 0.915026
O O16 0.073345 0.259017 0.949084
O O17 0.306474 0.500000 0.841910
O O18 0.500000 0.735578 0.000000
#
# Coordination Sequence:
#
# PCOD9185317 Si02
#       7
#     8   8   8   8   8   8   8
#     4  11  21  34  54  80 112 149 188 230 277 325
#     4   9  20  40  59  79 111 147 186 229 274 326
#     4   8  17  34  56  80 109 147 185 225 272 324
#     4  10  19  34  56  83 116 148 182 226 275 330
#     4  10  20  35  59  87 112 144 185 228 275 325
#     4  11  24  39  57  81 110 146 187 231 277 329
#     4  10  22  40  60  83 113 145 177 221 276 333
#
# _framework density 19.772193000000001
#
# number of rings (size 3 to 8) (size 9 to 14) (size 15 to 20)
#    0.000    2.143    0.000    3.857    0.000    4.857 
#    0.000    9.286    0.000    0.000    0.000    0.000 
#    0.000    0.000    0.000    0.000    0.000    0.000 
#
# Total GULP energy -156404.776375 kJ/mol
# GULP energy per Si atom -5585.884871 kJ/mol
# Density = 1.972719 g / cm^3
# Si number density = 19.772193 Si / 1000 Ang^3
#
#
#
# Elastic Constant Matrix: (Units=GPa)
#
#
# Indices 1 2 3 4 5 6 
#
# 1 26.9834 8.8995 23.6905 0.0000 3.5611 0.0000
# 2 8.8995 27.8737 25.1786 0.0000 3.9876 0.0000
# 3 23.6905 25.1786 97.9283 0.0000 10.1017 0.0000
# 4 0.0000 0.0000 0.0000 31.9565 0.0000 -1.2918
# 5 3.5611 3.9876 10.1017 0.0000 38.2281 0.0000
# 6 0.0000 0.0000 0.0000 -1.2918 0.0000 16.7600
#
#
#
# Elastic Compliance Matrix: (Units=1/GPa)
#
#
# Indices 1 2 3 4 5 6 
#
# 1 0.047938 -0.006213 -0.009875 0.000000 -0.001208 0.000000
# 2 -0.006213 0.047648 -0.010583 0.000000 -0.001595 0.000000
# 3 -0.009875 -0.010583 0.015536 0.000000 -0.002082 0.000000
# 4 0.000000 0.000000 0.000000 0.031390 0.000000 0.002419
# 5 -0.001208 -0.001595 -0.002082 0.000000 0.026988 0.000000
# 6 0.000000 0.000000 0.000000 0.002419 0.000000 0.059852
#
#
# Mechanical properties :
#
#
# Convention : Reuss Voigt Hill
#
# Bulk Modulus (GPa) = 17.30697 29.81362 23.56030
# Shear Modulus (GPa) = 16.55874 23.72338 20.14106
#
# Velocity S-wave (km/s) = 2.89706 3.46762 3.19510
# Velocity P-wave (km/s) = 4.46797 5.58067 5.05503
#
# Compressibility (1/GPa) = 0.05778018
#
# Stress axis : x y z
#
# Youngs Moduli (GPa) = 20.86017 20.98725 64.36516
#
# Poissons Ratio (x) = 0.13039 0.63561
# Poissons Ratio (y) = 0.12960 0.68120
# Poissons Ratio (z) = 0.20600 0.22212
#
# Static dielectric constant tensor:
#      x y z
#    x 1.671320 0.000000 0.004240 
#    y 0.000000 1.668640 0.000000 
#    z 0.004240 0.000000 1.704990 
# 
# From -- ./inp_files/187740.got.cif
#   From: 2010.05.17/outbox.cif.g08.bks.cpg/sg12_94_cif.got.tgz:187740.got - 2010.06.03 13:09:07.
