data_PCOD9185413
_publ_section_title
;
Structure prediction by ZEFSAII (Michael W. Deem and Ramdas Pophale) SiO2 
 PCOD9185413
Probable space group: C 2/M
;
_chemical_formula_sum "Si O2"
_cell_formula_units_Z 48
_cell_length_a 18.767015
_cell_length_b 7.807179
_cell_length_c 21.123322
_cell_angle_alpha 90.000000
_cell_angle_beta 131.344051
_cell_angle_gamma 90.000000
_cell_volume 2323.542637
_symmetry_space_group_name_H-M "C 2/M"
_symmetry_group_IT_number 12
_symmetry_cell_setting 'monoclinic'
loop_
_space_group_symop_operation_xyz
x,y,z
-x,y,-z
-x,-y,-z
x,-y,z
1/2+x,1/2+y,z
1/2-x,1/2+y,-z
1/2-x,1/2-y,-z
1/2+x,1/2-y,z
loop_
_atom_site_type_symbol
_atom_site_label
_atom_site_fract_x
_atom_site_fract_y
_atom_site_fract_z
Si Si1 0.229580 0.793737 0.915540
Si Si2 0.497970 0.699150 0.399901
Si Si3 0.480114 0.709557 0.246092
Si Si4 0.355360 0.292563 0.752202
Si Si5 0.347845 0.801798 0.414023
Si Si6 0.895475 0.294600 0.920798
O O1 0.313070 0.727897 0.918837
O O2 0.125434 0.732175 0.834008
O O3 0.227867 0.000000 0.908736
O O4 0.250000 0.750000 0.000000
O O5 0.469734 0.500000 0.381631
O O6 0.503919 0.762355 0.331710
O O7 0.417953 0.790827 0.394810
O O8 0.596158 0.713886 0.495809
O O9 0.481159 0.500000 0.245453
O O10 0.558168 0.766752 0.241238
O O11 0.353182 0.500000 0.749525
O O12 0.254456 0.231230 0.665584
O O13 0.370846 0.240689 0.833650
O O14 0.336639 0.000000 0.425371
O O15 0.898242 0.500000 0.930853
O O16 0.000000 0.227207 0.000000
#
# Coordination Sequence:
#
# PCOD9185413 Si02
#       6
#     8   8   8   8   8   8
#     4  10  20  35  55  77 104 136 170 212 257 303
#     4  10  19  34  57  78 100 137 178 211 253 312
#     4   9  19  35  53  75 103 135 174 215 253 301
#     4  10  21  36  54  76 104 139 175 212 257 309
#     4  10  20  34  52  77 108 135 167 217 265 303
#     4  10  21  36  54  79 109 137 170 216 263 304
#
# _framework density 20.658111000000002
#
# number of rings (size 3 to 8) (size 9 to 14) (size 15 to 20)
#    0.000    2.167    0.000    4.000    0.000    4.333 
#    0.000    3.333    0.000    0.000    0.000    0.000 
#    0.000    0.000    0.000    0.000    0.000    0.000 
#
# Total GULP energy -134077.771001 kJ/mol
# GULP energy per Si atom -5586.573792 kJ/mol
# Density = 2.061109 g / cm^3
# Si number density = 20.658111 Si / 1000 Ang^3
#
#
#
# Elastic Constant Matrix: (Units=GPa)
#
#
# Indices 1 2 3 4 5 6 
#
# 1 192.8849 -1.6083 131.8263 0.0000 3.3724 0.0000
# 2 -1.6083 24.3551 -8.7294 0.0000 5.1152 0.0000
# 3 131.8263 -8.7294 184.2553 0.0000 5.6217 0.0000
# 4 0.0000 0.0000 0.0000 12.7356 0.0000 -16.9854
# 5 3.3724 5.1152 5.6217 0.0000 44.9920 0.0000
# 6 0.0000 0.0000 0.0000 -16.9854 0.0000 -1.4176
#
#
#
# Elastic Compliance Matrix: (Units=1/GPa)
#
#
# Indices 1 2 3 4 5 6 
#
# 1 0.010245 -0.002074 -0.007440 0.000000 0.000397 0.000000
# 2 -0.002074 0.043347 0.003697 0.000000 -0.005235 0.000000
# 3 -0.007440 0.003697 0.010963 0.000000 -0.001232 0.000000
# 4 0.000000 0.000000 0.000000 0.004624 0.000000 -0.055407
# 5 0.000397 -0.005235 -0.001232 0.000000 0.022946 0.000000
# 6 0.000000 0.000000 0.000000 -0.055407 0.000000 -0.041544
#
#
# Mechanical properties :
#
#
# Convention : Reuss Voigt Hill
#
# Bulk Modulus (GPa) = 18.89612 71.60807 45.25209
# Shear Modulus (GPa) = 62.61295 29.92911 46.27103
#
# Velocity S-wave (km/s) = 5.51135 3.81042 4.73784
# Velocity P-wave (km/s) = 7.04747 7.35511 7.20293
#
# Compressibility (1/GPa) = 0.05292093
#
# Stress axis : x y z
#
# Youngs Moduli (GPa) = 97.60540 23.06982 91.21340
#
# Poissons Ratio (x) = 0.04784 0.67867
# Poissons Ratio (y) = 0.20241 -0.33721
# Poissons Ratio (z) = 0.72623 -0.08529
#
# Static dielectric constant tensor:
#      x y z
#    x 1.710560 0.000000 0.022110 
#    y 0.000000 1.757380 0.000000 
#    z 0.022110 0.000000 1.703200 
# 
# From -- ./inp_files/314489.got.cif
#   From: 2010.05.17/outbox.cif.g08.bks.cpg/sg12_158_cif.got.tgz:314489.got - 2010.06.03 13:09:07.
