data_PCOD9185073
_publ_section_title
;
Structure prediction by ZEFSAII (Michael W. Deem and Ramdas Pophale) SiO2 
 PCOD9185073
Probable space group: C 2/M
;
_chemical_formula_sum "Si O2"
_cell_formula_units_Z 64
_cell_length_a 18.566427
_cell_length_b 14.760572
_cell_length_c 13.104490
_cell_angle_alpha 90.000000
_cell_angle_beta 66.172306
_cell_angle_gamma 90.000000
_cell_volume 3285.193472
_symmetry_space_group_name_H-M "C 2/M"
_symmetry_group_IT_number 12
_symmetry_cell_setting 'monoclinic'
loop_
_space_group_symop_operation_xyz
x,y,z
-x,y,-z
-x,-y,-z
x,-y,z
1/2+x,1/2+y,z
1/2-x,1/2+y,-z
1/2-x,1/2-y,-z
1/2+x,1/2-y,z
loop_
_atom_site_type_symbol
_atom_site_label
_atom_site_fract_x
_atom_site_fract_y
_atom_site_fract_z
Si Si1 0.907576 0.602911 0.761481
Si Si2 0.925042 0.103856 0.467704
Si Si3 0.001641 0.769599 0.738894
Si Si4 0.639497 0.765472 0.810843
Si Si5 0.586943 0.097152 0.997708
Si Si6 0.774561 0.893457 0.693354
Si Si7 0.223984 0.893121 0.866162
Si Si8 0.351503 0.607126 0.871120
O O1 0.924698 0.500000 0.715630
O O2 0.816254 0.625111 0.794066
O O3 0.965561 0.683822 0.698490
O O4 0.915086 0.601873 0.880212
O O5 0.944099 0.170408 0.365253
O O6 0.847742 0.126079 0.577131
O O7 0.000000 0.107164 0.500000
O O8 0.918023 0.000000 0.435161
O O9 0.057142 0.738800 0.799643
O O10 0.928499 0.829866 0.820717
O O11 0.629010 0.818952 0.922889
O O12 0.702182 0.826843 0.714505
O O13 0.672948 0.667769 0.819948
O O14 0.626001 0.000000 0.948510
O O15 0.500000 0.094914 0.000000
O O16 0.804115 0.879061 0.792941
O O17 0.754626 0.000000 0.692756
O O18 0.210964 0.000000 0.858145
O O19 0.199547 0.873934 0.998065
O O20 0.373598 0.500000 0.861178
#
# Coordination Sequence:
#
# PCOD9185073 Si02
#       8
#     8   8   8   8   8   8   8   8
#     4  10  21  38  58  82 117 163 203 234 274 334
#     4  10  21  41  66  90 110 135 189 256 306 338
#     4  12  23  35  60  89 116 148 189 241 296 347
#     4  12  24  35  55  88 125 156 189 224 289 357
#     4  10  19  34  55  84 121 154 191 238 281 324
#     4  10  21  39  64  88 110 142 190 251 299 332
#     4  10  23  38  53  79 123 166 196 225 269 345
#     4  10  20  37  60  86 112 149 200 245 284 330
#
# _framework density 19.481349000000002
#
# number of rings (size 3 to 8) (size 9 to 14) (size 15 to 20)
#    0.000    1.500    2.500    3.000    0.000    5.500 
#    0.000    1.250    0.000    1.125    0.000    0.000 
#    0.000    0.000    0.000    0.000    0.000    0.000 
#
# Total GULP energy -178766.263538 kJ/mol
# GULP energy per Si atom -5586.445736 kJ/mol
# Density = 1.943701 g / cm^3
# Si number density = 19.481349 Si / 1000 Ang^3
#
#
#
# Elastic Constant Matrix: (Units=GPa)
#
#
# Indices 1 2 3 4 5 6 
#
# 1 68.3238 39.9024 -3.7667 0.0000 -12.2724 0.0000
# 2 39.9024 88.5042 27.3297 0.0000 -9.4413 0.0000
# 3 -3.7667 27.3297 40.4895 0.0000 -7.2804 0.0000
# 4 0.0000 0.0000 0.0000 15.5490 0.0000 14.2824
# 5 -12.2724 -9.4413 -7.2804 0.0000 14.6990 0.0000
# 6 0.0000 0.0000 0.0000 14.2824 0.0000 2.0179
#
#
#
# Elastic Compliance Matrix: (Units=1/GPa)
#
#
# Indices 1 2 3 4 5 6 
#
# 1 0.029152 -0.016194 0.017727 0.000000 0.022718 0.000000
# 2 -0.016194 0.023589 -0.018810 0.000000 -0.007686 0.000000
# 3 0.017727 -0.018810 0.043397 0.000000 0.024214 0.000000
# 4 0.000000 0.000000 0.000000 -0.011691 0.000000 0.082743
# 5 0.022718 -0.007686 0.024214 0.000000 0.094056 0.000000
# 6 0.000000 0.000000 0.000000 0.082743 0.000000 -0.090081
#
#
# Mechanical properties :
#
#
# Convention : Reuss Voigt Hill
#
# Bulk Modulus (GPa) = 16.23794 36.02757 26.13276
# Shear Modulus (GPa) = 34.84235 15.37666 25.10951
#
# Velocity S-wave (km/s) = 4.23365 2.81250 3.59402
# Velocity P-wave (km/s) = 5.67905 5.39262 5.53769
#
# Compressibility (1/GPa) = 0.06158416
#
# Stress axis : x y z
#
# Youngs Moduli (GPa) = 34.30343 42.39348 23.04283
#
# Poissons Ratio (x) = 0.68651 -0.40849
# Poissons Ratio (y) = 0.55550 0.43344
# Poissons Ratio (z) = -0.60811 0.79744
#
# Static dielectric constant tensor:
#      x y z
#    x 1.661130 0.000000 -0.014650 
#    y 0.000000 1.727190 0.000000 
#    z -0.014650 0.000000 1.696110 
# 
# From -- ./inp_files/225271.got.cif
#   From: 2010.05.17/outbox.cif.g08.bks.cpg/sg12_113_cif.got.tgz:225271.got - 2010.06.03 13:09:07.
