data_PCOD9185765
_publ_section_title
;
Structure prediction by ZEFSAII (Michael W. Deem and Ramdas Pophale) SiO2 
 PCOD9185765
Probable space group: C 2/M
;
_chemical_formula_sum "Si O2"
_cell_formula_units_Z 64
_cell_length_a 29.654907
_cell_length_b 9.128268
_cell_length_c 12.986141
_cell_angle_alpha 90.000000
_cell_angle_beta 101.658708
_cell_angle_gamma 90.000000
_cell_volume 3442.795949
_symmetry_space_group_name_H-M "C 2/M"
_symmetry_group_IT_number 12
_symmetry_cell_setting 'monoclinic'
loop_
_space_group_symop_operation_xyz
x,y,z
-x,y,-z
-x,-y,-z
x,-y,z
1/2+x,1/2+y,z
1/2-x,1/2+y,-z
1/2-x,1/2-y,-z
1/2+x,1/2-y,z
loop_
_atom_site_type_symbol
_atom_site_label
_atom_site_fract_x
_atom_site_fract_y
_atom_site_fract_z
Si Si1 0.052878 0.176078 0.039169
Si Si2 0.695291 0.175133 0.818894
Si Si3 0.350911 0.825012 0.421684
Si Si4 0.546485 0.175966 0.466556
Si Si5 0.074992 0.831120 0.281203
Si Si6 0.317789 0.669203 0.604736
Si Si7 0.787279 0.675377 0.793705
Si Si8 0.860689 0.324456 0.001547
O O1 0.066949 0.217628 0.161536
O O2 0.089733 0.249767 0.981585
O O3 0.056198 0.000000 0.030784
O O4 0.000000 0.218896 0.000000
O O5 0.666489 0.203155 0.701363
O O6 0.742251 0.264023 0.829578
O O7 0.704930 0.000000 0.827663
O O8 0.667179 0.215183 0.908247
O O9 0.404548 0.779277 0.459974
O O10 0.320091 0.745364 0.494207
O O11 0.348424 0.000000 0.439502
O O12 0.500000 0.229213 0.500000
O O13 0.548818 0.233600 0.351706
O O14 0.545683 0.000000 0.467272
O O15 0.129003 0.826669 0.332951
O O16 0.059732 0.000000 0.283339
O O17 0.302887 0.500000 0.590512
O O18 0.290767 0.752718 0.682337
O O19 0.786069 0.500000 0.784001
O O20 0.830553 0.715933 0.886767
O O21 0.866005 0.500000 0.003543
#
# Coordination Sequence:
#
# PCOD9185765 Si02
#       8
#     8   8   8   8   8   8   8   8
#     4  10  21  37  57  83 114 148 186 229 280 333
#     4  10  22  39  57  80 114 153 188 229 284 340
#     4   9  19  36  55  78 112 147 182 230 281 331
#     4   9  18  32  53  80 106 139 181 224 274 328
#     4   9  18  33  52  76 105 140 180 222 269 322
#     4  10  19  34  58  82 107 144 185 228 277 331
#     4  11  22  36  58  86 112 144 190 236 282 336
#     4  10  22  39  59  84 114 148 189 235 281 334
#
# _framework density 18.589542999999999
#
# number of rings (size 3 to 8) (size 9 to 14) (size 15 to 20)
#    0.000    2.250    1.250    1.125    0.000    4.500 
#    0.000    1.250    0.000    0.000    0.000    0.000 
#    0.000    0.000    0.000    0.000    0.000    0.000 
#
# Total GULP energy -178601.161043 kJ/mol
# GULP energy per Si atom -5581.286283 kJ/mol
# Density = 1.854723 g / cm^3
# Si number density = 18.589543 Si / 1000 Ang^3
#
#
#
# Elastic Constant Matrix: (Units=GPa)
#
#
# Indices 1 2 3 4 5 6 
#
# 1 108.1203 39.9545 39.3049 0.0000 -25.2929 0.0000
# 2 39.9545 29.8788 32.2111 0.0000 -9.0151 0.0000
# 3 39.3049 32.2111 78.0709 0.0000 -14.4081 0.0000
# 4 0.0000 0.0000 0.0000 25.1467 0.0000 -7.2781
# 5 -25.2929 -9.0151 -14.4081 0.0000 29.7664 0.0000
# 6 0.0000 0.0000 0.0000 -7.2781 0.0000 27.4555
#
#
#
# Elastic Compliance Matrix: (Units=1/GPa)
#
#
# Indices 1 2 3 4 5 6 
#
# 1 0.021120 -0.028212 0.003011 0.000000 0.010859 0.000000
# 2 -0.028212 0.099257 -0.028139 0.000000 -0.007531 0.000000
# 3 0.003011 -0.028139 0.023941 0.000000 0.005625 0.000000
# 4 0.000000 0.000000 0.000000 0.043071 0.000000 0.011418
# 5 0.010859 -0.007531 0.005625 0.000000 0.043264 0.000000
# 6 0.000000 0.000000 0.000000 0.011418 0.000000 0.039449
#
#
# Mechanical properties :
#
#
# Convention : Reuss Voigt Hill
#
# Bulk Modulus (GPa) = 26.56848 48.77901 37.67374
# Shear Modulus (GPa) = 12.84268 23.44702 18.14485
#
# Velocity S-wave (km/s) = 2.63126 3.55533 3.12761
# Velocity P-wave (km/s) = 4.85331 6.56893 5.77518
#
# Compressibility (1/GPa) = 0.03763858
#
# Stress axis : x y z
#
# Youngs Moduli (GPa) = 47.34860 10.07487 41.76982
#
# Poissons Ratio (x) = 0.28423 -0.12577
# Poissons Ratio (y) = 1.33578 1.17535
# Poissons Ratio (z) = -0.14257 0.28349
#
# Static dielectric constant tensor:
#      x y z
#    x 1.641800 0.000000 0.015370 
#    y 0.000000 1.626750 0.000000 
#    z 0.015370 0.000000 1.629210 
# 
# From -- ./inp_files/187608.got.cif
#   From: 2010.05.17/outbox.cif.g08.bks.cpg/sg12_94_cif.got.tgz:187608.got - 2010.06.03 13:09:07.
