data_PCOD9185499
_publ_section_title
;
Structure prediction by ZEFSAII (Michael W. Deem and Ramdas Pophale) SiO2 
 PCOD9185499
Probable space group: C 2/M
;
_chemical_formula_sum "Si O2"
_cell_formula_units_Z 40
_cell_length_a 28.546395
_cell_length_b 8.506162
_cell_length_c 27.040681
_cell_angle_alpha 90.000000
_cell_angle_beta 19.048664
_cell_angle_gamma 90.000000
_cell_volume 2142.960935
_symmetry_space_group_name_H-M "C 2/M"
_symmetry_group_IT_number 12
_symmetry_cell_setting 'monoclinic'
loop_
_space_group_symop_operation_xyz
x,y,z
-x,y,-z
-x,-y,-z
x,-y,z
1/2+x,1/2+y,z
1/2-x,1/2+y,-z
1/2-x,1/2-y,-z
1/2+x,1/2-y,z
loop_
_atom_site_type_symbol
_atom_site_label
_atom_site_fract_x
_atom_site_fract_y
_atom_site_fract_z
Si Si1 0.417851 0.188188 0.438850
Si Si2 0.583558 0.308765 0.772291
Si Si3 0.912929 0.811749 0.635371
Si Si4 0.910284 0.809657 0.041296
Si Si5 0.586249 0.311400 0.661364
O O1 0.250546 0.240686 0.610392
O O2 0.508445 0.253152 0.393781
O O3 0.475261 0.243453 0.328046
O O4 0.419146 0.000000 0.438701
O O5 0.584827 0.500000 0.772037
O O6 0.525678 0.263398 0.775598
O O7 0.489655 0.254560 0.912124
O O8 0.751224 0.750040 0.794942
O O9 0.000000 0.756729 0.500000
O O10 0.911763 0.000000 0.636470
O O11 0.908125 0.000000 0.042768
O O12 0.000000 0.760257 0.000000
O O13 0.586055 0.500000 0.658726
O O14 0.750000 0.250000 0.500000
#
# Coordination Sequence:
#
# PCOD9185499 Si02
#       5
#     8   8   8   8   8
#     4  10  19  34  57  82 107 139 181 223 265 312
#     4   8  16  31  53  81 109 138 175 219 262 308
#     4  11  24  39  54  77 109 141 174 216 268 323
#     4  10  20  36  58  81 105 137 178 220 263 314
#     4   9  16  29  50  78 112 145 179 218 261 311
#
# _framework density 18.665762000000001
#
# number of rings (size 3 to 8) (size 9 to 14) (size 15 to 20)
#    0.000    2.400    0.000    4.200    0.000    3.600 
#    0.000    7.000    0.000    0.000    0.000    0.000 
#    0.000    0.000    0.000    0.000    0.000    0.000 
#
# Total GULP energy -111558.945005 kJ/mol
# GULP energy per Si atom -5577.947250 kJ/mol
# Density = 1.862328 g / cm^3
# Si number density = 18.665762 Si / 1000 Ang^3
#
#
#
# Elastic Constant Matrix: (Units=GPa)
#
#
# Indices 1 2 3 4 5 6 
#
# 1 222.1873 30.3688 101.5573 -0.0018 17.2411 0.0002
# 2 30.3688 21.0063 21.6786 0.0361 3.8787 -0.0071
# 3 101.5573 21.6786 119.8037 0.0332 15.4185 -0.0074
# 4 -0.0018 0.0361 0.0332 20.6678 -0.0113 0.4369
# 5 17.2411 3.8787 15.4185 -0.0113 33.7901 0.0030
# 6 0.0002 -0.0071 -0.0074 0.4369 0.0030 15.1281
#
#
#
# Elastic Compliance Matrix: (Units=1/GPa)
#
#
# Indices 1 2 3 4 5 6 
#
# 1 0.007855 -0.005460 -0.005562 0.000019 -0.000843 -0.000006
# 2 -0.005460 0.062459 -0.006491 -0.000100 -0.001422 0.000030
# 3 -0.005562 -0.006491 0.014635 -0.000014 -0.003095 0.000005
# 4 0.000019 -0.000100 -0.000014 0.048414 0.000025 -0.001398
# 5 -0.000843 -0.001422 -0.003095 0.000025 0.031600 -0.000009
# 6 -0.000006 0.000030 0.000005 -0.001398 -0.000009 0.066143
#
#
# Mechanical properties :
#
#
# Convention : Reuss Voigt Hill
#
# Bulk Modulus (GPa) = 20.03066 74.46742 47.24904
# Shear Modulus (GPa) = 17.68215 27.87671 22.77943
#
# Velocity S-wave (km/s) = 3.08117 3.86873 3.49719
# Velocity P-wave (km/s) = 4.83866 7.74196 6.45564
#
# Compressibility (1/GPa) = 0.04992348
#
# Stress axis : x y z
#
# Youngs Moduli (GPa) = 127.31375 16.01047 68.33141
#
# Poissons Ratio (x) = 0.08742 0.38005
# Poissons Ratio (y) = 0.69512 0.44351
# Poissons Ratio (z) = 0.70810 0.10392
#
# Static dielectric constant tensor:
#      x y z
#    x 1.661600 0.000000 0.030830 
#    y 0.000000 1.633630 0.000000 
#    z 0.030830 0.000000 1.620810 
# 
# From -- ./inp_files/92760.got.cif
#   From: 2010.05.17/outbox.cif.g08.bks.cpg/sg12_47_cif.got.tgz:92760.got - 2010.06.03 13:09:07.
