data_PCOD9185371
_publ_section_title
;
Structure prediction by ZEFSAII (Michael W. Deem and Ramdas Pophale) SiO2 
 PCOD9185371
Probable space group: C 2/M
;
_chemical_formula_sum "Si O2"
_cell_formula_units_Z 58
_cell_length_a 14.861603
_cell_length_b 7.448589
_cell_length_c 21.461308
_cell_angle_alpha 90.000000
_cell_angle_beta 71.580763
_cell_angle_gamma 90.000000
_cell_volume 2254.014932
_symmetry_space_group_name_H-M "C 2/M"
_symmetry_group_IT_number 12
_symmetry_cell_setting 'monoclinic'
loop_
_space_group_symop_operation_xyz
x,y,z
-x,y,-z
-x,-y,-z
x,-y,z
1/2+x,1/2+y,z
1/2-x,1/2+y,-z
1/2-x,1/2-y,-z
1/2+x,1/2-y,z
loop_
_atom_site_type_symbol
_atom_site_label
_atom_site_fract_x
_atom_site_fract_y
_atom_site_fract_z
Si Si1 0.282835 0.204268 0.198556
Si Si2 0.460774 0.213974 0.443507
Si Si3 0.621521 0.280711 0.153738
Si Si4 0.142014 0.717726 0.340595
Si Si5 0.438831 0.705853 0.257353
Si Si6 0.801493 0.785275 0.394473
Si Si7 0.500000 0.000000 0.000000
Si Si8 0.138778 0.211785 0.011544
O O1 0.225534 0.282002 0.152542
O O2 0.201175 0.207041 0.270229
O O3 0.372773 0.295480 0.210157
O O4 0.310445 0.000000 0.180217
O O5 0.500000 0.286044 0.500000
O O6 0.534419 0.277611 0.374209
O O7 0.352342 0.243936 0.448160
O O8 0.471993 0.000000 0.443624
O O9 0.624421 0.500000 0.156499
O O10 0.539221 0.212184 0.217353
O O11 0.595529 0.236731 0.089045
O O12 0.145280 0.500000 0.333595
O O13 0.199147 0.769533 0.391393
O O14 0.456089 0.500000 0.270888
O O15 0.374381 0.787890 0.325687
O O16 0.799616 0.000000 0.391113
O O17 0.416471 0.158174 0.022423
O O18 0.126177 0.000000 0.002039
O O19 0.250000 0.250000 0.000000
#
# Coordination Sequence:
#
# PCOD9185371 Si02
#       8
#     8   8   8   8   8   8   2   8
#     4  10  19  34  56  86 116 148 186 241 298 357
#     4  10  21  35  51  73 102 137 184 237 286 337
#     4   9  20  38  61  89 127 160 201 256 310 373
#     4   9  19  36  53  74 107 147 184 221 291 362
#     4   9  18  36  56  82 118 154 190 232 303 372
#     4   9  18  33  54  75 105 145 182 229 283 352
#     4  12  26  48  76 104 136 192 238 292 354 404
#     4  11  24  48  73 103 143 186 240 293 348 416
#
# _framework density 25.731860000000001
#
# number of rings (size 3 to 8) (size 9 to 14) (size 15 to 20)
#    0.000    2.345    0.690    2.276    0.000    5.793 
#    6.207    1.379    0.000    0.000    0.000    0.000 
#    0.000    0.000    0.000    0.000    0.000    0.000 
#
# Total GULP energy -161828.171044 kJ/mol
# GULP energy per Si atom -5580.281760 kJ/mol
# Density = 2.567329 g / cm^3
# Si number density = 25.731860 Si / 1000 Ang^3
#
#
#
# Elastic Constant Matrix: (Units=GPa)
#
#
# Indices 1 2 3 4 5 6 
#
# 1 139.4294 16.6988 6.0593 0.0000 5.0165 0.0000
# 2 16.6988 123.6146 2.2557 0.0000 -1.4053 0.0000
# 3 6.0593 2.2557 42.5527 0.0000 10.9470 0.0000
# 4 0.0000 0.0000 0.0000 8.6816 0.0000 2.5705
# 5 5.0165 -1.4053 10.9470 0.0000 38.3827 0.0000
# 6 0.0000 0.0000 0.0000 2.5705 0.0000 5.2706
#
#
#
# Elastic Compliance Matrix: (Units=1/GPa)
#
#
# Indices 1 2 3 4 5 6 
#
# 1 0.007353 -0.000987 -0.000797 0.000000 -0.000770 0.000000
# 2 -0.000987 0.008237 -0.000439 0.000000 0.000556 0.000000
# 3 -0.000797 -0.000439 0.025484 0.000000 -0.007180 0.000000
# 4 0.000000 0.000000 0.000000 0.134627 0.000000 -0.065659
# 5 -0.000770 0.000556 -0.007180 0.000000 0.028222 0.000000
# 6 0.000000 0.000000 0.000000 -0.065659 0.000000 0.221753
#
#
# Mechanical properties :
#
#
# Convention : Reuss Voigt Hill
#
# Bulk Modulus (GPa) = 27.30152 39.51381 33.40767
# Shear Modulus (GPa) = 11.30371 29.17252 20.23812
#
# Velocity S-wave (km/s) = 2.09819 3.37072 2.80750
# Velocity P-wave (km/s) = 4.06238 5.52615 4.84981
#
# Compressibility (1/GPa) = 0.03662799
#
# Stress axis : x y z
#
# Youngs Moduli (GPa) = 136.00502 121.39772 39.24017
#
# Poissons Ratio (x) = 0.11988 0.03126
# Poissons Ratio (y) = 0.13430 0.01723
# Poissons Ratio (z) = 0.10834 0.05330
#
# Static dielectric constant tensor:
#      x y z
#    x 2.016630 0.000000 0.042000 
#    y 0.000000 1.937280 0.000000 
#    z 0.042000 0.000000 2.136460 
# 
# From -- ./inp_files/337963.got.cif
#   From: 2010.05.17/outbox.cif.g08.bks.cpg/sg12_169_cif.got.tgz:337963.got - 2010.06.03 13:09:07.
