data_PCOD9185259
_publ_section_title
;
Structure prediction by ZEFSAII (Michael W. Deem and Ramdas Pophale) SiO2 
 PCOD9185259
Probable space group: C 2/M
;
_chemical_formula_sum "Si O2"
_cell_formula_units_Z 56
_cell_length_a 22.244182
_cell_length_b 23.171637
_cell_length_c 10.906015
_cell_angle_alpha 90.000000
_cell_angle_beta 147.450966
_cell_angle_gamma 90.000000
_cell_volume 3024.395808
_symmetry_space_group_name_H-M "C 2/M"
_symmetry_group_IT_number 12
_symmetry_cell_setting 'monoclinic'
loop_
_space_group_symop_operation_xyz
x,y,z
-x,y,-z
-x,-y,-z
x,-y,z
1/2+x,1/2+y,z
1/2-x,1/2+y,-z
1/2-x,1/2-y,-z
1/2+x,1/2-y,z
loop_
_atom_site_type_symbol
_atom_site_label
_atom_site_fract_x
_atom_site_fract_y
_atom_site_fract_z
Si Si1 0.634469 0.938986 0.743142
Si Si2 0.253211 0.648946 0.391968
Si Si3 0.567566 0.843984 0.244939
Si Si4 0.308528 0.241392 0.909904
Si Si5 0.389653 0.065896 0.014727
Si Si6 0.632366 0.185822 0.732032
Si Si7 0.978860 0.211435 0.817864
O O1 0.500000 0.939894 0.500000
O O2 0.654984 0.936913 0.923916
O O3 0.672441 0.877540 0.759879
O O4 0.676932 0.000000 0.764927
O O5 0.195400 0.644934 0.426042
O O6 0.200290 0.703627 0.227644
O O7 0.383541 0.665211 0.620137
O O8 0.205602 0.594420 0.234554
O O9 0.499864 0.892475 0.204034
O O10 0.559275 0.777967 0.273715
O O11 0.500000 0.847192 0.000000
O O12 0.192014 0.269085 0.747132
O O13 0.336725 0.200705 0.074366
O O14 0.404093 0.289297 0.053655
O O15 0.417625 0.000000 0.024697
O O16 0.500000 0.188904 0.500000
O O17 0.000000 0.207015 0.000000
#
# Coordination Sequence:
#
# PCOD9185259 Si02
#       7
#     8   8   8   8   8   8   8
#     4   9  17  32  53  77 105 135 170 220 279 325
#     4  11  20  33  52  76 109 145 180 216 271 327
#     4   9  17  31  50  78 108 139 171 224 269 320
#     4  11  20  33  52  78 109 144 180 217 274 329
#     4  10  19  34  56  82 111 142 184 229 273 322
#     4  10  20  34  51  79 109 141 170 222 278 327
#     4  11  20  34  50  77 110 143 181 222 270 327
#
# _framework density 18.516096000000001
#
# number of rings (size 3 to 8) (size 9 to 14) (size 15 to 20)
#    0.000    1.857    5.714    1.286    0.000    3.714 
#    0.000    0.000    0.000    1.286    0.000    2.000 
#    0.000    0.000    0.000    0.000    0.000    0.000 
#
# Total GULP energy -155990.669516 kJ/mol
# GULP energy per Si atom -5571.095340 kJ/mol
# Density = 1.847395 g / cm^3
# Si number density = 18.516096 Si / 1000 Ang^3
#
#
#
# Elastic Constant Matrix: (Units=GPa)
#
#
# Indices 1 2 3 4 5 6 
#
# 1 27.9552 16.3790 16.9279 0.0000 15.1844 0.0000
# 2 16.3790 104.3724 29.6534 0.0000 9.4178 0.0000
# 3 16.9279 29.6534 64.4014 0.0000 3.9243 0.0000
# 4 0.0000 0.0000 0.0000 34.0067 0.0000 1.5703
# 5 15.1844 9.4178 3.9243 0.0000 22.8248 0.0000
# 6 0.0000 0.0000 0.0000 1.5703 0.0000 12.1837
#
#
#
# Elastic Compliance Matrix: (Units=1/GPa)
#
#
# Indices 1 2 3 4 5 6 
#
# 1 0.069100 -0.002991 -0.014209 0.000000 -0.042292 0.000000
# 2 -0.002991 0.011473 -0.004375 0.000000 -0.001992 0.000000
# 3 -0.014209 -0.004375 0.020809 0.000000 0.007680 0.000000
# 4 0.000000 0.000000 0.000000 0.029582 0.000000 -0.003813
# 5 -0.042292 -0.001992 0.007680 0.000000 0.071449 0.000000
# 6 0.000000 0.000000 0.000000 -0.003813 0.000000 0.082568
#
#
# Mechanical properties :
#
#
# Convention : Reuss Voigt Hill
#
# Bulk Modulus (GPa) = 17.17257 35.84996 26.51127
# Shear Modulus (GPa) = 14.38679 22.72096 18.55387
#
# Velocity S-wave (km/s) = 2.79048 3.50679 3.16894
# Velocity P-wave (km/s) = 4.43586 5.98333 5.26674
#
# Compressibility (1/GPa) = 0.05823242
#
# Stress axis : x y z
#
# Youngs Moduli (GPa) = 14.47186 87.15934 48.05619
#
# Poissons Ratio (x) = 0.26067 0.68282
# Poissons Ratio (y) = 0.04328 0.21026
# Poissons Ratio (z) = 0.20563 0.38135
#
# Static dielectric constant tensor:
#      x y z
#    x 1.673570 0.000000 -0.016530 
#    y 0.000000 1.670680 0.000000 
#    z -0.016530 0.000000 1.684350 
# 
# From -- ./inp_files/177956.got.cif
#   From: 2010.05.17/outbox.cif.g08.bks.cpg/sg12_89_cif.got.tgz:177956.got - 2010.06.03 13:09:07.
