data_PCOD9185361
_publ_section_title
;
Structure prediction by ZEFSAII (Michael W. Deem and Ramdas Pophale) SiO2 
 PCOD9185361
Probable space group: C 2/M
;
_chemical_formula_sum "Si O2"
_cell_formula_units_Z 56
_cell_length_a 24.537665
_cell_length_b 16.817512
_cell_length_c 9.443770
_cell_angle_alpha 90.000000
_cell_angle_beta 135.919621
_cell_angle_gamma 90.000000
_cell_volume 2711.075914
_symmetry_space_group_name_H-M "C 2/M"
_symmetry_group_IT_number 12
_symmetry_cell_setting 'monoclinic'
loop_
_space_group_symop_operation_xyz
x,y,z
-x,y,-z
-x,-y,-z
x,-y,z
1/2+x,1/2+y,z
1/2-x,1/2+y,-z
1/2-x,1/2-y,-z
1/2+x,1/2-y,z
loop_
_atom_site_type_symbol
_atom_site_label
_atom_site_fract_x
_atom_site_fract_y
_atom_site_fract_z
Si Si1 0.366512 0.500000 0.336511
Si Si2 0.550515 0.678743 0.902344
Si Si3 0.044267 0.000000 0.786574
Si Si4 0.642651 0.771686 0.852452
Si Si5 0.580791 0.084075 0.566919
Si Si6 0.786026 0.835450 0.256833
Si Si7 0.379672 0.264052 0.691827
Si Si8 0.581897 0.911729 0.235289
O O1 0.454930 0.500000 0.562621
O O2 0.388236 0.500000 0.209289
O O3 0.318021 0.424237 0.300125
O O4 0.549707 0.584060 0.877602
O O5 0.573284 0.726537 0.803381
O O6 0.466197 0.713769 0.790728
O O7 0.614734 0.696150 0.143706
O O8 0.623323 0.839710 0.704236
O O9 0.682455 0.705705 0.828627
O O10 0.694613 0.815987 0.068342
O O11 0.500000 0.082123 0.500000
O O12 0.565378 0.088642 0.372059
O O13 0.623469 0.000000 0.674381
O O14 0.819745 0.797111 0.463565
O O15 0.370655 0.169376 0.698579
O O16 0.615407 0.000000 0.262661
O O17 0.500000 0.904258 0.000000
#
# Coordination Sequence:
#
# PCOD9185361 Si02
#       8
#     4   8   4   8   8   8   8   8
#     4  11  22  39  68  97 127 164 212 272 324 373
#     4  11  23  39  64  95 126 169 209 266 320 377
#     4  11  22  38  65 102 125 160 214 276 324 370
#     4  11  24  40  62  90 124 169 207 260 315 381
#     4  10  21  35  58  89 118 151 198 259 305 358
#     4  11  24  41  62  91 125 169 213 257 320 385
#     4  11  22  39  63  95 128 169 210 262 321 377
#     4  10  19  34  56  85 118 155 196 248 306 369
#
# _framework density 20.656005
#
# number of rings (size 3 to 8) (size 9 to 14) (size 15 to 20)
#    0.000    1.286    5.714    0.857    1.000    2.286 
#    0.000    0.000    1.571    0.000    0.000    0.000 
#    0.000    0.000    0.000    0.000    0.000    0.000 
#
# Total GULP energy -156184.342002 kJ/mol
# GULP energy per Si atom -5578.012214 kJ/mol
# Density = 2.060899 g / cm^3
# Si number density = 20.656005 Si / 1000 Ang^3
#
#
#
# Elastic Constant Matrix: (Units=GPa)
#
#
# Indices 1 2 3 4 5 6 
#
# 1 20.8934 13.3669 -8.6929 0.0000 -8.9192 0.0000
# 2 13.3669 196.2621 46.2251 0.0000 -6.1021 0.0000
# 3 -8.6929 46.2251 95.1080 0.0000 -15.2470 0.0000
# 4 0.0000 0.0000 0.0000 29.4895 0.0000 -13.6150
# 5 -8.9192 -6.1021 -15.2470 0.0000 20.9870 0.0000
# 6 0.0000 0.0000 0.0000 -13.6150 0.0000 13.1646
#
#
#
# Elastic Compliance Matrix: (Units=1/GPa)
#
#
# Indices 1 2 3 4 5 6 
#
# 1 0.080442 -0.008484 0.018744 0.000000 0.045338 0.000000
# 2 -0.008484 0.006652 -0.004840 0.000000 -0.005188 0.000000
# 3 0.018744 -0.004840 0.017692 0.000000 0.019412 0.000000
# 4 0.000000 0.000000 0.000000 0.064898 0.000000 0.067119
# 5 0.045338 -0.005188 0.019412 0.000000 0.079511 0.000000
# 6 0.000000 0.000000 0.000000 0.067119 0.000000 0.145376
#
#
# Mechanical properties :
#
#
# Convention : Reuss Voigt Hill
#
# Bulk Modulus (GPa) = 8.64855 46.00685 27.32770
# Shear Modulus (GPa) = 11.84068 30.15251 20.99660
#
# Velocity S-wave (km/s) = 2.39682 3.82481 3.19170
# Velocity P-wave (km/s) = 3.44321 6.46736 5.18085
#
# Compressibility (1/GPa) = 0.11562631
#
# Stress axis : x y z
#
# Youngs Moduli (GPa) = 12.43125 150.33779 56.52320
#
# Poissons Ratio (x) = 1.27544 -1.05947
# Poissons Ratio (y) = 0.10546 0.27357
# Poissons Ratio (z) = -0.23301 0.72763
#
# Static dielectric constant tensor:
#      x y z
#    x 1.754080 0.000000 0.007540 
#    y 0.000000 1.795630 0.000000 
#    z 0.007540 0.000000 1.749460 
# 
# From -- ./inp_files/106063.got.cif
#   From: 2010.05.17/outbox.cif.g08.bks.cpg/sg12_54_cif.got.tgz:106063.got - 2010.06.03 13:09:07.
