data_PCOD9185551
_publ_section_title
;
Structure prediction by ZEFSAII (Michael W. Deem and Ramdas Pophale) SiO2 
 PCOD9185551
Probable space group: C 2/M
;
_chemical_formula_sum "Si O2"
_cell_formula_units_Z 48
_cell_length_a 29.394421
_cell_length_b 7.634696
_cell_length_c 9.946039
_cell_angle_alpha 90.000000
_cell_angle_beta 76.444892
_cell_angle_gamma 90.000000
_cell_volume 2169.890590
_symmetry_space_group_name_H-M "C 2/M"
_symmetry_group_IT_number 12
_symmetry_cell_setting 'monoclinic'
loop_
_space_group_symop_operation_xyz
x,y,z
-x,y,-z
-x,-y,-z
x,-y,z
1/2+x,1/2+y,z
1/2-x,1/2+y,-z
1/2-x,1/2-y,-z
1/2+x,1/2-y,z
loop_
_atom_site_type_symbol
_atom_site_label
_atom_site_fract_x
_atom_site_fract_y
_atom_site_fract_z
Si Si1 0.936065 0.714248 0.925558
Si Si2 0.302236 0.786533 0.262509
Si Si3 0.832858 0.711589 0.942453
Si Si4 0.962858 0.706641 0.205144
Si Si5 0.699760 0.705479 0.321557
Si Si6 0.122897 0.200467 0.564626
O O1 0.933951 0.500000 0.925995
O O2 0.886894 0.772294 0.899219
O O3 0.983887 0.772612 0.819689
O O4 0.941311 0.771699 0.078158
O O5 0.249922 0.723570 0.333028
O O6 0.341548 0.715473 0.334329
O O7 0.304176 0.000000 0.268814
O O8 0.313215 0.737063 0.101354
O O9 0.831537 0.500000 0.937315
O O10 0.804512 0.779717 0.835238
O O11 0.967723 0.500000 0.181325
O O12 0.926720 0.729521 0.350742
O O13 0.700421 0.500000 0.357029
O O14 0.653547 0.783725 0.423460
O O15 0.113631 0.000000 0.536134
#
# Coordination Sequence:
#
# PCOD9185551 Si02
#       6
#     8   8   8   8   8   8
#     4   8  15  30  55  83 104 129 172 223 264 304
#     4  10  20  37  59  78 101 138 184 224 260 308
#     4  10  19  34  57  83 105 132 176 223 265 313
#     4   9  16  32  57  79 104 136 172 219 267 307
#     4  10  23  38  51  75 112 147 175 212 264 317
#     4  11  22  35  52  79 112 141 176 217 260 315
#
# _framework density 22.120933000000001
#
# number of rings (size 3 to 8) (size 9 to 14) (size 15 to 20)
#    0.000    2.333    1.667    2.500    0.000    2.667 
#    0.000    3.333    0.000    5.000    0.000    0.000 
#    0.000    0.000    0.000    0.000    0.000    0.000 
#
# Total GULP energy -133960.899665 kJ/mol
# GULP energy per Si atom -5581.704153 kJ/mol
# Density = 2.207058 g / cm^3
# Si number density = 22.120933 Si / 1000 Ang^3
#
#
#
# Elastic Constant Matrix: (Units=GPa)
#
#
# Indices 1 2 3 4 5 6 
#
# 1 58.1772 2.8419 -18.8363 0.0000 -13.2163 0.0000
# 2 2.8419 34.6831 -1.3225 0.0000 -10.6077 0.0000
# 3 -18.8363 -1.3225 50.4251 0.0000 -1.7752 0.0000
# 4 0.0000 0.0000 0.0000 23.5909 0.0000 -42.7673
# 5 -13.2163 -10.6077 -1.7752 0.0000 25.8965 0.0000
# 6 0.0000 0.0000 0.0000 -42.7673 0.0000 184.8889
#
#
#
# Elastic Compliance Matrix: (Units=1/GPa)
#
#
# Indices 1 2 3 4 5 6 
#
# 1 0.023091 0.002577 0.009167 0.000000 0.013468 0.000000
# 2 0.002577 0.033341 0.002370 0.000000 0.015134 0.000000
# 3 0.009167 0.002370 0.023574 0.000000 0.007265 0.000000
# 4 0.000000 0.000000 0.000000 0.073002 0.000000 0.016886
# 5 0.013468 0.015134 0.007265 0.000000 0.052186 0.000000
# 6 0.000000 0.000000 0.000000 0.016886 0.000000 0.009315
#
#
# Mechanical properties :
#
#
# Convention : Reuss Voigt Hill
#
# Bulk Modulus (GPa) = 9.23937 12.07240 10.65588
# Shear Modulus (GPa) = 22.48626 57.58206 40.03416
#
# Velocity S-wave (km/s) = 3.19174 5.10755 4.25877
# Velocity P-wave (km/s) = 4.21530 6.34445 5.38613
#
# Compressibility (1/GPa) = 0.10823251
#
# Stress axis : x y z
#
# Youngs Moduli (GPa) = 43.30740 29.99353 42.42007
#
# Poissons Ratio (x) = -0.07729 -0.38888
# Poissons Ratio (y) = -0.11159 -0.10053
# Poissons Ratio (z) = -0.39701 -0.07108
#
# Static dielectric constant tensor:
#      x y z
#    x 1.803340 0.000000 -0.053920 
#    y 0.000000 1.807110 0.000000 
#    z -0.053920 0.000000 1.826690 
# 
# From -- ./inp_files/185740.got.cif
#   From: 2010.05.17/outbox.cif.g08.bks.cpg/sg12_93_cif.got.tgz:185740.got - 2010.06.03 13:09:07.
