data_PCOD9185310
_publ_section_title
;
Structure prediction by ZEFSAII (Michael W. Deem and Ramdas Pophale) SiO2 
 PCOD9185310
Probable space group: C 2/M
;
_chemical_formula_sum "Si O2"
_cell_formula_units_Z 52
_cell_length_a 19.481156
_cell_length_b 8.349969
_cell_length_c 18.062603
_cell_angle_alpha 90.000000
_cell_angle_beta 51.527994
_cell_angle_gamma 90.000000
_cell_volume 2300.345097
_symmetry_space_group_name_H-M "C 2/M"
_symmetry_group_IT_number 12
_symmetry_cell_setting 'monoclinic'
loop_
_space_group_symop_operation_xyz
x,y,z
-x,y,-z
-x,-y,-z
x,-y,z
1/2+x,1/2+y,z
1/2-x,1/2+y,-z
1/2-x,1/2-y,-z
1/2+x,1/2-y,z
loop_
_atom_site_type_symbol
_atom_site_label
_atom_site_fract_x
_atom_site_fract_y
_atom_site_fract_z
Si Si1 0.195784 0.190164 0.192346
Si Si2 0.653420 0.314910 0.650240
Si Si3 0.802574 0.681192 0.645342
Si Si4 0.378352 0.690081 0.035415
Si Si5 0.000000 0.751050 0.500000
Si Si6 0.047670 0.310906 0.857164
Si Si7 0.496198 0.319134 0.670506
O O1 0.210437 0.221070 0.270461
O O2 0.276089 0.269757 0.095537
O O3 0.097185 0.254807 0.243466
O O4 0.196812 0.000000 0.178790
O O5 0.669601 0.500000 0.617793
O O6 0.747462 0.248671 0.613356
O O7 0.596154 0.293505 0.763149
O O8 0.587001 0.239640 0.635202
O O9 0.769761 0.500000 0.681688
O O10 0.905271 0.669594 0.560378
O O11 0.391470 0.500000 0.029247
O O12 0.409369 0.766773 0.092663
O O13 0.445321 0.765073 0.931481
O O14 0.005025 0.833413 0.416998
O O15 0.058570 0.500000 0.835719
O O16 0.496654 0.500000 0.701397
#
# Coordination Sequence:
#
# PCOD9185310 Si02
#       7
#     8   8   8   8   4   8   8
#     4  10  19  34  56  83 113 149 195 241 283 331
#     4  10  20  37  57  81 114 154 193 233 288 343
#     4  10  20  34  56  81 113 149 188 236 289 344
#     4  11  20  33  56  85 116 154 193 231 279 336
#     4  10  20  36  58  86 113 146 193 240 285 342
#     4  11  21  34  54  85 119 150 191 238 280 327
#     4   9  20  37  58  82 113 151 191 238 290 342
#
# _framework density 22.605304
#
# number of rings (size 3 to 8) (size 9 to 14) (size 15 to 20)
#    0.000    1.846    1.538    4.615    0.000    1.231 
#    0.000    5.385    0.000    0.000    0.000    0.000 
#    0.000    0.000    0.000    0.000    0.000    0.000 
#
# Total GULP energy -144958.900862 kJ/mol
# GULP energy per Si atom -5575.342341 kJ/mol
# Density = 2.255385 g / cm^3
# Si number density = 22.605304 Si / 1000 Ang^3
#
#
#
# Elastic Constant Matrix: (Units=GPa)
#
#
# Indices 1 2 3 4 5 6 
#
# 1 142.7357 -0.2265 22.0236 -0.0004 -34.3564 0.0000
# 2 -0.2265 61.2523 2.1324 -0.0035 -7.5025 0.0002
# 3 22.0236 2.1324 78.3405 -0.0010 -35.8938 0.0000
# 4 -0.0004 -0.0035 -0.0010 -966.9379 0.0004 50.3652
# 5 -34.3564 -7.5025 -35.8938 0.0004 33.6244 0.0000
# 6 0.0000 0.0002 0.0000 50.3652 0.0000 13.5767
#
#
#
# Elastic Compliance Matrix: (Units=1/GPa)
#
#
# Indices 1 2 3 4 5 6 
#
# 1 0.009945 0.001701 0.003890 0.000000 0.014694 0.000000
# 2 0.001701 0.017322 0.003166 0.000000 0.008983 0.000000
# 3 0.003890 0.003166 0.026874 0.000000 0.033369 0.000000
# 4 0.000000 0.000000 0.000000 -0.000867 0.000000 0.003215
# 5 0.014694 0.008983 0.033369 0.000000 0.082381 0.000000
# 6 0.000000 0.000000 0.000000 0.003215 0.000000 0.061728
#
#
# Mechanical properties :
#
#
# Convention : Reuss Voigt Hill
#
# Bulk Modulus (GPa) = 13.95536 36.68749 25.32142
# Shear Modulus (GPa) = 24.53944 -166.72075 -71.09065
#
# Velocity S-wave (km/s) = 3.29836 -8.59727 -5.61399
# Velocity P-wave (km/s) = 4.54890 9.07116 5.54948
#
# Compressibility (1/GPa) = 0.07165708
#
# Stress axis : x y z
#
# Youngs Moduli (GPa) = 100.54990 57.72915 37.21066
#
# Poissons Ratio (x) = -0.09821 -0.14477
# Poissons Ratio (y) = -0.17105 -0.11781
# Poissons Ratio (z) = -0.39119 -0.18278
#
# Static dielectric constant tensor:
#      x y z
#    x 1.931530 0.000000 -0.042280 
#    y 0.000000 1.832610 0.000000 
#    z -0.042280 0.000000 1.828800 
# 
# From -- ./inp_files/314683.got.cif
#   From: 2010.05.17/outbox.cif.g08.bks.cpg/sg12_158_cif.got.tgz:314683.got - 2010.06.03 13:09:07.
