data_PCOD9185222
_publ_section_title
;
Structure prediction by ZEFSAII (Michael W. Deem and Ramdas Pophale) SiO2 
 PCOD9185222
Probable space group: C 2/M
;
_chemical_formula_sum "Si O2"
_cell_formula_units_Z 64
_cell_length_a 33.554099
_cell_length_b 9.078623
_cell_length_c 11.329706
_cell_angle_alpha 90.000000
_cell_angle_beta 93.870118
_cell_angle_gamma 90.000000
_cell_volume 3443.441542
_symmetry_space_group_name_H-M "C 2/M"
_symmetry_group_IT_number 12
_symmetry_cell_setting 'monoclinic'
loop_
_space_group_symop_operation_xyz
x,y,z
-x,y,-z
-x,-y,-z
x,-y,z
1/2+x,1/2+y,z
1/2-x,1/2+y,-z
1/2-x,1/2-y,-z
1/2+x,1/2-y,z
loop_
_atom_site_type_symbol
_atom_site_label
_atom_site_fract_x
_atom_site_fract_y
_atom_site_fract_z
Si Si1 0.879970 0.824326 0.844972
Si Si2 0.267495 0.173586 0.186191
Si Si3 0.119246 0.176871 0.421113
Si Si4 0.910414 0.327547 0.221000
Si Si5 0.454239 0.676246 0.010574
Si Si6 0.454948 0.827406 0.477411
Si Si7 0.336374 0.676866 0.332861
Si Si8 0.806868 0.673135 0.936516
O O1 0.871116 0.775250 0.709636
O O2 0.925694 0.797716 0.892059
O O3 0.850177 0.742019 0.926677
O O4 0.872973 0.000000 0.852613
O O5 0.294167 0.254632 0.288520
O O6 0.224361 0.244630 0.155303
O O7 0.264063 0.000000 0.209388
O O8 0.290923 0.193019 0.066392
O O9 0.076562 0.240308 0.450345
O O10 0.149897 0.218273 0.531547
O O11 0.117088 0.000000 0.419668
O O12 0.901096 0.500000 0.198334
O O13 0.939687 0.316951 0.339987
O O14 0.870310 0.242742 0.252585
O O15 0.932774 0.256757 0.114836
O O16 0.454453 0.500000 0.033375
O O17 0.500000 0.723278 0.000000
O O18 0.500000 0.772841 0.500000
O O19 0.454043 0.000000 0.510763
O O20 0.335716 0.500000 0.322459
O O21 0.807188 0.500000 0.911509
#
# Coordination Sequence:
#
# PCOD9185222 Si02
#       8
#     8   8   8   8   8   8   8   8
#     4  10  21  38  56  76 110 147 181 224 273 324
#     4  10  20  35  58  86 115 142 177 222 269 320
#     4   9  20  36  54  78 104 141 185 224 269 321
#     4  10  20  34  52  76 106 138 177 222 270 324
#     4  10  22  37  54  78 107 142 182 225 273 324
#     4   9  19  34  52  75 103 135 175 225 276 320
#     4  10  19  34  56  81 109 140 179 225 270 317
#     4  10  21  36  56  85 113 143 181 219 267 323
#
# _framework density 18.586057
#
# number of rings (size 3 to 8) (size 9 to 14) (size 15 to 20)
#    0.000    2.250    0.000    2.250    1.750    6.000 
#    0.000    0.625    0.000    0.000    0.000    0.000 
#    0.000    0.000    0.000    0.000    0.000    0.000 
#
# Total GULP energy -178638.972381 kJ/mol
# GULP energy per Si atom -5582.467887 kJ/mol
# Density = 1.854375 g / cm^3
# Si number density = 18.586057 Si / 1000 Ang^3
#
#
#
# Elastic Constant Matrix: (Units=GPa)
#
#
# Indices 1 2 3 4 5 6 
#
# 1 85.8204 29.4810 12.2283 0.0000 21.2036 0.0000
# 2 29.4810 40.3267 29.3222 0.0000 8.5282 0.0000
# 3 12.2283 29.3222 44.8638 0.0000 -3.7696 0.0000
# 4 0.0000 0.0000 0.0000 10.4333 0.0000 8.1578
# 5 21.2036 8.5282 -3.7696 0.0000 21.6723 0.0000
# 6 0.0000 0.0000 0.0000 8.1578 0.0000 27.1814
#
#
#
# Elastic Compliance Matrix: (Units=1/GPa)
#
#
# Indices 1 2 3 4 5 6 
#
# 1 0.018927 -0.012264 0.001731 0.000000 -0.013390 0.000000
# 2 -0.012264 0.072444 -0.046066 0.000000 -0.024521 0.000000
# 3 0.001731 -0.046066 0.054097 0.000000 0.025843 0.000000
# 4 0.000000 0.000000 0.000000 0.125236 0.000000 -0.037586
# 5 -0.013390 -0.024521 0.025843 0.000000 0.073387 0.000000
# 6 0.000000 0.000000 0.000000 -0.037586 0.000000 0.048070
#
#
# Mechanical properties :
#
#
# Convention : Reuss Voigt Hill
#
# Bulk Modulus (GPa) = 30.98706 34.78599 32.88652
# Shear Modulus (GPa) = 9.68778 18.52268 14.10523
#
# Velocity S-wave (km/s) = 2.28554 3.16031 2.75783
# Velocity P-wave (km/s) = 4.86553 5.66335 5.27953
#
# Compressibility (1/GPa) = 0.03227153
#
# Stress axis : x y z
#
# Youngs Moduli (GPa) = 52.83542 13.80378 18.48532
#
# Poissons Ratio (x) = 0.16928 -0.03201
# Poissons Ratio (y) = 0.64795 0.85154
# Poissons Ratio (z) = -0.09148 0.63588
#
# Static dielectric constant tensor:
#      x y z
#    x 1.621010 0.000000 0.026620 
#    y 0.000000 1.619330 0.000000 
#    z 0.026620 0.000000 1.648290 
# 
# From -- ./inp_files/187418.got.cif
#   From: 2010.05.17/outbox.cif.g08.bks.cpg/sg12_94_cif.got.tgz:187418.got - 2010.06.03 13:09:07.
