data_PCOD9185831
_publ_section_title
;
Structure prediction by ZEFSAII (Michael W. Deem and Ramdas Pophale) SiO2 
 PCOD9185831
Probable space group: C 2/M
;
_chemical_formula_sum "Si O2"
_cell_formula_units_Z 48
_cell_length_a 13.332339
_cell_length_b 13.363564
_cell_length_c 24.227403
_cell_angle_alpha 90.000000
_cell_angle_beta 144.982721
_cell_angle_gamma 90.000000
_cell_volume 2476.930374
_symmetry_space_group_name_H-M "C 2/M"
_symmetry_group_IT_number 12
_symmetry_cell_setting 'monoclinic'
loop_
_space_group_symop_operation_xyz
x,y,z
-x,y,-z
-x,-y,-z
x,-y,z
1/2+x,1/2+y,z
1/2-x,1/2+y,-z
1/2-x,1/2-y,-z
1/2+x,1/2-y,z
loop_
_atom_site_type_symbol
_atom_site_label
_atom_site_fract_x
_atom_site_fract_y
_atom_site_fract_z
Si Si1 0.597741 0.115735 0.288745
Si Si2 0.160483 0.269361 0.540016
Si Si3 0.591500 0.273399 0.969700
Si Si4 0.790035 0.884068 0.867252
Si Si5 0.150745 0.383997 0.184150
Si Si6 0.547284 0.380796 0.391846
O O1 0.732524 0.194835 0.372396
O O2 0.413702 0.128822 0.237477
O O3 0.578392 0.130611 0.214126
O O4 0.655671 0.000000 0.322215
O O5 0.293901 0.350910 0.576556
O O6 0.081356 0.194702 0.457905
O O7 0.000000 0.316904 0.500000
O O8 0.438906 0.356888 0.889664
O O9 0.468582 0.176276 0.911806
O O10 0.750000 0.250000 0.000000
O O11 0.672576 0.313163 0.063283
O O12 0.808798 0.000000 0.892163
O O13 0.138758 0.500000 0.165777
O O14 0.356581 0.358095 0.279927
O O15 0.548669 0.500000 0.406647
#
# Coordination Sequence:
#
# PCOD9185831 Si02
#       6
#     8   8   8   8   8   8
#     4  10  19  34  58  84 111 145 186 228 272 326
#     4  11  21  35  60  87 111 145 189 229 270 328
#     4  11  20  33  56  81 107 141 183 228 273 325
#     4  10  22  39  58  82 111 148 186 227 279 328
#     4  10  20  35  56  81 111 148 184 225 278 328
#     4  10  22  38  56  82 115 148 183 227 278 327
#
# _framework density 19.378824999999999
#
# number of rings (size 3 to 8) (size 9 to 14) (size 15 to 20)
#    0.000    1.667    3.333    2.500    0.000    1.667 
#    0.000    1.667    0.000    4.000    0.000    0.000 
#    0.000    0.000    0.000    0.000    0.000    0.000 
#
# Total GULP energy -133694.201269 kJ/mol
# GULP energy per Si atom -5570.591720 kJ/mol
# Density = 1.933472 g / cm^3
# Si number density = 19.378825 Si / 1000 Ang^3
#
#
#
# Elastic Constant Matrix: (Units=GPa)
#
#
# Indices 1 2 3 4 5 6 
#
# 1 99.2804 25.1165 20.8232 0.0000 37.5237 0.0000
# 2 25.1165 73.0695 41.2749 0.0000 3.6075 0.0000
# 3 20.8232 41.2749 70.3676 0.0000 26.3552 0.0000
# 4 0.0000 0.0000 0.0000 33.6775 0.0000 7.2740
# 5 37.5237 3.6075 26.3552 0.0000 36.4801 0.0000
# 6 0.0000 0.0000 0.0000 7.2740 0.0000 31.1093
#
#
#
# Elastic Compliance Matrix: (Units=1/GPa)
#
#
# Indices 1 2 3 4 5 6 
#
# 1 0.022608 -0.013561 0.012985 0.000000 -0.031295 0.000000
# 2 -0.013561 0.031080 -0.025076 0.000000 0.028992 0.000000
# 3 0.012985 -0.025076 0.039965 0.000000 -0.039750 0.000000
# 4 0.000000 0.000000 0.000000 0.031273 0.000000 -0.007312
# 5 -0.031295 0.028992 -0.039750 0.000000 0.085453 0.000000
# 6 0.000000 0.000000 0.000000 -0.007312 0.000000 0.033854
#
#
# Mechanical properties :
#
#
# Convention : Reuss Voigt Hill
#
# Bulk Modulus (GPa) = 23.61307 46.34964 34.98135
# Shear Modulus (GPa) = 16.14708 30.62025 23.38367
#
# Velocity S-wave (km/s) = 2.88971 3.97934 3.47747
# Velocity P-wave (km/s) = 4.83170 6.71440 5.84929
#
# Compressibility (1/GPa) = 0.04234943
#
# Stress axis : x y z
#
# Youngs Moduli (GPa) = 44.23269 32.17452 25.02192
#
# Poissons Ratio (x) = 0.43632 -0.32492
# Poissons Ratio (y) = 0.59984 0.62745
# Poissons Ratio (z) = -0.57438 0.80681
#
# Static dielectric constant tensor:
#      x y z
#    x 1.753220 0.000000 0.019260 
#    y 0.000000 1.667470 0.000000 
#    z 0.019260 0.000000 1.693220 
# 
# From -- ./inp_files/360974.got.cif
#   From: 2010.05.17/outbox.cif.g08.bks.cpg/sg12_181_cif.got.tgz:360974.got - 2010.06.03 13:09:07.
