data_PCOD9185958
_publ_section_title
;
Structure prediction by ZEFSAII (Michael W. Deem and Ramdas Pophale) SiO2 
 PCOD9185958
Probable space group: C 2/M
;
_chemical_formula_sum "Si O2"
_cell_formula_units_Z 56
_cell_length_a 23.881434
_cell_length_b 8.610635
_cell_length_c 14.497502
_cell_angle_alpha 90.000000
_cell_angle_beta 83.794695
_cell_angle_gamma 90.000000
_cell_volume 2963.716966
_symmetry_space_group_name_H-M "C 2/M"
_symmetry_group_IT_number 12
_symmetry_cell_setting 'monoclinic'
loop_
_space_group_symop_operation_xyz
x,y,z
-x,y,-z
-x,-y,-z
x,-y,z
1/2+x,1/2+y,z
1/2-x,1/2+y,-z
1/2-x,1/2-y,-z
1/2+x,1/2-y,z
loop_
_atom_site_type_symbol
_atom_site_label
_atom_site_fract_x
_atom_site_fract_y
_atom_site_fract_z
Si Si1 0.174121 0.682727 0.339729
Si Si2 0.063921 0.686649 0.020663
Si Si3 0.473751 0.313224 0.314859
Si Si4 0.091650 0.185630 0.215854
Si Si5 0.797508 0.315753 0.342149
Si Si6 0.616468 0.314926 0.524970
Si Si7 0.111683 0.685740 0.820796
O O1 0.183435 0.500000 0.339582
O O2 0.146655 0.736531 0.248920
O O3 0.233033 0.767027 0.349367
O O4 0.130823 0.731865 0.427662
O O5 0.067228 0.500000 0.033571
O O6 0.079736 0.768433 0.112737
O O7 0.103720 0.733069 0.927890
O O8 0.000000 0.721953 0.000000
O O9 0.474422 0.500000 0.317635
O O10 0.537060 0.260465 0.284737
O O11 0.440421 0.261766 0.412447
O O12 0.435865 0.261637 0.234976
O O13 0.096356 0.000000 0.223397
O O14 0.802457 0.500000 0.359931
O O15 0.832633 0.224850 0.413680
O O16 0.829177 0.282098 0.239687
O O17 0.613510 0.500000 0.510341
O O18 0.102569 0.500000 0.819256
#
# Coordination Sequence:
#
# PCOD9185958 Si02
#       7
#     8   8   8   8   8   8   8
#     4  12  25  40  56  78 110 150 190 232 281 331
#     4  10  19  34  58  87 117 147 180 222 274 330
#     4   9  19  34  55  83 114 145 181 226 275 326
#     4  11  23  38  56  82 115 150 187 228 275 330
#     4  10  20  37  60  85 112 145 188 232 272 322
#     4  10  20  37  60  85 112 145 185 229 276 328
#     4   9  18  33  57  86 114 144 181 226 273 323
#
# _framework density 18.895192000000002
#
# number of rings (size 3 to 8) (size 9 to 14) (size 15 to 20)
#    0.000    1.857    1.429    3.000    0.000    3.143 
#    0.000    3.571    0.000    0.000    0.000    0.000 
#    0.000    0.000    0.000    0.000    0.000    0.000 
#
# Total GULP energy -156380.287381 kJ/mol
# GULP energy per Si atom -5585.010264 kJ/mol
# Density = 1.885219 g / cm^3
# Si number density = 18.895192 Si / 1000 Ang^3
#
#
#
# Elastic Constant Matrix: (Units=GPa)
#
#
# Indices 1 2 3 4 5 6 
#
# 1 21.3773 -2.0373 14.3464 0.0000 -3.8675 0.0000
# 2 -2.0373 19.2675 1.8523 0.0000 -5.5441 0.0000
# 3 14.3464 1.8523 71.5648 0.0000 -7.3359 0.0000
# 4 0.0000 0.0000 0.0000 29.6715 0.0000 0.4716
# 5 -3.8675 -5.5441 -7.3359 0.0000 19.8350 0.0000
# 6 0.0000 0.0000 0.0000 0.4716 0.0000 17.2726
#
#
#
# Elastic Compliance Matrix: (Units=1/GPa)
#
#
# Indices 1 2 3 4 5 6 
#
# 1 0.056611 0.009845 -0.010591 0.000000 0.009873 0.000000
# 2 0.009845 0.058154 -0.001679 0.000000 0.017553 0.000000
# 3 -0.010591 -0.001679 0.016506 0.000000 0.003570 0.000000
# 4 0.000000 0.000000 0.000000 0.033717 0.000000 -0.000921
# 5 0.009873 0.017553 0.003570 0.000000 0.058568 0.000000
# 6 0.000000 0.000000 0.000000 -0.000921 0.000000 0.057920
#
#
# Mechanical properties :
#
#
# Convention : Reuss Voigt Hill
#
# Bulk Modulus (GPa) = 7.91021 15.61473 11.76247
# Shear Modulus (GPa) = 15.22220 19.89235 17.55728
#
# Velocity S-wave (km/s) = 2.84141 3.24817 3.05157
# Velocity P-wave (km/s) = 3.86785 4.72750 4.31912
#
# Compressibility (1/GPa) = 0.12641884
#
# Stress axis : x y z
#
# Youngs Moduli (GPa) = 17.66443 17.19575 60.58396
#
# Poissons Ratio (x) = -0.16929 0.64167
# Poissons Ratio (y) = -0.17391 0.10175
# Poissons Ratio (z) = 0.18709 0.02888
#
# Static dielectric constant tensor:
#      x y z
#    x 1.647070 0.000000 -0.031020 
#    y 0.000000 1.637920 0.000000 
#    z -0.031020 0.000000 1.660590 
# 
# From -- ./inp_files/231005.got.cif
#   From: 2010.05.17/outbox.cif.g08.bks.cpg/sg12_116_cif.got.tgz:231005.got - 2010.06.03 13:09:07.
