data_PCOD9185740
_publ_section_title
;
Structure prediction by ZEFSAII (Michael W. Deem and Ramdas Pophale) SiO2 
 PCOD9185740
Probable space group: C 2/M
;
_chemical_formula_sum "Si O2"
_cell_formula_units_Z 28
_cell_length_a 25.866764
_cell_length_b 8.274691
_cell_length_c 7.025637
_cell_angle_alpha 90.000000
_cell_angle_beta 44.198351
_cell_angle_gamma 90.000000
_cell_volume 1048.340536
_symmetry_space_group_name_H-M "C 2/M"
_symmetry_group_IT_number 12
_symmetry_cell_setting 'monoclinic'
loop_
_space_group_symop_operation_xyz
x,y,z
-x,y,-z
-x,-y,-z
x,-y,z
1/2+x,1/2+y,z
1/2-x,1/2+y,-z
1/2-x,1/2-y,-z
1/2+x,1/2-y,z
loop_
_atom_site_type_symbol
_atom_site_label
_atom_site_fract_x
_atom_site_fract_y
_atom_site_fract_z
Si Si1 0.347013 0.325040 0.596845
Si Si2 0.701066 0.000000 0.282207
Si Si3 0.605394 0.000000 0.898716
Si Si4 0.983352 0.178165 0.768683
Si Si5 0.271029 0.500000 0.487943
O O1 0.327929 0.500000 0.739910
O O2 0.313690 0.167884 0.782903
O O3 0.435301 0.317929 0.351989
O O4 0.311038 0.347376 0.482124
O O5 0.764767 0.000000 0.277064
O O6 0.627838 0.000000 0.617584
O O7 0.561283 0.161571 0.065476
O O8 0.686134 0.000000 0.782484
O O9 0.000000 0.180758 0.500000
O O10 0.949476 0.000000 0.901180
#
# Coordination Sequence:
#
# PCOD9185740 Si02
#       5
#     8   4   4   8   4
#     4   9  19  35  57  80 105 151 177 208 268 335
#     4  10  19  34  58  78 118 138 177 214 277 316
#     4  10  22  35  55  86 111 133 182 234 260 309
#     4  10  21  39  59  75 108 146 185 221 270 317
#     4   8  20  37  52  83 114 137 179 218 265 323
#
# _framework density 26.708877999999999
#
# number of rings (size 3 to 8) (size 9 to 14) (size 15 to 20)
#    1.714    0.857    0.000    2.143    0.000    3.429 
#    2.571    4.286    0.000    0.000    0.000    0.000 
#    0.000    0.000    0.000    0.000    0.000    0.000 
#
# Total GULP energy -78327.704628 kJ/mol
# GULP energy per Si atom -5594.836045 kJ/mol
# Density = 2.664809 g / cm^3
# Si number density = 26.708878 Si / 1000 Ang^3
#
#
#
# Elastic Constant Matrix: (Units=GPa)
#
#
# Indices 1 2 3 4 5 6 
#
# 1 138.3650 58.1676 42.6992 0.0000 -27.9905 0.0000
# 2 58.1676 234.4967 64.8763 0.0000 -27.6477 0.0000
# 3 42.6992 64.8763 71.2897 0.0000 -0.5873 0.0000
# 4 0.0000 0.0000 0.0000 50.2238 0.0000 -6.3670
# 5 -27.9905 -27.6477 -0.5873 0.0000 42.9523 0.0000
# 6 0.0000 0.0000 0.0000 -6.3670 0.0000 33.4210
#
#
#
# Elastic Compliance Matrix: (Units=1/GPa)
#
#
# Indices 1 2 3 4 5 6 
#
# 1 0.010528 -0.000124 -0.006138 0.000000 0.006697 0.000000
# 2 -0.000124 0.006317 -0.005642 0.000000 0.003908 0.000000
# 3 -0.006138 -0.005642 0.022778 0.000000 -0.007320 0.000000
# 4 0.000000 0.000000 0.000000 0.020404 0.000000 0.003887
# 5 0.006697 0.003908 -0.007320 0.000000 0.030062 0.000000
# 6 0.000000 0.000000 0.000000 0.003887 0.000000 0.030662
#
#
# Mechanical properties :
#
#
# Convention : Reuss Voigt Hill
#
# Bulk Modulus (GPa) = 63.23144 86.18197 74.70670
# Shear Modulus (GPa) = 33.37093 43.87998 38.62546
#
# Velocity S-wave (km/s) = 3.53857 4.05767 3.80697
# Velocity P-wave (km/s) = 6.35775 7.36818 6.88154
#
# Compressibility (1/GPa) = 0.01581492
#
# Stress axis : x y z
#
# Youngs Moduli (GPa) = 94.98156 158.30361 43.90160
#
# Poissons Ratio (x) = 0.01959 0.26948
# Poissons Ratio (y) = 0.01175 0.24771
# Poissons Ratio (z) = 0.58302 0.89321
#
# Static dielectric constant tensor:
#      x y z
#    x 2.057800 0.000000 0.056630 
#    y 0.000000 2.194740 0.000000 
#    z 0.056630 0.000000 2.205300 
# 
# From -- ./inp_files/100426.got.cif
#   From: 2010.05.17/outbox.cif.g08.bks.cpg/sg12_51_cif.got.tgz:100426.got - 2010.06.03 13:09:07.
