data_PCOD9185533
_publ_section_title
;
Structure prediction by ZEFSAII (Michael W. Deem and Ramdas Pophale) SiO2 
 PCOD9185533
Probable space group: C 2/M
;
_chemical_formula_sum "Si O2"
_cell_formula_units_Z 40
_cell_length_a 24.258951
_cell_length_b 7.417676
_cell_length_c 9.969123
_cell_angle_alpha 90.000000
_cell_angle_beta 76.058554
_cell_angle_gamma 90.000000
_cell_volume 1741.050502
_symmetry_space_group_name_H-M "C 2/M"
_symmetry_group_IT_number 12
_symmetry_cell_setting 'monoclinic'
loop_
_space_group_symop_operation_xyz
x,y,z
-x,y,-z
-x,-y,-z
x,-y,z
1/2+x,1/2+y,z
1/2-x,1/2+y,-z
1/2-x,1/2-y,-z
1/2+x,1/2-y,z
loop_
_atom_site_type_symbol
_atom_site_label
_atom_site_fract_x
_atom_site_fract_y
_atom_site_fract_z
Si Si1 0.925224 0.705638 0.915935
Si Si2 0.987428 0.279761 0.357188
Si Si3 0.762846 0.715169 0.338052
Si Si4 0.303838 0.285903 0.872941
Si Si5 0.390596 0.779540 0.221620
O O1 0.945268 0.500000 0.922143
O O2 0.965951 0.783722 0.778323
O O3 0.861098 0.703726 0.897576
O O4 0.921298 0.784159 0.067571
O O5 0.989573 0.500000 0.360040
O O6 0.000000 0.217043 0.500000
O O7 0.926539 0.229323 0.331235
O O8 0.764560 0.500000 0.317528
O O9 0.750000 0.750000 0.500000
O O10 0.715207 0.781882 0.262560
O O11 0.825685 0.783354 0.264720
O O12 0.313796 0.500000 0.862632
O O13 0.250000 0.250000 0.000000
O O14 0.389437 0.000000 0.216877
#
# Coordination Sequence:
#
# PCOD9185533 Si02
#       5
#     8   8   8   8   8
#     4  10  19  34  57  82 111 146 181 226 280 327
#     4   9  18  30  51  83 110 139 184 231 274 322
#     4  10  22  37  55  81 114 146 183 228 278 331
#     4  11  22  38  58  84 114 145 186 230 275 333
#     4   9  17  33  52  77 111 143 180 227 272 321
#
# _framework density 22.974634999999999
#
# number of rings (size 3 to 8) (size 9 to 14) (size 15 to 20)
#    0.000    2.200    2.000    1.200    2.800    4.000 
#    0.000    0.000    0.000    4.200    0.000    0.000 
#    0.000    0.000    0.000    0.000    0.000    0.000 
#
# Total GULP energy -111791.952533 kJ/mol
# GULP energy per Si atom -5589.597627 kJ/mol
# Density = 2.292234 g / cm^3
# Si number density = 22.974635 Si / 1000 Ang^3
#
#
#
# Elastic Constant Matrix: (Units=GPa)
#
#
# Indices 1 2 3 4 5 6 
#
# 1 82.1705 -1.4908 25.9382 0.0000 25.7033 0.0000
# 2 -1.4908 81.6444 0.4070 0.0000 2.0698 0.0000
# 3 25.9382 0.4070 146.2626 0.0000 30.2558 0.0000
# 4 0.0000 0.0000 0.0000 8.4826 0.0000 2.0763
# 5 25.7033 2.0698 30.2558 0.0000 47.7681 0.0000
# 6 0.0000 0.0000 0.0000 2.0763 0.0000 6.5720
#
#
#
# Elastic Compliance Matrix: (Units=1/GPa)
#
#
# Indices 1 2 3 4 5 6 
#
# 1 0.014809 0.000460 -0.001122 0.000000 -0.007278 0.000000
# 2 0.000460 0.012277 0.000052 0.000000 -0.000813 0.000000
# 3 -0.001122 0.000052 0.007954 0.000000 -0.004436 0.000000
# 4 0.000000 0.000000 0.000000 0.127770 0.000000 -0.040367
# 5 -0.007278 -0.000813 -0.004436 0.000000 0.027696 0.000000
# 6 0.000000 0.000000 0.000000 -0.040367 0.000000 0.164914
#
#
# Mechanical properties :
#
#
# Convention : Reuss Voigt Hill
#
# Bulk Modulus (GPa) = 29.56746 39.97626 34.77186
# Shear Modulus (GPa) = 13.59025 31.57941 22.58483
#
# Velocity S-wave (km/s) = 2.43478 3.71149 3.13874
# Velocity P-wave (km/s) = 4.56090 5.98372 5.32009
#
# Compressibility (1/GPa) = 0.03382096
#
# Stress axis : x y z
#
# Youngs Moduli (GPa) = 67.52720 81.45318 125.73049
#
# Poissons Ratio (x) = -0.03751 0.14107
# Poissons Ratio (y) = -0.03110 -0.00658
# Poissons Ratio (z) = 0.07577 -0.00426
#
# Static dielectric constant tensor:
#      x y z
#    x 1.778860 0.000000 -0.017840 
#    y 0.000000 1.877850 0.000000 
#    z -0.017840 0.000000 1.810110 
# 
# From -- ./inp_files/92717.got.cif
#   From: 2010.05.17/outbox.cif.g08.bks.cpg/sg12_47_cif.got.tgz:92717.got - 2010.06.03 13:09:07.
