data_PCOD9185148
_publ_section_title
;
Structure prediction by ZEFSAII (Michael W. Deem and Ramdas Pophale) SiO2 
 PCOD9185148
Probable space group: C 2/M
;
_chemical_formula_sum "Si O2"
_cell_formula_units_Z 56
_cell_length_a 24.451426
_cell_length_b 7.514667
_cell_length_c 14.151978
_cell_angle_alpha 90.000000
_cell_angle_beta 104.364275
_cell_angle_gamma 90.000000
_cell_volume 2519.053719
_symmetry_space_group_name_H-M "C 2/M"
_symmetry_group_IT_number 12
_symmetry_cell_setting 'monoclinic'
loop_
_space_group_symop_operation_xyz
x,y,z
-x,y,-z
-x,-y,-z
x,-y,z
1/2+x,1/2+y,z
1/2-x,1/2+y,-z
1/2-x,1/2-y,-z
1/2+x,1/2-y,z
loop_
_atom_site_type_symbol
_atom_site_label
_atom_site_fract_x
_atom_site_fract_y
_atom_site_fract_z
Si Si1 0.766591 0.712313 0.115030
Si Si2 0.921413 0.709119 0.511786
Si Si3 0.666111 0.280855 0.209657
Si Si4 0.391987 0.216575 0.138710
Si Si5 0.437529 0.293521 0.954526
Si Si6 0.027958 0.282743 0.663008
Si Si7 0.810555 0.790221 0.568761
O O1 0.768262 0.500000 0.129336
O O2 0.717825 0.778532 0.164332
O O3 0.831203 0.775566 0.153044
O O4 0.750000 0.750000 0.000000
O O5 0.933353 0.500000 0.510687
O O6 0.936599 0.776415 0.414179
O O7 0.858194 0.731531 0.516500
O O8 0.964681 0.777422 0.610449
O O9 0.665465 0.500000 0.206644
O O10 0.605586 0.219826 0.142480
O O11 0.677818 0.218870 0.321133
O O12 0.442238 0.277450 0.228948
O O13 0.391529 0.000000 0.134434
O O14 0.403430 0.282752 0.038236
O O15 0.446957 0.500000 0.932861
O O16 0.500000 0.214299 0.000000
O O17 0.028940 0.500000 0.669146
O O18 0.750000 0.750000 0.500000
O O19 0.815507 0.000000 0.580035
#
# Coordination Sequence:
#
# PCOD9185148 Si02
#       7
#     8   8   8   8   8   8   8
#     4  10  19  34  56  79 105 140 181 224 270 322
#     4   9  18  37  61  82 109 146 188 231 276 334
#     4   9  20  38  57  78 108 148 185 224 276 333
#     4  10  20  33  55  85 111 141 183 229 276 326
#     4  10  21  37  57  80 111 151 189 221 271 340
#     4   8  17  34  58  84 110 146 185 224 282 343
#     4  11  24  40  59  83 112 149 191 232 279 332
#
# _framework density 22.230571000000001
#
# number of rings (size 3 to 8) (size 9 to 14) (size 15 to 20)
#    0.000    2.429    1.429    1.286    4.000    0.286 
#    0.000    5.000    0.000    0.000    0.000    0.000 
#    0.000    0.000    0.000    0.000    0.000    0.000 
#
# Total GULP energy -156329.359247 kJ/mol
# GULP energy per Si atom -5583.191402 kJ/mol
# Density = 2.217997 g / cm^3
# Si number density = 22.230571 Si / 1000 Ang^3
#
#
#
# Elastic Constant Matrix: (Units=GPa)
#
#
# Indices 1 2 3 4 5 6 
#
# 1 112.7537 -11.5749 13.0385 0.0000 18.0417 0.0000
# 2 -11.5749 52.6694 -8.6184 0.0000 -0.3135 0.0000
# 3 13.0385 -8.6184 101.7775 0.0000 28.0485 0.0000
# 4 0.0000 0.0000 0.0000 12.6725 0.0000 -6.3617
# 5 18.0417 -0.3135 28.0485 0.0000 28.9095 0.0000
# 6 0.0000 0.0000 0.0000 -6.3617 0.0000 10.7612
#
#
#
# Elastic Compliance Matrix: (Units=1/GPa)
#
#
# Indices 1 2 3 4 5 6 
#
# 1 0.010152 0.002331 0.000868 0.000000 -0.007153 0.000000
# 2 0.002331 0.019863 0.002354 0.000000 -0.003523 0.000000
# 3 0.000868 0.002354 0.013726 0.000000 -0.013833 0.000000
# 4 0.000000 0.000000 0.000000 0.112213 0.000000 0.066338
# 5 -0.007153 -0.003523 -0.013833 0.000000 0.052437 0.000000
# 6 0.000000 0.000000 0.000000 0.066338 0.000000 0.132144
#
#
# Mechanical properties :
#
#
# Convention : Reuss Voigt Hill
#
# Bulk Modulus (GPa) = 18.23270 28.09899 23.16584
# Shear Modulus (GPa) = 14.37972 28.75899 21.56935
#
# Velocity S-wave (km/s) = 2.54607 3.60066 3.11827
# Velocity P-wave (km/s) = 4.10643 5.47299 4.83820
#
# Compressibility (1/GPa) = 0.05484650
#
# Stress axis : x y z
#
# Youngs Moduli (GPa) = 98.50029 50.34537 72.85571
#
# Poissons Ratio (x) = -0.11733 -0.06323
# Poissons Ratio (y) = -0.22956 -0.17153
# Poissons Ratio (z) = -0.08549 -0.11853
#
# Static dielectric constant tensor:
#      x y z
#    x 1.786650 0.000000 0.023440 
#    y 0.000000 1.870970 0.000000 
#    z 0.023440 0.000000 1.791090 
# 
# From -- ./inp_files/237832.got.cif
#   From: 2010.05.17/outbox.cif.g08.bks.cpg/sg12_119_cif.got.tgz:237832.got - 2010.06.03 13:09:07.
