data_PCOD9185113
_publ_section_title
;
Structure prediction by ZEFSAII (Michael W. Deem and Ramdas Pophale) SiO2 
 PCOD9185113
Probable space group: C 2/M
;
_chemical_formula_sum "Si O2"
_cell_formula_units_Z 44
_cell_length_a 16.013491
_cell_length_b 23.391620
_cell_length_c 9.999288
_cell_angle_alpha 90.000000
_cell_angle_beta 140.899567
_cell_angle_gamma 90.000000
_cell_volume 2362.248641
_symmetry_space_group_name_H-M "C 2/M"
_symmetry_group_IT_number 12
_symmetry_cell_setting 'monoclinic'
loop_
_space_group_symop_operation_xyz
x,y,z
-x,y,-z
-x,-y,-z
x,-y,z
1/2+x,1/2+y,z
1/2-x,1/2+y,-z
1/2-x,1/2-y,-z
1/2+x,1/2-y,z
loop_
_atom_site_type_symbol
_atom_site_label
_atom_site_fract_x
_atom_site_fract_y
_atom_site_fract_z
Si Si1 0.353982 0.067105 0.060602
Si Si2 0.159372 0.933643 0.063047
Si Si3 0.254180 0.767260 0.350745
Si Si4 0.500000 0.653351 0.000000
Si Si5 0.156101 0.649698 0.197655
Si Si6 0.867855 0.620862 0.525695
O O1 0.235590 0.074051 0.018575
O O2 0.488175 0.092788 0.291308
O O3 0.374306 0.000000 0.060963
O O4 0.327092 0.100564 0.890428
O O5 0.036564 0.890534 0.926508
O O6 0.265143 0.915640 0.309981
O O7 0.122640 0.000000 0.032156
O O8 0.250000 0.750000 0.500000
O O9 0.124452 0.805421 0.166540
O O10 0.241324 0.705817 0.265479
O O11 0.369447 0.813690 0.472218
O O12 0.179029 0.627401 0.377461
O O13 0.000000 0.666962 0.000000
#
# Coordination Sequence:
#
# PCOD9185113 Si02
#       6
#     8   8   8   4   8   8
#     4  10  20  33  52  80 113 141 175 224 274 315
#     4  10  20  34  53  77 107 140 177 224 267 316
#     4   9  17  32  55  76 104 141 177 218 263 316
#     4  10  19  34  56  76  99 140 188 218 264 322
#     4   9  17  31  53  76 106 141 177 217 265 316
#     4   9  18  30  52  79 106 140 178 214 266 321
#
# _framework density 18.62632
#
# number of rings (size 3 to 8) (size 9 to 14) (size 15 to 20)
#    0.000    2.545    0.909    1.364    0.000    5.455 
#    0.000    3.636   12.000    8.727    0.000   24.182 
#    0.000    0.000    0.000    0.000    0.000    0.000 
#
# Total GULP energy -122529.047473 kJ/mol
# GULP energy per Si atom -5569.502158 kJ/mol
# Density = 1.858393 g / cm^3
# Si number density = 18.626320 Si / 1000 Ang^3
#
#
#
# Elastic Constant Matrix: (Units=GPa)
#
#
# Indices 1 2 3 4 5 6 
#
# 1 51.7054 44.2681 3.8382 0.0000 -2.7076 0.0000
# 2 44.2681 135.8699 10.1113 0.0000 -1.3135 0.0000
# 3 3.8382 10.1113 25.2970 0.0000 -13.0062 0.0000
# 4 0.0000 0.0000 0.0000 2.1833 0.0000 34.1851
# 5 -2.7076 -1.3135 -13.0062 0.0000 12.9679 0.0000
# 6 0.0000 0.0000 0.0000 34.1851 0.0000 -33.7107
#
#
#
# Elastic Compliance Matrix: (Units=1/GPa)
#
#
# Indices 1 2 3 4 5 6 
#
# 1 0.027303 -0.009111 0.004037 0.000000 0.008827 0.000000
# 2 -0.009111 0.010767 -0.006893 0.000000 -0.007725 0.000000
# 3 0.004037 -0.006893 0.086194 0.000000 0.086594 0.000000
# 4 0.000000 0.000000 0.000000 0.027137 0.000000 0.027519
# 5 0.008827 -0.007725 0.086594 0.000000 0.165024 0.000000
# 6 0.000000 0.000000 0.000000 0.027519 0.000000 -0.001758
#
#
# Mechanical properties :
#
#
# Convention : Reuss Voigt Hill
#
# Bulk Modulus (GPa) = 9.96693 36.58972 23.27832
# Shear Modulus (GPa) = 13.43926 6.59842 10.01884
#
# Velocity S-wave (km/s) = 2.68903 1.88420 2.32175
# Velocity P-wave (km/s) = 3.87347 4.94170 4.43983
#
# Compressibility (1/GPa) = 0.10033181
#
# Stress axis : x y z
#
# Youngs Moduli (GPa) = 36.62570 92.87900 11.60168
#
# Poissons Ratio (x) = 0.84621 -0.04684
# Poissons Ratio (y) = 0.33369 0.07997
# Poissons Ratio (z) = -0.14788 0.64020
#
# Static dielectric constant tensor:
#      x y z
#    x 1.633580 0.000000 0.014180 
#    y 0.000000 1.673170 0.000000 
#    z 0.014180 0.000000 1.635300 
# 
# From -- ./inp_files/65571.got.cif
#   From: 2010.05.17/outbox.cif.g08.bks.cpg/sg12_33_cif.got.tgz:65571.got - 2010.06.03 13:09:07.
