data_PCOD9185790
_publ_section_title
;
Structure prediction by ZEFSAII (Michael W. Deem and Ramdas Pophale) SiO2 
 PCOD9185790
Probable space group: C 2/M
;
_chemical_formula_sum "Si O2"
_cell_formula_units_Z 56
_cell_length_a 36.210560
_cell_length_b 8.927945
_cell_length_c 12.325732
_cell_angle_alpha 90.000000
_cell_angle_beta 127.256273
_cell_angle_gamma 90.000000
_cell_volume 3171.593123
_symmetry_space_group_name_H-M "C 2/M"
_symmetry_group_IT_number 12
_symmetry_cell_setting 'monoclinic'
loop_
_space_group_symop_operation_xyz
x,y,z
-x,y,-z
-x,-y,-z
x,-y,z
1/2+x,1/2+y,z
1/2-x,1/2+y,-z
1/2-x,1/2-y,-z
1/2+x,1/2-y,z
loop_
_atom_site_type_symbol
_atom_site_label
_atom_site_fract_x
_atom_site_fract_y
_atom_site_fract_z
Si Si1 0.349776 0.679450 0.117093
Si Si2 0.989808 0.820787 0.855928
Si Si3 0.329803 0.180645 0.314293
Si Si4 0.890500 0.319440 0.629406
Si Si5 0.158436 0.678794 0.238901
Si Si6 0.919715 0.679023 0.080386
Si Si7 0.226772 0.820468 0.199474
O O1 0.353653 0.500000 0.125741
O O2 0.341040 0.742978 0.220537
O O3 0.394873 0.750903 0.140854
O O4 0.306581 0.719877 0.961169
O O5 0.939894 0.757022 0.734662
O O6 0.030642 0.748866 0.857453
O O7 0.990585 0.000000 0.846961
O O8 0.000000 0.782312 0.000000
O O9 0.367352 0.216266 0.473358
O O10 0.279018 0.227405 0.267033
O O11 0.328943 0.000000 0.298352
O O12 0.896176 0.500000 0.646945
O O13 0.856020 0.274489 0.666184
O O14 0.164834 0.500000 0.249336
O O15 0.203247 0.753095 0.264707
O O16 0.114864 0.713697 0.082161
O O17 0.922816 0.500000 0.095719
O O18 0.226466 0.000000 0.209068
#
# Coordination Sequence:
#
# PCOD9185790 Si02
#       7
#     8   8   8   8   8   8   8
#     4  10  20  35  56  81 111 143 182 229 273 317
#     4  11  22  35  56  85 113 140 175 221 271 323
#     4  10  21  37  55  77 109 148 187 225 267 319
#     4  10  21  37  55  78 111 147 183 222 267 324
#     4   9  18  32  52  80 109 140 179 222 267 320
#     4  10  19  34  58  83 109 141 180 224 268 319
#     4   9  19  34  54  80 109 143 182 227 272 315
#
# _framework density 17.656742000000001
#
# number of rings (size 3 to 8) (size 9 to 14) (size 15 to 20)
#    0.000    2.143    1.429    1.714    0.000    4.000 
#    0.000    0.714    0.000    4.286    0.000    0.000 
#    0.000    0.000    0.000    0.000    0.000    0.000 
#
# Total GULP energy -156325.654613 kJ/mol
# GULP energy per Si atom -5583.059093 kJ/mol
# Density = 1.761655 g / cm^3
# Si number density = 17.656742 Si / 1000 Ang^3
#
#
#
# Elastic Constant Matrix: (Units=GPa)
#
#
# Indices 1 2 3 4 5 6 
#
# 1 111.1196 36.2699 34.5231 0.0000 29.6547 0.0000
# 2 36.2699 27.6555 31.3034 0.0000 10.1207 0.0000
# 3 34.5231 31.3034 53.6167 0.0000 22.5178 0.0000
# 4 0.0000 0.0000 0.0000 16.4741 0.0000 -1.7799
# 5 29.6547 10.1207 22.5178 0.0000 7.8285 0.0000
# 6 0.0000 0.0000 0.0000 -1.7799 0.0000 36.5557
#
#
#
# Elastic Compliance Matrix: (Units=1/GPa)
#
#
# Indices 1 2 3 4 5 6 
#
# 1 0.004540 0.003646 -0.019951 0.000000 0.035477 0.000000
# 2 0.003646 0.069584 -0.002921 0.000000 -0.095367 0.000000
# 3 -0.019951 -0.002921 0.000596 0.000000 0.077639 0.000000
# 4 0.000000 0.000000 0.000000 0.061022 0.000000 0.002971
# 5 0.035477 -0.095367 0.077639 0.000000 -0.106680 0.000000
# 6 0.000000 0.000000 0.000000 0.002971 0.000000 0.027500
#
#
# Mechanical properties :
#
#
# Convention : Reuss Voigt Hill
#
# Bulk Modulus (GPa) = 27.57317 44.06495 35.81906
# Shear Modulus (GPa) = 46.68292 18.19135 32.43713
#
# Velocity S-wave (km/s) = 5.14748 3.21328 4.29079
# Velocity P-wave (km/s) = 7.13995 6.22716 6.69912
#
# Compressibility (1/GPa) = 0.03626714
#
# Stress axis : x y z
#
# Youngs Moduli (GPa) = 220.26142 14.37106 1677.37849
#
# Poissons Ratio (x) = -0.05239 33.46608
# Poissons Ratio (y) = -0.80304 4.89980
# Poissons Ratio (z) = 4.39453 0.04198
#
# Static dielectric constant tensor:
#      x y z
#    x 1.578790 0.000000 -0.000810 
#    y 0.000000 1.590530 0.000000 
#    z -0.000810 0.000000 1.585930 
# 
# From -- ./inp_files/187726.got.cif
#   From: 2010.05.17/outbox.cif.g08.bks.cpg/sg12_94_cif.got.tgz:187726.got - 2010.06.03 13:09:07.
