data_PCOD9185646
_publ_section_title
;
Structure prediction by ZEFSAII (Michael W. Deem and Ramdas Pophale) SiO2 
 PCOD9185646
Probable space group: C 2/M
;
_chemical_formula_sum "Si O2"
_cell_formula_units_Z 48
_cell_length_a 18.586105
_cell_length_b 21.849740
_cell_length_c 5.171413
_cell_angle_alpha 90.000000
_cell_angle_beta 102.571158
_cell_angle_gamma 90.000000
_cell_volume 2049.771589
_symmetry_space_group_name_H-M "C 2/M"
_symmetry_group_IT_number 12
_symmetry_cell_setting 'monoclinic'
loop_
_space_group_symop_operation_xyz
x,y,z
-x,y,-z
-x,-y,-z
x,-y,z
1/2+x,1/2+y,z
1/2-x,1/2+y,-z
1/2-x,1/2-y,-z
1/2+x,1/2-y,z
loop_
_atom_site_type_symbol
_atom_site_label
_atom_site_fract_x
_atom_site_fract_y
_atom_site_fract_z
Si Si1 0.429601 0.204512 0.105068
Si Si2 0.573574 0.066155 0.731990
Si Si3 0.227715 0.312221 0.187210
Si Si4 0.660595 0.360181 0.091215
Si Si5 0.725579 0.067426 0.527045
Si Si6 0.616859 0.302153 0.553599
O O1 0.431565 0.131192 0.132445
O O2 0.423854 0.242829 0.366265
O O3 0.500000 0.224333 0.000000
O O4 0.352310 0.216097 0.899911
O O5 0.500000 0.064708 0.500000
O O6 0.649512 0.069259 0.629398
O O7 0.575432 0.000000 0.877532
O O8 0.220766 0.379098 0.312515
O O9 0.297129 0.283576 0.385922
O O10 0.264224 0.322713 0.931826
O O11 0.701833 0.419247 0.240843
O O12 0.607109 0.334226 0.272235
O O13 0.616893 0.353108 0.786010
O O14 0.731480 0.000000 0.413799
#
# Coordination Sequence:
#
# PCOD9185646 Si02
#       6
#     8   8   8   8   8   8
#     4  12  23  35  54  84 111 154 208 246 282 347
#     4  10  21  36  50  72 116 163 201 244 287 328
#     4   9  20  36  55  79 114 152 184 240 295 336
#     4   9  19  38  60  80 115 148 192 233 297 341
#     4  10  19  34  57  85 113 150 199 239 282 340
#     4   9  21  38  59  81 111 153 190 241 298 349
#
# _framework density 23.417244
#
# number of rings (size 3 to 8) (size 9 to 14) (size 15 to 20)
#    1.000    1.167    1.667    1.500    0.000    5.000 
#    0.000    0.000    0.000    0.000    0.000    0.000 
#    0.000   22.000    0.000    1.667    0.000    0.333 
#
# Total GULP energy -133798.466984 kJ/mol
# GULP energy per Si atom -5574.936124 kJ/mol
# Density = 2.336395 g / cm^3
# Si number density = 23.417244 Si / 1000 Ang^3
#
#
#
# Elastic Constant Matrix: (Units=GPa)
#
#
# Indices 1 2 3 4 5 6 
#
# 1 114.2278 65.2977 31.2282 0.0000 -19.8014 0.0000
# 2 65.2977 87.0903 22.2139 0.0000 -4.0900 0.0000
# 3 31.2282 22.2139 94.6916 0.0000 -19.4535 0.0000
# 4 0.0000 0.0000 0.0000 33.1206 0.0000 0.2152
# 5 -19.8014 -4.0900 -19.4535 0.0000 41.9426 0.0000
# 6 0.0000 0.0000 0.0000 0.2152 0.0000 5.0808
#
#
#
# Elastic Compliance Matrix: (Units=1/GPa)
#
#
# Indices 1 2 3 4 5 6 
#
# 1 0.017265 -0.012260 -0.001535 0.000000 0.006243 0.000000
# 2 -0.012260 0.020920 -0.001807 0.000000 -0.004586 0.000000
# 3 -0.001535 -0.001807 0.012496 0.000000 0.004895 0.000000
# 4 0.000000 0.000000 0.000000 0.030201 0.000000 -0.001279
# 5 0.006243 -0.004586 0.004895 0.000000 0.028613 0.000000
# 6 0.000000 0.000000 0.000000 -0.001279 0.000000 0.196873
#
#
# Mechanical properties :
#
#
# Convention : Reuss Voigt Hill
#
# Bulk Modulus (GPa) = 51.34014 59.27661 55.30837
# Shear Modulus (GPa) = 14.53223 27.84680 21.18952
#
# Velocity S-wave (km/s) = 2.49384 3.45216 3.01137
# Velocity P-wave (km/s) = 5.50127 6.42324 5.98005
#
# Compressibility (1/GPa) = 0.01947794
#
# Stress axis : x y z
#
# Youngs Moduli (GPa) = 57.92218 47.80175 80.02371
#
# Poissons Ratio (x) = 0.58604 0.12284
# Poissons Ratio (y) = 0.71011 0.14457
# Poissons Ratio (z) = 0.08891 0.08636
#
# Static dielectric constant tensor:
#      x y z
#    x 1.859780 0.000000 0.016240 
#    y 0.000000 1.970940 0.000000 
#    z 0.016240 0.000000 1.990920 
# 
# From -- ./inp_files/16663.got.cif
#   From: 2010.05.17/outbox.cif.g08.bks.cpg/sg12_9_cif.got.tgz:16663.got - 2010.06.03 13:09:07.
