data_PCOD9185152
_publ_section_title
;
Structure prediction by ZEFSAII (Michael W. Deem and Ramdas Pophale) SiO2 
 PCOD9185152
Probable space group: C 2/M
;
_chemical_formula_sum "Si O2"
_cell_formula_units_Z 56
_cell_length_a 24.611559
_cell_length_b 7.696511
_cell_length_c 14.374212
_cell_angle_alpha 90.000000
_cell_angle_beta 105.415466
_cell_angle_gamma 90.000000
_cell_volume 2624.851690
_symmetry_space_group_name_H-M "C 2/M"
_symmetry_group_IT_number 12
_symmetry_cell_setting 'monoclinic'
loop_
_space_group_symop_operation_xyz
x,y,z
-x,y,-z
-x,-y,-z
x,-y,z
1/2+x,1/2+y,z
1/2-x,1/2+y,-z
1/2-x,1/2-y,-z
1/2+x,1/2-y,z
loop_
_atom_site_type_symbol
_atom_site_label
_atom_site_fract_x
_atom_site_fract_y
_atom_site_fract_z
Si Si1 0.763529 0.708380 0.112864
Si Si2 0.918491 0.708665 0.516696
Si Si3 0.665473 0.290101 0.206608
Si Si4 0.388473 0.212864 0.144891
Si Si5 0.435183 0.208665 0.969338
Si Si6 0.032116 0.287768 0.656408
Si Si7 0.808201 0.796561 0.575499
O O1 0.764323 0.500000 0.124133
O O2 0.714683 0.774961 0.158984
O O3 0.827742 0.770561 0.155723
O O4 0.750000 0.750000 0.000000
O O5 0.921863 0.500000 0.515770
O O6 0.932647 0.767035 0.418699
O O7 0.858554 0.757345 0.528229
O O8 0.968424 0.770004 0.607806
O O9 0.668448 0.500000 0.208243
O O10 0.603945 0.247233 0.137222
O O11 0.677917 0.220689 0.315988
O O12 0.438031 0.269631 0.236283
O O13 0.387493 0.000000 0.143323
O O14 0.401862 0.271298 0.046245
O O15 0.438502 0.000000 0.977559
O O16 0.500000 0.272985 0.000000
O O17 0.031937 0.500000 0.658359
O O18 0.750000 0.750000 0.500000
O O19 0.805977 0.000000 0.590056
#
# Coordination Sequence:
#
# PCOD9185152 Si02
#       7
#     8   8   8   8   8   8   8
#     4  10  19  34  56  79 106 141 181 225 269 321
#     4   9  18  35  60  86 111 144 188 234 279 335
#     4  10  23  40  58  81 112 152 188 228 286 341
#     4   9  17  30  52  81 112 143 180 227 272 322
#     4  10  21  35  56  87 117 148 188 231 275 327
#     4   8  16  31  56  87 113 145 186 226 278 338
#     4  11  25  42  59  82 111 150 194 236 289 344
#
# _framework density 21.334537000000001
#
# number of rings (size 3 to 8) (size 9 to 14) (size 15 to 20)
#    0.000    2.429    1.429    1.286    4.000    1.429 
#    0.000    1.429    0.000    1.714    0.000    0.000 
#    0.000    0.000    0.000    0.000    0.000    0.000 
#
# Total GULP energy -156288.393979 kJ/mol
# GULP energy per Si atom -5581.728356 kJ/mol
# Density = 2.128598 g / cm^3
# Si number density = 21.334537 Si / 1000 Ang^3
#
#
#
# Elastic Constant Matrix: (Units=GPa)
#
#
# Indices 1 2 3 4 5 6 
#
# 1 143.0893 -2.3133 34.9745 0.0000 10.9955 0.0000
# 2 -2.3133 29.4110 -8.9450 0.0000 -3.6510 0.0000
# 3 34.9745 -8.9450 89.7304 0.0000 16.0379 0.0000
# 4 0.0000 0.0000 0.0000 16.4527 0.0000 -0.2551
# 5 10.9955 -3.6510 16.0379 0.0000 18.1060 0.0000
# 6 0.0000 0.0000 0.0000 -0.2551 0.0000 15.8287
#
#
#
# Elastic Compliance Matrix: (Units=1/GPa)
#
#
# Indices 1 2 3 4 5 6 
#
# 1 0.007821 -0.000502 -0.002651 0.000000 -0.002502 0.000000
# 2 -0.000502 0.035439 0.002848 0.000000 0.004929 0.000000
# 3 -0.002651 0.002848 0.014342 0.000000 -0.010520 0.000000
# 4 0.000000 0.000000 0.000000 0.060795 0.000000 0.000980
# 5 -0.002502 0.004929 -0.010520 0.000000 0.067062 0.000000
# 6 0.000000 0.000000 0.000000 0.000980 0.000000 0.063192
#
#
# Mechanical properties :
#
#
# Convention : Reuss Voigt Hill
#
# Bulk Modulus (GPa) = 17.54655 34.40701 25.97678
# Shear Modulus (GPa) = 18.63866 25.97843 22.30855
#
# Velocity S-wave (km/s) = 2.95894 3.49330 3.23717
# Velocity P-wave (km/s) = 4.46275 5.69502 5.11612
#
# Compressibility (1/GPa) = 0.05699127
#
# Stress axis : x y z
#
# Youngs Moduli (GPa) = 127.86391 28.21724 69.72581
#
# Poissons Ratio (x) = 0.01416 0.18485
# Poissons Ratio (y) = 0.06416 -0.19855
# Poissons Ratio (z) = 0.33898 -0.08035
#
# Static dielectric constant tensor:
#      x y z
#    x 1.746200 0.000000 0.003940 
#    y 0.000000 1.800410 0.000000 
#    z 0.003940 0.000000 1.761200 
# 
# From -- ./inp_files/237830.got.cif
#   From: 2010.05.17/outbox.cif.g08.bks.cpg/sg12_119_cif.got.tgz:237830.got - 2010.06.03 13:09:07.
