data_PCOD9185332
_publ_section_title
;
Structure prediction by ZEFSAII (Michael W. Deem and Ramdas Pophale) SiO2 
 PCOD9185332
Probable space group: C 2/M
;
_chemical_formula_sum "Si O2"
_cell_formula_units_Z 64
_cell_length_a 8.512176
_cell_length_b 28.688325
_cell_length_c 15.402422
_cell_angle_alpha 90.000000
_cell_angle_beta 131.677841
_cell_angle_gamma 90.000000
_cell_volume 2809.277179
_symmetry_space_group_name_H-M "C 2/M"
_symmetry_group_IT_number 12
_symmetry_cell_setting 'monoclinic'
loop_
_space_group_symop_operation_xyz
x,y,z
-x,y,-z
-x,-y,-z
x,-y,z
1/2+x,1/2+y,z
1/2-x,1/2+y,-z
1/2-x,1/2-y,-z
1/2+x,1/2-y,z
loop_
_atom_site_type_symbol
_atom_site_label
_atom_site_fract_x
_atom_site_fract_y
_atom_site_fract_z
Si Si1 0.933225 0.262152 0.216195
Si Si2 0.840056 0.304369 0.362267
Si Si3 0.204176 0.096763 0.732807
Si Si4 0.093515 0.314877 0.122634
Si Si5 0.286258 0.446352 0.532768
Si Si6 0.336058 0.911554 0.331703
Si Si7 0.343367 0.944012 0.149121
Si Si8 0.748792 0.553071 0.928187
O O1 0.137808 0.228944 0.292974
O O2 0.926618 0.294419 0.128887
O O3 0.939707 0.292942 0.305366
O O4 0.734367 0.228263 0.144308
O O5 0.785310 0.359108 0.342050
O O6 0.000000 0.295295 0.500000
O O7 0.264912 0.150388 0.767750
O O8 0.413622 0.070781 0.776614
O O9 0.157144 0.081039 0.814661
O O10 0.005102 0.080951 0.604284
O O11 0.000000 0.337114 0.000000
O O12 0.297224 0.500000 0.506984
O O13 0.234773 0.445430 0.617190
O O14 0.089282 0.419051 0.420136
O O15 0.258158 0.923495 0.207236
O O16 0.332550 0.000000 0.148598
O O17 0.229346 0.928370 0.018605
O O18 0.669690 0.500000 0.896593
O O19 0.000000 0.550954 0.000000
#
# Coordination Sequence:
#
# PCOD9185332 Si02
#       8
#     8   8   8   8   8   8   8   8
#     4  10  24  40  63  92 120 160 201 247 320 370
#     4  11  21  41  63  89 122 157 204 257 302 366
#     4  11  21  35  59  86 114 151 202 245 295 346
#     4  11  22  40  63  90 125 158 200 252 307 370
#     4  11  22  38  57  81 119 161 197 239 294 356
#     4  11  22  38  59  82 118 159 202 238 299 358
#     4  10  19  34  56  84 115 150 194 244 292 348
#     4   8  15  30  52  79 111 145 183 232 290 339
#
# _framework density 22.781659999999999
#
# number of rings (size 3 to 8) (size 9 to 14) (size 15 to 20)
#    0.000    1.625    1.250    6.750    0.000    0.500 
#    0.000    1.875    0.000    5.250    0.000    0.000 
#    0.000    0.000    0.000    0.000    0.000    0.000 
#
# Total GULP energy -178975.320232 kJ/mol
# GULP energy per Si atom -5592.978757 kJ/mol
# Density = 2.272981 g / cm^3
# Si number density = 22.781660 Si / 1000 Ang^3
#
#
#
# Elastic Constant Matrix: (Units=GPa)
#
#
# Indices 1 2 3 4 5 6 
#
# 1 50.1931 -4.6615 25.5435 0.0000 -15.9391 0.0000
# 2 -4.6615 66.7407 -3.6900 0.0000 0.0054 0.0000
# 3 25.5435 -3.6900 82.7278 0.0000 -13.5773 0.0000
# 4 0.0000 0.0000 0.0000 18.9051 0.0000 10.4110
# 5 -15.9391 0.0054 -13.5773 0.0000 47.7284 0.0000
# 6 0.0000 0.0000 0.0000 10.4110 0.0000 16.3995
#
#
#
# Elastic Compliance Matrix: (Units=1/GPa)
#
#
# Indices 1 2 3 4 5 6 
#
# 1 0.025595 0.001414 -0.006752 0.000000 0.006627 0.000000
# 2 0.001414 0.015100 0.000330 0.000000 0.000564 0.000000
# 3 -0.006752 0.000330 0.014494 0.000000 0.001868 0.000000
# 4 0.000000 0.000000 0.000000 0.081328 0.000000 -0.051630
# 5 0.006627 0.000564 0.001868 0.000000 0.023696 0.000000
# 6 0.000000 0.000000 0.000000 -0.051630 0.000000 0.093754
#
#
# Mechanical properties :
#
#
# Convention : Reuss Voigt Hill
#
# Bulk Modulus (GPa) = 22.13782 26.00507 24.07144
# Shear Modulus (GPa) = 17.91844 28.77125 23.34485
#
# Velocity S-wave (km/s) = 2.80756 3.55760 3.20460
# Velocity P-wave (km/s) = 4.49981 5.32119 4.92765
#
# Compressibility (1/GPa) = 0.04517156
#
# Stress axis : x y z
#
# Youngs Moduli (GPa) = 39.07035 66.22391 68.99421
#
# Poissons Ratio (x) = -0.09363 0.46586
# Poissons Ratio (y) = -0.05524 -0.02274
# Poissons Ratio (z) = 0.26381 -0.02183
#
# Static dielectric constant tensor:
#      x y z
#    x 1.888940 0.000000 0.021980 
#    y 0.000000 1.796120 0.000000 
#    z 0.021980 0.000000 1.887070 
# 
# From -- ./inp_files/201326.got.cif
#   From: 2010.05.17/outbox.cif.g08.bks.cpg/sg12_101_cif.got.tgz:201326.got - 2010.06.03 13:09:07.
