data_PCOD9185995
_publ_section_title
;
Structure prediction by ZEFSAII (Michael W. Deem and Ramdas Pophale) SiO2 
 PCOD9185995
Probable space group: C 2/M
;
_chemical_formula_sum "Si O2"
_cell_formula_units_Z 64
_cell_length_a 12.693989
_cell_length_b 22.670136
_cell_length_c 11.519771
_cell_angle_alpha 90.000000
_cell_angle_beta 110.302468
_cell_angle_gamma 90.000000
_cell_volume 3109.142165
_symmetry_space_group_name_H-M "C 2/M"
_symmetry_group_IT_number 12
_symmetry_cell_setting 'monoclinic'
loop_
_space_group_symop_operation_xyz
x,y,z
-x,y,-z
-x,-y,-z
x,-y,z
1/2+x,1/2+y,z
1/2-x,1/2+y,-z
1/2-x,1/2-y,-z
1/2+x,1/2-y,z
loop_
_atom_site_type_symbol
_atom_site_label
_atom_site_fract_x
_atom_site_fract_y
_atom_site_fract_z
Si Si1 0.677537 0.152732 0.800938
Si Si2 0.055766 0.167259 0.395614
Si Si3 0.180879 0.748047 0.270813
Si Si4 0.507600 0.934272 0.365980
Si Si5 0.327372 0.797742 0.966424
Si Si6 0.629391 0.566216 0.035922
Si Si7 0.156248 0.106132 0.797836
Si Si8 0.746069 0.120480 0.396002
O O1 0.721200 0.207092 0.737721
O O2 0.589669 0.110162 0.707631
O O3 0.787351 0.113975 0.876535
O O4 0.618611 0.172353 0.900220
O O5 0.104507 0.220278 0.337342
O O6 0.160426 0.124931 0.468248
O O7 0.000000 0.183363 0.500000
O O8 0.962039 0.135092 0.282702
O O9 0.116555 0.731400 0.125403
O O10 0.228780 0.688612 0.347559
O O11 0.500000 0.939818 0.500000
O O12 0.628080 0.906663 0.383812
O O13 0.494809 0.000000 0.308521
O O14 0.242770 0.844454 0.876592
O O15 0.250000 0.750000 0.000000
O O16 0.645325 0.500000 0.090350
O O17 0.500000 0.584375 0.000000
O O18 0.647670 0.564534 0.904476
O O19 0.205498 0.084442 0.694965
#
# Coordination Sequence:
#
# PCOD9185995 Si02
#       8
#     8   8   8   8   8   8   8   8
#     4  10  20  39  62  87 121 159 201 251 312 375
#     4  10  20  34  55  83 118 158 197 248 316 377
#     4  10  19  34  58  89 122 155 196 253 310 369
#     4  11  25  43  63  87 121 168 216 261 304 362
#     4   8  17  33  52  81 116 151 192 238 297 363
#     4  10  20  35  59  88 115 148 194 248 306 369
#     4   9  19  36  54  78 113 149 191 247 301 361
#     4  10  22  38  56  84 119 157 206 252 306 370
#
# _framework density 20.584455999999999
#
# number of rings (size 3 to 8) (size 9 to 14) (size 15 to 20)
#    0.000    2.250    0.000    2.250    0.000    5.000 
#    0.000   13.750    0.000    9.750    0.000    0.000 
#    0.000    0.000    0.000    0.000    0.000    0.000 
#
# Total GULP energy -178445.370294 kJ/mol
# GULP energy per Si atom -5576.417822 kJ/mol
# Density = 2.053761 g / cm^3
# Si number density = 20.584456 Si / 1000 Ang^3
#
#
#
# Elastic Constant Matrix: (Units=GPa)
#
#
# Indices 1 2 3 4 5 6 
#
# 1 93.2247 32.7610 14.0556 0.0000 0.3583 0.0000
# 2 32.7610 65.4515 25.6237 0.0000 -5.3208 0.0000
# 3 14.0556 25.6237 64.7075 0.0000 -4.5319 0.0000
# 4 0.0000 0.0000 0.0000 -14.9251 0.0000 -21.0148
# 5 0.3583 -5.3208 -4.5319 0.0000 7.5542 0.0000
# 6 0.0000 0.0000 0.0000 -21.0148 0.0000 -44.2535
#
#
#
# Elastic Compliance Matrix: (Units=1/GPa)
#
#
# Indices 1 2 3 4 5 6 
#
# 1 0.013254 -0.006888 -0.000559 0.000000 -0.005815 0.000000
# 2 -0.006888 0.022241 -0.006463 0.000000 0.012115 0.000000
# 3 -0.000559 -0.006463 0.018599 0.000000 0.006633 0.000000
# 4 0.000000 0.000000 0.000000 -0.202192 0.000000 0.096016
# 5 -0.005815 0.012115 0.006633 0.000000 0.145164 0.000000
# 6 0.000000 0.000000 0.000000 0.096016 0.000000 -0.068192
#
#
# Mechanical properties :
#
#
# Convention : Reuss Voigt Hill
#
# Bulk Modulus (GPa) = 38.05821 40.91825 39.48823
# Shear Modulus (GPa) = -144.72208 -0.26198 -72.49203
#
# Velocity S-wave (km/s) = -8.39399 -0.35714 -5.94082
# Velocity P-wave (km/s) = 8.68427 4.44425 5.27566
#
# Compressibility (1/GPa) = 0.02627554
#
# Stress axis : x y z
#
# Youngs Moduli (GPa) = 75.44907 44.96158 53.76581
#
# Poissons Ratio (x) = 0.30970 0.03003
# Poissons Ratio (y) = 0.51971 0.34747
# Poissons Ratio (z) = 0.04215 0.29057
#
# Static dielectric constant tensor:
#      x y z
#    x 1.774140 0.000000 -0.050570 
#    y 0.000000 1.752330 0.000000 
#    z -0.050570 0.000000 1.758280 
# 
# From -- ./inp_files/135970.got.cif
#   From: 2010.05.17/outbox.cif.g08.bks.cpg/sg12_68_cif.got.tgz:135970.got - 2010.06.03 13:09:07.
