data_PCOD9185994
_publ_section_title
;
Structure prediction by ZEFSAII (Michael W. Deem and Ramdas Pophale) SiO2 
 PCOD9185994
Probable space group: C 2/M
;
_chemical_formula_sum "Si O2"
_cell_formula_units_Z 56
_cell_length_a 20.823153
_cell_length_b 8.848286
_cell_length_c 17.903441
_cell_angle_alpha 90.000000
_cell_angle_beta 108.603247
_cell_angle_gamma 90.000000
_cell_volume 3126.339206
_symmetry_space_group_name_H-M "C 2/M"
_symmetry_group_IT_number 12
_symmetry_cell_setting 'monoclinic'
loop_
_space_group_symop_operation_xyz
x,y,z
-x,y,-z
-x,-y,-z
x,-y,z
1/2+x,1/2+y,z
1/2-x,1/2+y,-z
1/2-x,1/2-y,-z
1/2+x,1/2-y,z
loop_
_atom_site_type_symbol
_atom_site_label
_atom_site_fract_x
_atom_site_fract_y
_atom_site_fract_z
Si Si1 0.175272 0.681272 0.158141
Si Si2 0.818090 0.319976 0.264243
Si Si3 0.563308 0.818294 0.241651
Si Si4 0.190884 0.179472 0.580441
Si Si5 0.155514 0.319228 0.414251
Si Si6 0.415665 0.680133 0.177532
Si Si7 0.821780 0.819076 0.001365
O O1 0.182156 0.500000 0.156624
O O2 0.246508 0.749363 0.211805
O O3 0.116853 0.717539 0.196114
O O4 0.159366 0.747905 0.071053
O O5 0.814143 0.500000 0.259719
O O6 0.831250 0.264380 0.353257
O O7 0.875090 0.260223 0.229124
O O8 0.598383 0.776996 0.333387
O O9 0.492332 0.737175 0.203845
O O10 0.553613 0.000000 0.237908
O O11 0.152826 0.234726 0.491994
O O12 0.270697 0.212508 0.594801
O O13 0.183986 0.000000 0.587848
O O14 0.152686 0.500000 0.425743
O O15 0.413017 0.500000 0.187549
O O16 0.376545 0.714590 0.085795
O O17 0.815189 0.000000 0.992031
O O18 0.750000 0.750000 0.000000
#
# Coordination Sequence:
#
# PCOD9185994 Si02
#       7
#     8   8   8   8   8   8   8
#     4  11  22  39  63  90 121 156 199 250 297 352
#     4  12  23  37  61  90 119 157 203 246 297 358
#     4  10  22  41  62  87 123 162 198 242 300 358
#     4  10  19  34  58  89 122 154 196 247 296 347
#     4   9  18  35  57  86 122 157 195 242 294 352
#     4  11  25  42  61  86 122 159 198 249 302 355
#     4  11  23  39  61  89 120 157 199 252 301 351
#
# _framework density 17.912323000000001
#
# number of rings (size 3 to 8) (size 9 to 14) (size 15 to 20)
#    0.000    1.429    2.857    3.000    0.000    4.571 
#    0.000    3.571    0.000    4.286    0.000    0.000 
#    0.000    0.000    0.000    0.000    0.000    0.000 
#
# Total GULP energy -156499.797014 kJ/mol
# GULP energy per Si atom -5589.278465 kJ/mol
# Density = 1.787155 g / cm^3
# Si number density = 17.912323 Si / 1000 Ang^3
#
#
#
# Elastic Constant Matrix: (Units=GPa)
#
#
# Indices 1 2 3 4 5 6 
#
# 1 104.7298 58.3782 71.9765 0.0000 2.5599 0.0000
# 2 58.3782 75.9535 70.3898 0.0000 -3.0162 0.0000
# 3 71.9765 70.3898 153.7913 0.0000 -4.7600 0.0000
# 4 0.0000 0.0000 0.0000 35.5197 0.0000 -0.6128
# 5 2.5599 -3.0162 -4.7600 0.0000 30.5907 0.0000
# 6 0.0000 0.0000 0.0000 -0.6128 0.0000 31.1350
#
#
#
# Elastic Compliance Matrix: (Units=1/GPa)
#
#
# Indices 1 2 3 4 5 6 
#
# 1 0.018071 -0.010569 -0.003717 0.000000 -0.003133 0.000000
# 2 -0.010569 0.029058 -0.008277 0.000000 0.002462 0.000000
# 3 -0.003717 -0.008277 0.012073 0.000000 0.001373 0.000000
# 4 0.000000 0.000000 0.000000 0.028163 0.000000 0.000554
# 5 -0.003133 0.002462 0.001373 0.000000 0.033408 0.000000
# 6 0.000000 0.000000 0.000000 0.000554 0.000000 0.032129
#
#
# Mechanical properties :
#
#
# Convention : Reuss Voigt Hill
#
# Bulk Modulus (GPa) = 71.04587 81.77373 76.40980
# Shear Modulus (GPa) = 24.66462 28.36444 26.51453
#
# Velocity S-wave (km/s) = 3.71477 3.98366 3.85156
# Velocity P-wave (km/s) = 7.62552 8.17990 7.90757
#
# Compressibility (1/GPa) = 0.01407541
#
# Stress axis : x y z
#
# Youngs Moduli (GPa) = 55.33792 34.41409 82.83087
#
# Poissons Ratio (x) = 0.36372 0.30788
# Poissons Ratio (y) = 0.58487 0.68560
# Poissons Ratio (z) = 0.20569 0.28485
#
# Static dielectric constant tensor:
#      x y z
#    x 1.578380 0.000000 -0.002010 
#    y 0.000000 1.598220 0.000000 
#    z -0.002010 0.000000 1.605200 
# 
# From -- ./inp_files/275596.got.cif
#   From: 2010.05.17/outbox.cif.g08.bks.cpg/sg12_138_cif.got.tgz:275596.got - 2010.06.03 13:09:07.
