data_PCOD9185512
_publ_section_title
;
Structure prediction by ZEFSAII (Michael W. Deem and Ramdas Pophale) SiO2 
 PCOD9185512
Probable space group: C 2/M
;
_chemical_formula_sum "Si O2"
_cell_formula_units_Z 64
_cell_length_a 27.920819
_cell_length_b 11.421209
_cell_length_c 14.944130
_cell_angle_alpha 90.000000
_cell_angle_beta 46.228734
_cell_angle_gamma 90.000000
_cell_volume 3441.221074
_symmetry_space_group_name_H-M "C 2/M"
_symmetry_group_IT_number 12
_symmetry_cell_setting 'monoclinic'
loop_
_space_group_symop_operation_xyz
x,y,z
-x,y,-z
-x,-y,-z
x,-y,z
1/2+x,1/2+y,z
1/2-x,1/2+y,-z
1/2-x,1/2-y,-z
1/2+x,1/2-y,z
loop_
_atom_site_type_symbol
_atom_site_label
_atom_site_fract_x
_atom_site_fract_y
_atom_site_fract_z
Si Si1 0.944132 0.364975 0.506134
Si Si2 0.945981 0.638399 0.147415
Si Si3 0.793738 0.134474 0.116813
Si Si4 0.456395 0.285192 0.315258
Si Si5 0.184194 0.125768 0.541637
Si Si6 0.898675 0.134669 0.829530
Si Si7 0.304804 0.251539 0.293132
Si Si8 0.843700 0.361906 0.791319
O O1 0.962347 0.500000 0.466738
O O2 0.942706 0.302627 0.414336
O O3 0.877480 0.360311 0.649768
O O4 0.000000 0.313230 0.500000
O O5 0.950435 0.500000 0.160907
O O6 0.962050 0.713454 0.215265
O O7 0.869939 0.668797 0.217647
O O8 0.000000 0.665391 0.000000
O O9 0.796284 0.211167 0.202153
O O10 0.733653 0.160778 0.126202
O O11 0.783916 0.000000 0.158202
O O12 0.860136 0.142966 0.973245
O O13 0.390704 0.362666 0.394188
O O14 0.523505 0.352161 0.252239
O O15 0.234446 0.207664 0.422874
O O16 0.180554 0.148396 0.652481
O O17 0.213282 0.000000 0.487429
O O18 0.874885 0.251520 0.805201
O O19 0.885104 0.000000 0.811695
O O20 0.852926 0.500000 0.812358
#
# Coordination Sequence:
#
# PCOD9185512 Si02
#       8
#     8   8   8   8   8   8   8   8
#     4  10  19  34  57  82 109 143 192 242 279 332
#     4  10  21  36  56  86 120 151 190 239 289 344
#     4  10  21  38  60  83 110 149 196 239 281 342
#     4  11  21  36  58  82 115 156 191 230 288 346
#     4  10  21  36  56  82 112 145 183 230 284 344
#     4  11  23  39  58  84 119 153 192 241 292 347
#     4  10  20  37  59  81 110 146 187 234 285 340
#     4  10  21  39  61  84 112 148 197 246 291 343
#
# _framework density 18.598047999999999
#
# number of rings (size 3 to 8) (size 9 to 14) (size 15 to 20)
#    0.000    1.750    1.250    3.375    0.000    0.500 
#    0.000    9.375    0.000    6.000    0.000    0.000 
#    0.000    0.000    0.000    0.000    0.000    0.000 
#
# Total GULP energy -178227.391182 kJ/mol
# GULP energy per Si atom -5569.605974 kJ/mol
# Density = 1.855572 g / cm^3
# Si number density = 18.598048 Si / 1000 Ang^3
#
#
#
# Elastic Constant Matrix: (Units=GPa)
#
#
# Indices 1 2 3 4 5 6 
#
# 1 66.7896 41.0365 22.4590 0.0000 -1.5528 0.0000
# 2 41.0365 91.0461 19.9914 0.0000 13.0883 0.0000
# 3 22.4590 19.9914 75.1480 0.0000 -1.4911 0.0000
# 4 0.0000 0.0000 0.0000 12.9372 0.0000 -0.1350
# 5 -1.5528 13.0883 -1.4911 0.0000 34.0618 0.0000
# 6 0.0000 0.0000 0.0000 -0.1350 0.0000 -11.0423
#
#
#
# Elastic Compliance Matrix: (Units=1/GPa)
#
#
# Indices 1 2 3 4 5 6 
#
# 1 0.022541 -0.009955 -0.003996 0.000000 0.004678 0.000000
# 2 -0.009955 0.016837 -0.001643 0.000000 -0.006995 0.000000
# 3 -0.003996 -0.001643 0.014960 0.000000 0.001104 0.000000
# 4 0.000000 0.000000 0.000000 0.077286 0.000000 -0.000945
# 5 0.004678 -0.006995 0.001104 0.000000 0.032308 0.000000
# 6 0.000000 0.000000 0.000000 -0.000945 0.000000 -0.090549
#
#
# Mechanical properties :
#
#
# Convention : Reuss Voigt Hill
#
# Bulk Modulus (GPa) = 43.19373 44.43974 43.81673
# Shear Modulus (GPa) = 44.52897 17.15781 30.84339
#
# Velocity S-wave (km/s) = 4.89845 3.04066 4.07679
# Velocity P-wave (km/s) = 7.43427 6.02281 6.76545
#
# Compressibility (1/GPa) = 0.02315151
#
# Stress axis : x y z
#
# Youngs Moduli (GPa) = 44.36324 59.39426 66.84442
#
# Poissons Ratio (x) = 0.59127 0.26709
# Poissons Ratio (y) = 0.44163 0.10980
# Poissons Ratio (z) = 0.17726 0.09756
#
# Static dielectric constant tensor:
#      x y z
#    x 1.658150 0.000000 -0.038390 
#    y 0.000000 1.667100 0.000000 
#    z -0.038390 0.000000 1.640640 
# 
# From -- ./inp_files/245940.got.cif
#   From: 2010.05.17/outbox.cif.g08.bks.cpg/sg12_123_cif.got.tgz:245940.got - 2010.06.03 13:09:07.
