data_PCOD9185620
_publ_section_title
;
Structure prediction by ZEFSAII (Michael W. Deem and Ramdas Pophale) SiO2 
 PCOD9185620
Probable space group: C 2/M
;
_chemical_formula_sum "Si O2"
_cell_formula_units_Z 48
_cell_length_a 29.307736
_cell_length_b 19.437577
_cell_length_c 9.305198
_cell_angle_alpha 90.000000
_cell_angle_beta 150.539968
_cell_angle_gamma 90.000000
_cell_volume 2607.071474
_symmetry_space_group_name_H-M "C 2/M"
_symmetry_group_IT_number 12
_symmetry_cell_setting 'monoclinic'
loop_
_space_group_symop_operation_xyz
x,y,z
-x,y,-z
-x,-y,-z
x,-y,z
1/2+x,1/2+y,z
1/2-x,1/2+y,-z
1/2-x,1/2-y,-z
1/2+x,1/2-y,z
loop_
_atom_site_type_symbol
_atom_site_label
_atom_site_fract_x
_atom_site_fract_y
_atom_site_fract_z
Si Si1 0.483075 0.823893 0.118976
Si Si2 0.244283 0.919861 0.931199
Si Si3 0.389423 0.421218 0.681884
Si Si4 0.593756 0.920090 0.851566
Si Si5 0.167819 0.221308 0.369753
Si Si6 0.690327 0.797876 0.732843
O O1 0.422045 0.874021 0.050989
O O2 0.581782 0.811718 0.465248
O O3 0.500000 0.849346 0.000000
O O4 0.428581 0.752482 0.952158
O O5 0.146768 0.911370 0.581095
O O6 0.258166 0.000000 0.003550
O O7 0.320963 0.900511 0.019114
O O8 0.260691 0.871783 0.112875
O O9 0.363231 0.500000 0.649684
O O10 0.341623 0.360387 0.640414
O O11 0.500000 0.414734 0.000000
O O12 0.500000 0.915927 0.500000
O O13 0.607410 0.000000 0.929561
O O14 0.250000 0.250000 0.500000
O O15 0.186166 0.257921 0.572170
O O16 0.750000 0.750000 0.000000
#
# Coordination Sequence:
#
# PCOD9185620 Si02
#       6
#     8   8   8   8   8   8
#     4  10  22  35  53  82 118 152 186 234 290 345
#     4  10  20  35  59  87 114 148 194 239 286 346
#     4  10  20  37  62  86 112 152 200 244 285 338
#     4  10  19  34  57  84 115 151 191 231 277 346
#     4  11  23  39  57  86 119 150 191 241 291 350
#     4  11  21  36  57  81 112 149 189 238 286 341
#
# _framework density 18.411462
#
# number of rings (size 3 to 8) (size 9 to 14) (size 15 to 20)
#    0.000    1.667    3.333    2.500    0.000    0.333 
#    0.000    3.333    0.000    0.000    0.000    3.500 
#    0.000    0.000    0.000    0.000    0.000    0.000 
#
# Total GULP energy -133781.475161 kJ/mol
# GULP energy per Si atom -5574.228132 kJ/mol
# Density = 1.836956 g / cm^3
# Si number density = 18.411462 Si / 1000 Ang^3
#
#
#
# Elastic Constant Matrix: (Units=GPa)
#
#
# Indices 1 2 3 4 5 6 
#
# 1 37.7184 35.9927 0.8057 0.0000 3.7619 0.0000
# 2 35.9927 133.4956 36.1693 0.0000 -7.7474 0.0000
# 3 0.8057 36.1693 119.7891 0.0000 7.8555 0.0000
# 4 0.0000 0.0000 0.0000 30.9653 0.0000 -3.9384
# 5 3.7619 -7.7474 7.8555 0.0000 13.2138 0.0000
# 6 0.0000 0.0000 0.0000 -3.9384 0.0000 20.3735
#
#
#
# Elastic Compliance Matrix: (Units=1/GPa)
#
#
# Indices 1 2 3 4 5 6 
#
# 1 0.042468 -0.014354 0.005612 0.000000 -0.023843 0.000000
# 2 -0.014354 0.013585 -0.004990 0.000000 0.015018 0.000000
# 3 0.005612 -0.004990 0.010524 0.000000 -0.010780 0.000000
# 4 0.000000 0.000000 0.000000 0.033108 0.000000 0.006400
# 5 -0.023843 0.015018 -0.010780 0.000000 0.097680 0.000000
# 6 0.000000 0.000000 0.000000 0.006400 0.000000 0.050321
#
#
# Mechanical properties :
#
#
# Convention : Reuss Voigt Hill
#
# Bulk Modulus (GPa) = 25.56766 48.54871 37.05818
# Shear Modulus (GPa) = 17.34982 27.44623 22.39803
#
# Velocity S-wave (km/s) = 3.07308 3.86517 3.49166
# Velocity P-wave (km/s) = 5.14866 6.80774 6.03548
#
# Compressibility (1/GPa) = 0.03911191
#
# Stress axis : x y z
#
# Youngs Moduli (GPa) = 23.54710 73.61248 95.02197
#
# Poissons Ratio (x) = 1.05666 -0.53327
# Poissons Ratio (y) = 0.33800 0.47417
# Poissons Ratio (z) = -0.13215 0.36733
#
# Static dielectric constant tensor:
#      x y z
#    x 1.770430 0.000000 -0.015910 
#    y 0.000000 1.706490 0.000000 
#    z -0.015910 0.000000 1.680350 
# 
# From -- ./inp_files/76716.got.cif
#   From: 2010.05.17/outbox.cif.g08.bks.cpg/sg12_39_cif.got.tgz:76716.got - 2010.06.03 13:09:07.
