data_PCOD9185233
_publ_section_title
;
Structure prediction by ZEFSAII (Michael W. Deem and Ramdas Pophale) SiO2 
 PCOD9185233
Probable space group: C 2/M
;
_chemical_formula_sum "Si O2"
_cell_formula_units_Z 64
_cell_length_a 28.573851
_cell_length_b 8.439772
_cell_length_c 18.765041
_cell_angle_alpha 90.000000
_cell_angle_beta 44.893570
_cell_angle_gamma 90.000000
_cell_volume 3193.932871
_symmetry_space_group_name_H-M "C 2/M"
_symmetry_group_IT_number 12
_symmetry_cell_setting 'monoclinic'
loop_
_space_group_symop_operation_xyz
x,y,z
-x,y,-z
-x,-y,-z
x,-y,z
1/2+x,1/2+y,z
1/2-x,1/2+y,-z
1/2-x,1/2-y,-z
1/2+x,1/2-y,z
loop_
_atom_site_type_symbol
_atom_site_label
_atom_site_fract_x
_atom_site_fract_y
_atom_site_fract_z
Si Si1 0.078483 0.186894 0.039393
Si Si2 0.400809 0.179999 0.831243
Si Si3 0.657155 0.812201 0.818777
Si Si4 0.212873 0.686521 0.262689
Si Si5 0.930503 0.692732 0.219746
Si Si6 0.932209 0.694347 0.533841
Si Si7 0.441920 0.184416 0.363631
Si Si8 0.781903 0.818443 0.894049
O O1 0.107777 0.277536 0.076540
O O2 0.001540 0.239521 0.118550
O O3 0.082349 0.000000 0.048810
O O4 0.117018 0.229524 0.926070
O O5 0.478525 0.187735 0.731219
O O6 0.359792 0.296919 0.826162
O O7 0.378265 0.000000 0.841252
O O8 0.734183 0.770005 0.743567
O O9 0.624840 0.765889 0.778320
O O10 0.648237 0.000000 0.836972
O O11 0.215511 0.500000 0.273468
O O12 0.136673 0.739220 0.354208
O O13 0.234821 0.721863 0.158342
O O14 0.937191 0.500000 0.215239
O O15 0.915913 0.749943 0.316254
O O16 0.935206 0.500000 0.529627
O O17 0.927557 0.752110 0.456990
O O18 0.000000 0.745856 0.500000
O O19 0.420672 0.000000 0.389283
O O20 0.763745 0.000000 0.903048
O O21 0.750000 0.750000 0.000000
#
# Coordination Sequence:
#
# PCOD9185233 Si02
#       8
#     8   8   8   8   8   8   8   8
#     4  11  21  33  53  83 116 147 184 230 279 329
#     4  10  19  34  56  81 110 143 181 223 269 326
#     4  11  22  37  54  74 108 151 192 232 277 330
#     4  11  23  38  57  83 112 143 184 230 278 333
#     4   9  19  35  56  80 108 148 193 232 273 327
#     4   9  17  32  58  88 112 137 176 227 278 331
#     4   8  15  31  56  83 107 135 178 227 271 320
#     4  12  24  38  55  77 109 146 183 222 269 325
#
# _framework density 20.037991999999999
#
# number of rings (size 3 to 8) (size 9 to 14) (size 15 to 20)
#    0.000    1.875    0.000    6.000    0.000    4.500 
#    0.000    0.625    0.000   12.750    0.000    0.000 
#    0.000    0.000    0.000    0.000    0.000    0.000 
#
# Total GULP energy -178702.624993 kJ/mol
# GULP energy per Si atom -5584.457031 kJ/mol
# Density = 1.999238 g / cm^3
# Si number density = 20.037992 Si / 1000 Ang^3
#
#
#
# Elastic Constant Matrix: (Units=GPa)
#
#
# Indices 1 2 3 4 5 6 
#
# 1 111.4641 -1.7898 36.4712 0.0075 1.5108 0.0002
# 2 -1.7898 26.9779 5.8817 0.0132 -0.4558 -0.0061
# 3 36.4712 5.8817 91.7589 0.0065 13.0279 -0.0035
# 4 0.0075 0.0132 0.0065 12.0908 -0.0011 -6.0383
# 5 1.5108 -0.4558 13.0279 -0.0011 24.7757 -0.0010
# 6 0.0002 -0.0061 -0.0035 -6.0383 -0.0010 25.4129
#
#
#
# Elastic Compliance Matrix: (Units=1/GPa)
#
#
# Indices 1 2 3 4 5 6 
#
# 1 0.010452 0.001708 -0.004515 -0.000007 0.001768 -0.000002
# 2 0.001708 0.037975 -0.003455 -0.000041 0.002411 -0.000001
# 3 -0.004515 -0.003455 0.013924 -0.000001 -0.007110 0.000001
# 4 -0.000007 -0.000041 -0.000001 0.093843 0.000006 0.022298
# 5 0.001768 0.002411 -0.007110 0.000006 0.044037 0.000003
# 6 -0.000002 -0.000001 0.000001 0.022298 0.000003 0.044648
#
#
# Mechanical properties :
#
#
# Convention : Reuss Voigt Hill
#
# Bulk Modulus (GPa) = 20.07006 34.59190 27.33098
# Shear Modulus (GPa) = 18.24731 25.09841 21.67286
#
# Velocity S-wave (km/s) = 3.02095 3.54297 3.29232
# Velocity P-wave (km/s) = 4.71232 5.83416 5.30299
#
# Compressibility (1/GPa) = 0.04982547
#
# Stress axis : x y z
#
# Youngs Moduli (GPa) = 95.67322 26.33332 71.82059
#
# Poissons Ratio (x) = -0.04497 0.32426
# Poissons Ratio (y) = -0.16338 0.24816
# Poissons Ratio (z) = 0.43196 0.09099
#
# Static dielectric constant tensor:
#      x y z
#    x 1.723710 0.000000 -0.003530 
#    y 0.000000 1.685150 0.000000 
#    z -0.003530 0.000000 1.721590 
# 
# From -- ./inp_files/295483.got.cif
#   From: 2010.05.17/outbox.cif.g08.bks.cpg/sg12_148_cif.got.tgz:295483.got - 2010.06.03 13:09:07.
