data_PCOD9185096
_publ_section_title
;
Structure prediction by ZEFSAII (Michael W. Deem and Ramdas Pophale) SiO2 
 PCOD9185096
Probable space group: C 2/M
;
_chemical_formula_sum "Si O2"
_cell_formula_units_Z 64
_cell_length_a 12.038375
_cell_length_b 17.876210
_cell_length_c 14.765355
_cell_angle_alpha 90.000000
_cell_angle_beta 86.496050
_cell_angle_gamma 90.000000
_cell_volume 3171.571986
_symmetry_space_group_name_H-M "C 2/M"
_symmetry_group_IT_number 12
_symmetry_cell_setting 'monoclinic'
loop_
_space_group_symop_operation_xyz
x,y,z
-x,y,-z
-x,-y,-z
x,-y,z
1/2+x,1/2+y,z
1/2-x,1/2+y,-z
1/2-x,1/2-y,-z
1/2+x,1/2-y,z
loop_
_atom_site_type_symbol
_atom_site_label
_atom_site_fract_x
_atom_site_fract_y
_atom_site_fract_z
Si Si1 0.703709 0.413913 0.345247
Si Si2 0.500365 0.676863 0.329985
Si Si3 0.538984 0.294826 0.870667
Si Si4 0.687611 0.329153 0.016558
Si Si5 0.059822 0.584416 0.718863
Si Si6 0.412584 0.877545 0.078921
Si Si7 0.077035 0.330121 0.410449
Si Si8 0.693498 0.588149 0.560231
O O1 0.708121 0.500000 0.315437
O O2 0.607860 0.371380 0.298802
O O3 0.825129 0.380215 0.322760
O O4 0.677212 0.411705 0.452940
O O5 0.448554 0.703561 0.237697
O O6 0.548371 0.743852 0.389892
O O7 0.412679 0.624949 0.386528
O O8 0.415618 0.318661 0.909554
O O9 0.558540 0.209794 0.902407
O O10 0.628400 0.344283 0.922579
O O11 0.785809 0.381872 0.048963
O O12 0.750000 0.250000 0.000000
O O13 0.052902 0.500000 0.683566
O O14 0.067900 0.584487 0.825853
O O15 0.959986 0.628930 0.679682
O O16 0.500000 0.904240 0.000000
O O17 0.201024 0.358223 0.424934
O O18 0.000000 0.352880 0.500000
O O19 0.710804 0.500000 0.585243
#
# Coordination Sequence:
#
# PCOD9185096 Si02
#       8
#     8   8   8   8   8   8   8   8
#     4  10  22  43  66  85 123 175 220 259 318 394
#     4  12  25  37  64 101 135 157 216 281 330 370
#     4  10  19  34  55  90 120 160 193 259 323 377
#     4   9  17  33  57  81 115 157 204 242 310 392
#     4  11  24  41  63  91 123 171 219 260 323 394
#     4  11  20  36  60  87 120 156 203 259 319 382
#     4  12  25  40  66  93 130 171 221 278 321 381
#     4  11  25  44  65  90 129 181 223 264 329 397
#
# _framework density 20.179266999999999
#
# number of rings (size 3 to 8) (size 9 to 14) (size 15 to 20)
#    0.000    1.250    5.000    2.625    1.750    5.750 
#    0.000    0.000    0.000    1.500    0.000    6.125 
#    0.000    0.000    0.000    0.000    0.000    0.000 
#
# Total GULP energy -178588.080131 kJ/mol
# GULP energy per Si atom -5580.877504 kJ/mol
# Density = 2.013334 g / cm^3
# Si number density = 20.179267 Si / 1000 Ang^3
#
#
#
# Elastic Constant Matrix: (Units=GPa)
#
#
# Indices 1 2 3 4 5 6 
#
# 1 82.9707 18.0928 6.8117 0.0000 12.6923 0.0000
# 2 18.0928 53.5715 13.4637 0.0000 7.3473 0.0000
# 3 6.8117 13.4637 75.4916 0.0000 5.3354 0.0000
# 4 0.0000 0.0000 0.0000 15.3770 0.0000 -0.5258
# 5 12.6923 7.3473 5.3354 0.0000 27.1734 0.0000
# 6 0.0000 0.0000 0.0000 -0.5258 0.0000 15.1527
#
#
#
# Elastic Compliance Matrix: (Units=1/GPa)
#
#
# Indices 1 2 3 4 5 6 
#
# 1 0.013724 -0.003860 -0.000173 0.000000 -0.005333 0.000000
# 2 -0.003860 0.021229 -0.003204 0.000000 -0.003308 0.000000
# 3 -0.000173 -0.003204 0.013960 0.000000 -0.001794 0.000000
# 4 0.000000 0.000000 0.000000 0.065109 0.000000 0.002259
# 5 -0.005333 -0.003308 -0.001794 0.000000 0.040538 0.000000
# 6 0.000000 0.000000 0.000000 0.002259 0.000000 0.066073
#
#
# Mechanical properties :
#
#
# Convention : Reuss Voigt Hill
#
# Bulk Modulus (GPa) = 29.03670 32.08558 30.56114
# Shear Modulus (GPa) = 20.27666 23.11832 21.69749
#
# Velocity S-wave (km/s) = 3.17334 3.38841 3.28264
# Velocity P-wave (km/s) = 5.27706 5.58957 5.43556
#
# Compressibility (1/GPa) = 0.03443917
#
# Stress axis : x y z
#
# Youngs Moduli (GPa) = 72.86410 47.10473 71.63153
#
# Poissons Ratio (x) = 0.18184 0.01239
# Poissons Ratio (y) = 0.28127 0.22951
# Poissons Ratio (z) = 0.01261 0.15093
#
# Static dielectric constant tensor:
#      x y z
#    x 1.709550 0.000000 0.016160 
#    y 0.000000 1.730340 0.000000 
#    z 0.016160 0.000000 1.718570 
# 
# From -- ./inp_files/206674.got.cif
#   From: 2010.05.17/outbox.cif.g08.bks.cpg/sg12_104_cif.got.tgz:206674.got - 2010.06.03 13:09:07.
