data_PCOD9185712
_publ_section_title
;
Structure prediction by ZEFSAII (Michael W. Deem and Ramdas Pophale) SiO2 
 PCOD9185712
Probable space group: C 2/M
;
_chemical_formula_sum "Si O2"
_cell_formula_units_Z 64
_cell_length_a 20.776474
_cell_length_b 8.852382
_cell_length_c 32.868742
_cell_angle_alpha 90.000000
_cell_angle_beta 36.706051
_cell_angle_gamma 90.000000
_cell_volume 3613.312006
_symmetry_space_group_name_H-M "C 2/M"
_symmetry_group_IT_number 12
_symmetry_cell_setting 'monoclinic'
loop_
_space_group_symop_operation_xyz
x,y,z
-x,y,-z
-x,-y,-z
x,-y,z
1/2+x,1/2+y,z
1/2-x,1/2+y,-z
1/2-x,1/2-y,-z
1/2+x,1/2-y,z
loop_
_atom_site_type_symbol
_atom_site_label
_atom_site_fract_x
_atom_site_fract_y
_atom_site_fract_z
Si Si1 0.740694 0.679560 0.070020
Si Si2 0.848338 0.319045 0.718600
Si Si3 0.388755 0.180237 0.792998
Si Si4 0.762782 0.320801 0.427517
Si Si5 0.913923 0.319549 0.428659
Si Si6 0.420052 0.679674 0.924287
Si Si7 0.114349 0.179993 0.707623
Si Si8 0.360912 0.179842 0.215724
O O1 0.750572 0.500000 0.070718
O O2 0.702581 0.759840 0.130324
O O3 0.647694 0.705815 0.083078
O O4 0.849023 0.747791 0.996025
O O5 0.832570 0.500000 0.721869
O O6 0.861547 0.288218 0.759898
O O7 0.748311 0.232292 0.750476
O O8 0.961490 0.279206 0.639793
O O9 0.499784 0.260072 0.749321
O O10 0.402250 0.000000 0.790729
O O11 0.763230 0.500000 0.419839
O O12 0.851854 0.288736 0.417550
O O13 0.650446 0.267015 0.503723
O O14 0.797050 0.233180 0.369853
O O15 0.905594 0.500000 0.439749
O O16 0.429239 0.500000 0.925252
O O17 0.535992 0.753916 0.860235
O O18 0.135306 0.252096 0.740869
O O19 0.111477 0.000000 0.712571
O O20 0.368499 0.000000 0.213734
#
# Coordination Sequence:
#
# PCOD9185712 Si02
#       8
#     8   8   8   8   8   8   8   8
#     4  10  20  34  57  89 120 152 191 242 290 341
#     4  10  22  41  61  84 120 159 195 235 291 354
#     4  11  21  37  61  89 119 153 194 244 291 343
#     4  10  19  34  57  88 119 150 191 243 292 342
#     4   9  18  35  57  85 118 155 191 234 291 349
#     4  10  20  36  58  85 118 156 193 237 292 347
#     4  12  23  37  59  87 118 154 197 244 290 344
#     4  12  25  40  60  86 119 156 196 243 293 348
#
# _framework density 17.712281999999998
#
# number of rings (size 3 to 8) (size 9 to 14) (size 15 to 20)
#    0.000    1.500    2.500    3.750    0.000    3.000 
#    0.000    1.250    0.000    7.500    0.000    0.000 
#    0.000    0.000    0.000    0.000    0.000    0.000 
#
# Total GULP energy -178833.191433 kJ/mol
# GULP energy per Si atom -5588.537232 kJ/mol
# Density = 1.767197 g / cm^3
# Si number density = 17.712282 Si / 1000 Ang^3
#
#
#
# Elastic Constant Matrix: (Units=GPa)
#
#
# Indices 1 2 3 4 5 6 
#
# 1 75.0982 57.3269 61.5432 0.0040 -9.3714 0.0055
# 2 57.3269 91.3011 67.8008 0.0092 -9.4055 -0.0027
# 3 61.5432 67.8008 155.0948 0.0016 -9.4102 -0.0004
# 4 0.0040 0.0092 0.0016 36.7675 0.0001 -0.1768
# 5 -9.3714 -9.4055 -9.4102 0.0001 22.7921 0.0003
# 6 0.0055 -0.0027 -0.0004 -0.1768 0.0003 27.1055
#
#
#
# Elastic Compliance Matrix: (Units=1/GPa)
#
#
# Indices 1 2 3 4 5 6 
#
# 1 0.028372 -0.013660 -0.005047 0.000000 0.003945 -0.000007
# 2 -0.013660 0.023132 -0.004568 -0.000004 0.002043 0.000005
# 3 -0.005047 -0.004568 0.010470 0.000001 0.000362 0.000001
# 4 0.000000 -0.000004 0.000001 0.027199 -0.000001 0.000177
# 5 0.003945 0.002043 0.000362 -0.000001 0.046490 -0.000001
# 6 -0.000007 0.000005 0.000001 0.000177 -0.000001 0.036894
#
#
# Mechanical properties :
#
#
# Convention : Reuss Voigt Hill
#
# Bulk Modulus (GPa) = 64.83793 77.20400 71.02097
# Shear Modulus (GPa) = 22.29676 26.32124 24.30900
#
# Velocity S-wave (km/s) = 3.55185 3.85911 3.70866
# Velocity P-wave (km/s) = 7.31481 7.97116 7.65003
#
# Compressibility (1/GPa) = 0.01542307
#
# Stress axis : x y z
#
# Youngs Moduli (GPa) = 35.24625 43.22933 95.51504
#
# Poissons Ratio (x) = 0.59050 0.48211
# Poissons Ratio (y) = 0.48145 0.43633
# Poissons Ratio (z) = 0.17790 0.19748
#
# Static dielectric constant tensor:
#      x y z
#    x 1.576040 0.000000 0.000620 
#    y 0.000000 1.589510 0.000000 
#    z 0.000620 0.000000 1.597060 
# 
# From -- ./inp_files/378028.got.cif
#   From: 2010.05.17/outbox.cif.g08.bks.cpg/sg12_190_cif.got.tgz:378028.got - 2010.06.03 13:09:07.
