data_PCOD9185250
_publ_section_title
;
Structure prediction by ZEFSAII (Michael W. Deem and Ramdas Pophale) SiO2 
 PCOD9185250
Probable space group: C 2/M
;
_chemical_formula_sum "Si O2"
_cell_formula_units_Z 48
_cell_length_a 30.558424
_cell_length_b 9.005617
_cell_length_c 10.331027
_cell_angle_alpha 90.000000
_cell_angle_beta 99.595192
_cell_angle_gamma 90.000000
_cell_volume 2803.297914
_symmetry_space_group_name_H-M "C 2/M"
_symmetry_group_IT_number 12
_symmetry_cell_setting 'monoclinic'
loop_
_space_group_symop_operation_xyz
x,y,z
-x,y,-z
-x,-y,-z
x,-y,z
1/2+x,1/2+y,z
1/2-x,1/2+y,-z
1/2-x,1/2-y,-z
1/2+x,1/2-y,z
loop_
_atom_site_type_symbol
_atom_site_label
_atom_site_fract_x
_atom_site_fract_y
_atom_site_fract_z
Si Si1 0.132171 0.677263 0.664983
Si Si2 0.961137 0.178741 0.080700
Si Si3 0.633265 0.823531 0.972253
Si Si4 0.221621 0.822339 0.100860
Si Si5 0.962062 0.178722 0.381458
Si Si6 0.726276 0.178370 0.610014
O O1 0.127144 0.500000 0.646541
O O2 0.141077 0.703456 0.822305
O O3 0.086070 0.755585 0.608669
O O4 0.175370 0.727613 0.607328
O O5 0.915104 0.257738 0.022448
O O6 0.971838 0.218280 0.235877
O O7 0.955098 0.000000 0.072829
O O8 0.000000 0.218407 0.000000
O O9 0.634523 0.000000 0.994199
O O10 0.672286 0.743142 0.068561
O O11 0.245868 0.787108 0.247213
O O12 0.220836 0.000000 0.084684
O O13 0.250000 0.750000 0.000000
O O14 0.000000 0.228744 0.500000
O O15 0.959677 0.000000 0.386732
O O16 0.750000 0.250000 0.500000
O O17 0.725578 0.000000 0.596019
#
# Coordination Sequence:
#
# PCOD9185250 Si02
#       6
#     8   8   8   8   8   8
#     4   9  18  35  55  76 106 139 175 219 264 313
#     4   9  18  34  54  76 106 140 173 217 271 319
#     4  10  19  34  56  82 109 139 181 225 265 317
#     4  11  21  36  58  83 110 141 182 226 269 322
#     4   9  18  33  53  77 101 132 177 218 257 313
#     4  10  22  39  55  78 112 145 179 222 271 320
#
# _framework density 17.122689999999999
#
# number of rings (size 3 to 8) (size 9 to 14) (size 15 to 20)
#    0.000    2.333    1.667    1.000    0.000    3.333 
#    3.000    0.000    0.000    0.000    0.000    0.000 
#    0.000    0.000    0.000    0.000    0.000    0.000 
#
# Total GULP energy -133896.515902 kJ/mol
# GULP energy per Si atom -5579.021496 kJ/mol
# Density = 1.708372 g / cm^3
# Si number density = 17.122690 Si / 1000 Ang^3
#
#
#
# Elastic Constant Matrix: (Units=GPa)
#
#
# Indices 1 2 3 4 5 6 
#
# 1 185.5913 54.1262 99.3872 0.0000 0.0630 0.0000
# 2 54.1262 32.4479 49.8368 0.0000 3.1417 0.0000
# 3 99.3872 49.8368 111.0441 0.0000 10.1142 0.0000
# 4 0.0000 0.0000 0.0000 21.5912 0.0000 1.8155
# 5 0.0630 3.1417 10.1142 0.0000 33.3417 0.0000
# 6 0.0000 0.0000 0.0000 1.8155 0.0000 35.1404
#
#
#
# Elastic Compliance Matrix: (Units=1/GPa)
#
#
# Indices 1 2 3 4 5 6 
#
# 1 0.011652 -0.010621 -0.005915 0.000000 0.002773 0.000000
# 2 -0.010621 0.109473 -0.039788 0.000000 0.001774 0.000000
# 3 -0.005915 -0.039788 0.032718 0.000000 -0.006165 0.000000
# 4 0.000000 0.000000 0.000000 0.046517 0.000000 -0.002403
# 5 0.002773 0.001774 -0.006165 0.000000 0.031690 0.000000
# 6 0.000000 0.000000 0.000000 -0.002403 0.000000 0.028581
#
#
# Mechanical properties :
#
#
# Convention : Reuss Voigt Hill
#
# Bulk Modulus (GPa) = 24.27392 81.75375 53.01383
# Shear Modulus (GPa) = 12.91953 26.39686 19.65819
#
# Velocity S-wave (km/s) = 2.74984 3.93062 3.39201
# Velocity P-wave (km/s) = 4.92843 8.27340 6.80950
#
# Compressibility (1/GPa) = 0.04119648
#
# Stress axis : x y z
#
# Youngs Moduli (GPa) = 85.81993 9.13467 30.56428
#
# Poissons Ratio (x) = 0.09702 0.18079
# Poissons Ratio (y) = 0.91146 1.21608
# Poissons Ratio (z) = 0.50764 0.36345
#
# Static dielectric constant tensor:
#      x y z
#    x 1.565410 0.000000 0.001380 
#    y 0.000000 1.570780 0.000000 
#    z 0.001380 0.000000 1.566570 
# 
# From -- ./inp_files/185960.got.cif
#   From: 2010.05.17/outbox.cif.g08.bks.cpg/sg12_93_cif.got.tgz:185960.got - 2010.06.03 13:09:07.
