data_PCOD9185064
_publ_section_title
;
Structure prediction by ZEFSAII (Michael W. Deem and Ramdas Pophale) SiO2 
 PCOD9185064
Probable space group: C 2/M
;
_chemical_formula_sum "Si O2"
_cell_formula_units_Z 56
_cell_length_a 18.841072
_cell_length_b 15.141235
_cell_length_c 9.806475
_cell_angle_alpha 90.000000
_cell_angle_beta 84.627159
_cell_angle_gamma 90.000000
_cell_volume 2785.271538
_symmetry_space_group_name_H-M "C 2/M"
_symmetry_group_IT_number 12
_symmetry_cell_setting 'monoclinic'
loop_
_space_group_symop_operation_xyz
x,y,z
-x,y,-z
-x,-y,-z
x,-y,z
1/2+x,1/2+y,z
1/2-x,1/2+y,-z
1/2-x,1/2-y,-z
1/2+x,1/2-y,z
loop_
_atom_site_type_symbol
_atom_site_label
_atom_site_fract_x
_atom_site_fract_y
_atom_site_fract_z
Si Si1 0.708255 0.659182 0.536838
Si Si2 0.087948 0.773394 0.921391
Si Si3 0.723042 0.400773 0.243792
Si Si4 0.155775 0.602896 0.972331
Si Si5 0.069100 0.895818 0.178081
Si Si6 0.220597 0.899619 0.831649
Si Si7 0.542374 0.695385 0.626505
O O1 0.750000 0.750000 0.500000
O O2 0.726067 0.600583 0.403900
O O3 0.735321 0.617033 0.671114
O O4 0.622381 0.670329 0.564924
O O5 0.095877 0.676830 0.986224
O O6 0.162062 0.827341 0.882945
O O7 0.056437 0.758904 0.773115
O O8 0.057970 0.836145 0.047709
O O9 0.721627 0.500000 0.188639
O O10 0.793564 0.364239 0.161995
O O11 0.646517 0.363333 0.217119
O O12 0.133919 0.500000 0.959448
O O13 0.208546 0.608726 0.091671
O O14 0.010212 0.881300 0.306745
O O15 0.069997 0.000000 0.144916
O O16 0.192546 0.000000 0.855630
O O17 0.500000 0.732917 0.500000
#
# Coordination Sequence:
#
# PCOD9185064 Si02
#       7
#     8   8   8   8   8   8   8
#     4  11  23  37  58  86 120 168 206 250 298 358
#     4  11  22  37  63  86 124 169 206 254 305 364
#     4  10  19  34  55  83 121 161 199 243 299 364
#     4  10  21  38  62  93 123 158 210 264 309 357
#     4  11  23  38  59  88 123 166 203 239 302 379
#     4  10  20  34  57  91 127 161 201 253 309 365
#     4  11  24  40  56  86 124 165 206 247 301 369
#
# _framework density 20.10576
#
# number of rings (size 3 to 8) (size 9 to 14) (size 15 to 20)
#    0.000    1.429    2.857    3.429    2.000    4.286 
#    0.000    0.000    0.000    2.143    0.000    0.000 
#    0.000    0.000    0.000    0.000    0.000    0.000 
#
# Total GULP energy -155868.217856 kJ/mol
# GULP energy per Si atom -5566.722066 kJ/mol
# Density = 2.006000 g / cm^3
# Si number density = 20.105760 Si / 1000 Ang^3
#
#
#
# Elastic Constant Matrix: (Units=GPa)
#
#
# Indices 1 2 3 4 5 6 
#
# 1 32.2676 27.2669 17.6909 0.0000 -7.7158 0.0000
# 2 27.2669 102.1590 26.8470 0.0000 4.9522 0.0000
# 3 17.6909 26.8470 127.4233 0.0000 6.2429 0.0000
# 4 0.0000 0.0000 0.0000 23.5733 0.0000 -7.5407
# 5 -7.7158 4.9522 6.2429 0.0000 25.1091 0.0000
# 6 0.0000 0.0000 0.0000 -7.5407 0.0000 56.7065
#
#
#
# Elastic Compliance Matrix: (Units=1/GPa)
#
#
# Indices 1 2 3 4 5 6 
#
# 1 0.048938 -0.012645 -0.005051 0.000000 0.018788 0.000000
# 2 -0.012645 0.013687 -0.000816 0.000000 -0.006383 0.000000
# 3 -0.005051 -0.000816 0.008897 0.000000 -0.003603 0.000000
# 4 0.000000 0.000000 0.000000 0.044306 0.000000 0.005892
# 5 0.018788 -0.006383 -0.003603 0.000000 0.047754 0.000000
# 6 0.000000 0.000000 0.000000 0.005892 0.000000 0.018418
#
#
# Mechanical properties :
#
#
# Convention : Reuss Voigt Hill
#
# Bulk Modulus (GPa) = 28.98546 45.05103 37.01825
# Shear Modulus (GPa) = 21.68978 33.74747 27.71863
#
# Velocity S-wave (km/s) = 3.28805 4.10139 3.71703
# Velocity P-wave (km/s) = 5.37241 6.69957 6.07236
#
# Compressibility (1/GPa) = 0.03450005
#
# Stress axis : x y z
#
# Youngs Moduli (GPa) = 20.43408 73.05946 112.39224
#
# Poissons Ratio (x) = 0.92386 0.56764
# Poissons Ratio (y) = 0.25840 0.09166
# Poissons Ratio (z) = 0.10320 0.05958
#
# Static dielectric constant tensor:
#      x y z
#    x 1.867130 0.000000 -0.009730 
#    y 0.000000 1.759400 0.000000 
#    z -0.009730 0.000000 1.732380 
# 
# From -- ./inp_files/86393.got.cif
#   From: 2010.05.17/outbox.cif.g08.bks.cpg/sg12_44_cif.got.tgz:86393.got - 2010.06.03 13:09:07.
