data_PCOD9185097
_publ_section_title
;
Structure prediction by ZEFSAII (Michael W. Deem and Ramdas Pophale) SiO2 
 PCOD9185097
Probable space group: C 2/M
;
_chemical_formula_sum "Si O2"
_cell_formula_units_Z 56
_cell_length_a 7.823155
_cell_length_b 16.732068
_cell_length_c 30.566270
_cell_angle_alpha 90.000000
_cell_angle_beta 135.706596
_cell_angle_gamma 90.000000
_cell_volume 2794.064948
_symmetry_space_group_name_H-M "C 2/M"
_symmetry_group_IT_number 12
_symmetry_cell_setting 'monoclinic'
loop_
_space_group_symop_operation_xyz
x,y,z
-x,y,-z
-x,-y,-z
x,-y,z
1/2+x,1/2+y,z
1/2-x,1/2+y,-z
1/2-x,1/2-y,-z
1/2+x,1/2-y,z
loop_
_atom_site_type_symbol
_atom_site_label
_atom_site_fract_x
_atom_site_fract_y
_atom_site_fract_z
Si Si1 0.206012 0.310408 0.359128
Si Si2 0.165851 0.193048 0.754428
Si Si3 0.530886 0.911733 0.259114
Si Si4 0.714952 0.906186 0.147917
Si Si5 0.553340 0.337234 0.144839
Si Si6 0.241479 0.789739 0.451310
Si Si7 0.149535 0.905361 0.071729
O O1 0.053945 0.384831 0.313655
O O2 0.224973 0.280568 0.412076
O O3 0.484498 0.332348 0.397610
O O4 0.073024 0.236402 0.309265
O O5 0.322251 0.151127 0.744675
O O6 0.114332 0.126973 0.781719
O O7 0.329547 0.258927 0.810600
O O8 0.249297 0.904884 0.194581
O O9 0.625417 0.000000 0.268332
O O10 0.436673 0.893787 0.113399
O O11 0.795578 0.857955 0.119670
O O12 0.744879 0.000000 0.146022
O O13 0.561646 0.346124 0.094113
O O14 0.500000 0.835837 0.500000
O O15 0.250000 0.750000 0.500000
O O16 0.116477 0.000000 0.077860
O O17 0.000000 0.892015 0.000000
#
# Coordination Sequence:
#
# PCOD9185097 Si02
#       7
#     8   8   8   8   8   8   8
#     4  10  19  34  55  91 110 150 200 240 290 351
#     4  11  22  37  61  88 124 150 193 248 308 357
#     4  11  21  36  60  88 124 158 187 245 316 363
#     4  11  23  38  61  89 117 156 198 242 307 367
#     4  11  22  39  61  89 120 154 198 251 301 361
#     4   9  18  33  56  83 112 150 200 245 277 337
#     4  10  22  41  63  86 118 161 205 249 301 364
#
# _framework density 20.042483000000001
#
# number of rings (size 3 to 8) (size 9 to 14) (size 15 to 20)
#    0.000    1.571    2.857    3.429    2.000    0.571 
#    0.000    2.857    0.000    4.286    0.000    0.000 
#    0.000    0.000    0.000    0.000    0.000    0.000 
#
# Total GULP energy -155980.215504 kJ/mol
# GULP energy per Si atom -5570.721982 kJ/mol
# Density = 1.999687 g / cm^3
# Si number density = 20.042483 Si / 1000 Ang^3
#
#
#
# Elastic Constant Matrix: (Units=GPa)
#
#
# Indices 1 2 3 4 5 6 
#
# 1 64.4236 11.3410 21.9505 0.0000 -16.5176 0.0000
# 2 11.3410 62.2041 35.1848 0.0000 -7.7102 0.0000
# 3 21.9505 35.1848 106.5408 0.0000 -23.3048 0.0000
# 4 0.0000 0.0000 0.0000 10.8467 0.0000 -1.7016
# 5 -16.5176 -7.7102 -23.3048 0.0000 27.9844 0.0000
# 6 0.0000 0.0000 0.0000 -1.7016 0.0000 21.8823
#
#
#
# Elastic Compliance Matrix: (Units=1/GPa)
#
#
# Indices 1 2 3 4 5 6 
#
# 1 0.018666 -0.001507 -0.001258 0.000000 0.009554 0.000000
# 2 -0.001507 0.019891 -0.006424 0.000000 -0.000760 0.000000
# 3 -0.001258 -0.006424 0.013716 0.000000 0.008910 0.000000
# 4 0.000000 0.000000 0.000000 0.093332 0.000000 0.007258
# 5 0.009554 -0.000760 0.008910 0.000000 0.048584 0.000000
# 6 0.000000 0.000000 0.000000 0.007258 0.000000 0.046263
#
#
# Mechanical properties :
#
#
# Convention : Reuss Voigt Hill
#
# Bulk Modulus (GPa) = 29.50467 41.12456 35.31461
# Shear Modulus (GPa) = 18.50966 23.12217 20.81592
#
# Velocity S-wave (km/s) = 3.04225 3.40024 3.22621
# Velocity P-wave (km/s) = 5.20513 5.99823 5.61570
#
# Compressibility (1/GPa) = 0.03389294
#
# Stress axis : x y z
#
# Youngs Moduli (GPa) = 53.57362 50.27494 72.90865
#
# Poissons Ratio (x) = 0.07578 0.09172
# Poissons Ratio (y) = 0.08075 0.46839
# Poissons Ratio (z) = 0.06740 0.32299
#
# Static dielectric constant tensor:
#      x y z
#    x 1.834380 0.000000 0.015170 
#    y 0.000000 1.719810 0.000000 
#    z 0.015170 0.000000 1.726280 
# 
# From -- ./inp_files/372807.got.cif
#   From: 2010.05.17/outbox.cif.g08.bks.cpg/sg12_187_cif.got.tgz:372807.got - 2010.06.03 13:09:07.
