data_PCOD9185466
_publ_section_title
;
Structure prediction by ZEFSAII (Michael W. Deem and Ramdas Pophale) SiO2 
 PCOD9185466
Probable space group: C 2/M
;
_chemical_formula_sum "Si O2"
_cell_formula_units_Z 56
_cell_length_a 17.703924
_cell_length_b 12.769149
_cell_length_c 19.832090
_cell_angle_alpha 90.000000
_cell_angle_beta 42.499808
_cell_angle_gamma 90.000000
_cell_volume 3028.877672
_symmetry_space_group_name_H-M "C 2/M"
_symmetry_group_IT_number 12
_symmetry_cell_setting 'monoclinic'
loop_
_space_group_symop_operation_xyz
x,y,z
-x,y,-z
-x,-y,-z
x,-y,z
1/2+x,1/2+y,z
1/2-x,1/2+y,-z
1/2-x,1/2-y,-z
1/2+x,1/2-y,z
loop_
_atom_site_type_symbol
_atom_site_label
_atom_site_fract_x
_atom_site_fract_y
_atom_site_fract_z
Si Si1 0.926893 0.776897 0.409316
Si Si2 0.265445 0.612888 0.424571
Si Si3 0.500000 0.736589 0.500000
Si Si4 0.736190 0.186134 0.304179
Si Si5 0.599342 0.122551 0.801276
Si Si6 0.057935 0.623432 0.226017
Si Si7 0.699902 0.379054 0.888232
Si Si8 0.000000 0.722610 0.000000
O O1 0.825397 0.700352 0.497647
O O2 0.875999 0.862296 0.393491
O O3 0.970346 0.823261 0.451015
O O4 0.011509 0.702997 0.312786
O O5 0.219319 0.500000 0.473384
O O6 0.288965 0.619819 0.329892
O O7 0.394701 0.805780 0.592840
O O8 0.793993 0.300430 0.273632
O O9 0.758578 0.139664 0.216148
O O10 0.513110 0.141342 0.795787
O O11 0.629507 0.000000 0.779855
O O12 0.543058 0.153425 0.909379
O O13 0.042292 0.500000 0.254605
O O14 0.191955 0.639550 0.135479
O O15 0.664488 0.500000 0.919484
O O16 0.598614 0.298114 0.962627
#
# Coordination Sequence:
#
# PCOD9185466 Si02
#       8
#     8   8   4   8   8   8   8   4
#     4  10  19  35  51  76 112 147 185 226 261 316
#     4  10  20  33  52  77 108 149 189 222 267 317
#     4  10  20  34  54  78 114 150 182 218 272 308
#     4  10  19  35  55  81 115 147 179 232 269 321
#     4  10  21  38  60  82 105 144 189 226 276 328
#     4  10  19  34  57  81 108 142 182 224 269 324
#     4  10  20  35  57  85 113 142 178 225 283 333
#     4  10  22  38  60  82 110 142 174 236 280 334
#
# _framework density 18.488696000000001
#
# number of rings (size 3 to 8) (size 9 to 14) (size 15 to 20)
#    0.000    2.000    2.857    1.286    0.000    0.571 
#    0.000    3.571    0.000    0.000    0.000    0.000 
#    0.000    0.000    0.000    0.000    0.000    0.000 
#
# Total GULP energy -156028.853100 kJ/mol
# GULP energy per Si atom -5572.459039 kJ/mol
# Density = 1.844661 g / cm^3
# Si number density = 18.488696 Si / 1000 Ang^3
#
#
#
# Elastic Constant Matrix: (Units=GPa)
#
#
# Indices 1 2 3 4 5 6 
#
# 1 94.0371 23.6197 9.1102 0.0000 3.0893 0.0000
# 2 23.6197 63.2611 13.7085 0.0000 -2.1052 0.0000
# 3 9.1102 13.7085 44.8673 0.0000 -1.0071 0.0000
# 4 0.0000 0.0000 0.0000 -0.3277 0.0000 -46.2240
# 5 3.0893 -2.1052 -1.0071 0.0000 18.8000 0.0000
# 6 0.0000 0.0000 0.0000 -46.2240 0.0000 -164.2472
#
#
#
# Elastic Compliance Matrix: (Units=1/GPa)
#
#
# Indices 1 2 3 4 5 6 
#
# 1 0.011903 -0.004274 -0.001167 0.000000 -0.002497 0.000000
# 2 -0.004274 0.018513 -0.004732 0.000000 0.002522 0.000000
# 3 -0.001167 -0.004732 0.023992 0.000000 0.000947 0.000000
# 4 0.000000 0.000000 0.000000 0.078857 0.000000 -0.022193
# 5 -0.002497 0.002522 0.000947 0.000000 0.053935 0.000000
# 6 0.000000 0.000000 0.000000 -0.022193 0.000000 0.000157
#
#
# Mechanical properties :
#
#
# Convention : Reuss Voigt Hill
#
# Bulk Modulus (GPa) = 29.35884 32.78247 31.07066
# Shear Modulus (GPa) = 22.82511 -18.77318 2.02597
#
# Velocity S-wave (km/s) = 3.51742 -3.18997 1.04793
# Velocity P-wave (km/s) = 5.69299 2.04981 4.27854
#
# Compressibility (1/GPa) = 0.03406129
#
# Stress axis : x y z
#
# Youngs Moduli (GPa) = 84.01390 54.01696 41.68075
#
# Poissons Ratio (x) = 0.23089 0.04864
# Poissons Ratio (y) = 0.35911 0.19722
# Poissons Ratio (z) = 0.09804 0.25560
#
# Static dielectric constant tensor:
#      x y z
#    x 1.696270 0.000000 -0.011340 
#    y 0.000000 1.607290 0.000000 
#    z -0.011340 0.000000 1.628660 
# 
# From -- ./inp_files/315944.got.cif
#   From: 2010.05.17/outbox.cif.g08.bks.cpg/sg12_158_cif.got.tgz:315944.got - 2010.06.03 13:09:07.
