data_PCOD9185243
_publ_section_title
;
Structure prediction by ZEFSAII (Michael W. Deem and Ramdas Pophale) SiO2 
 PCOD9185243
Probable space group: C 2/M
;
_chemical_formula_sum "Si O2"
_cell_formula_units_Z 64
_cell_length_a 12.309551
_cell_length_b 28.212392
_cell_length_c 15.281117
_cell_angle_alpha 90.000000
_cell_angle_beta 37.976537
_cell_angle_gamma 90.000000
_cell_volume 3265.513413
_symmetry_space_group_name_H-M "C 2/M"
_symmetry_group_IT_number 12
_symmetry_cell_setting 'monoclinic'
loop_
_space_group_symop_operation_xyz
x,y,z
-x,y,-z
-x,-y,-z
x,-y,z
1/2+x,1/2+y,z
1/2-x,1/2+y,-z
1/2-x,1/2-y,-z
1/2+x,1/2-y,z
loop_
_atom_site_type_symbol
_atom_site_label
_atom_site_fract_x
_atom_site_fract_y
_atom_site_fract_z
Si Si1 0.915572 0.446795 0.170831
Si Si2 0.172219 0.752218 0.695053
Si Si3 0.854834 0.908792 0.521379
Si Si4 0.732221 0.684754 0.516371
Si Si5 0.614645 0.551749 0.217405
Si Si6 0.815786 0.209477 0.777088
Si Si7 0.868816 0.204157 0.007338
Si Si8 0.286301 0.131796 0.026278
O O1 0.994023 0.500000 0.126886
O O2 0.780985 0.438903 0.335944
O O3 0.795831 0.445691 0.159353
O O4 0.046531 0.402234 0.090577
O O5 0.160595 0.716866 0.620111
O O6 0.276021 0.797320 0.586808
O O7 0.267740 0.721403 0.708344
O O8 0.996816 0.771496 0.853766
O O9 0.760231 0.868059 0.525041
O O10 0.000000 0.889013 0.500000
O O11 0.963443 0.940047 0.384214
O O12 0.521792 0.696800 0.648244
O O13 0.599015 0.500000 0.187162
O O14 0.625223 0.595194 0.144354
O O15 0.749256 0.255600 0.872131
O O16 0.714227 0.165814 0.887971
O O17 0.753716 0.165304 0.030434
O O18 0.000000 0.185368 0.000000
#
# Coordination Sequence:
#
# PCOD9185243 Si02
#       8
#     8   8   8   8   8   8   8   8
#     4  10  23  37  54  85 118 147 185 234 288 340
#     4  10  22  35  53  76 114 150 186 236 273 315
#     4  10  19  34  56  81 111 151 189 228 279 345
#     4  11  21  35  53  80 111 146 195 230 269 332
#     4  10  20  36  56  82 116 148 182 231 284 342
#     4  11  22  37  54  81 114 151 191 233 271 334
#     4  10  23  40  56  78 113 151 191 238 285 329
#     4  12  22  36  57  82 111 151 196 230 280 344
#
# _framework density 19.598756000000002
#
# number of rings (size 3 to 8) (size 9 to 14) (size 15 to 20)
#    0.000    1.500    2.500    2.625    3.500    5.500 
#    0.000    0.000    0.000    1.500    0.000    0.000 
#    0.000   10.000    0.000    0.000    0.000    0.000 
#
# Total GULP energy -178655.304613 kJ/mol
# GULP energy per Si atom -5582.978269 kJ/mol
# Density = 1.955415 g / cm^3
# Si number density = 19.598756 Si / 1000 Ang^3
#
#
#
# Elastic Constant Matrix: (Units=GPa)
#
#
# Indices 1 2 3 4 5 6 
#
# 1 42.9974 24.4685 12.1155 0.0000 6.9980 0.0000
# 2 24.4685 123.8244 27.1963 0.0000 2.7632 0.0000
# 3 12.1155 27.1963 101.5784 0.0000 4.0160 0.0000
# 4 0.0000 0.0000 0.0000 15.9189 0.0000 0.5498
# 5 6.9980 2.7632 4.0160 0.0000 25.4232 0.0000
# 6 0.0000 0.0000 0.0000 0.5498 0.0000 25.5445
#
#
#
# Elastic Compliance Matrix: (Units=1/GPa)
#
#
# Indices 1 2 3 4 5 6 
#
# 1 0.027656 -0.004938 -0.001707 0.000000 -0.006806 0.000000
# 2 -0.004938 0.009471 -0.001972 0.000000 0.000641 0.000000
# 3 -0.001707 -0.001972 0.010615 0.000000 -0.000993 0.000000
# 4 0.000000 0.000000 0.000000 0.062865 0.000000 -0.001353
# 5 -0.006806 0.000641 -0.000993 0.000000 0.041295 0.000000
# 6 0.000000 0.000000 0.000000 -0.001353 0.000000 0.039176
#
#
# Mechanical properties :
#
#
# Convention : Reuss Voigt Hill
#
# Bulk Modulus (GPa) = 32.77921 43.99565 38.38743
# Shear Modulus (GPa) = 22.88509 27.01864 24.95187
#
# Velocity S-wave (km/s) = 3.42084 3.71696 3.57197
# Velocity P-wave (km/s) = 5.68897 6.39672 6.05320
#
# Compressibility (1/GPa) = 0.03050714
#
# Stress axis : x y z
#
# Youngs Moduli (GPa) = 36.15826 105.59019 94.20206
#
# Poissons Ratio (x) = 0.52142 0.16084
# Poissons Ratio (y) = 0.17856 0.18577
# Poissons Ratio (z) = 0.06174 0.20822
#
# Static dielectric constant tensor:
#      x y z
#    x 1.746670 0.000000 -0.009030 
#    y 0.000000 1.720940 0.000000 
#    z -0.009030 0.000000 1.730150 
# 
# From -- ./inp_files/218928.got.cif
#   From: 2010.05.17/outbox.cif.g08.bks.cpg/sg12_110_cif.got.tgz:218928.got - 2010.06.03 13:09:07.
