data_PCOD9185878
_publ_section_title
;
Structure prediction by ZEFSAII (Michael W. Deem and Ramdas Pophale) SiO2 
 PCOD9185878
Probable space group: C 2/M
;
_chemical_formula_sum "Si O2"
_cell_formula_units_Z 64
_cell_length_a 15.021098
_cell_length_b 8.857777
_cell_length_c 24.184886
_cell_angle_alpha 90.000000
_cell_angle_beta 103.892568
_cell_angle_gamma 90.000000
_cell_volume 3123.753871
_symmetry_space_group_name_H-M "C 2/M"
_symmetry_group_IT_number 12
_symmetry_cell_setting 'monoclinic'
loop_
_space_group_symop_operation_xyz
x,y,z
-x,y,-z
-x,-y,-z
x,-y,z
1/2+x,1/2+y,z
1/2-x,1/2+y,-z
1/2-x,1/2-y,-z
1/2+x,1/2-y,z
loop_
_atom_site_type_symbol
_atom_site_label
_atom_site_fract_x
_atom_site_fract_y
_atom_site_fract_z
Si Si1 0.937370 0.825403 0.738850
Si Si2 0.241573 0.674108 0.772497
Si Si3 0.078941 0.181892 0.054637
Si Si4 0.534963 0.683765 0.858702
Si Si5 0.151456 0.679135 0.377898
Si Si6 0.520847 0.318305 0.440697
Si Si7 0.339528 0.681969 0.346241
Si Si8 0.762516 0.179854 0.107838
O O1 0.843037 0.824968 0.760209
O O2 0.916557 0.730663 0.681533
O O3 0.013099 0.766190 0.793109
O O4 0.957642 0.000000 0.726248
O O5 0.218412 0.500000 0.781006
O O6 0.176328 0.743815 0.715746
O O7 0.243387 0.767201 0.829222
O O8 0.179382 0.248117 0.061802
O O9 0.041829 0.230910 0.109271
O O10 0.085320 0.000000 0.054612
O O11 0.000000 0.226354 0.000000
O O12 0.531954 0.500000 0.856116
O O13 0.635235 0.727001 0.894676
O O14 0.150811 0.500000 0.383320
O O15 0.253021 0.725351 0.372441
O O16 0.112888 0.753149 0.427604
O O17 0.500000 0.268793 0.500000
O O18 0.527174 0.500000 0.441555
O O19 0.434089 0.275570 0.389607
O O20 0.336888 0.500000 0.339491
O O21 0.756122 0.000000 0.103848
#
# Coordination Sequence:
#
# PCOD9185878 Si02
#       8
#     8   8   8   8   8   8   8   8
#     4   9  17  34  58  79 110 151 188 224 274 345
#     4  10  19  34  58  85 114 147 190 233 277 338
#     4  10  21  41  64  82 110 154 198 237 278 334
#     4   9  19  36  56  82 113 151 188 225 283 343
#     4  10  21  36  55  84 116 144 183 237 290 331
#     4  10  22  40  60  81 110 154 200 231 273 346
#     4   9  20  38  57  81 115 150 185 231 288 338
#     4  11  22  35  56  85 117 149 185 232 286 338
#
# _framework density 20.48817
#
# number of rings (size 3 to 8) (size 9 to 14) (size 15 to 20)
#    0.000    2.250    1.250    1.125    1.750    3.000 
#    0.000    1.875    0.000    0.000    0.000    0.000 
#    0.000    0.000    0.000    0.000    0.000    0.000 
#
# Total GULP energy -178724.154957 kJ/mol
# GULP energy per Si atom -5585.129842 kJ/mol
# Density = 2.044154 g / cm^3
# Si number density = 20.488170 Si / 1000 Ang^3
#
#
#
# Elastic Constant Matrix: (Units=GPa)
#
#
# Indices 1 2 3 4 5 6 
#
# 1 57.8720 7.7697 -3.8261 0.0000 12.2317 0.0000
# 2 7.7697 14.8372 1.5496 0.0000 6.8500 0.0000
# 3 -3.8261 1.5496 27.1795 0.0000 9.0073 0.0000
# 4 0.0000 0.0000 0.0000 24.7647 0.0000 -0.8837
# 5 12.2317 6.8500 9.0073 0.0000 29.3792 0.0000
# 6 0.0000 0.0000 0.0000 -0.8837 0.0000 16.4664
#
#
#
# Elastic Compliance Matrix: (Units=1/GPa)
#
#
# Indices 1 2 3 4 5 6 
#
# 1 0.020523 -0.007365 0.006202 0.000000 -0.008729 0.000000
# 2 -0.007365 0.078242 -0.000521 0.000000 -0.015017 0.000000
# 3 0.006202 -0.000521 0.042866 0.000000 -0.015603 0.000000
# 4 0.000000 0.000000 0.000000 0.040457 0.000000 0.002171
# 5 -0.008729 -0.015017 -0.015603 0.000000 0.045957 0.000000
# 6 0.000000 0.000000 0.000000 0.002171 0.000000 0.060846
#
#
# Mechanical properties :
#
#
# Convention : Reuss Voigt Hill
#
# Bulk Modulus (GPa) = 7.23265 12.31947 9.77606
# Shear Modulus (GPa) = 14.77766 20.41508 17.59637
#
# Velocity S-wave (km/s) = 2.68857 3.16006 2.93380
# Velocity P-wave (km/s) = 3.62984 4.39780 4.03214
#
# Compressibility (1/GPa) = 0.13826183
#
# Stress axis : x y z
#
# Youngs Moduli (GPa) = 48.72530 12.78081 23.32861
#
# Poissons Ratio (x) = 0.09413 -0.14468
# Poissons Ratio (y) = 0.35887 0.01216
# Poissons Ratio (z) = -0.30218 0.00666
#
# Static dielectric constant tensor:
#      x y z
#    x 1.756110 0.000000 0.002030 
#    y 0.000000 1.690330 0.000000 
#    z 0.002030 0.000000 1.726440 
# 
# From -- ./inp_files/359967.got.cif
#   From: 2010.05.17/outbox.cif.g08.bks.cpg/sg12_180_cif.got.tgz:359967.got - 2010.06.03 13:09:07.
