data_PCOD9185927
_publ_section_title
;
Structure prediction by ZEFSAII (Michael W. Deem and Ramdas Pophale) SiO2 
 PCOD9185927
Probable space group: C 2/M
;
_chemical_formula_sum "Si O2"
_cell_formula_units_Z 48
_cell_length_a 22.663300
_cell_length_b 7.511331
_cell_length_c 20.450951
_cell_angle_alpha 90.000000
_cell_angle_beta 151.007279
_cell_angle_gamma 90.000000
_cell_volume 1687.427934
_symmetry_space_group_name_H-M "C 2/M"
_symmetry_group_IT_number 12
_symmetry_cell_setting 'monoclinic'
loop_
_space_group_symop_operation_xyz
x,y,z
-x,y,-z
-x,-y,-z
x,-y,z
1/2+x,1/2+y,z
1/2-x,1/2+y,-z
1/2-x,1/2-y,-z
1/2+x,1/2-y,z
loop_
_atom_site_type_symbol
_atom_site_label
_atom_site_fract_x
_atom_site_fract_y
_atom_site_fract_z
Si Si1 0.402489 0.785045 0.445271
Si Si2 0.805037 0.284438 0.226999
Si Si3 0.380087 0.784203 0.845571
Si Si4 0.602836 0.797869 0.821299
Si Si5 0.826086 0.303209 0.510387
Si Si6 0.559096 0.789662 0.918138
O O1 0.559801 0.735223 0.600621
O O2 0.350846 0.706797 0.464254
O O3 0.258409 0.773763 0.269079
O O4 0.414793 0.000000 0.465610
O O5 0.813606 0.500000 0.230072
O O6 0.848494 0.210518 0.197115
O O7 0.662233 0.230706 0.073312
O O8 0.376836 0.000000 0.845996
O O9 0.500000 0.717179 0.000000
O O10 0.426986 0.731144 0.818009
O O11 0.460527 0.812451 0.669672
O O12 0.651886 0.000000 0.874075
O O13 0.608041 0.711411 0.897899
O O14 0.782014 0.500000 0.450033
O O15 0.750000 0.250000 0.500000
O O16 0.542747 0.000000 0.891365
#
# Coordination Sequence:
#
# PCOD9185927 Si02
#       6
#     8   8   8   8   8   8
#     4  10  19  37  61  89 120 160 203 264 319 366
#     4   9  19  34  55  85 117 148 197 252 306 357
#     4   8  17  32  53  82 113 152 198 250 301 366
#     4  10  20  35  59  86 116 157 207 260 307 370
#     4  11  23  40  64  92 126 167 210 258 315 383
#     4  10  19  34  58  86 116 160 209 251 304 374
#
# _framework density 28.445658999999999
#
# number of rings (size 3 to 8) (size 9 to 14) (size 15 to 20)
#    1.000    1.333    1.667    1.500    0.000    4.000 
#    0.000    1.667    0.000   21.500    0.000    0.000 
#    0.000    0.000    0.000    0.000    0.000    0.000 
#
# Total GULP energy -133786.393315 kJ/mol
# GULP energy per Si atom -5574.433055 kJ/mol
# Density = 2.838092 g / cm^3
# Si number density = 28.445659 Si / 1000 Ang^3
#
#
#
# Elastic Constant Matrix: (Units=GPa)
#
#
# Indices 1 2 3 4 5 6 
#
# 1 341.4200 29.7616 145.1607 0.0000 39.5568 0.0000
# 2 29.7616 86.5750 9.8880 0.0000 5.5136 0.0000
# 3 145.1607 9.8880 163.3343 0.0000 13.6468 0.0000
# 4 0.0000 0.0000 0.0000 31.5738 0.0000 8.0304
# 5 39.5568 5.5136 13.6468 0.0000 86.8763 0.0000
# 6 0.0000 0.0000 0.0000 8.0304 0.0000 17.4623
#
#
#
# Elastic Compliance Matrix: (Units=1/GPa)
#
#
# Indices 1 2 3 4 5 6 
#
# 1 0.005020 -0.001140 -0.004263 0.000000 -0.001544 0.000000
# 2 -0.001140 0.011925 0.000316 0.000000 -0.000287 0.000000
# 3 -0.004263 0.000316 0.009861 0.000000 0.000372 0.000000
# 4 0.000000 0.000000 0.000000 0.035867 0.000000 -0.016494
# 5 -0.001544 -0.000287 0.000372 0.000000 0.012173 0.000000
# 6 0.000000 0.000000 0.000000 -0.016494 0.000000 0.064851
#
#
# Mechanical properties :
#
#
# Convention : Reuss Voigt Hill
#
# Bulk Modulus (GPa) = 60.13330 106.77223 83.45276
# Shear Modulus (GPa) = 32.17159 54.28376 43.22768
#
# Velocity S-wave (km/s) = 3.36666 4.37319 3.90251
# Velocity P-wave (km/s) = 6.02479 7.94460 7.05035
#
# Compressibility (1/GPa) = 0.01662972
#
# Stress axis : x y z
#
# Youngs Moduli (GPa) = 199.21173 83.85777 101.40850
#
# Poissons Ratio (x) = 0.09563 0.43233
# Poissons Ratio (y) = 0.22718 -0.03200
# Poissons Ratio (z) = 0.84929 -0.02647
#
# Static dielectric constant tensor:
#      x y z
#    x 2.890840 0.000000 -0.178640 
#    y 0.000000 2.039520 0.000000 
#    z -0.178640 0.000000 2.334340 
# 
# From -- ./inp_files/351941.got.cif
#   From: 2010.05.17/outbox.cif.g08.bks.cpg/sg12_176_cif.got.tgz:351941.got - 2010.06.03 13:09:07.
