data_PCOD9185041
_publ_section_title
;
Structure prediction by ZEFSAII (Michael W. Deem and Ramdas Pophale) SiO2 
 PCOD9185041
Probable space group: C 2/M
;
_chemical_formula_sum "Si O2"
_cell_formula_units_Z 56
_cell_length_a 26.825611
_cell_length_b 8.447343
_cell_length_c 13.409084
_cell_angle_alpha 90.000000
_cell_angle_beta 111.920379
_cell_angle_gamma 90.000000
_cell_volume 2818.889632
_symmetry_space_group_name_H-M "C 2/M"
_symmetry_group_IT_number 12
_symmetry_cell_setting 'monoclinic'
loop_
_space_group_symop_operation_xyz
x,y,z
-x,y,-z
-x,-y,-z
x,-y,z
1/2+x,1/2+y,z
1/2-x,1/2+y,-z
1/2-x,1/2-y,-z
1/2+x,1/2-y,z
loop_
_atom_site_type_symbol
_atom_site_label
_atom_site_fract_x
_atom_site_fract_y
_atom_site_fract_z
Si Si1 0.798584 0.314350 0.103008
Si Si2 0.684953 0.688291 0.301448
Si Si3 0.119561 0.808950 0.452244
Si Si4 0.022771 0.808020 0.252338
Si Si5 0.408516 0.313103 0.103851
Si Si6 0.299439 0.310769 0.326832
Si Si7 0.912260 0.313913 0.890059
O O1 0.790787 0.500000 0.112015
O O2 0.854923 0.279652 0.091323
O O3 0.800065 0.232421 0.211697
O O4 0.750000 0.250000 0.000000
O O5 0.678645 0.500000 0.281867
O O6 0.660049 0.727371 0.390945
O O7 0.746380 0.736505 0.336269
O O8 0.648127 0.776379 0.192694
O O9 0.060934 0.753977 0.371837
O O10 0.147547 0.753238 0.574314
O O11 0.115930 0.000000 0.456172
O O12 0.049720 0.742585 0.171545
O O13 0.960373 0.764078 0.207372
O O14 0.025186 0.000000 0.248806
O O15 0.398814 0.500000 0.110992
O O16 0.422625 0.279629 0.999311
O O17 0.296001 0.500000 0.335165
O O18 0.919205 0.500000 0.912558
#
# Coordination Sequence:
#
# PCOD9185041 Si02
#       7
#     8   8   8   8   8   8   8
#     4  12  26  44  62  82 110 143 184 230 277 329
#     4  10  19  34  55  82 116 151 188 228 275 328
#     4   8  17  34  57  84 114 147 184 226 270 324
#     4   9  19  37  59  84 114 148 186 227 272 325
#     4  11  22  38  60  83 110 147 189 231 277 327
#     4  11  21  36  58  84 113 146 186 229 278 330
#     4  11  21  33  53  84 119 151 185 227 278 332
#
# _framework density 19.865977999999998
#
# number of rings (size 3 to 8) (size 9 to 14) (size 15 to 20)
#    0.000    1.714    0.000    6.429    0.000    2.857 
#    0.000    7.143    0.000    4.286    0.000    0.000 
#    0.000    0.000    0.000    0.000    0.000    0.000 
#
# Total GULP energy -156446.345519 kJ/mol
# GULP energy per Si atom -5587.369483 kJ/mol
# Density = 1.982076 g / cm^3
# Si number density = 19.865978 Si / 1000 Ang^3
#
#
#
# Elastic Constant Matrix: (Units=GPa)
#
#
# Indices 1 2 3 4 5 6 
#
# 1 77.6773 1.3430 33.5017 0.0000 32.5774 0.0000
# 2 1.3430 23.0015 -8.5742 0.0000 1.3944 0.0000
# 3 33.5017 -8.5742 111.9415 0.0000 28.0567 0.0000
# 4 0.0000 0.0000 0.0000 17.6711 0.0000 -4.1018
# 5 32.5774 1.3944 28.0567 0.0000 26.0098 0.0000
# 6 0.0000 0.0000 0.0000 -4.1018 0.0000 26.7095
#
#
#
# Elastic Compliance Matrix: (Units=1/GPa)
#
#
# Indices 1 2 3 4 5 6 
#
# 1 0.027156 0.000759 0.000639 0.000000 -0.034743 0.000000
# 2 0.000759 0.046140 0.005709 0.000000 -0.009582 0.000000
# 3 0.000639 0.005709 0.012961 0.000000 -0.015086 0.000000
# 4 0.000000 0.000000 0.000000 0.058681 0.000000 0.009012
# 5 -0.034743 -0.009582 -0.015086 0.000000 0.098750 0.000000
# 6 0.000000 0.000000 0.000000 0.009012 0.000000 0.038824
#
#
# Mechanical properties :
#
#
# Convention : Reuss Voigt Hill
#
# Bulk Modulus (GPa) = 9.95337 29.46235 19.70786
# Shear Modulus (GPa) = 16.56788 26.50142 21.53465
#
# Velocity S-wave (km/s) = 2.89101 3.65637 3.29598
# Velocity P-wave (km/s) = 4.02058 5.71736 4.94233
#
# Compressibility (1/GPa) = 0.10046846
#
# Stress axis : x y z
#
# Youngs Moduli (GPa) = 36.82423 21.67322 77.15701
#
# Poissons Ratio (x) = -0.01644 -0.04928
# Poissons Ratio (y) = -0.02794 -0.44046
# Poissons Ratio (z) = -0.02352 -0.12372
#
# Static dielectric constant tensor:
#      x y z
#    x 1.687460 0.000000 0.027670 
#    y 0.000000 1.673400 0.000000 
#    z 0.027670 0.000000 1.705520 
# 
# From -- ./inp_files/180996.got.cif
#   From: 2010.05.17/outbox.cif.g08.bks.cpg/sg12_91_cif.got.tgz:180996.got - 2010.06.03 13:09:07.
