data_PCOD9185754
_publ_section_title
;
Structure prediction by ZEFSAII (Michael W. Deem and Ramdas Pophale) SiO2 
 PCOD9185754
Probable space group: C 2/M
;
_chemical_formula_sum "Si O2"
_cell_formula_units_Z 56
_cell_length_a 31.203488
_cell_length_b 10.591065
_cell_length_c 28.374693
_cell_angle_alpha 90.000000
_cell_angle_beta 160.413159
_cell_angle_gamma 90.000000
_cell_volume 3143.573090
_symmetry_space_group_name_H-M "C 2/M"
_symmetry_group_IT_number 12
_symmetry_cell_setting 'monoclinic'
loop_
_space_group_symop_operation_xyz
x,y,z
-x,y,-z
-x,-y,-z
x,-y,z
1/2+x,1/2+y,z
1/2-x,1/2+y,-z
1/2-x,1/2-y,-z
1/2+x,1/2-y,z
loop_
_atom_site_type_symbol
_atom_site_label
_atom_site_fract_x
_atom_site_fract_y
_atom_site_fract_z
Si Si1 0.783541 0.140005 0.688029
Si Si2 0.977972 0.360052 0.532268
Si Si3 0.483023 0.149704 0.926399
Si Si4 0.140572 0.348765 0.001300
Si Si5 0.427239 0.353108 0.300578
Si Si6 0.083213 0.644857 0.298349
Si Si7 0.154431 0.771662 0.469640
O O1 0.672085 0.142175 0.611387
O O2 0.876826 0.255067 0.796552
O O3 0.710523 0.165243 0.563062
O O4 0.843646 0.000000 0.749843
O O5 0.025204 0.500000 0.596776
O O6 0.000000 0.348511 0.500000
O O7 0.039042 0.244062 0.623190
O O8 0.605264 0.177592 0.019428
O O9 0.450634 0.000000 0.886249
O O10 0.500000 0.169430 0.000000
O O11 0.133081 0.500000 0.989636
O O12 0.028177 0.300151 0.850641
O O13 0.284505 0.314980 0.136340
O O14 0.422838 0.500000 0.311097
O O15 0.539417 0.338471 0.378301
O O16 0.052805 0.500000 0.278061
O O17 0.101006 0.718843 0.365313
O O18 0.219071 0.649104 0.412093
#
# Coordination Sequence:
#
# PCOD9185754 Si02
#       7
#     8   8   8   8   8   8   8
#     4  10  20  35  55  81 112 144 184 233 279 330
#     4   9  20  37  55  78 112 149 185 229 282 334
#     4  10  21  36  56  80 111 150 189 228 276 332
#     4   9  19  36  55  80 115 147 183 230 280 327
#     4  10  21  36  57  83 113 146 187 235 276 327
#     4  10  19  34  58  81 108 148 186 225 281 338
#     4  10  20  34  56  83 112 144 185 232 278 332
#
# _framework density 17.814122999999999
#
# number of rings (size 3 to 8) (size 9 to 14) (size 15 to 20)
#    0.000    2.286    1.429    0.857    2.000    4.000 
#    0.000    0.714    0.000    0.000    0.000    0.000 
#    0.000    0.000    0.000    0.000    0.000    0.000 
#
# Total GULP energy -155908.884444 kJ/mol
# GULP energy per Si atom -5568.174444 kJ/mol
# Density = 1.777358 g / cm^3
# Si number density = 17.814123 Si / 1000 Ang^3
#
#
#
# Elastic Constant Matrix: (Units=GPa)
#
#
# Indices 1 2 3 4 5 6 
#
# 1 87.0153 34.7490 41.4432 0.0001 -2.4836 0.0001
# 2 34.7490 85.3294 44.6885 0.0005 -4.5830 0.0004
# 3 41.4432 44.6885 99.5531 0.0005 6.0141 0.0004
# 4 0.0001 0.0005 0.0005 22.9307 0.0003 -1.2069
# 5 -2.4836 -4.5830 6.0141 0.0003 17.7440 0.0002
# 6 0.0001 0.0004 0.0004 -1.2069 0.0002 -5.1910
#
#
#
# Elastic Compliance Matrix: (Units=1/GPa)
#
#
# Indices 1 2 3 4 5 6 
#
# 1 0.015348 -0.003467 -0.005011 0.000000 0.002951 0.000000
# 2 -0.003467 0.016856 -0.006490 0.000000 0.006068 0.000001
# 3 -0.005011 -0.006490 0.015505 0.000000 -0.007633 0.000001
# 4 0.000000 0.000000 0.000000 0.043082 -0.000001 -0.010016
# 5 0.002951 0.006068 -0.007633 -0.000001 0.060924 0.000002
# 6 0.000000 0.000001 0.000001 -0.010016 0.000002 -0.190313
#
#
# Mechanical properties :
#
#
# Convention : Reuss Voigt Hill
#
# Bulk Modulus (GPa) = 56.26509 57.07325 56.66917
# Shear Modulus (GPa) = -1826.94811 17.16455 -904.89178
#
# Velocity S-wave (km/s) = -32.05913 3.10746 -22.56249
# Velocity P-wave (km/s) = 36.58867 6.70692 25.43372
#
# Compressibility (1/GPa) = 0.01777301
#
# Stress axis : x y z
#
# Youngs Moduli (GPa) = 65.15639 59.32636 64.49462
#
# Poissons Ratio (x) = 0.20570 0.32318
# Poissons Ratio (y) = 0.22591 0.41855
# Poissons Ratio (z) = 0.32650 0.38501
#
# Static dielectric constant tensor:
#      x y z
#    x 1.613130 0.000000 0.012900 
#    y 0.000000 1.615830 0.000000 
#    z 0.012900 0.000000 1.618850 
# 
# From -- ./inp_files/370783.got.cif
#   From: 2010.05.17/outbox.cif.g08.bks.cpg/sg12_186_cif.got.tgz:370783.got - 2010.06.03 13:09:07.
