data_PCOD9185549
_publ_section_title
;
Structure prediction by ZEFSAII (Michael W. Deem and Ramdas Pophale) SiO2 
 PCOD9185549
Probable space group: C 2/M
;
_chemical_formula_sum "Si O2"
_cell_formula_units_Z 64
_cell_length_a 30.618786
_cell_length_b 8.334513
_cell_length_c 15.346687
_cell_angle_alpha 90.000000
_cell_angle_beta 51.745862
_cell_angle_gamma 90.000000
_cell_volume 3075.410294
_symmetry_space_group_name_H-M "C 2/M"
_symmetry_group_IT_number 12
_symmetry_cell_setting 'monoclinic'
loop_
_space_group_symop_operation_xyz
x,y,z
-x,y,-z
-x,-y,-z
x,-y,z
1/2+x,1/2+y,z
1/2-x,1/2+y,-z
1/2-x,1/2-y,-z
1/2+x,1/2-y,z
loop_
_atom_site_type_symbol
_atom_site_label
_atom_site_fract_x
_atom_site_fract_y
_atom_site_fract_z
Si Si1 0.116562 0.308298 0.537690
Si Si2 0.965567 0.682322 0.130935
Si Si3 0.375678 0.693475 0.820958
Si Si4 0.308382 0.808218 0.396150
Si Si5 0.819823 0.193740 0.712877
Si Si6 0.003250 0.190400 0.266086
Si Si7 0.302397 0.194333 0.067297
Si Si8 0.860285 0.694600 0.164253
O O1 0.116720 0.500000 0.537462
O O2 0.144438 0.249226 0.594438
O O3 0.154719 0.252707 0.409716
O O4 0.052212 0.253135 0.616796
O O5 0.953226 0.500000 0.177620
O O6 0.994966 0.767772 0.174344
O O7 0.910420 0.761079 0.160027
O O8 0.000000 0.669668 0.000000
O O9 0.376616 0.500000 0.822802
O O10 0.360979 0.741461 0.740755
O O11 0.436560 0.753369 0.776216
O O12 0.325653 0.747247 0.946501
O O13 0.250000 0.750000 0.500000
O O14 0.310533 0.768613 0.291106
O O15 0.312254 0.000000 0.394683
O O16 0.758033 0.246175 0.821618
O O17 0.817510 0.000000 0.710630
O O18 0.003880 0.000000 0.276117
O O19 0.347679 0.249988 0.083457
O O20 0.301458 0.000000 0.066616
O O21 0.868604 0.500000 0.148223
#
# Coordination Sequence:
#
# PCOD9185549 Si02
#       8
#     8   8   8   8   8   8   8   8
#     4  11  23  40  62  88 120 157 201 252 299 350
#     4  10  19  34  57  82 114 152 189 236 292 347
#     4  10  23  41  60  85 120 159 197 249 310 358
#     4  10  20  35  55  80 115 151 187 231 282 344
#     4  10  22  41  63  87 118 157 199 247 308 366
#     4  11  23  39  59  84 120 162 204 248 297 358
#     4  10  20  36  63  92 117 152 198 245 295 363
#     4   9  17  32  52  80 114 145 178 222 280 339
#
# _framework density 20.810231999999999
#
# number of rings (size 3 to 8) (size 9 to 14) (size 15 to 20)
#    0.000    1.875    1.250    2.625    0.000    5.750 
#    0.000    3.750    0.000    0.000    0.000    0.000 
#    0.000    0.000    0.000    0.000    0.000    0.000 
#
# Total GULP energy -178432.637429 kJ/mol
# GULP energy per Si atom -5576.019920 kJ/mol
# Density = 2.076287 g / cm^3
# Si number density = 20.810232 Si / 1000 Ang^3
#
#
#
# Elastic Constant Matrix: (Units=GPa)
#
#
# Indices 1 2 3 4 5 6 
#
# 1 84.5185 11.9065 19.6305 0.0000 0.5723 0.0000
# 2 11.9065 13.6059 11.4992 -0.0001 1.0587 0.0001
# 3 19.6305 11.4992 98.2892 0.0000 4.9273 0.0000
# 4 0.0000 -0.0001 0.0000 26.6780 0.0000 -7.1702
# 5 0.5723 1.0587 4.9273 0.0000 38.3825 0.0000
# 6 0.0000 0.0001 0.0000 -7.1702 0.0000 12.5843
#
#
#
# Elastic Compliance Matrix: (Units=1/GPa)
#
#
# Indices 1 2 3 4 5 6 
#
# 1 0.013689 -0.010741 -0.001492 0.000000 0.000284 0.000000
# 2 -0.010741 0.090031 -0.008325 0.000000 -0.001254 0.000000
# 3 -0.001492 -0.008325 0.011507 0.000000 -0.001225 0.000000
# 4 0.000000 0.000000 0.000000 0.044262 0.000000 0.025219
# 5 0.000284 -0.001254 -0.001225 0.000000 0.026241 0.000000
# 6 0.000000 0.000000 0.000000 0.025219 0.000000 0.093833
#
#
# Mechanical properties :
#
#
# Convention : Reuss Voigt Hill
#
# Bulk Modulus (GPa) = 13.49303 31.38735 22.44019
# Shear Modulus (GPa) = 14.47667 25.75411 20.11539
#
# Velocity S-wave (km/s) = 2.64038 3.52173 3.11241
# Velocity P-wave (km/s) = 3.97409 5.62602 4.87060
#
# Compressibility (1/GPa) = 0.07411231
#
# Stress axis : x y z
#
# Youngs Moduli (GPa) = 73.04924 11.10733 86.90092
#
# Poissons Ratio (x) = 0.11930 0.12963
# Poissons Ratio (y) = 0.78462 0.72344
# Poissons Ratio (z) = 0.10897 0.09247
#
# Static dielectric constant tensor:
#      x y z
#    x 1.804120 0.000000 -0.064840 
#    y 0.000000 1.739460 0.000000 
#    z -0.064840 0.000000 1.880540 
# 
# From -- ./inp_files/249718.got.cif
#   From: 2010.05.17/outbox.cif.g08.bks.cpg/sg12_125_cif.got.tgz:249718.got - 2010.06.03 13:09:07.
