data_PCOD9185336
_publ_section_title
;
Structure prediction by ZEFSAII (Michael W. Deem and Ramdas Pophale) SiO2 
 PCOD9185336
Probable space group: C 2/M
;
_chemical_formula_sum "Si O2"
_cell_formula_units_Z 48
_cell_length_a 24.258339
_cell_length_b 14.642117
_cell_length_c 22.180742
_cell_angle_alpha 90.000000
_cell_angle_beta 18.986750
_cell_angle_gamma 90.000000
_cell_volume 2563.250983
_symmetry_space_group_name_H-M "C 2/M"
_symmetry_group_IT_number 12
_symmetry_cell_setting 'monoclinic'
loop_
_space_group_symop_operation_xyz
x,y,z
-x,y,-z
-x,-y,-z
x,-y,z
1/2+x,1/2+y,z
1/2-x,1/2+y,-z
1/2-x,1/2-y,-z
1/2+x,1/2-y,z
loop_
_atom_site_type_symbol
_atom_site_label
_atom_site_fract_x
_atom_site_fract_y
_atom_site_fract_z
Si Si1 0.153292 0.394013 0.479200
Si Si2 0.980487 0.202551 0.091081
Si Si3 0.751106 0.897498 0.975071
Si Si4 0.070221 0.213866 0.641858
Si Si5 0.779834 0.604060 0.848398
Si Si6 0.923395 0.672014 0.252744
O O1 0.164140 0.500000 0.490663
O O2 0.324200 0.365812 0.268148
O O3 0.120976 0.310930 0.559659
O O4 0.976379 0.389649 0.625526
O O5 0.941263 0.297656 0.165619
O O6 0.152910 0.167072 0.943391
O O7 0.000000 0.211254 0.000000
O O8 0.891964 0.827013 0.806038
O O9 0.817010 0.000000 0.900750
O O10 0.723446 0.881404 0.075372
O O11 0.574593 0.888777 0.121975
O O12 0.054510 0.236491 0.728710
O O13 0.228004 0.146545 0.466879
O O14 0.722752 0.500000 0.898050
#
# Coordination Sequence:
#
# PCOD9185336 Si02
#       6
#     8   8   8   8   8   8
#     4  10  21  36  57  85 116 149 187 233 286 340
#     4  11  23  38  55  77 112 160 198 227 270 333
#     4  11  21  34  58  88 116 146 184 237 298 346
#     4  10  19  34  56  84 116 148 183 238 293 342
#     4  10  20  33  52  80 112 145 183 230 278 335
#     4  10  20  35  55  82 112 146 189 239 284 335
#
# _framework density 18.726219
#
# number of rings (size 3 to 8) (size 9 to 14) (size 15 to 20)
#    0.000    1.667    3.333    2.000    0.000    2.667 
#    0.000    1.667    0.000    0.500    0.000    4.667 
#    0.000    0.000    0.000    0.000    0.000    0.000 
#
# Total GULP energy -133697.598329 kJ/mol
# GULP energy per Si atom -5570.733264 kJ/mol
# Density = 1.868360 g / cm^3
# Si number density = 18.726219 Si / 1000 Ang^3
#
#
#
# Elastic Constant Matrix: (Units=GPa)
#
#
# Indices 1 2 3 4 5 6 
#
# 1 73.9746 25.4254 34.5856 -0.0009 10.5088 0.0008
# 2 25.4254 56.4304 24.3966 -0.0113 2.2685 0.0036
# 3 34.5856 24.3966 77.0393 -0.0111 -11.1272 0.0082
# 4 -0.0009 -0.0113 -0.0111 21.7546 0.0105 -4.1667
# 5 10.5088 2.2685 -11.1272 0.0105 26.1867 -0.0049
# 6 0.0008 0.0036 0.0082 -4.1667 -0.0049 13.9662
#
#
#
# Elastic Compliance Matrix: (Units=1/GPa)
#
#
# Indices 1 2 3 4 5 6 
#
# 1 0.021647 -0.004947 -0.009955 -0.000001 -0.012489 0.000001
# 2 -0.004947 0.022255 -0.005133 0.000010 -0.002124 0.000000
# 3 -0.009955 -0.005133 0.021006 0.000000 0.013365 -0.000006
# 4 -0.000001 0.000010 0.000000 0.048753 -0.000017 0.014545
# 5 -0.012489 -0.002124 0.013365 -0.000017 0.049062 0.000005
# 6 0.000001 0.000000 -0.000006 0.014545 0.000005 0.075941
#
#
# Mechanical properties :
#
#
# Convention : Reuss Voigt Hill
#
# Bulk Modulus (GPa) = 40.26450 41.80662 41.03556
# Shear Modulus (GPa) = 17.42077 20.58394 19.00235
#
# Velocity S-wave (km/s) = 3.05337 3.31902 3.18896
# Velocity P-wave (km/s) = 5.82916 6.08782 5.95989
#
# Compressibility (1/GPa) = 0.02483578
#
# Stress axis : x y z
#
# Youngs Moduli (GPa) = 46.19553 44.93436 47.60633
#
# Poissons Ratio (x) = 0.22231 0.47393
# Poissons Ratio (y) = 0.22855 0.24437
# Poissons Ratio (z) = 0.45989 0.23066
#
# Static dielectric constant tensor:
#      x y z
#    x 1.650350 0.000000 -0.022020 
#    y 0.000000 1.681840 0.000010 
#    z -0.022020 0.000010 1.712950 
# 
# From -- ./inp_files/325622.got.cif
#   From: 2010.05.17/outbox.cif.g08.bks.cpg/sg12_163_cif.got.tgz:325622.got - 2010.06.03 13:09:07.
