data_PCOD9185966
_publ_section_title
;
Structure prediction by ZEFSAII (Michael W. Deem and Ramdas Pophale) SiO2 
 PCOD9185966
Probable space group: C 2/M
;
_chemical_formula_sum "Si O2"
_cell_formula_units_Z 64
_cell_length_a 29.050878
_cell_length_b 8.961761
_cell_length_c 14.761572
_cell_angle_alpha 90.000000
_cell_angle_beta 120.901914
_cell_angle_gamma 90.000000
_cell_volume 3297.590218
_symmetry_space_group_name_H-M "C 2/M"
_symmetry_group_IT_number 12
_symmetry_cell_setting 'monoclinic'
loop_
_space_group_symop_operation_xyz
x,y,z
-x,y,-z
-x,-y,-z
x,-y,z
1/2+x,1/2+y,z
1/2-x,1/2+y,-z
1/2-x,1/2-y,-z
1/2+x,1/2-y,z
loop_
_atom_site_type_symbol
_atom_site_label
_atom_site_fract_x
_atom_site_fract_y
_atom_site_fract_z
Si Si1 0.608719 0.325724 0.267756
Si Si2 0.803943 0.679663 0.514606
Si Si3 0.672477 0.821118 0.667621
Si Si4 0.944473 0.669655 0.497463
Si Si5 0.590380 0.823273 0.873988
Si Si6 0.297315 0.180898 0.106611
Si Si7 0.989710 0.830955 0.705375
Si Si8 0.560729 0.319571 0.035247
O O1 0.625693 0.500000 0.287786
O O2 0.647666 0.232894 0.371610
O O3 0.548209 0.320059 0.245612
O O4 0.601982 0.276457 0.157153
O O5 0.801401 0.500000 0.512539
O O6 0.750000 0.750000 0.500000
O O7 0.811942 0.730469 0.417762
O O8 0.608519 0.796001 0.613157
O O9 0.701990 0.765878 0.787702
O O10 0.680433 0.000000 0.674858
O O11 0.936929 0.500000 0.526030
O O12 0.951473 0.786057 0.584557
O O13 0.000000 0.672359 0.500000
O O14 0.645842 0.779655 0.882262
O O15 0.539664 0.778661 0.761240
O O16 0.591039 0.000000 0.888076
O O17 0.579758 0.743581 0.958845
O O18 0.293201 0.000000 0.102316
O O19 0.250000 0.250000 0.000000
O O20 0.009155 0.000000 0.716665
O O21 0.559888 0.500000 0.030302
O O22 0.500000 0.271119 0.000000
#
# Coordination Sequence:
#
# PCOD9185966 Si02
#       8
#     8   8   8   8   8   8   8   8
#     4  10  21  38  59  84 119 160 198 243 298 354
#     4  11  23  40  63  89 119 156 203 249 297 358
#     4   9  19  38  62  86 115 155 197 237 291 358
#     4  10  19  34  58  87 119 156 198 243 296 358
#     4  11  23  38  60  91 124 158 204 257 307 360
#     4  10  23  44  65  87 117 155 203 253 299 353
#     4  11  21  35  57  86 123 159 197 244 299 361
#     4  10  20  38  60  85 122 166 206 245 299 364
#
# _framework density 19.408113
#
# number of rings (size 3 to 8) (size 9 to 14) (size 15 to 20)
#    0.000    1.750    2.500    1.875    0.000    5.500 
#    0.000    5.625    0.000    0.000    0.000    0.000 
#    0.000    0.000    0.000    0.000    0.000    0.000 
#
# Total GULP energy -178608.626371 kJ/mol
# GULP energy per Si atom -5581.519574 kJ/mol
# Density = 1.936394 g / cm^3
# Si number density = 19.408113 Si / 1000 Ang^3
#
#
#
# Elastic Constant Matrix: (Units=GPa)
#
#
# Indices 1 2 3 4 5 6 
#
# 1 84.1150 25.9551 51.1938 0.0000 3.4753 0.0000
# 2 25.9551 26.2542 29.4407 0.0000 -1.8499 0.0000
# 3 51.1938 29.4407 152.9959 0.0000 -1.8918 0.0000
# 4 0.0000 0.0000 0.0000 29.1457 0.0000 3.4509
# 5 3.4753 -1.8499 -1.8918 0.0000 27.7247 0.0000
# 6 0.0000 0.0000 0.0000 3.4509 0.0000 23.1971
#
#
#
# Elastic Compliance Matrix: (Units=1/GPa)
#
#
# Indices 1 2 3 4 5 6 
#
# 1 0.018733 -0.014910 -0.003443 0.000000 -0.003578 0.000000
# 2 -0.014910 0.060626 -0.006610 0.000000 0.005463 0.000000
# 3 -0.003443 -0.006610 0.008968 0.000000 0.000603 0.000000
# 4 0.000000 0.000000 0.000000 0.034926 0.000000 -0.005196
# 5 -0.003578 0.005463 0.000603 0.000000 0.036923 0.000000
# 6 0.000000 0.000000 0.000000 -0.005196 0.000000 0.043882
#
#
# Mechanical properties :
#
#
# Convention : Reuss Voigt Hill
#
# Bulk Modulus (GPa) = 26.04139 52.94937 39.49538
# Shear Modulus (GPa) = 18.74182 26.46521 22.60351
#
# Velocity S-wave (km/s) = 3.11089 3.69672 3.41639
# Velocity P-wave (km/s) = 5.13327 6.74999 5.99636
#
# Compressibility (1/GPa) = 0.03840041
#
# Stress axis : x y z
#
# Youngs Moduli (GPa) = 53.38250 16.49453 111.51310
#
# Poissons Ratio (x) = 0.24594 0.38396
# Poissons Ratio (y) = 0.79595 0.73705
# Poissons Ratio (z) = 0.18381 0.10902
#
# Static dielectric constant tensor:
#      x y z
#    x 1.684060 0.000000 -0.015020 
#    y 0.000000 1.655490 0.000000 
#    z -0.015020 0.000000 1.693770 
# 
# From -- ./inp_files/249219.got.cif
#   From: 2010.05.17/outbox.cif.g08.bks.cpg/sg12_125_cif.got.tgz:249219.got - 2010.06.03 13:09:07.
