data_PCOD9185916
_publ_section_title
;
Structure prediction by ZEFSAII (Michael W. Deem and Ramdas Pophale) SiO2 
 PCOD9185916
Probable space group: C 2/M
;
_chemical_formula_sum "Si O2"
_cell_formula_units_Z 56
_cell_length_a 22.425915
_cell_length_b 25.775716
_cell_length_c 14.159268
_cell_angle_alpha 90.000000
_cell_angle_beta 20.713438
_cell_angle_gamma 90.000000
_cell_volume 2894.874145
_symmetry_space_group_name_H-M "C 2/M"
_symmetry_group_IT_number 12
_symmetry_cell_setting 'monoclinic'
loop_
_space_group_symop_operation_xyz
x,y,z
-x,y,-z
-x,-y,-z
x,-y,z
1/2+x,1/2+y,z
1/2-x,1/2+y,-z
1/2-x,1/2-y,-z
1/2+x,1/2-y,z
loop_
_atom_site_type_symbol
_atom_site_label
_atom_site_fract_x
_atom_site_fract_y
_atom_site_fract_z
Si Si1 0.536664 0.751659 0.243503
Si Si2 0.977267 0.161148 0.878801
Si Si3 0.386794 0.057465 0.380115
Si Si4 0.227360 0.332928 0.416459
Si Si5 0.661216 0.697610 0.303046
Si Si6 0.905546 0.057620 0.342365
Si Si7 0.858190 0.613045 0.132873
O O1 0.542570 0.696519 0.182534
O O2 0.413303 0.789679 0.368459
O O3 0.436354 0.741347 0.489808
O O4 0.718864 0.778497 0.956459
O O5 0.163518 0.165490 0.649298
O O6 0.955948 0.100538 0.887395
O O7 0.852007 0.179089 0.145912
O O8 0.352074 0.110521 0.487895
O O9 0.221104 0.053669 0.559234
O O10 0.410197 0.000000 0.388411
O O11 0.543869 0.073491 0.081326
O O12 0.500000 0.667054 0.500000
O O13 0.775971 0.661200 0.199258
O O14 0.789635 0.082028 0.595649
O O15 0.967025 0.000000 0.273099
O O16 0.000000 0.629668 0.000000
#
# Coordination Sequence:
#
# PCOD9185916 Si02
#       7
#     8   8   8   8   8   8   8
#     4  12  22  40  58  80 113 154 197 238 293 350
#     4  10  20  32  52  85 118 151 193 242 290 340
#     4   9  17  30  51  81 115 150 188 234 287 342
#     4  10  20  32  52  85 118 151 193 242 290 340
#     4  12  26  41  61  87 117 153 198 242 290 348
#     4   9  17  30  51  81 115 150 188 234 287 342
#     4  10  19  34  58  86 114 147 189 235 288 345
#
# _framework density 19.344536999999999
#
# number of rings (size 3 to 8) (size 9 to 14) (size 15 to 20)
#    0.000    1.714    4.286    1.286    0.000    3.429 
#    0.000    2.857    0.000    1.714    0.000    0.000 
#    0.000    3.429    0.000    0.000    0.000    0.000 
#
# Total GULP energy -155983.993806 kJ/mol
# GULP energy per Si atom -5570.856922 kJ/mol
# Density = 1.930051 g / cm^3
# Si number density = 19.344537 Si / 1000 Ang^3
#
#
#
# Elastic Constant Matrix: (Units=GPa)
#
#
# Indices 1 2 3 4 5 6 
#
# 1 25.4641 8.1129 0.2153 -0.0028 -3.4486 0.0099
# 2 8.1129 82.6224 5.9874 0.0270 -13.3868 0.0012
# 3 0.2153 5.9874 34.1198 0.0560 -5.7151 0.0142
# 4 -0.0028 0.0270 0.0560 -8.7757 0.0244 -2.0548
# 5 -3.4486 -13.3868 -5.7151 0.0244 24.0601 -0.0118
# 6 0.0099 0.0012 0.0142 -2.0548 -0.0118 3.7543
#
#
#
# Elastic Compliance Matrix: (Units=1/GPa)
#
#
# Indices 1 2 3 4 5 6 
#
# 1 0.040920 -0.003411 0.001046 0.000015 0.004216 -0.000089
# 2 -0.003411 0.013629 -0.001231 0.000042 0.006802 0.000053
# 3 0.001046 -0.001231 0.030647 0.000207 0.006745 0.000016
# 4 0.000015 0.000042 0.000207 -0.101005 0.000150 -0.055283
# 5 0.004216 0.006802 0.006745 0.000150 0.047553 0.000192
# 6 -0.000089 0.000053 0.000016 -0.055283 0.000192 0.236105
#
#
# Mechanical properties :
#
#
# Convention : Reuss Voigt Hill
#
# Bulk Modulus (GPa) = 12.81950 18.98193 15.90072
# Shear Modulus (GPa) = 16.60896 12.33380 14.47138
#
# Velocity S-wave (km/s) = 2.93334 2.52779 2.73808
# Velocity P-wave (km/s) = 4.25605 4.28409 4.27010
#
# Compressibility (1/GPa) = 0.07800613
#
# Stress axis : x y z
#
# Youngs Moduli (GPa) = 24.43804 73.37063 32.62928
#
# Poissons Ratio (x) = 0.25025 -0.03415
# Poissons Ratio (y) = 0.08335 0.04016
# Poissons Ratio (z) = -0.02557 0.09031
#
# Static dielectric constant tensor:
#      x y z
#    x 1.721590 0.000000 0.018020 
#    y 0.000000 1.698040 0.000020 
#    z 0.018020 0.000020 1.712460 
# 
# From -- ./inp_files/242269.got.cif
#   From: 2010.05.17/outbox.cif.g08.bks.cpg/sg12_122_cif.got.tgz:242269.got - 2010.06.03 13:09:07.
