data_PCOD9185900
_publ_section_title
;
Structure prediction by ZEFSAII (Michael W. Deem and Ramdas Pophale) SiO2 
 PCOD9185900
Probable space group: C 2/M
;
_chemical_formula_sum "Si O2"
_cell_formula_units_Z 58
_cell_length_a 22.765243
_cell_length_b 8.814118
_cell_length_c 18.266445
_cell_angle_alpha 90.000000
_cell_angle_beta 124.531967
_cell_angle_gamma 90.000000
_cell_volume 3019.480768
_symmetry_space_group_name_H-M "C 2/M"
_symmetry_group_IT_number 12
_symmetry_cell_setting 'monoclinic'
loop_
_space_group_symop_operation_xyz
x,y,z
-x,y,-z
-x,-y,-z
x,-y,z
1/2+x,1/2+y,z
1/2-x,1/2+y,-z
1/2-x,1/2-y,-z
1/2+x,1/2-y,z
loop_
_atom_site_type_symbol
_atom_site_label
_atom_site_fract_x
_atom_site_fract_y
_atom_site_fract_z
Si Si1 0.147314 0.822037 0.961054
Si Si2 0.148675 0.318274 0.232008
Si Si3 0.489870 0.826513 0.079564
Si Si4 0.176671 0.317984 0.418631
Si Si5 0.500000 0.500000 0.500000
Si Si6 0.260723 0.317167 0.836082
Si Si7 0.533217 0.332927 0.374394
Si Si8 0.887548 0.319254 0.218355
O O1 0.140501 0.731497 0.880966
O O2 0.071285 0.790744 0.944743
O O3 0.159098 0.000000 0.954850
O O4 0.204470 0.767152 0.061803
O O5 0.154260 0.500000 0.226954
O O6 0.065175 0.281545 0.166706
O O7 0.173030 0.276910 0.330199
O O8 0.193830 0.244322 0.199160
O O9 0.471345 0.000000 0.090886
O O10 0.500000 0.832171 0.000000
O O11 0.177263 0.500000 0.424904
O O12 0.250000 0.250000 0.500000
O O13 0.105998 0.255775 0.409125
O O14 0.519545 0.369948 0.450524
O O15 0.264386 0.500000 0.838631
O O16 0.177631 0.272210 0.774330
O O17 0.539982 0.500000 0.343539
O O18 0.462970 0.253766 0.291895
O O19 0.894821 0.500000 0.225382
#
# Coordination Sequence:
#
# PCOD9185900 Si02
#       8
#     8   8   8   8   2   8   8   8
#     4  11  22  36  57  88 124 172 216 267 321 380
#     4  10  22  39  60  89 123 167 212 264 325 389
#     4  10  19  34  58  85 119 160 207 259 320 382
#     4  11  24  43  68 101 136 174 217 268 335 399
#     4   8  24  44  74  96 132 162 210 272 340 392
#     4  10  23  39  56  87 130 167 220 269 319 380
#     4  10  22  45  70  98 127 164 211 268 327 397
#     4  11  23  40  62  90 125 171 219 268 321 390
#
# _framework density 19.208600000000001
#
# number of rings (size 3 to 8) (size 9 to 14) (size 15 to 20)
#    0.414    1.241    1.379    2.897    0.000    5.793 
#    2.483    2.759    0.000    0.000    0.000    0.000 
#    0.000    0.000    0.000    0.000    0.000    0.000 
#
# Total GULP energy -161589.848325 kJ/mol
# GULP energy per Si atom -5572.063735 kJ/mol
# Density = 1.916488 g / cm^3
# Si number density = 19.208600 Si / 1000 Ang^3
#
#
#
# Elastic Constant Matrix: (Units=GPa)
#
#
# Indices 1 2 3 4 5 6 
#
# 1 96.6221 27.7434 63.0226 0.0000 17.4106 0.0000
# 2 27.7434 48.1582 37.3891 0.0000 10.0949 0.0000
# 3 63.0226 37.3891 127.6743 0.0000 20.8143 0.0000
# 4 0.0000 0.0000 0.0000 37.2432 0.0000 -7.6733
# 5 17.4106 10.0949 20.8143 0.0000 33.8302 0.0000
# 6 0.0000 0.0000 0.0000 -7.6733 0.0000 35.6163
#
#
#
# Elastic Compliance Matrix: (Units=1/GPa)
#
#
# Indices 1 2 3 4 5 6 
#
# 1 0.016145 -0.003675 -0.006355 0.000000 -0.003302 0.000000
# 2 -0.003675 0.028097 -0.005953 0.000000 -0.002830 0.000000
# 3 -0.006355 -0.005953 0.013215 0.000000 -0.003084 0.000000
# 4 0.000000 0.000000 0.000000 0.028098 0.000000 0.006053
# 5 -0.003302 -0.002830 -0.003084 0.000000 0.034001 0.000000
# 6 0.000000 0.000000 0.000000 0.006053 0.000000 0.029381
#
#
# Mechanical properties :
#
#
# Convention : Reuss Voigt Hill
#
# Bulk Modulus (GPa) = 39.22766 58.75162 48.98964
# Shear Modulus (GPa) = 26.39928 30.95791 28.67859
#
# Velocity S-wave (km/s) = 3.71124 4.01892 3.86814
# Velocity P-wave (km/s) = 6.23143 7.22413 6.74606
#
# Compressibility (1/GPa) = 0.02549222
#
# Stress axis : x y z
#
# Youngs Moduli (GPa) = 61.93916 35.59130 75.66960
#
# Poissons Ratio (x) = 0.13079 0.48087
# Poissons Ratio (y) = 0.22761 0.45044
# Poissons Ratio (z) = 0.39362 0.21186
#
# Static dielectric constant tensor:
#      x y z
#    x 1.681570 0.000000 -0.034000 
#    y 0.000000 1.667840 0.000000 
#    z -0.034000 0.000000 1.848080 
# 
# From -- ./inp_files/282224.got.cif
#   From: 2010.05.17/outbox.cif.g08.bks.cpg/sg12_142_cif.got.tgz:282224.got - 2010.06.03 13:09:07.
