data_PCOD9185649
_publ_section_title
;
Structure prediction by ZEFSAII (Michael W. Deem and Ramdas Pophale) SiO2 
 PCOD9185649
Probable space group: C 2/M
;
_chemical_formula_sum "Si O2"
_cell_formula_units_Z 64
_cell_length_a 20.994423
_cell_length_b 8.666785
_cell_length_c 22.454273
_cell_angle_alpha 90.000000
_cell_angle_beta 117.984643
_cell_angle_gamma 90.000000
_cell_volume 3607.927191
_symmetry_space_group_name_H-M "C 2/M"
_symmetry_group_IT_number 12
_symmetry_cell_setting 'monoclinic'
loop_
_space_group_symop_operation_xyz
x,y,z
-x,y,-z
-x,-y,-z
x,-y,z
1/2+x,1/2+y,z
1/2-x,1/2+y,-z
1/2-x,1/2-y,-z
1/2+x,1/2-y,z
loop_
_atom_site_type_symbol
_atom_site_label
_atom_site_fract_x
_atom_site_fract_y
_atom_site_fract_z
Si Si1 0.830852 0.684515 0.037337
Si Si2 0.075509 0.814952 0.675662
Si Si3 0.704629 0.685062 0.534813
Si Si4 0.583508 0.315150 0.037321
Si Si5 0.298489 0.814404 0.827021
Si Si6 0.724148 0.313013 0.675799
Si Si7 0.456122 0.184516 0.540609
Si Si8 0.652932 0.815399 0.820528
O O1 0.828280 0.500000 0.028637
O O2 0.860954 0.719016 0.116459
O O3 0.750000 0.750000 0.000000
O O4 0.877366 0.757082 0.005178
O O5 0.144820 0.768493 0.665426
O O6 0.095547 0.757484 0.750213
O O7 0.004606 0.740568 0.616861
O O8 0.070368 0.000000 0.672256
O O9 0.707724 0.500000 0.535094
O O10 0.750000 0.750000 0.500000
O O11 0.733652 0.739838 0.612328
O O12 0.621928 0.738368 0.494011
O O13 0.587193 0.500000 0.041289
O O14 0.628505 0.247938 0.112438
O O15 0.500000 0.267309 0.000000
O O16 0.281172 0.765041 0.751413
O O17 0.230979 0.751996 0.836033
O O18 0.297649 0.000000 0.829319
O O19 0.725137 0.500000 0.675519
O O20 0.500000 0.227853 0.500000
O O21 0.448177 0.000000 0.538233
O O22 0.654882 0.000000 0.813751
#
# Coordination Sequence:
#
# PCOD9185649 Si02
#       8
#     8   8   8   8   8   8   8   8
#     4  11  22  36  59  86 115 149 189 234 284 342
#     4  10  19  34  57  85 114 151 192 234 289 345
#     4  11  22  39  59  83 117 155 195 237 288 346
#     4  11  24  40  57  82 117 155 194 241 291 340
#     4  10  19  34  58  85 110 146 192 236 288 347
#     4   8  17  33  55  82 111 145 186 232 283 342
#     4  11  22  36  57  87 117 147 190 240 289 340
#     4  10  20  34  54  85 119 149 185 237 292 339
#
# _framework density 17.738717999999999
#
# number of rings (size 3 to 8) (size 9 to 14) (size 15 to 20)
#    0.000    1.750    2.500    3.375    0.000    3.000 
#    0.000    3.125    0.000    4.500    0.000    0.000 
#    0.000    0.000    0.000    0.000    0.000    0.000 
#
# Total GULP energy -178675.856638 kJ/mol
# GULP energy per Si atom -5583.620520 kJ/mol
# Density = 1.769834 g / cm^3
# Si number density = 17.738718 Si / 1000 Ang^3
#
#
#
# Elastic Constant Matrix: (Units=GPa)
#
#
# Indices 1 2 3 4 5 6 
#
# 1 109.4317 34.4653 76.4966 0.0000 -1.3475 0.0000
# 2 34.4653 49.4328 38.7972 0.0000 -2.0042 0.0000
# 3 76.4966 38.7972 163.6135 0.0000 0.1157 0.0000
# 4 0.0000 0.0000 0.0000 29.0942 0.0000 2.3672
# 5 -1.3475 -2.0042 0.1157 0.0000 27.1466 0.0000
# 6 0.0000 0.0000 0.0000 2.3672 0.0000 27.5249
#
#
#
# Elastic Compliance Matrix: (Units=1/GPa)
#
#
# Indices 1 2 3 4 5 6 
#
# 1 0.014919 -0.006038 -0.005544 0.000000 0.000318 0.000000
# 2 -0.006038 0.027393 -0.003674 0.000000 0.001738 0.000000
# 3 -0.005544 -0.003674 0.009576 0.000000 -0.000587 0.000000
# 4 0.000000 0.000000 0.000000 0.034613 0.000000 -0.002977
# 5 0.000318 0.001738 -0.000587 0.000000 0.036984 0.000000
# 6 0.000000 0.000000 0.000000 -0.002977 0.000000 0.036587
#
#
# Mechanical properties :
#
#
# Convention : Reuss Voigt Hill
#
# Bulk Modulus (GPa) = 46.78023 69.11070 57.94546
# Shear Modulus (GPa) = 25.28987 28.26775 26.77881
#
# Velocity S-wave (km/s) = 3.77992 3.99628 3.88960
# Velocity P-wave (km/s) = 6.74385 7.76779 7.27386
#
# Compressibility (1/GPa) = 0.02137655
#
# Stress axis : x y z
#
# Youngs Moduli (GPa) = 67.02904 36.50559 104.43293
#
# Poissons Ratio (x) = 0.22041 0.57895
# Poissons Ratio (y) = 0.40471 0.38368
# Poissons Ratio (z) = 0.37159 0.13412
#
# Static dielectric constant tensor:
#      x y z
#    x 1.566590 0.000000 -0.008420 
#    y 0.000000 1.595610 0.000000 
#    z -0.008420 0.000000 1.626060 
# 
# From -- ./inp_files/319994.got.cif
#   From: 2010.05.17/outbox.cif.g08.bks.cpg/sg12_160_cif.got.tgz:319994.got - 2010.06.03 13:09:07.
