data_PCOD9185447
_publ_section_title
;
Structure prediction by ZEFSAII (Michael W. Deem and Ramdas Pophale) SiO2 
 PCOD9185447
Probable space group: C 2/M
;
_chemical_formula_sum "Si O2"
_cell_formula_units_Z 64
_cell_length_a 21.129675
_cell_length_b 8.678931
_cell_length_c 22.193201
_cell_angle_alpha 90.000000
_cell_angle_beta 118.591086
_cell_angle_gamma 90.000000
_cell_volume 3573.566975
_symmetry_space_group_name_H-M "C 2/M"
_symmetry_group_IT_number 12
_symmetry_cell_setting 'monoclinic'
loop_
_space_group_symop_operation_xyz
x,y,z
-x,y,-z
-x,-y,-z
x,-y,z
1/2+x,1/2+y,z
1/2-x,1/2+y,-z
1/2-x,1/2-y,-z
1/2+x,1/2-y,z
loop_
_atom_site_type_symbol
_atom_site_label
_atom_site_fract_x
_atom_site_fract_y
_atom_site_fract_z
Si Si1 0.590016 0.184201 0.292690
Si Si2 0.468703 0.313917 0.550179
Si Si3 0.331845 0.815437 0.157525
Si Si4 0.665920 0.687764 0.080520
Si Si5 0.081271 0.186130 0.161237
Si Si6 0.328756 0.815708 0.548800
Si Si7 0.086771 0.813632 0.921889
Si Si8 0.450230 0.315823 0.291792
O O1 0.611015 0.244916 0.236791
O O2 0.644574 0.226342 0.371478
O O3 0.513498 0.258146 0.276237
O O4 0.582488 0.000000 0.288380
O O5 0.500000 0.264364 0.500000
O O6 0.462802 0.500000 0.547173
O O7 0.390755 0.247072 0.532341
O O8 0.523232 0.271187 0.629290
O O9 0.248972 0.763065 0.119053
O O10 0.372145 0.753665 0.116712
O O11 0.376044 0.755688 0.235223
O O12 0.333362 0.000000 0.157783
O O13 0.664952 0.500000 0.079840
O O14 0.624519 0.736890 0.121878
O O15 0.625130 0.736582 0.001224
O O16 0.997239 0.230364 0.116963
O O17 0.084460 0.000000 0.166116
O O18 0.250000 0.750000 0.500000
O O19 0.327137 0.000000 0.543914
O O20 0.089972 0.000000 0.920118
O O21 0.446019 0.500000 0.286475
#
# Coordination Sequence:
#
# PCOD9185447 Si02
#       8
#     8   8   8   8   8   8   8   8
#     4  10  20  35  56  82 111 141 178 224 271 314
#     4   9  19  37  60  84 112 144 181 228 276 326
#     4  11  21  34  53  77 111 144 177 224 273 317
#     4   9  20  36  52  77 110 144 178 222 273 321
#     4  10  19  34  57  80 106 141 184 223 265 322
#     4  10  21  37  58  84 114 148 184 225 271 324
#     4  10  19  34  58  80 101 138 188 226 265 323
#     4  10  19  34  57  81 105 142 186 220 261 322
#
# _framework density 17.909276999999999
#
# number of rings (size 3 to 8) (size 9 to 14) (size 15 to 20)
#    0.000    2.125    1.250    2.250    0.000    3.750 
#    2.250    2.500    0.000    1.500    0.000    0.000 
#    0.000    0.000    0.000    0.000    0.000    0.000 
#
# Total GULP energy -178633.334884 kJ/mol
# GULP energy per Si atom -5582.291715 kJ/mol
# Density = 1.786851 g / cm^3
# Si number density = 17.909277 Si / 1000 Ang^3
#
#
#
# Elastic Constant Matrix: (Units=GPa)
#
#
# Indices 1 2 3 4 5 6 
#
# 1 146.9070 33.5411 94.4414 0.0000 -2.1085 0.0000
# 2 33.5411 22.4951 32.6601 0.0000 1.3529 0.0000
# 3 94.4414 32.6601 140.4279 0.0000 -2.5993 0.0000
# 4 0.0000 0.0000 0.0000 24.2840 0.0000 5.3038
# 5 -2.1085 1.3529 -2.5993 0.0000 30.9457 0.0000
# 6 0.0000 0.0000 0.0000 5.3038 0.0000 19.1662
#
#
#
# Elastic Compliance Matrix: (Units=1/GPa)
#
#
# Indices 1 2 3 4 5 6 
#
# 1 0.013462 -0.010568 -0.006580 0.000000 0.000827 0.000000
# 2 -0.010568 0.075978 -0.010654 0.000000 -0.004937 0.000000
# 3 -0.006580 -0.010654 0.014047 0.000000 0.001197 0.000000
# 4 0.000000 0.000000 0.000000 0.043828 0.000000 -0.012129
# 5 0.000827 -0.004937 0.001197 0.000000 0.032687 0.000000
# 6 0.000000 0.000000 0.000000 -0.012129 0.000000 0.055532
#
#
# Mechanical properties :
#
#
# Convention : Reuss Voigt Hill
#
# Bulk Modulus (GPa) = 20.88545 70.12390 45.50468
# Shear Modulus (GPa) = 16.28132 24.82499 20.55316
#
# Velocity S-wave (km/s) = 3.01840 3.72715 3.39134
# Velocity P-wave (km/s) = 4.88209 7.60015 6.38737
#
# Compressibility (1/GPa) = 0.04788022
#
# Stress axis : x y z
#
# Youngs Moduli (GPa) = 74.28257 13.16174 71.19111
#
# Poissons Ratio (x) = 0.13910 0.46846
# Poissons Ratio (y) = 0.78504 0.75850
# Poissons Ratio (z) = 0.48881 0.14023
#
# Static dielectric constant tensor:
#      x y z
#    x 1.580670 0.000000 0.001090 
#    y 0.000000 1.606590 0.000000 
#    z 0.001090 0.000000 1.617010 
# 
# From -- ./inp_files/319766.got.cif
#   From: 2010.05.17/outbox.cif.g08.bks.cpg/sg12_160_cif.got.tgz:319766.got - 2010.06.03 13:09:07.
