data_PCOD9185216
_publ_section_title
;
Structure prediction by ZEFSAII (Michael W. Deem and Ramdas Pophale) SiO2 
 PCOD9185216
Probable space group: C 2/M
;
_chemical_formula_sum "Si O2"
_cell_formula_units_Z 64
_cell_length_a 20.820251
_cell_length_b 8.651654
_cell_length_c 20.389692
_cell_angle_alpha 90.000000
_cell_angle_beta 82.285681
_cell_angle_gamma 90.000000
_cell_volume 3639.547338
_symmetry_space_group_name_H-M "C 2/M"
_symmetry_group_IT_number 12
_symmetry_cell_setting 'monoclinic'
loop_
_space_group_symop_operation_xyz
x,y,z
-x,y,-z
-x,-y,-z
x,-y,z
1/2+x,1/2+y,z
1/2-x,1/2+y,-z
1/2-x,1/2-y,-z
1/2+x,1/2-y,z
loop_
_atom_site_type_symbol
_atom_site_label
_atom_site_fract_x
_atom_site_fract_y
_atom_site_fract_z
Si Si1 0.568823 0.184875 0.458309
Si Si2 0.049264 0.312892 0.181078
Si Si3 0.035243 0.815193 0.324970
Si Si4 0.401135 0.186294 0.182555
Si Si5 0.817932 0.814826 0.466555
Si Si6 0.169024 0.686612 0.074788
Si Si7 0.884693 0.814218 0.325727
Si Si8 0.308614 0.813167 0.077691
O O1 0.500000 0.230500 0.500000
O O2 0.568531 0.240939 0.383446
O O3 0.625895 0.259115 0.492461
O O4 0.574185 0.000000 0.460105
O O5 0.049408 0.500000 0.184427
O O6 0.060771 0.246695 0.252053
O O7 0.105556 0.264002 0.123485
O O8 0.976688 0.263889 0.169233
O O9 0.958485 0.774173 0.336504
O O10 0.040791 0.000000 0.327036
O O11 0.373677 0.242475 0.255989
O O12 0.357426 0.239954 0.127802
O O13 0.401062 0.000000 0.181960
O O14 0.750000 0.750000 0.500000
O O15 0.837126 0.763182 0.390248
O O16 0.816166 0.000000 0.466527
O O17 0.171489 0.500000 0.076186
O O18 0.235776 0.750864 0.095437
O O19 0.167898 0.733983 0.998388
O O20 0.881571 0.000000 0.320503
O O21 0.306662 0.000000 0.079347
#
# Coordination Sequence:
#
# PCOD9185216 Si02
#       8
#     8   8   8   8   8   8   8   8
#     4  11  22  36  59  86 109 140 182 226 270 323
#     4   9  18  33  52  77 106 136 173 219 268 312
#     4  10  19  34  56  81 108 140 178 221 269 319
#     4   9  18  32  53  78 103 133 174 219 259 309
#     4  11  23  40  58  80 111 145 183 227 275 324
#     4   9  18  33  53  75 104 140 172 212 263 312
#     4   9  19  35  55  77 106 141 175 215 266 320
#     4   9  18  33  52  76 104 137 177 214 256 313
#
# _framework density 17.584606000000001
#
# number of rings (size 3 to 8) (size 9 to 14) (size 15 to 20)
#    0.000    2.375    1.250    1.125    0.000    3.500 
#    2.250    2.500    0.000    0.000    0.000    7.000 
#    0.000    0.000    0.000    0.000    0.000    0.000 
#
# Total GULP energy -178532.567524 kJ/mol
# GULP energy per Si atom -5579.142735 kJ/mol
# Density = 1.754458 g / cm^3
# Si number density = 17.584606 Si / 1000 Ang^3
#
#
#
# Elastic Constant Matrix: (Units=GPa)
#
#
# Indices 1 2 3 4 5 6 
#
# 1 128.7055 31.1424 107.1505 0.0000 -4.1592 0.0000
# 2 31.1424 18.2991 28.7033 0.0000 -2.1268 0.0000
# 3 107.1505 28.7033 154.0667 0.0000 -3.3423 0.0000
# 4 0.0000 0.0000 0.0000 25.7684 0.0000 1.7904
# 5 -4.1592 -2.1268 -3.3423 0.0000 32.4607 0.0000
# 6 0.0000 0.0000 0.0000 1.7904 0.0000 27.8605
#
#
#
# Elastic Compliance Matrix: (Units=1/GPa)
#
#
# Indices 1 2 3 4 5 6 
#
# 1 0.022459 -0.019343 -0.012008 0.000000 0.000374 0.000000
# 2 -0.019343 0.094289 -0.004042 0.000000 0.003283 0.000000
# 3 -0.012008 -0.004042 0.015591 0.000000 -0.000198 0.000000
# 4 0.000000 0.000000 0.000000 0.038981 0.000000 -0.002505
# 5 0.000374 0.003283 -0.000198 0.000000 0.031049 0.000000
# 6 0.000000 0.000000 0.000000 -0.002505 0.000000 0.036054
#
#
# Mechanical properties :
#
#
# Convention : Reuss Voigt Hill
#
# Bulk Modulus (GPa) = 16.24651 70.56263 43.40457
# Shear Modulus (GPa) = 15.16400 26.15627 20.66013
#
# Velocity S-wave (km/s) = 2.93976 3.86093 3.43140
# Velocity P-wave (km/s) = 4.55873 7.75180 6.35895
#
# Compressibility (1/GPa) = 0.06155167
#
# Stress axis : x y z
#
# Youngs Moduli (GPa) = 44.52521 10.60568 64.13995
#
# Poissons Ratio (x) = 0.20515 0.77020
# Poissons Ratio (y) = 0.86126 0.25928
# Poissons Ratio (z) = 0.53466 0.04287
#
# Static dielectric constant tensor:
#      x y z
#    x 1.580290 0.000000 -0.004640 
#    y 0.000000 1.595320 0.000000 
#    z -0.004640 0.000000 1.591530 
# 
# From -- ./inp_files/319113.got.cif
#   From: 2010.05.17/outbox.cif.g08.bks.cpg/sg12_160_cif.got.tgz:319113.got - 2010.06.03 13:09:07.
