data_PCOD9185571
_publ_section_title
;
Structure prediction by ZEFSAII (Michael W. Deem and Ramdas Pophale) SiO2 
 PCOD9185571
Probable space group: C 2/M
;
_chemical_formula_sum "Si O2"
_cell_formula_units_Z 48
_cell_length_a 20.929895
_cell_length_b 11.732711
_cell_length_c 12.177033
_cell_angle_alpha 90.000000
_cell_angle_beta 49.625916
_cell_angle_gamma 90.000000
_cell_volume 2278.063193
_symmetry_space_group_name_H-M "C 2/M"
_symmetry_group_IT_number 12
_symmetry_cell_setting 'monoclinic'
loop_
_space_group_symop_operation_xyz
x,y,z
-x,y,-z
-x,-y,-z
x,-y,z
1/2+x,1/2+y,z
1/2-x,1/2+y,-z
1/2-x,1/2-y,-z
1/2+x,1/2-y,z
loop_
_atom_site_type_symbol
_atom_site_label
_atom_site_fract_x
_atom_site_fract_y
_atom_site_fract_z
Si Si1 0.866595 0.871676 0.163837
Si Si2 0.129390 0.730363 0.054380
Si Si3 0.194632 0.868344 0.187359
Si Si4 0.929331 0.134353 0.492829
Si Si5 0.557136 0.785501 0.734483
Si Si6 0.225853 0.623606 0.484163
O O1 0.914388 0.779253 0.186255
O O2 0.770527 0.874973 0.315572
O O3 0.899825 0.000000 0.141832
O O4 0.871574 0.831960 0.033671
O O5 0.151004 0.785017 0.148178
O O6 0.038233 0.673514 0.152361
O O7 0.206394 0.650469 0.933829
O O8 0.158914 0.843774 0.348359
O O9 0.172591 0.000000 0.187766
O O10 0.939675 0.191636 0.365123
O O11 0.000000 0.174684 0.500000
O O12 0.939892 0.000000 0.467797
O O13 0.626793 0.874347 0.616137
O O14 0.256856 0.500000 0.497988
O O15 0.250000 0.750000 0.500000
#
# Coordination Sequence:
#
# PCOD9185571 Si02
#       6
#     8   8   8   8   8   8
#     4  10  21  37  59  87 119 155 195 243 304 362
#     4  11  22  36  56  84 117 153 192 240 297 359
#     4  10  22  39  57  78 112 155 197 241 287 345
#     4  10  19  34  57  83 111 148 197 247 291 342
#     4  11  21  35  59  88 118 149 192 248 301 358
#     4   9  20  39  61  86 120 160 201 245 294 356
#
# _framework density 21.070530000000002
#
# number of rings (size 3 to 8) (size 9 to 14) (size 15 to 20)
#    0.000    1.833    1.667    2.500    0.000    4.000 
#    0.000    6.667    0.000    5.500    0.000    0.000 
#    0.000    0.000    0.000    0.000    0.000    0.000 
#
# Total GULP energy -133842.442737 kJ/mol
# GULP energy per Si atom -5576.768447 kJ/mol
# Density = 2.102257 g / cm^3
# Si number density = 21.070530 Si / 1000 Ang^3
#
#
#
# Elastic Constant Matrix: (Units=GPa)
#
#
# Indices 1 2 3 4 5 6 
#
# 1 56.6746 7.8817 16.9755 0.0000 -14.4165 0.0000
# 2 7.8817 62.0035 2.3147 0.0000 -9.6127 0.0000
# 3 16.9755 2.3147 89.7823 0.0000 -19.6620 0.0000
# 4 0.0000 0.0000 0.0000 14.7439 0.0000 0.2139
# 5 -14.4165 -9.6127 -19.6620 0.0000 45.5518 0.0000
# 6 0.0000 0.0000 0.0000 0.2139 0.0000 17.3274
#
#
#
# Elastic Compliance Matrix: (Units=1/GPa)
#
#
# Indices 1 2 3 4 5 6 
#
# 1 0.019897 -0.001687 -0.002670 0.000000 0.004789 0.000000
# 2 -0.001687 0.016828 0.000603 0.000000 0.003278 0.000000
# 3 -0.002670 0.000603 0.012668 0.000000 0.004750 0.000000
# 4 0.000000 0.000000 0.000000 0.067837 0.000000 -0.000838
# 5 0.004789 0.003278 0.004750 0.000000 0.026211 0.000000
# 6 0.000000 0.000000 0.000000 -0.000838 0.000000 0.057722
#
#
# Mechanical properties :
#
#
# Convention : Reuss Voigt Hill
#
# Bulk Modulus (GPa) = 23.87507 29.20045 26.53776
# Shear Modulus (GPa) = 22.45857 27.61053 25.03455
#
# Velocity S-wave (km/s) = 3.26832 3.62385 3.45067
# Velocity P-wave (km/s) = 5.05946 5.60342 5.33837
#
# Compressibility (1/GPa) = 0.04188469
#
# Stress axis : x y z
#
# Youngs Moduli (GPa) = 50.25883 59.42400 78.94178
#
# Poissons Ratio (x) = 0.10026 0.21076
# Poissons Ratio (y) = 0.08479 -0.04759
# Poissons Ratio (z) = 0.13418 -0.03583
#
# Static dielectric constant tensor:
#      x y z
#    x 1.812420 0.000000 -0.067200 
#    y 0.000000 1.741950 0.000000 
#    z -0.067200 0.000000 1.767300 
# 
# From -- ./inp_files/165464.got.cif
#   From: 2010.05.17/outbox.cif.g08.bks.cpg/sg12_83_cif.got.tgz:165464.got - 2010.06.03 13:09:07.
