data_PCOD9185582
_publ_section_title
;
Structure prediction by ZEFSAII (Michael W. Deem and Ramdas Pophale) SiO2 
 PCOD9185582
Probable space group: C 2/M
;
_chemical_formula_sum "Si O2"
_cell_formula_units_Z 56
_cell_length_a 29.111264
_cell_length_b 9.736776
_cell_length_c 20.941192
_cell_angle_alpha 90.000000
_cell_angle_beta 27.637606
_cell_angle_gamma 90.000000
_cell_volume 2753.474355
_symmetry_space_group_name_H-M "C 2/M"
_symmetry_group_IT_number 12
_symmetry_cell_setting 'monoclinic'
loop_
_space_group_symop_operation_xyz
x,y,z
-x,y,-z
-x,-y,-z
x,-y,z
1/2+x,1/2+y,z
1/2-x,1/2+y,-z
1/2-x,1/2-y,-z
1/2+x,1/2-y,z
loop_
_atom_site_type_symbol
_atom_site_label
_atom_site_fract_x
_atom_site_fract_y
_atom_site_fract_z
Si Si1 0.276860 0.150224 0.023744
Si Si2 0.501707 0.154981 0.707031
Si Si3 0.082938 0.664052 0.841676
Si Si4 0.467580 0.164019 0.470427
Si Si5 0.036797 0.843914 0.772912
Si Si6 0.761619 0.156722 0.282792
Si Si7 0.692230 0.645866 0.916786
O O1 0.395279 0.137063 0.871013
O O2 0.231719 0.000000 0.073664
O O3 0.250000 0.250000 0.000000
O O4 0.253471 0.226770 0.118372
O O5 0.484331 0.208629 0.656209
O O6 0.562106 0.259876 0.677205
O O7 0.546306 0.000000 0.648851
O O8 0.087755 0.500000 0.824156
O O9 0.058524 0.749224 0.807637
O O10 0.185936 0.729574 0.739213
O O11 0.000000 0.685450 0.000000
O O12 0.500000 0.219919 0.500000
O O13 0.351256 0.183766 0.598767
O O14 0.486157 0.000000 0.450744
O O15 0.077759 0.000000 0.726054
O O16 0.917575 0.860317 0.919919
O O17 0.818052 0.157751 0.145738
O O18 0.769114 0.000000 0.299500
O O19 0.744555 0.500000 0.866420
#
# Coordination Sequence:
#
# PCOD9185582 Si02
#       7
#     8   8   8   8   8   8   8
#     4  10  20  31  49  75 106 141 181 230 283 337
#     4   9  19  36  56  80 111 146 188 235 282 334
#     4  11  22  35  56  86 121 153 184 227 285 345
#     4   9  19  36  61  86 110 148 195 238 279 331
#     4  10  19  34  57  83 114 148 183 226 280 338
#     4  10  20  35  58  85 114 147 190 235 278 334
#     4   9  18  31  50  78 110 141 176 224 277 332
#
# _framework density 20.337941000000001
#
# number of rings (size 3 to 8) (size 9 to 14) (size 15 to 20)
#    0.000    2.286    1.429    1.286    2.000    2.286 
#    0.000    1.429    0.000    0.857    0.000    0.000 
#    0.000    0.000    0.000    0.000    0.000    0.000 
#
# Total GULP energy -155923.166333 kJ/mol
# GULP energy per Si atom -5568.684512 kJ/mol
# Density = 2.029165 g / cm^3
# Si number density = 20.337941 Si / 1000 Ang^3
#
#
#
# Elastic Constant Matrix: (Units=GPa)
#
#
# Indices 1 2 3 4 5 6 
#
# 1 110.0146 84.8490 10.5469 0.0003 19.8168 -0.0003
# 2 84.8490 161.0501 8.3299 -0.0001 9.4004 0.0001
# 3 10.5469 8.3299 24.1463 -0.0003 10.2561 0.0001
# 4 0.0003 -0.0001 -0.0003 7.3268 0.0004 3.7043
# 5 19.8168 9.4004 10.2561 0.0004 23.8499 -0.0002
# 6 -0.0003 0.0001 0.0001 3.7043 -0.0002 32.8953
#
#
#
# Elastic Compliance Matrix: (Units=1/GPa)
#
#
# Indices 1 2 3 4 5 6 
#
# 1 0.017912 -0.008772 0.000068 0.000000 -0.011455 0.000000
# 2 -0.008772 0.010689 -0.001422 0.000000 0.003687 0.000000
# 3 0.000068 -0.001422 0.050971 0.000003 -0.021415 -0.000001
# 4 0.000000 0.000000 0.000003 0.144724 -0.000004 -0.016297
# 5 -0.011455 0.003687 -0.021415 -0.000004 0.059202 0.000001
# 6 0.000000 0.000000 -0.000001 -0.016297 0.000001 0.032235
#
#
# Mechanical properties :
#
#
# Convention : Reuss Voigt Hill
#
# Bulk Modulus (GPa) = 16.85782 55.85140 36.35461
# Shear Modulus (GPa) = 14.05453 25.58009 19.81731
#
# Velocity S-wave (km/s) = 2.63163 3.55033 3.12493
# Velocity P-wave (km/s) = 4.18818 6.65791 5.56186
#
# Compressibility (1/GPa) = 0.05931967
#
# Stress axis : x y z
#
# Youngs Moduli (GPa) = 55.82954 93.55476 19.61895
#
# Poissons Ratio (x) = 0.82063 -0.00133
# Poissons Ratio (y) = 0.48972 0.02790
# Poissons Ratio (z) = -0.00378 0.13304
#
# Static dielectric constant tensor:
#      x y z
#    x 1.739490 0.000000 -0.000580 
#    y 0.000000 1.765710 0.000000 
#    z -0.000580 0.000000 1.791000 
# 
# From -- ./inp_files/329505.got.cif
#   From: 2010.05.17/outbox.cif.g08.bks.cpg/sg12_165_cif.got.tgz:329505.got - 2010.06.03 13:09:07.
