data_PCOD9185589
_publ_section_title
;
Structure prediction by ZEFSAII (Michael W. Deem and Ramdas Pophale) SiO2 
 PCOD9185589
Probable space group: C 2/M
;
_chemical_formula_sum "Si O2"
_cell_formula_units_Z 64
_cell_length_a 25.612169
_cell_length_b 8.713637
_cell_length_c 14.736597
_cell_angle_alpha 90.000000
_cell_angle_beta 89.681321
_cell_angle_gamma 90.000000
_cell_volume 3288.791278
_symmetry_space_group_name_H-M "C 2/M"
_symmetry_group_IT_number 12
_symmetry_cell_setting 'monoclinic'
loop_
_space_group_symop_operation_xyz
x,y,z
-x,y,-z
-x,-y,-z
x,-y,z
1/2+x,1/2+y,z
1/2-x,1/2+y,-z
1/2-x,1/2-y,-z
1/2+x,1/2-y,z
loop_
_atom_site_type_symbol
_atom_site_label
_atom_site_fract_x
_atom_site_fract_y
_atom_site_fract_z
Si Si1 0.413942 0.681956 0.483544
Si Si2 0.694813 0.823487 0.524262
Si Si3 0.053978 0.814050 0.320559
Si Si4 0.445054 0.818069 0.288369
Si Si5 0.860734 0.819625 0.153129
Si Si6 0.724937 0.176465 0.728460
Si Si7 0.661748 0.314286 0.229462
Si Si8 0.307174 0.685902 0.974105
O O1 0.420127 0.500000 0.471778
O O2 0.353928 0.723203 0.506561
O O3 0.445884 0.730001 0.572666
O O4 0.427856 0.760147 0.388504
O O5 0.750000 0.750000 0.500000
O O6 0.695283 0.824471 0.633710
O O7 0.690796 0.000000 0.493112
O O8 0.107809 0.759236 0.273524
O O9 0.002855 0.748773 0.273574
O O10 0.052628 0.000000 0.317915
O O11 0.405101 0.762654 0.211358
O O12 0.445861 0.000000 0.289319
O O13 0.806102 0.785291 0.204192
O O14 0.871929 0.000000 0.153834
O O15 0.849324 0.768580 0.050377
O O16 0.785235 0.223536 0.716602
O O17 0.724503 0.000000 0.763970
O O18 0.657812 0.500000 0.229856
O O19 0.673763 0.266196 0.126010
O O20 0.303574 0.500000 0.975164
O O21 0.250000 0.750000 0.000000
#
# Coordination Sequence:
#
# PCOD9185589 Si02
#       8
#     8   8   8   8   8   8   8   8
#     4  11  22  38  61  88 117 151 198 249 296 354
#     4  11  22  34  52  82 120 162 201 240 293 350
#     4  10  22  41  63  86 115 156 199 244 297 353
#     4  12  25  41  61  85 116 158 202 248 299 351
#     4  11  22  36  58  89 119 151 195 242 289 346
#     4  10  19  34  57  83 116 155 192 235 291 350
#     4   9  18  36  61  87 119 156 193 236 292 355
#     4  10  20  35  60  92 122 154 193 237 290 354
#
# _framework density 19.460035999999999
#
# number of rings (size 3 to 8) (size 9 to 14) (size 15 to 20)
#    0.000    1.500    2.500    3.375    0.000    5.500 
#    0.000    1.875    0.000    3.750    0.000    0.000 
#    0.000    0.000    0.000    0.000    0.000    0.000 
#
# Total GULP energy -178728.175670 kJ/mol
# GULP energy per Si atom -5585.255490 kJ/mol
# Density = 1.941574 g / cm^3
# Si number density = 19.460036 Si / 1000 Ang^3
#
#
#
# Elastic Constant Matrix: (Units=GPa)
#
#
# Indices 1 2 3 4 5 6 
#
# 1 126.8275 14.4544 39.1307 0.0000 15.9084 0.0000
# 2 14.4544 31.9940 23.3808 0.0000 8.8802 0.0000
# 3 39.1307 23.3808 83.4020 0.0000 16.4237 0.0000
# 4 0.0000 0.0000 0.0000 12.1833 0.0000 -2.8360
# 5 15.9084 8.8802 16.4237 0.0000 28.3780 0.0000
# 6 0.0000 0.0000 0.0000 -2.8360 0.0000 31.6222
#
#
#
# Elastic Compliance Matrix: (Units=1/GPa)
#
#
# Indices 1 2 3 4 5 6 
#
# 1 0.009468 -0.000801 -0.003636 0.000000 -0.002953 0.000000
# 2 -0.000801 0.040533 -0.009681 0.000000 -0.006632 0.000000
# 3 -0.003636 -0.009681 0.017395 0.000000 -0.004999 0.000000
# 4 0.000000 0.000000 0.000000 0.083830 0.000000 0.007518
# 5 -0.002953 -0.006632 -0.004999 0.000000 0.041862 0.000000
# 6 0.000000 0.000000 0.000000 0.007518 0.000000 0.032298
#
#
# Mechanical properties :
#
#
# Convention : Reuss Voigt Hill
#
# Bulk Modulus (GPa) = 25.53664 44.01728 34.77696
# Shear Modulus (GPa) = 18.74932 25.45388 22.10160
#
# Velocity S-wave (km/s) = 3.10736 3.62056 3.37373
# Velocity P-wave (km/s) = 5.10151 6.33612 5.75203
#
# Compressibility (1/GPa) = 0.03915941
#
# Stress axis : x y z
#
# Youngs Moduli (GPa) = 105.61545 24.67101 57.48846
#
# Poissons Ratio (x) = 0.01975 0.20906
# Poissons Ratio (y) = 0.08456 0.55657
# Poissons Ratio (z) = 0.38407 0.23885
#
# Static dielectric constant tensor:
#      x y z
#    x 1.686210 0.000000 0.003140 
#    y 0.000000 1.665680 0.000000 
#    z 0.003140 0.000000 1.703320 
# 
# From -- ./inp_files/238763.got.cif
#   From: 2010.05.17/outbox.cif.g08.bks.cpg/sg12_120_cif.got.tgz:238763.got - 2010.06.03 13:09:07.
