data_PCOD9185191
_publ_section_title
;
Structure prediction by ZEFSAII (Michael W. Deem and Ramdas Pophale) SiO2 
 PCOD9185191
Probable space group: C 2/M
;
_chemical_formula_sum "Si O2"
_cell_formula_units_Z 64
_cell_length_a 31.175666
_cell_length_b 7.456989
_cell_length_c 12.101314
_cell_angle_alpha 90.000000
_cell_angle_beta 93.849268
_cell_angle_gamma 90.000000
_cell_volume 2806.925886
_symmetry_space_group_name_H-M "C 2/M"
_symmetry_group_IT_number 12
_symmetry_cell_setting 'monoclinic'
loop_
_space_group_symop_operation_xyz
x,y,z
-x,y,-z
-x,-y,-z
x,-y,z
1/2+x,1/2+y,z
1/2-x,1/2+y,-z
1/2-x,1/2-y,-z
1/2+x,1/2-y,z
loop_
_atom_site_type_symbol
_atom_site_label
_atom_site_fract_x
_atom_site_fract_y
_atom_site_fract_z
Si Si1 0.333605 0.288559 0.057549
Si Si2 0.088835 0.283733 0.764365
Si Si3 0.335617 0.203105 0.813108
Si Si4 0.388457 0.781319 0.477418
Si Si5 0.241546 0.207681 0.809712
Si Si6 0.291900 0.213011 0.433193
Si Si7 0.578955 0.780378 0.287008
Si Si8 0.997713 0.719247 0.127623
O O1 0.328625 0.500000 0.035003
O O2 0.370261 0.265297 0.154807
O O3 0.289161 0.215482 0.101198
O O4 0.345783 0.199151 0.944809
O O5 0.086995 0.500000 0.759647
O O6 0.095454 0.220886 0.639884
O O7 0.045775 0.222220 0.818582
O O8 0.288487 0.289229 0.797977
O O9 0.376259 0.282740 0.758672
O O10 0.331226 0.000000 0.766822
O O11 0.338448 0.725715 0.485563
O O12 0.418444 0.726707 0.584542
O O13 0.388558 0.000000 0.476904
O O14 0.216289 0.212071 0.690182
O O15 0.249006 0.000000 0.841561
O O16 0.250000 0.250000 0.500000
O O17 0.294856 0.000000 0.421960
O O18 0.538662 0.722452 0.206915
O O19 0.578480 0.000000 0.282772
O O20 0.997628 0.500000 0.126341
O O21 0.000000 0.776375 0.000000
#
# Coordination Sequence:
#
# PCOD9185191 Si02
#       8
#     8   8   8   8   8   8   8   8
#     4  11  22  35  53  79 112 143 182 230 274 329
#     4  10  19  34  56  80 108 143 184 224 272 332
#     4  10  20  35  56  77 106 145 182 225 279 335
#     4   9  18  32  51  77 108 142 181 224 271 324
#     4  10  21  36  53  78 108 143 184 227 277 329
#     4  11  21  34  53  77 109 148 190 232 272 324
#     4   9  17  31  52  80 110 137 173 227 280 321
#     4   9  17  29  50  82 112 138 176 226 275 326
#
# _framework density 22.800744000000002
#
# number of rings (size 3 to 8) (size 9 to 14) (size 15 to 20)
#    0.000    2.125    1.250    2.625    0.000    5.500 
#    0.000    2.500    0.000    4.125    0.000    0.875 
#    0.000    0.000    0.000    0.000    0.000    0.000 
#
# Total GULP energy -178848.544785 kJ/mol
# GULP energy per Si atom -5589.017025 kJ/mol
# Density = 2.274885 g / cm^3
# Si number density = 22.800744 Si / 1000 Ang^3
#
#
#
# Elastic Constant Matrix: (Units=GPa)
#
#
# Indices 1 2 3 4 5 6 
#
# 1 146.7178 9.2033 50.5182 0.0000 10.6073 0.0000
# 2 9.2033 73.0460 -3.9810 0.0000 -2.2786 0.0000
# 3 50.5182 -3.9810 110.5805 0.0000 23.0114 0.0000
# 4 0.0000 0.0000 0.0000 -4.5917 0.0000 10.1073
# 5 10.6073 -2.2786 23.0114 0.0000 40.6252 0.0000
# 6 0.0000 0.0000 0.0000 10.1073 0.0000 -1.2725
#
#
#
# Elastic Compliance Matrix: (Units=1/GPa)
#
#
# Indices 1 2 3 4 5 6 
#
# 1 0.008199 -0.001241 -0.003775 0.000000 -0.000072 0.000000
# 2 -0.001241 0.013916 0.000950 0.000000 0.000566 0.000000
# 3 -0.003775 0.000950 0.012000 0.000000 -0.005758 0.000000
# 4 0.000000 0.000000 0.000000 0.013212 0.000000 0.104941
# 5 -0.000072 0.000566 -0.005758 0.000000 0.027928 0.000000
# 6 0.000000 0.000000 0.000000 0.104941 0.000000 0.047674
#
#
# Mechanical properties :
#
#
# Convention : Reuss Voigt Hill
#
# Bulk Modulus (GPa) = 38.48739 49.09170 43.78954
# Shear Modulus (GPa) = 35.78539 25.25913 30.52226
#
# Velocity S-wave (km/s) = 3.96597 3.33200 3.66273
# Velocity P-wave (km/s) = 6.15536 6.03162 6.09380
#
# Compressibility (1/GPa) = 0.02598254
#
# Stress axis : x y z
#
# Youngs Moduli (GPa) = 121.96963 71.86080 83.33049
#
# Poissons Ratio (x) = 0.08918 0.31460
# Poissons Ratio (y) = 0.15136 -0.07917
# Poissons Ratio (z) = 0.46047 -0.06827
#
# Static dielectric constant tensor:
#      x y z
#    x 1.831850 0.000000 -0.007480 
#    y 0.000000 2.175500 0.000000 
#    z -0.007480 0.000000 1.813050 
# 
# From -- ./inp_files/187502.got.cif
#   From: 2010.05.17/outbox.cif.g08.bks.cpg/sg12_94_cif.got.tgz:187502.got - 2010.06.03 13:09:07.
