data_PCOD9185539
_publ_section_title
;
Structure prediction by ZEFSAII (Michael W. Deem and Ramdas Pophale) SiO2 
 PCOD9185539
Probable space group: C 2/M
;
_chemical_formula_sum "Si O2"
_cell_formula_units_Z 56
_cell_length_a 18.490112
_cell_length_b 7.752599
_cell_length_c 30.744291
_cell_angle_alpha 90.000000
_cell_angle_beta 41.529198
_cell_angle_gamma 90.000000
_cell_volume 2921.903990
_symmetry_space_group_name_H-M "C 2/M"
_symmetry_group_IT_number 12
_symmetry_cell_setting 'monoclinic'
loop_
_space_group_symop_operation_xyz
x,y,z
-x,y,-z
-x,-y,-z
x,-y,z
1/2+x,1/2+y,z
1/2-x,1/2+y,-z
1/2-x,1/2-y,-z
1/2+x,1/2-y,z
loop_
_atom_site_type_symbol
_atom_site_label
_atom_site_fract_x
_atom_site_fract_y
_atom_site_fract_z
Si Si1 0.489202 0.500000 0.077153
Si Si2 0.285401 0.295163 0.301853
Si Si3 0.307557 0.297174 0.827931
Si Si4 0.180697 0.000000 0.927655
Si Si5 0.445347 0.710236 0.306361
Si Si6 0.874663 0.207608 0.433443
Si Si7 0.037095 0.791094 0.435645
Si Si8 0.365005 0.807105 0.171964
O O1 0.407322 0.500000 0.072366
O O2 0.456190 0.666805 0.119758
O O3 0.610094 0.500000 0.003221
O O4 0.302126 0.500000 0.289667
O O5 0.360907 0.232225 0.307488
O O6 0.159751 0.261836 0.369457
O O7 0.320191 0.212526 0.240699
O O8 0.305661 0.500000 0.841324
O O9 0.431142 0.244312 0.761618
O O10 0.235155 0.280592 0.816644
O O11 0.253523 0.169909 0.887205
O O12 0.441651 0.500000 0.309104
O O13 0.410880 0.772177 0.369676
O O14 0.750000 0.250000 0.500000
O O15 0.954281 0.271157 0.435707
O O16 0.884521 0.000000 0.428125
O O17 0.000000 0.730697 0.500000
O O18 0.033719 0.000000 0.437466
O O19 0.406878 0.000000 0.146057
#
# Coordination Sequence:
#
# PCOD9185539 Si02
#       8
#     4   8   8   4   8   8   8   8
#     4   9  18  34  54  86 121 142 179 231 277 335
#     4  11  21  34  54  79 107 143 187 239 279 331
#     4   9  18  35  56  80 112 147 183 230 282 332
#     4   9  18  32  56  88 116 142 182 231 275 335
#     4   9  19  35  53  75 106 146 183 232 284 329
#     4  10  20  36  54  75 107 144 184 232 283 336
#     4  10  21  36  53  76 110 146 184 235 285 337
#     4  10  19  34  57  82 112 149 185 229 283 334
#
# _framework density 19.165585
#
# number of rings (size 3 to 8) (size 9 to 14) (size 15 to 20)
#    0.000    2.286    0.714    2.143    0.000    3.714 
#    3.857    2.857    0.000    0.857    0.000    0.000 
#    0.000    0.000    0.000    0.000    0.000    0.000 
#
# Total GULP energy -156354.677053 kJ/mol
# GULP energy per Si atom -5584.095609 kJ/mol
# Density = 1.912196 g / cm^3
# Si number density = 19.165585 Si / 1000 Ang^3
#
#
#
# Elastic Constant Matrix: (Units=GPa)
#
#
# Indices 1 2 3 4 5 6 
#
# 1 104.7879 42.5950 77.5878 -0.0030 -4.7244 0.0051
# 2 42.5950 68.6981 54.8001 0.0160 -1.8698 0.0056
# 3 77.5878 54.8001 189.0722 -0.0029 -8.0428 0.0013
# 4 -0.0030 0.0160 -0.0029 -7.0614 -0.0018 0.4222
# 5 -4.7244 -1.8698 -8.0428 -0.0018 23.6742 0.0015
# 6 0.0051 0.0056 0.0013 0.4222 0.0015 6.5147
#
#
#
# Elastic Compliance Matrix: (Units=1/GPa)
#
#
# Indices 1 2 3 4 5 6 
#
# 1 0.015341 -0.005850 -0.004555 -0.000018 0.001052 -0.000005
# 2 -0.005850 0.021168 -0.003768 0.000051 -0.000776 -0.000016
# 3 -0.004555 -0.003768 0.008319 -0.000010 0.001620 0.000005
# 4 -0.000018 0.000051 -0.000010 -0.141068 -0.000015 0.009141
# 5 0.001052 -0.000776 0.001620 -0.000015 0.042939 -0.000009
# 6 -0.000005 -0.000016 0.000005 0.009141 -0.000009 0.152906
#
#
# Mechanical properties :
#
#
# Convention : Reuss Voigt Hill
#
# Bulk Modulus (GPa) = 60.66894 79.16935 69.91915
# Shear Modulus (GPa) = 37.46865 17.13052 27.29958
#
# Velocity S-wave (km/s) = 4.42633 2.99292 3.77823
# Velocity P-wave (km/s) = 7.60573 7.30350 7.45615
#
# Compressibility (1/GPa) = 0.01648290
#
# Stress axis : x y z
#
# Youngs Moduli (GPa) = 65.18425 47.24157 120.20419
#
# Poissons Ratio (x) = 0.27635 0.54755
# Poissons Ratio (y) = 0.38131 0.45289
# Poissons Ratio (z) = 0.29693 0.17799
#
# Static dielectric constant tensor:
#      x y z
#    x 1.654440 0.000000 0.010430 
#    y 0.000000 1.698980 0.000000 
#    z 0.010430 0.000000 1.617080 
# 
# From -- ./inp_files/377703.got.cif
#   From: 2010.05.17/outbox.cif.g08.bks.cpg/sg12_189_cif.got.tgz:377703.got - 2010.06.03 13:09:07.
