data_PCOD9185776
_publ_section_title
;
Structure prediction by ZEFSAII (Michael W. Deem and Ramdas Pophale) SiO2 
 PCOD9185776
Probable space group: C 2/M
;
_chemical_formula_sum "Si O2"
_cell_formula_units_Z 52
_cell_length_a 15.833485
_cell_length_b 23.852599
_cell_length_c 11.106874
_cell_angle_alpha 90.000000
_cell_angle_beta 142.587216
_cell_angle_gamma 90.000000
_cell_volume 2548.521441
_symmetry_space_group_name_H-M "C 2/M"
_symmetry_group_IT_number 12
_symmetry_cell_setting 'monoclinic'
loop_
_space_group_symop_operation_xyz
x,y,z
-x,y,-z
-x,-y,-z
x,-y,z
1/2+x,1/2+y,z
1/2-x,1/2+y,-z
1/2-x,1/2-y,-z
1/2+x,1/2-y,z
loop_
_atom_site_type_symbol
_atom_site_label
_atom_site_fract_x
_atom_site_fract_y
_atom_site_fract_z
Si Si1 0.000000 0.172449 0.500000
Si Si2 0.596596 0.730733 0.218089
Si Si3 0.903574 0.266027 0.207127
Si Si4 0.771224 0.836653 0.416698
Si Si5 0.601828 0.892678 0.722476
Si Si6 0.123632 0.564514 0.367441
Si Si7 0.339880 0.434133 0.837771
O O1 0.053211 0.215016 0.660657
O O2 0.120193 0.141830 0.561017
O O3 0.500863 0.765674 0.201059
O O4 0.708223 0.776886 0.299655
O O5 0.664356 0.683164 0.380125
O O6 0.500000 0.710608 0.000000
O O7 0.912521 0.326315 0.277539
O O8 0.750000 0.250000 0.000000
O O9 0.663956 0.886338 0.321006
O O10 0.500000 0.911692 0.500000
O O11 0.530602 0.922786 0.755277
O O12 0.757512 0.905097 0.854490
O O13 0.131895 0.500000 0.335223
O O14 0.239977 0.570783 0.606901
O O15 0.345280 0.500000 0.872996
O O16 0.500000 0.416075 0.000000
#
# Coordination Sequence:
#
# PCOD9185776 Si02
#       7
#     4   8   8   8   8   8   8
#     4  10  22  38  53  82 121 152 192 244 294 352
#     4  10  21  36  57  84 117 152 192 237 303 356
#     4  11  21  34  55  86 114 150 191 240 298 363
#     4  10  21  37  59  83 118 156 195 243 293 354
#     4  10  19  34  58  82 119 153 194 240 298 357
#     4  10  20  36  59  85 114 160 206 244 293 352
#     4   9  19  33  52  82 118 151 190 242 298 356
#
# _framework density 20.403987000000001
#
# number of rings (size 3 to 8) (size 9 to 14) (size 15 to 20)
#    0.000    2.000    2.308    1.385    0.000    7.385 
#    0.000    0.385    0.000    0.462    0.000    0.000 
#    0.000    0.000    0.000    0.000    0.000    0.000 
#
# Total GULP energy -144972.430707 kJ/mol
# GULP energy per Si atom -5575.862719 kJ/mol
# Density = 2.035755 g / cm^3
# Si number density = 20.403987 Si / 1000 Ang^3
#
#
#
# Elastic Constant Matrix: (Units=GPa)
#
#
# Indices 1 2 3 4 5 6 
#
# 1 121.7028 36.3962 1.7417 0.0000 33.0923 0.0000
# 2 36.3962 88.5756 -14.0279 0.0000 9.3039 0.0000
# 3 1.7417 -14.0279 39.9643 0.0000 11.1991 0.0000
# 4 0.0000 0.0000 0.0000 34.3727 0.0000 33.9417
# 5 33.0923 9.3039 11.1991 0.0000 33.5785 0.0000
# 6 0.0000 0.0000 0.0000 33.9417 0.0000 50.4165
#
#
#
# Elastic Compliance Matrix: (Units=1/GPa)
#
#
# Indices 1 2 3 4 5 6 
#
# 1 0.012498 -0.003663 0.001474 0.000000 -0.011794 0.000000
# 2 -0.003663 0.013911 0.005638 0.000000 -0.002125 0.000000
# 3 0.001474 0.005638 0.030646 0.000000 -0.013237 0.000000
# 4 0.000000 0.000000 0.000000 0.086789 0.000000 -0.058429
# 5 -0.011794 -0.002125 -0.013237 0.000000 0.046407 0.000000
# 6 0.000000 0.000000 0.000000 -0.058429 0.000000 0.059170
#
#
# Mechanical properties :
#
#
# Convention : Reuss Voigt Hill
#
# Bulk Modulus (GPa) = 15.63621 33.16250 24.39936
# Shear Modulus (GPa) = 18.95078 38.74905 28.84991
#
# Velocity S-wave (km/s) = 3.05089 4.36258 3.76431
# Velocity P-wave (km/s) = 4.48225 6.45480 5.55675
#
# Compressibility (1/GPa) = 0.06395411
#
# Stress axis : x y z
#
# Youngs Moduli (GPa) = 80.01281 71.88505 32.63032
#
# Poissons Ratio (x) = 0.26333 -0.04811
# Poissons Ratio (y) = 0.29310 -0.18397
# Poissons Ratio (z) = -0.11798 -0.40529
#
# Static dielectric constant tensor:
#      x y z
#    x 1.772170 0.000000 0.031940 
#    y 0.000000 1.754660 0.000000 
#    z 0.031940 0.000000 1.757520 
# 
# From -- ./inp_files/149329.got.cif
#   From: 2010.05.17/outbox.cif.g08.bks.cpg/sg12_75_cif.got.tgz:149329.got - 2010.06.03 13:09:07.
