data_PCOD9185111
_publ_section_title
;
Structure prediction by ZEFSAII (Michael W. Deem and Ramdas Pophale) SiO2 
 PCOD9185111
Probable space group: C 2/M
;
_chemical_formula_sum "Si O2"
_cell_formula_units_Z 64
_cell_length_a 20.729240
_cell_length_b 7.479616
_cell_length_c 21.549909
_cell_angle_alpha 90.000000
_cell_angle_beta 64.733421
_cell_angle_gamma 90.000000
_cell_volume 3021.592304
_symmetry_space_group_name_H-M "C 2/M"
_symmetry_group_IT_number 12
_symmetry_cell_setting 'monoclinic'
loop_
_space_group_symop_operation_xyz
x,y,z
-x,y,-z
-x,-y,-z
x,-y,z
1/2+x,1/2+y,z
1/2-x,1/2+y,-z
1/2-x,1/2-y,-z
1/2+x,1/2-y,z
loop_
_atom_site_type_symbol
_atom_site_label
_atom_site_fract_x
_atom_site_fract_y
_atom_site_fract_z
Si Si1 0.423549 0.718367 0.057011
Si Si2 0.982147 0.283801 0.408184
Si Si3 0.100885 0.218678 0.790182
Si Si4 0.778918 0.214244 0.056236
Si Si5 0.258358 0.781354 0.689610
Si Si6 0.320294 0.207229 0.793928
Si Si7 0.517466 0.293758 0.255732
Si Si8 0.885908 0.282315 0.558123
O O1 0.424667 0.500000 0.056644
O O2 0.407871 0.772502 0.134497
O O3 0.358353 0.777751 0.040124
O O4 0.500000 0.777746 0.000000
O O5 0.982380 0.500000 0.405600
O O6 0.917040 0.225149 0.478992
O O7 0.982124 0.217959 0.338150
O O8 0.054845 0.231120 0.414486
O O9 0.176517 0.275104 0.729955
O O10 0.035407 0.280793 0.774539
O O11 0.101007 0.000000 0.789515
O O12 0.724574 0.284917 0.130815
O O13 0.781367 0.000000 0.060508
O O14 0.750000 0.250000 0.000000
O O15 0.298396 0.719795 0.735963
O O16 0.308000 0.722936 0.612045
O O17 0.258264 0.000000 0.687606
O O18 0.404197 0.212395 0.771298
O O19 0.298848 0.000000 0.798781
O O20 0.529712 0.500000 0.234927
O O21 0.886272 0.500000 0.557170
#
# Coordination Sequence:
#
# PCOD9185111 Si02
#       8
#     8   8   8   8   8   8   8   8
#     4   9  17  31  51  74 101 135 172 205 243 296
#     4   9  16  30  50  75 102 129 170 213 250 299
#     4   9  18  31  47  72 103 133 170 212 250 297
#     4  10  21  35  55  82 107 133 167 212 259 299
#     4   9  14  28  53  75  93 124 177 224 245 277
#     4  10  19  34  56  76  98 133 178 217 246 290
#     4  11  22  32  48  78 110 136 162 206 267 308
#     4   8  14  25  50  78  95 124 173 220 250 285
#
# _framework density 21.180886000000001
#
# number of rings (size 3 to 8) (size 9 to 14) (size 15 to 20)
#    0.000    2.625    2.500    1.125    1.750    0.500 
#    0.000    1.875    0.000    3.375    0.000    0.000 
#    0.000    0.000    0.000    0.000    0.000    0.000 
#
# Total GULP energy -178598.112234 kJ/mol
# GULP energy per Si atom -5581.191007 kJ/mol
# Density = 2.113268 g / cm^3
# Si number density = 21.180886 Si / 1000 Ang^3
#
#
#
# Elastic Constant Matrix: (Units=GPa)
#
#
# Indices 1 2 3 4 5 6 
#
# 1 118.6523 -5.8149 48.3543 0.0000 -5.1772 -0.0009
# 2 -5.8149 55.3862 -6.2659 0.0006 -1.6832 -0.0011
# 3 48.3543 -6.2659 110.0534 -0.0001 -20.7669 -0.0003
# 4 0.0000 0.0006 -0.0001 3.9027 0.0001 12.4911
# 5 -5.1772 -1.6832 -20.7669 0.0001 34.0067 0.0002
# 6 -0.0009 -0.0011 -0.0003 12.4911 0.0002 4.5358
#
#
#
# Elastic Compliance Matrix: (Units=1/GPa)
#
#
# Indices 1 2 3 4 5 6 
#
# 1 0.010335 0.000507 -0.004759 0.000001 -0.001308 0.000000
# 2 0.000507 0.018288 0.001135 0.000002 0.001675 -0.000002
# 3 -0.004759 0.001135 0.012564 0.000000 0.007004 0.000000
# 4 0.000001 0.000002 0.000000 -0.032791 0.000000 0.090302
# 5 -0.001308 0.001675 0.007004 0.000000 0.033567 0.000000
# 6 0.000000 -0.000002 0.000000 0.090302 0.000000 -0.028214
#
#
# Mechanical properties :
#
#
# Convention : Reuss Voigt Hill
#
# Bulk Modulus (GPa) = 28.61094 39.62655 34.11875
# Shear Modulus (GPa) = 158.05819 25.01025 91.53422
#
# Velocity S-wave (km/s) = 8.64783 3.44000 6.58098
# Velocity P-wave (km/s) = 10.64193 5.87600 8.59587
#
# Compressibility (1/GPa) = 0.03495166
#
# Stress axis : x y z
#
# Youngs Moduli (GPa) = 96.75724 54.68210 79.59492
#
# Poissons Ratio (x) = -0.02772 0.37878
# Poissons Ratio (y) = -0.04905 -0.09031
# Poissons Ratio (z) = 0.46045 -0.06204
#
# Static dielectric constant tensor:
#      x y z
#    x 1.729300 0.000000 -0.011370 
#    y 0.000000 1.817570 0.000000 
#    z -0.011370 0.000000 1.755870 
# 
# From -- ./inp_files/319817.got.cif
#   From: 2010.05.17/outbox.cif.g08.bks.cpg/sg12_160_cif.got.tgz:319817.got - 2010.06.03 13:09:07.
