data_PCOD9185751
_publ_section_title
;
Structure prediction by ZEFSAII (Michael W. Deem and Ramdas Pophale) SiO2 
 PCOD9185751
Probable space group: C 2/M
;
_chemical_formula_sum "Si O2"
_cell_formula_units_Z 56
_cell_length_a 21.236996
_cell_length_b 7.603215
_cell_length_c 22.811316
_cell_angle_alpha 90.000000
_cell_angle_beta 48.555951
_cell_angle_gamma 90.000000
_cell_volume 2761.033550
_symmetry_space_group_name_H-M "C 2/M"
_symmetry_group_IT_number 12
_symmetry_cell_setting 'monoclinic'
loop_
_space_group_symop_operation_xyz
x,y,z
-x,y,-z
-x,-y,-z
x,-y,z
1/2+x,1/2+y,z
1/2-x,1/2+y,-z
1/2-x,1/2-y,-z
1/2+x,1/2-y,z
loop_
_atom_site_type_symbol
_atom_site_label
_atom_site_fract_x
_atom_site_fract_y
_atom_site_fract_z
Si Si1 0.805995 0.284436 0.264778
Si Si2 0.924195 0.202246 0.007227
Si Si3 0.998066 0.214044 0.595563
Si Si4 0.254735 0.203832 0.167423
Si Si5 0.864871 0.785820 0.578090
Si Si6 0.004492 0.294414 0.837957
Si Si7 0.574621 0.286523 0.237562
O O1 0.807048 0.500000 0.264865
O O2 0.781732 0.224047 0.214130
O O3 0.730558 0.228004 0.353932
O O4 0.899827 0.225660 0.222085
O O5 0.951975 0.209987 0.922925
O O6 0.914168 0.000000 0.031847
O O7 0.834994 0.287512 0.075909
O O8 0.000000 0.278988 0.000000
O O9 0.921051 0.264681 0.600093
O O10 0.980563 0.270905 0.672396
O O11 0.083432 0.272530 0.510920
O O12 0.998687 0.000000 0.595527
O O13 0.169733 0.276532 0.191653
O O14 0.234729 0.000000 0.191831
O O15 0.864686 0.000000 0.577333
O O16 0.008711 0.500000 0.850642
O O17 0.961425 0.274497 0.801833
O O18 0.573940 0.500000 0.236030
#
# Coordination Sequence:
#
# PCOD9185751 Si02
#       7
#     8   8   8   8   8   8   8
#     4   9  16  29  50  77 104 135 178 219 255 305
#     4  11  23  38  57  82 108 133 169 221 272 315
#     4   8  13  23  45  77 109 136 165 216 269 303
#     4  10  19  34  58  81 104 138 178 220 261 309
#     4   8  12  22  45  78 107 131 172 220 260 302
#     4  11  23  37  55  76 106 146 179 214 263 320
#     4  10  20  35  54  80 112 142 175 219 267 310
#
# _framework density 20.282260999999998
#
# number of rings (size 3 to 8) (size 9 to 14) (size 15 to 20)
#    0.000    2.429    2.857    1.714    0.000    1.714 
#    0.000    0.714    0.000    0.000    0.000    4.000 
#    0.000    0.000    0.000    0.000    0.000    0.000 
#
# Total GULP energy -156253.654612 kJ/mol
# GULP energy per Si atom -5580.487665 kJ/mol
# Density = 2.023610 g / cm^3
# Si number density = 20.282261 Si / 1000 Ang^3
#
#
#
# Elastic Constant Matrix: (Units=GPa)
#
#
# Indices 1 2 3 4 5 6 
#
# 1 133.9599 -4.8378 74.9877 0.0002 -4.9948 -0.0004
# 2 -4.8378 41.4525 -11.3473 0.0008 -2.3105 -0.0017
# 3 74.9877 -11.3473 151.4755 -0.0003 -8.2719 -0.0002
# 4 0.0002 0.0008 -0.0003 -20.6416 0.0003 5.0857
# 5 -4.9948 -2.3105 -8.2719 0.0003 33.7004 0.0000
# 6 -0.0004 -0.0017 -0.0002 5.0857 0.0000 10.5830
#
#
#
# Elastic Compliance Matrix: (Units=1/GPa)
#
#
# Indices 1 2 3 4 5 6 
#
# 1 0.010330 -0.000179 -0.005113 0.000000 0.000264 0.000000
# 2 -0.000179 0.024790 0.002065 0.000002 0.002180 0.000003
# 3 -0.005113 0.002065 0.009380 0.000000 0.001686 0.000000
# 4 0.000000 0.000002 0.000000 -0.043317 0.000001 0.020816
# 5 0.000264 0.002180 0.001686 0.000001 0.030276 0.000000
# 6 0.000000 0.000003 0.000000 0.020816 0.000000 0.084488
#
#
# Mechanical properties :
#
#
# Convention : Reuss Voigt Hill
#
# Bulk Modulus (GPa) = 26.28478 49.38812 37.83645
# Shear Modulus (GPa) = 37.01423 22.60072 29.80747
#
# Velocity S-wave (km/s) = 4.27658 3.34175 3.83774
# Velocity P-wave (km/s) = 6.11336 6.26841 6.19137
#
# Compressibility (1/GPa) = 0.03804483
#
# Stress axis : x y z
#
# Youngs Moduli (GPa) = 96.80075 40.33919 106.61287
#
# Poissons Ratio (x) = 0.00723 0.54513
# Poissons Ratio (y) = 0.01736 -0.22014
# Poissons Ratio (z) = 0.49495 -0.08329
#
# Static dielectric constant tensor:
#      x y z
#    x 1.687660 0.000000 -0.022990 
#    y 0.000000 1.775280 0.000000 
#    z -0.022990 0.000000 1.709930 
# 
# From -- ./inp_files/275321.got.cif
#   From: 2010.05.17/outbox.cif.g08.bks.cpg/sg12_138_cif.got.tgz:275321.got - 2010.06.03 13:09:07.
