data_PCOD9185147
_publ_section_title
;
Structure prediction by ZEFSAII (Michael W. Deem and Ramdas Pophale) SiO2 
 PCOD9185147
Probable space group: C 2/M
;
_chemical_formula_sum "Si O2"
_cell_formula_units_Z 64
_cell_length_a 19.301979
_cell_length_b 7.418975
_cell_length_c 24.174861
_cell_angle_alpha 90.000000
_cell_angle_beta 127.355029
_cell_angle_gamma 90.000000
_cell_volume 2751.803170
_symmetry_space_group_name_H-M "C 2/M"
_symmetry_group_IT_number 12
_symmetry_cell_setting 'monoclinic'
loop_
_space_group_symop_operation_xyz
x,y,z
-x,y,-z
-x,-y,-z
x,-y,z
1/2+x,1/2+y,z
1/2-x,1/2+y,-z
1/2-x,1/2-y,-z
1/2+x,1/2-y,z
loop_
_atom_site_type_symbol
_atom_site_label
_atom_site_fract_x
_atom_site_fract_y
_atom_site_fract_z
Si Si1 0.263813 0.713989 0.570878
Si Si2 0.990810 0.207051 0.434787
Si Si3 0.741653 0.715457 0.930918
Si Si4 0.383014 0.285213 0.795382
Si Si5 0.953729 0.779928 0.652751
Si Si6 0.550205 0.279552 0.805200
Si Si7 0.095868 0.716079 0.064166
Si Si8 0.299237 0.218891 0.346716
O O1 0.261898 0.500000 0.575477
O O2 0.250000 0.750000 0.500000
O O3 0.361129 0.774566 0.632448
O O4 0.202136 0.781055 0.589560
O O5 0.889983 0.211271 0.367455
O O6 0.000000 0.291215 0.500000
O O7 0.040820 0.288956 0.407110
O O8 0.020150 0.000000 0.454073
O O9 0.740329 0.500000 0.921786
O O10 0.646334 0.784018 0.867250
O O11 0.824238 0.784140 0.935362
O O12 0.750000 0.750000 0.000000
O O13 0.382001 0.500000 0.785299
O O14 0.470846 0.219513 0.806880
O O15 0.388416 0.252311 0.863466
O O16 0.290172 0.220809 0.725849
O O17 0.026859 0.725828 0.731324
O O18 0.955329 0.000000 0.650789
O O19 0.550486 0.500000 0.807701
O O20 0.093780 0.500000 0.055949
O O21 0.000000 0.784527 0.000000
O O22 0.302901 0.000000 0.345588
#
# Coordination Sequence:
#
# PCOD9185147 Si02
#       8
#     8   8   8   8   8   8   8   8
#     4  10  19  34  56  79 105 139 180 227 275 321
#     4  10  21  35  54  81 108 141 187 231 270 325
#     4  10  21  36  58  84 110 144 183 219 263 319
#     4  10  20  36  58  82 108 142 188 231 267 320
#     4   9  17  32  54  76 104 140 180 226 267 310
#     4   9  17  33  56  79 102 139 188 225 259 314
#     4  10  22  38  56  84 120 150 176 217 277 330
#     4  10  21  36  54  79 111 145 178 224 285 332
#
# _framework density 23.257479
#
# number of rings (size 3 to 8) (size 9 to 14) (size 15 to 20)
#    0.000    2.250    1.250    1.500    1.750    3.000 
#    0.000    0.625    0.000    1.500    0.000    0.000 
#    0.000    0.000    0.000    0.000    0.000    0.000 
#
# Total GULP energy -178742.117115 kJ/mol
# GULP energy per Si atom -5585.691160 kJ/mol
# Density = 2.320454 g / cm^3
# Si number density = 23.257479 Si / 1000 Ang^3
#
#
#
# Elastic Constant Matrix: (Units=GPa)
#
#
# Indices 1 2 3 4 5 6 
#
# 1 125.5239 2.5571 34.8638 0.0000 -0.4883 0.0000
# 2 2.5571 78.2030 -4.3909 0.0000 5.7120 0.0000
# 3 34.8638 -4.3909 124.3429 0.0000 4.5040 0.0000
# 4 0.0000 0.0000 0.0000 17.9426 0.0000 -3.4718
# 5 -0.4883 5.7120 4.5040 0.0000 45.6535 0.0000
# 6 0.0000 0.0000 0.0000 -3.4718 0.0000 1.1464
#
#
#
# Elastic Compliance Matrix: (Units=1/GPa)
#
#
# Indices 1 2 3 4 5 6 
#
# 1 0.008660 -0.000450 -0.002458 0.000000 0.000391 0.000000
# 2 -0.000450 0.012962 0.000645 0.000000 -0.001690 0.000000
# 3 -0.002458 0.000645 0.008790 0.000000 -0.000974 0.000000
# 4 0.000000 0.000000 0.000000 0.134618 0.000000 0.407685
# 5 0.000391 -0.001690 -0.000974 0.000000 0.022216 0.000000
# 6 0.000000 0.000000 0.000000 0.407685 0.000000 2.106967
#
#
# Mechanical properties :
#
#
# Convention : Reuss Voigt Hill
#
# Bulk Modulus (GPa) = 38.63187 43.79220 41.21203
# Shear Modulus (GPa) = 2.16697 32.61781 17.39239
#
# Velocity S-wave (km/s) = 0.96631 3.74901 2.73760
# Velocity P-wave (km/s) = 4.22984 6.13272 5.26792
#
# Compressibility (1/GPa) = 0.02588537
#
# Stress axis : x y z
#
# Youngs Moduli (GPa) = 115.47273 77.15094 113.77104
#
# Poissons Ratio (x) = 0.03470 0.27967
# Poissons Ratio (y) = 0.05194 -0.07339
# Poissons Ratio (z) = 0.28386 -0.04977
#
# Static dielectric constant tensor:
#      x y z
#    x 1.934680 0.000000 -0.052120 
#    y 0.000000 1.652830 0.000000 
#    z -0.052120 0.000000 1.902270 
# 
# From -- ./inp_files/315728.got.cif
#   From: 2010.05.17/outbox.cif.g08.bks.cpg/sg12_158_cif.got.tgz:315728.got - 2010.06.03 13:09:07.
