data_PCOD9185634
_publ_section_title
;
Structure prediction by ZEFSAII (Michael W. Deem and Ramdas Pophale) SiO2 
 PCOD9185634
Probable space group: C 2/M
;
_chemical_formula_sum "Si O2"
_cell_formula_units_Z 40
_cell_length_a 15.234112
_cell_length_b 10.075928
_cell_length_c 19.079264
_cell_angle_alpha 90.000000
_cell_angle_beta 139.968921
_cell_angle_gamma 90.000000
_cell_volume 1883.700731
_symmetry_space_group_name_H-M "C 2/M"
_symmetry_group_IT_number 12
_symmetry_cell_setting 'monoclinic'
loop_
_space_group_symop_operation_xyz
x,y,z
-x,y,-z
-x,-y,-z
x,-y,z
1/2+x,1/2+y,z
1/2-x,1/2+y,-z
1/2-x,1/2-y,-z
1/2+x,1/2-y,z
loop_
_atom_site_type_symbol
_atom_site_label
_atom_site_fract_x
_atom_site_fract_y
_atom_site_fract_z
Si Si1 0.918219 0.346684 0.771400
Si Si2 0.966788 0.359066 0.398340
Si Si3 0.283534 0.157400 0.086212
Si Si4 0.182836 0.154395 0.514967
Si Si5 0.841362 0.150233 0.841251
O O1 0.923255 0.500000 0.797530
O O2 0.777962 0.329071 0.642055
O O3 0.922110 0.250242 0.840714
O O4 0.051708 0.325484 0.803698
O O5 0.020253 0.500000 0.397600
O O6 0.808813 0.356645 0.284686
O O7 0.000000 0.372110 0.500000
O O8 0.032982 0.217251 0.424022
O O9 0.193449 0.189565 0.099903
O O10 0.262413 0.000000 0.059188
O O11 0.250000 0.250000 0.000000
O O12 0.250000 0.250000 0.500000
O O13 0.179982 0.000000 0.495960
O O14 0.898480 0.000000 0.874641
#
# Coordination Sequence:
#
# PCOD9185634 Si02
#       5
#     8   8   8   8   8
#     4  10  22  40  61  86 119 155 196 245 297 352
#     4  10  19  34  57  84 118 155 190 230 282 343
#     4  10  23  43  63  85 116 153 195 249 304 355
#     4  11  22  35  55  83 119 158 198 240 287 346
#     4  10  21  39  63  89 121 158 197 241 293 352
#
# _framework density 21.234794000000001
#
# number of rings (size 3 to 8) (size 9 to 14) (size 15 to 20)
#    0.000    1.800    2.000    1.800    0.000    7.600 
#    0.000    6.000    0.000    0.000    0.000    0.000 
#    0.000    0.000    0.000    0.000    0.000    0.000 
#
# Total GULP energy -111512.642989 kJ/mol
# GULP energy per Si atom -5575.632149 kJ/mol
# Density = 2.118646 g / cm^3
# Si number density = 21.234794 Si / 1000 Ang^3
#
#
#
# Elastic Constant Matrix: (Units=GPa)
#
#
# Indices 1 2 3 4 5 6 
#
# 1 76.4464 63.3843 -5.0033 0.0000 -18.8541 0.0000
# 2 63.3843 144.6274 29.5371 0.0000 -15.6065 0.0000
# 3 -5.0033 29.5371 72.9370 0.0000 -1.7468 0.0000
# 4 0.0000 0.0000 0.0000 46.1763 0.0000 -19.2310
# 5 -18.8541 -15.6065 -1.7468 0.0000 34.8917 0.0000
# 6 0.0000 0.0000 0.0000 -19.2310 0.0000 55.2091
#
#
#
# Elastic Compliance Matrix: (Units=1/GPa)
#
#
# Indices 1 2 3 4 5 6 
#
# 1 0.025140 -0.011406 0.006554 0.000000 0.008811 0.000000
# 2 -0.011406 0.013092 -0.006099 0.000000 -0.000612 0.000000
# 3 0.006554 -0.006099 0.016669 0.000000 0.001648 0.000000
# 4 0.000000 0.000000 0.000000 0.025331 0.000000 0.008823
# 5 0.008811 -0.000612 0.001648 0.000000 0.033230 0.000000
# 6 0.000000 0.000000 0.000000 0.008823 0.000000 0.021186
#
#
# Mechanical properties :
#
#
# Convention : Reuss Voigt Hill
#
# Bulk Modulus (GPa) = 30.30170 52.20521 41.25345
# Shear Modulus (GPa) = 29.84182 40.99493 35.41838
#
# Velocity S-wave (km/s) = 3.75284 4.39857 4.08847
# Velocity P-wave (km/s) = 5.75145 7.10174 6.46196
#
# Compressibility (1/GPa) = 0.03300145
#
# Stress axis : x y z
#
# Youngs Moduli (GPa) = 39.77727 76.37979 59.98984
#
# Poissons Ratio (x) = 0.87116 -0.39320
# Poissons Ratio (y) = 0.45369 0.36588
# Poissons Ratio (z) = -0.26072 0.46585
#
# Static dielectric constant tensor:
#      x y z
#    x 1.952500 0.000000 0.051040 
#    y 0.000000 1.596180 0.000000 
#    z 0.051040 0.000000 1.773730 
# 
# From -- ./inp_files/313523.got.cif
#   From: 2010.05.17/outbox.cif.g08.bks.cpg/sg12_157_cif.got.tgz:313523.got - 2010.06.03 13:09:07.
