data_PCOD9185492
_publ_section_title
;
Structure prediction by ZEFSAII (Michael W. Deem and Ramdas Pophale) SiO2 
 PCOD9185492
Probable space group: C 2/M
;
_chemical_formula_sum "Si O2"
_cell_formula_units_Z 56
_cell_length_a 15.034606
_cell_length_b 8.151765
_cell_length_c 30.951984
_cell_angle_alpha 90.000000
_cell_angle_beta 127.735355
_cell_angle_gamma 90.000000
_cell_volume 3000.019898
_symmetry_space_group_name_H-M "C 2/M"
_symmetry_group_IT_number 12
_symmetry_cell_setting 'monoclinic'
loop_
_space_group_symop_operation_xyz
x,y,z
-x,y,-z
-x,-y,-z
x,-y,z
1/2+x,1/2+y,z
1/2-x,1/2+y,-z
1/2-x,1/2-y,-z
1/2+x,1/2-y,z
loop_
_atom_site_type_symbol
_atom_site_label
_atom_site_fract_x
_atom_site_fract_y
_atom_site_fract_z
Si Si1 0.147904 0.301949 0.938912
Si Si2 0.446984 0.801612 0.938351
Si Si3 0.457751 0.801943 0.267111
Si Si4 0.328939 0.803962 0.562444
Si Si5 0.806817 0.303397 0.143285
Si Si6 0.417430 0.695816 0.352080
Si Si7 0.785975 0.700350 0.646867
O O1 0.149224 0.500000 0.938046
O O2 0.158011 0.238435 0.893334
O O3 0.033259 0.249253 0.927229
O O4 0.250000 0.250000 0.000000
O O5 0.324514 0.734060 0.892656
O O6 0.440526 0.000000 0.937521
O O7 0.500000 0.748671 0.000000
O O8 0.379930 0.739795 0.205046
O O9 0.411956 0.753115 0.300656
O O10 0.588242 0.749150 0.301039
O O11 0.458649 0.000000 0.266431
O O12 0.250000 0.750000 0.500000
O O13 0.457413 0.744700 0.595296
O O14 0.281199 0.747615 0.595061
O O15 0.332490 0.000000 0.565066
O O16 0.821989 0.500000 0.147224
O O17 0.410792 0.500000 0.350255
O O18 0.316199 0.757662 0.352910
O O19 0.783092 0.500000 0.646621
#
# Coordination Sequence:
#
# PCOD9185492 Si02
#       7
#     8   8   8   8   8   8   8
#     4  10  20  34  52  74 100 133 168 206 255 314
#     4  10  20  34  52  75 102 131 164 210 262 309
#     4   9  19  37  54  74 105 138 174 218 266 314
#     4  10  20  36  55  80 114 149 180 219 262 307
#     4  10  21  35  54  77 102 136 175 213 259 320
#     4  10  19  34  57  82 104 139 184 221 261 311
#     4   8  17  34  56  76 103 143 179 212 259 315
#
# _framework density 18.666544999999999
#
# number of rings (size 3 to 8) (size 9 to 14) (size 15 to 20)
#    0.000    2.429    1.429    1.714    0.000    3.143 
#    0.000   12.857    0.000    0.000    0.000    0.000 
#    0.000    0.000    0.000    0.000    0.000    0.000 
#
# Total GULP energy -156169.469954 kJ/mol
# GULP energy per Si atom -5577.481070 kJ/mol
# Density = 1.862406 g / cm^3
# Si number density = 18.666545 Si / 1000 Ang^3
#
#
#
# Elastic Constant Matrix: (Units=GPa)
#
#
# Indices 1 2 3 4 5 6 
#
# 1 207.7085 15.2645 113.1415 0.0000 -4.0811 0.0000
# 2 15.2645 13.4422 13.1608 0.0000 -0.9220 0.0000
# 3 113.1415 13.1608 200.4299 0.0000 -3.5985 0.0000
# 4 0.0000 0.0000 0.0000 25.8500 0.0000 1.6211
# 5 -4.0811 -0.9220 -3.5985 0.0000 13.1468 0.0000
# 6 0.0000 0.0000 0.0000 1.6211 0.0000 24.7732
#
#
#
# Elastic Compliance Matrix: (Units=1/GPa)
#
#
# Indices 1 2 3 4 5 6 
#
# 1 0.007207 -0.004440 -0.003761 0.000000 0.000896 0.000000
# 2 -0.004440 0.082467 -0.002843 0.000000 0.003627 0.000000
# 3 -0.003761 -0.002843 0.007310 0.000000 0.000634 0.000000
# 4 0.000000 0.000000 0.000000 0.038844 0.000000 -0.002542
# 5 0.000896 0.003627 0.000634 0.000000 0.076771 0.000000
# 6 0.000000 0.000000 0.000000 -0.002542 0.000000 0.040532
#
#
# Mechanical properties :
#
#
# Convention : Reuss Voigt Hill
#
# Bulk Modulus (GPa) = 13.35189 78.30157 45.82673
# Shear Modulus (GPa) = 16.65637 31.42159 24.03898
#
# Velocity S-wave (km/s) = 2.99040 4.10727 3.59250
# Velocity P-wave (km/s) = 4.36940 8.03315 6.46619
#
# Compressibility (1/GPa) = 0.07489578
#
# Stress axis : x y z
#
# Youngs Moduli (GPa) = 138.75814 12.12599 136.79614
#
# Poissons Ratio (x) = 0.05385 0.51442
# Poissons Ratio (y) = 0.61615 0.38895
# Poissons Ratio (z) = 0.52180 0.03448
#
# Static dielectric constant tensor:
#      x y z
#    x 1.636900 0.000000 -0.014600 
#    y 0.000000 1.673540 0.000000 
#    z -0.014600 0.000000 1.601020 
# 
# From -- ./inp_files/338177.got.cif
#   From: 2010.05.17/outbox.cif.g08.bks.cpg/sg12_170_cif.got.tgz:338177.got - 2010.06.03 13:09:07.
