data_PCOD9185001
_publ_section_title
;
Structure prediction by ZEFSAII (Michael W. Deem and Ramdas Pophale) SiO2 
 PCOD9185001
Probable space group: C 2/M
;
_chemical_formula_sum "Si O2"
_cell_formula_units_Z 60
_cell_length_a 8.678978
_cell_length_b 16.844194
_cell_length_c 18.858753
_cell_angle_alpha 90.000000
_cell_angle_beta 107.599327
_cell_angle_gamma 90.000000
_cell_volume 2627.926380
_symmetry_space_group_name_H-M "C 2/M"
_symmetry_group_IT_number 12
_symmetry_cell_setting 'monoclinic'
loop_
_space_group_symop_operation_xyz
x,y,z
-x,y,-z
-x,-y,-z
x,-y,z
1/2+x,1/2+y,z
1/2-x,1/2+y,-z
1/2-x,1/2-y,-z
1/2+x,1/2-y,z
loop_
_atom_site_type_symbol
_atom_site_label
_atom_site_fract_x
_atom_site_fract_y
_atom_site_fract_z
Si Si1 0.500000 0.788747 0.000000
Si Si2 0.212448 0.678853 0.904433
Si Si3 0.509028 0.909137 0.663498
Si Si4 0.508790 0.404890 0.610113
Si Si5 0.157912 0.090431 0.776975
Si Si6 0.229654 0.593817 0.480433
Si Si7 0.820456 0.120766 0.781030
Si Si8 0.088154 0.704069 0.220695
O O1 0.371467 0.729545 0.943900
O O2 0.614839 0.838346 0.962928
O O3 0.255275 0.612185 0.852264
O O4 0.078244 0.726613 0.840852
O O5 0.442306 0.882063 0.577293
O O6 0.698963 0.914974 0.706353
O O7 0.445829 0.846894 0.713400
O O8 0.445204 0.000000 0.664943
O O9 0.488993 0.500000 0.617196
O O10 0.581818 0.374287 0.693266
O O11 0.644050 0.396540 0.567787
O O12 0.336018 0.371307 0.559714
O O13 0.310271 0.144329 0.814638
O O14 0.002682 0.090883 0.805037
O O15 0.211243 0.000000 0.773577
O O16 0.212076 0.500000 0.494186
O O17 0.821964 0.213491 0.759546
#
# Coordination Sequence:
#
# PCOD9185001 Si02
#       8
#     4   8   8   8   8   8   8   8
#     4  10  20  38  62  92 122 142 190 240 270 330
#     4  10  21  35  60  89 122 143 183 234 287 323
#     4  10  19  34  55  81 109 152 200 244 292 341
#     4   8  14  26  48  78 105 141 200 255 290 326
#     4  11  21  35  58  87 118 159 201 242 289 348
#     4   8  13  26  49  75 104 141 199 259 290 326
#     4  11  23  36  53  85 129 150 181 235 303 340
#     4  11  21  36  57  86 122 148 191 234 292 341
#
# _framework density 22.831689999999998
#
# number of rings (size 3 to 8) (size 9 to 14) (size 15 to 20)
#    0.000    2.133    2.667    3.200    0.000    0.000 
#    0.000    0.667    0.000    8.000    0.000   46.667 
#    0.000    0.000    0.000    0.000    0.000    0.000 
#
# Total GULP energy -167195.807676 kJ/mol
# GULP energy per Si atom -5573.193589 kJ/mol
# Density = 2.277972 g / cm^3
# Si number density = 22.831690 Si / 1000 Ang^3
#
#
#
# Elastic Constant Matrix: (Units=GPa)
#
#
# Indices 1 2 3 4 5 6 
#
# 1 96.1395 17.1711 26.6281 0.0000 19.5934 0.0000
# 2 17.1711 71.3531 7.3080 0.0000 10.5232 0.0000
# 3 26.6281 7.3080 85.2404 0.0000 23.7938 0.0000
# 4 0.0000 0.0000 0.0000 12.5785 0.0000 8.0595
# 5 19.5934 10.5232 23.7938 0.0000 50.9825 0.0000
# 6 0.0000 0.0000 0.0000 8.0595 0.0000 24.9205
#
#
#
# Elastic Compliance Matrix: (Units=1/GPa)
#
#
# Indices 1 2 3 4 5 6 
#
# 1 0.012165 -0.002211 -0.002797 0.000000 -0.002913 0.000000
# 2 -0.002211 0.014873 0.000041 0.000000 -0.002239 0.000000
# 3 -0.002797 0.000041 0.014147 0.000000 -0.005536 0.000000
# 4 0.000000 0.000000 0.000000 0.100280 0.000000 -0.032431
# 5 -0.002913 -0.002239 -0.005536 0.000000 0.023780 0.000000
# 6 0.000000 0.000000 0.000000 -0.032431 0.000000 0.050616
#
#
# Mechanical properties :
#
#
# Convention : Reuss Voigt Hill
#
# Bulk Modulus (GPa) = 32.00100 39.43858 35.71979
# Shear Modulus (GPa) = 21.16723 31.13803 26.15263
#
# Velocity S-wave (km/s) = 3.04813 3.69698 3.38813
# Velocity P-wave (km/s) = 5.14146 5.96110 5.56639
#
# Compressibility (1/GPa) = 0.03124903
#
# Stress axis : x y z
#
# Youngs Moduli (GPa) = 82.20265 67.23580 70.68537
#
# Poissons Ratio (x) = 0.14868 0.19774
# Poissons Ratio (y) = 0.18178 -0.00288
# Poissons Ratio (z) = 0.22996 -0.00274
#
# Static dielectric constant tensor:
#      x y z
#    x 1.969140 0.000000 -0.018820 
#    y 0.000000 1.822380 0.000000 
#    z -0.018820 0.000000 1.925250 
# 
# From -- ./inp_files/300850.got.cif
#   From: 2010.05.17/outbox.cif.g08.bks.cpg/sg12_151_cif.got.tgz:300850.got - 2010.06.03 13:09:07.
