data_PCOD9185477
_publ_section_title
;
Structure prediction by ZEFSAII (Michael W. Deem and Ramdas Pophale) SiO2 
 PCOD9185477
Probable space group: C 2/M
;
_chemical_formula_sum "Si O2"
_cell_formula_units_Z 56
_cell_length_a 19.428179
_cell_length_b 7.822545
_cell_length_c 25.039742
_cell_angle_alpha 90.000000
_cell_angle_beta 133.538044
_cell_angle_gamma 90.000000
_cell_volume 2758.661345
_symmetry_space_group_name_H-M "C 2/M"
_symmetry_group_IT_number 12
_symmetry_cell_setting 'monoclinic'
loop_
_space_group_symop_operation_xyz
x,y,z
-x,y,-z
-x,-y,-z
x,-y,z
1/2+x,1/2+y,z
1/2-x,1/2+y,-z
1/2-x,1/2-y,-z
1/2+x,1/2-y,z
loop_
_atom_site_type_symbol
_atom_site_label
_atom_site_fract_x
_atom_site_fract_y
_atom_site_fract_z
Si Si1 0.569612 0.805478 0.809840
Si Si2 0.862333 0.707518 0.714474
Si Si3 0.101878 0.804043 0.070501
Si Si4 0.766294 0.690168 0.948835
Si Si5 0.155864 0.293676 0.417613
Si Si6 0.546133 0.804982 0.669945
Si Si7 0.754548 0.202501 0.762450
O O1 0.472079 0.743153 0.783773
O O2 0.661652 0.695365 0.868130
O O3 0.550955 0.814557 0.736815
O O4 0.589776 0.000000 0.839135
O O5 0.859411 0.500000 0.713721
O O6 0.837938 0.764182 0.641021
O O7 0.796409 0.775703 0.725956
O O8 0.165778 0.802412 0.051527
O O9 0.169316 0.727528 0.153343
O O10 0.081737 0.000000 0.076759
O O11 0.000000 0.725601 0.000000
O O12 0.806297 0.500000 0.969423
O O13 0.750000 0.750000 0.000000
O O14 0.146136 0.500000 0.410520
O O15 0.250000 0.250000 0.500000
O O16 0.058871 0.227400 0.394122
O O17 0.647109 0.725196 0.707456
O O18 0.544484 0.000000 0.647150
O O19 0.744491 0.000000 0.770385
#
# Coordination Sequence:
#
# PCOD9185477 Si02
#       7
#     8   8   8   8   8   8   8
#     4   9  17  36  58  75 101 141 183 227 273 323
#     4   9  20  35  55  82 113 145 178 221 277 328
#     4  10  22  40  59  81 112 148 186 233 285 329
#     4  12  25  38  55  79 108 143 187 234 280 332
#     4   9  18  35  58  82 109 143 180 221 268 321
#     4   8  15  32  57  78 102 141 181 214 264 326
#     4  10  19  34  57  81 110 146 184 226 270 326
#
# _framework density 20.299700999999999
#
# number of rings (size 3 to 8) (size 9 to 14) (size 15 to 20)
#    0.000    2.429    1.429    3.000    2.000    2.000 
#    0.000    3.571    0.000    4.286    0.000    0.000 
#    0.000    0.000    0.000    0.000    0.000    0.000 
#
# Total GULP energy -156044.432564 kJ/mol
# GULP energy per Si atom -5573.015449 kJ/mol
# Density = 2.025350 g / cm^3
# Si number density = 20.299701 Si / 1000 Ang^3
#
#
#
# Elastic Constant Matrix: (Units=GPa)
#
#
# Indices 1 2 3 4 5 6 
#
# 1 154.0286 -4.2590 64.3557 0.0000 29.7114 0.0000
# 2 -4.2590 31.4999 4.3194 0.0000 4.4921 0.0000
# 3 64.3557 4.3194 106.3551 0.0000 31.9238 0.0000
# 4 0.0000 0.0000 0.0000 16.9952 0.0000 -3.6190
# 5 29.7114 4.4921 31.9238 0.0000 34.7149 0.0000
# 6 0.0000 0.0000 0.0000 -3.6190 0.0000 11.4252
#
#
#
# Elastic Compliance Matrix: (Units=1/GPa)
#
#
# Indices 1 2 3 4 5 6 
#
# 1 0.009207 0.002440 -0.004434 0.000000 -0.004118 0.000000
# 2 0.002440 0.032990 -0.001254 0.000000 -0.005204 0.000000
# 3 -0.004434 -0.001254 0.015123 0.000000 -0.009950 0.000000
# 4 0.000000 0.000000 0.000000 0.063096 0.000000 0.019986
# 5 -0.004118 -0.005204 -0.009950 0.000000 0.042154 0.000000
# 6 0.000000 0.000000 0.000000 0.019986 0.000000 0.093857
#
#
# Mechanical properties :
#
#
# Convention : Reuss Voigt Hill
#
# Bulk Modulus (GPa) = 19.67604 46.74621 33.21113
# Shear Modulus (GPa) = 17.86581 27.79156 22.82868
#
# Velocity S-wave (km/s) = 2.96987 3.70410 3.35712
# Velocity P-wave (km/s) = 4.63400 6.43209 5.60561
#
# Compressibility (1/GPa) = 0.05082323
#
# Stress axis : x y z
#
# Youngs Moduli (GPa) = 108.61626 30.31212 66.12434
#
# Poissons Ratio (x) = -0.07396 0.29320
# Poissons Ratio (y) = -0.26503 0.08294
# Poissons Ratio (z) = 0.48161 0.03802
#
# Static dielectric constant tensor:
#      x y z
#    x 1.716510 0.000000 0.037230 
#    y 0.000000 1.768730 0.000000 
#    z 0.037230 0.000000 1.757170 
# 
# From -- ./inp_files/342548.got.cif
#   From: 2010.05.17/outbox.cif.g08.bks.cpg/sg12_172_cif.got.tgz:342548.got - 2010.06.03 13:09:07.
