data_PCOD9185598
_publ_section_title
;
Structure prediction by ZEFSAII (Michael W. Deem and Ramdas Pophale) SiO2 
 PCOD9185598
Probable space group: C 2/M
;
_chemical_formula_sum "Si O2"
_cell_formula_units_Z 64
_cell_length_a 19.446824
_cell_length_b 13.741824
_cell_length_c 19.876830
_cell_angle_alpha 90.000000
_cell_angle_beta 42.379418
_cell_angle_gamma 90.000000
_cell_volume 3580.337550
_symmetry_space_group_name_H-M "C 2/M"
_symmetry_group_IT_number 12
_symmetry_cell_setting 'monoclinic'
loop_
_space_group_symop_operation_xyz
x,y,z
-x,y,-z
-x,-y,-z
x,-y,z
1/2+x,1/2+y,z
1/2-x,1/2+y,-z
1/2-x,1/2-y,-z
1/2+x,1/2-y,z
loop_
_atom_site_type_symbol
_atom_site_label
_atom_site_fract_x
_atom_site_fract_y
_atom_site_fract_z
Si Si1 0.611152 0.193543 0.946636
Si Si2 0.683738 0.612080 0.945354
Si Si3 0.447504 0.882044 0.257487
Si Si4 0.665178 0.883044 0.053546
Si Si5 0.120341 0.754945 0.425840
Si Si6 0.403953 0.886969 0.434624
Si Si7 0.644317 0.106009 0.292296
Si Si8 0.709137 0.884031 0.744637
O O1 0.609090 0.307432 0.968791
O O2 0.688680 0.167684 0.830598
O O3 0.500000 0.161810 0.000000
O O4 0.649599 0.142036 0.986909
O O5 0.646698 0.500000 0.975696
O O6 0.731017 0.645528 0.982884
O O7 0.780557 0.613350 0.824799
O O8 0.563230 0.845731 0.165237
O O9 0.390915 0.853559 0.367060
O O10 0.383554 0.855863 0.237988
O O11 0.452112 0.000000 0.257303
O O12 0.664469 0.000000 0.060648
O O13 0.133770 0.691516 0.483936
O O14 0.158535 0.686075 0.338027
O O15 0.188690 0.850074 0.367344
O O16 0.000000 0.772723 0.500000
O O17 0.526930 0.890261 0.354377
O O18 0.368507 0.000000 0.470034
O O19 0.660886 0.000000 0.312116
O O20 0.708008 0.000000 0.755349
#
# Coordination Sequence:
#
# PCOD9185598 Si02
#       8
#     8   8   8   8   8   8   8   8
#     4  12  23  36  57  83 110 148 192 228 272 328
#     4  10  20  35  55  80 112 145 179 224 280 333
#     4   9  17  31  52  78 105 133 171 226 281 318
#     4  10  19  34  57  84 111 140 181 235 282 322
#     4  10  20  33  51  77 106 139 175 213 266 332
#     4   9  16  29  53  81 105 129 165 217 271 320
#     4   9  15  28  51  77 103 128 162 211 263 314
#     4  11  23  37  52  75 108 140 182 233 273 318
#
# _framework density 17.875409999999999
#
# number of rings (size 3 to 8) (size 9 to 14) (size 15 to 20)
#    0.000    2.000    3.750    1.125    0.000    3.000 
#    0.000    0.000    0.000    0.000    0.000    0.875 
#    0.000    0.000    0.000    0.000    0.000    0.000 
#
# Total GULP energy -178262.623891 kJ/mol
# GULP energy per Si atom -5570.706997 kJ/mol
# Density = 1.783472 g / cm^3
# Si number density = 17.875410 Si / 1000 Ang^3
#
#
#
# Elastic Constant Matrix: (Units=GPa)
#
#
# Indices 1 2 3 4 5 6 
#
# 1 67.2162 14.2627 19.0222 0.0000 23.5197 0.0000
# 2 14.2627 32.6098 1.6203 0.0000 6.3742 0.0000
# 3 19.0222 1.6203 58.0258 0.0000 16.6458 0.0000
# 4 0.0000 0.0000 0.0000 21.8448 0.0000 1.4270
# 5 23.5197 6.3742 16.6458 0.0000 27.1028 0.0000
# 6 0.0000 0.0000 0.0000 1.4270 0.0000 18.8781
#
#
#
# Elastic Compliance Matrix: (Units=1/GPa)
#
#
# Indices 1 2 3 4 5 6 
#
# 1 0.022840 -0.006595 -0.002503 0.000000 -0.016732 0.000000
# 2 -0.006595 0.034162 0.002271 0.000000 -0.003706 0.000000
# 3 -0.002503 0.002271 0.021268 0.000000 -0.011424 0.000000
# 4 0.000000 0.000000 0.000000 0.046005 0.000000 -0.003478
# 5 -0.016732 -0.003706 -0.011424 0.000000 0.059304 0.000000
# 6 0.000000 0.000000 0.000000 -0.003478 0.000000 0.053234
#
#
# Mechanical properties :
#
#
# Convention : Reuss Voigt Hill
#
# Bulk Modulus (GPa) = 15.47611 25.29580 20.38596
# Shear Modulus (GPa) = 18.38202 21.76159 20.07180
#
# Velocity S-wave (km/s) = 3.21025 3.49292 3.35456
# Velocity P-wave (km/s) = 4.73472 5.51808 5.14134
#
# Compressibility (1/GPa) = 0.06461572
#
# Stress axis : x y z
#
# Youngs Moduli (GPa) = 43.78324 29.27268 47.01863
#
# Poissons Ratio (x) = 0.19304 0.11771
# Poissons Ratio (y) = 0.28874 -0.10679
# Poissons Ratio (z) = 0.10961 -0.06648
#
# Static dielectric constant tensor:
#      x y z
#    x 1.635820 0.000000 0.011920 
#    y 0.000000 1.626740 0.000000 
#    z 0.011920 0.000000 1.611920 
# 
# From -- ./inp_files/232449.got.cif
#   From: 2010.05.17/outbox.cif.g08.bks.cpg/sg12_117_cif.got.tgz:232449.got - 2010.06.03 13:09:07.
