data_PCOD9185833
_publ_section_title
;
Structure prediction by ZEFSAII (Michael W. Deem and Ramdas Pophale) SiO2 
 PCOD9185833
Probable space group: C 2/M
;
_chemical_formula_sum "Si O2"
_cell_formula_units_Z 64
_cell_length_a 30.378863
_cell_length_b 8.037046
_cell_length_c 24.487823
_cell_angle_alpha 90.000000
_cell_angle_beta 29.187059
_cell_angle_gamma 90.000000
_cell_volume 2915.664137
_symmetry_space_group_name_H-M "C 2/M"
_symmetry_group_IT_number 12
_symmetry_cell_setting 'monoclinic'
loop_
_space_group_symop_operation_xyz
x,y,z
-x,y,-z
-x,-y,-z
x,-y,z
1/2+x,1/2+y,z
1/2-x,1/2+y,-z
1/2-x,1/2-y,-z
1/2+x,1/2-y,z
loop_
_atom_site_type_symbol
_atom_site_label
_atom_site_fract_x
_atom_site_fract_y
_atom_site_fract_z
Si Si1 0.662093 0.203765 0.745380
Si Si2 0.518902 0.690185 0.415598
Si Si3 0.635645 0.703011 0.500686
Si Si4 0.215205 0.690551 0.202045
Si Si5 0.867042 0.692146 0.102220
Si Si6 0.310733 0.801638 0.884295
Si Si7 0.487365 0.800308 0.870893
Si Si8 0.994042 0.802900 0.739110
O O1 0.762828 0.261189 0.621070
O O2 0.628150 0.263263 0.841949
O O3 0.587908 0.249552 0.780913
O O4 0.664791 0.000000 0.745271
O O5 0.500000 0.684012 0.500000
O O6 0.540316 0.500000 0.374250
O O7 0.432806 0.747786 0.474298
O O8 0.607629 0.800390 0.315329
O O9 0.639469 0.500000 0.497735
O O10 0.585862 0.760241 0.610356
O O11 0.244160 0.500000 0.177931
O O12 0.262351 0.795621 0.197812
O O13 0.237941 0.761911 0.117742
O O14 0.895803 0.500000 0.075692
O O15 0.921399 0.763455 0.991111
O O16 0.411244 0.741389 0.788725
O O17 0.313524 0.000000 0.875922
O O18 0.250000 0.750000 0.000000
O O19 0.473299 0.752500 0.823228
O O20 0.480647 0.000000 0.879534
O O21 0.000763 0.000000 0.733801
#
# Coordination Sequence:
#
# PCOD9185833 Si02
#       8
#     8   8   8   8   8   8   8   8
#     4   9  18  36  61  87 113 145 193 248 296 343
#     4  10  19  34  58  84 111 149 194 233 275 335
#     4   9  18  33  55  84 115 149 191 240 286 335
#     4  11  23  36  53  82 117 150 183 227 288 343
#     4  10  20  36  60  87 115 148 192 242 292 351
#     4  11  23  38  57  82 114 153 194 236 286 341
#     4  10  21  37  60  88 115 148 192 246 300 347
#     4  11  22  37  57  82 117 157 196 238 287 346
#
# _framework density 21.950400999999999
#
# number of rings (size 3 to 8) (size 9 to 14) (size 15 to 20)
#    0.000    1.875    1.250    3.000    0.000    8.250 
#    0.000    0.625    0.000    3.750    0.000    0.000 
#    0.000    0.000    0.000    0.000    0.000    0.000 
#
# Total GULP energy -178604.911665 kJ/mol
# GULP energy per Si atom -5581.403490 kJ/mol
# Density = 2.190044 g / cm^3
# Si number density = 21.950401 Si / 1000 Ang^3
#
#
#
# Elastic Constant Matrix: (Units=GPa)
#
#
# Indices 1 2 3 4 5 6 
#
# 1 86.8309 4.1107 8.5915 0.0080 5.4533 0.0006
# 2 4.1107 23.6370 7.0949 0.0246 2.6490 -0.0159
# 3 8.5915 7.0949 86.6768 0.0208 1.2546 -0.0103
# 4 0.0080 0.0246 0.0208 16.3069 -0.0078 0.5926
# 5 5.4533 2.6490 1.2546 -0.0078 36.5810 0.0019
# 6 0.0006 -0.0159 -0.0103 0.5926 0.0019 10.7448
#
#
#
# Elastic Compliance Matrix: (Units=1/GPa)
#
#
# Indices 1 2 3 4 5 6 
#
# 1 0.011793 -0.001565 -0.001017 -0.000003 -0.001610 -0.000004
# 2 -0.001565 0.043916 -0.003399 -0.000065 -0.002830 0.000066
# 3 -0.001017 -0.003399 0.011916 -0.000010 -0.000011 0.000007
# 4 -0.000003 -0.000065 -0.000010 0.061447 0.000019 -0.003389
# 5 -0.001610 -0.002830 -0.000011 0.000019 0.027782 -0.000010
# 6 -0.000004 0.000066 0.000007 -0.003389 -0.000010 0.093256
#
#
# Mechanical properties :
#
#
# Convention : Reuss Voigt Hill
#
# Bulk Modulus (GPa) = 17.96535 26.30431 22.13483
# Shear Modulus (GPa) = 17.81733 24.54972 21.18353
#
# Velocity S-wave (km/s) = 2.85214 3.34790 3.10992
# Velocity P-wave (km/s) = 4.36447 5.19174 4.79597
#
# Compressibility (1/GPa) = 0.05566272
#
# Stress axis : x y z
#
# Youngs Moduli (GPa) = 84.79962 22.77071 83.91859
#
# Poissons Ratio (x) = 0.03564 0.08539
# Poissons Ratio (y) = 0.13271 0.28521
# Poissons Ratio (z) = 0.08628 0.07739
#
# Static dielectric constant tensor:
#      x y z
#    x 1.828710 -0.000010 0.032360 
#    y -0.000010 1.796230 0.000000 
#    z 0.032360 0.000000 1.879330 
# 
# From -- ./inp_files/353278.got.cif
#   From: 2010.05.17/outbox.cif.g08.bks.cpg/sg12_177_cif.got.tgz:353278.got - 2010.06.03 13:09:07.
