data_PCOD9185198
_publ_section_title
;
Structure prediction by ZEFSAII (Michael W. Deem and Ramdas Pophale) SiO2 
 PCOD9185198
Probable space group: C 2/M
;
_chemical_formula_sum "Si O2"
_cell_formula_units_Z 40
_cell_length_a 13.064769
_cell_length_b 13.179287
_cell_length_c 12.122642
_cell_angle_alpha 90.000000
_cell_angle_beta 107.394722
_cell_angle_gamma 90.000000
_cell_volume 1991.871112
_symmetry_space_group_name_H-M "C 2/M"
_symmetry_group_IT_number 12
_symmetry_cell_setting 'monoclinic'
loop_
_space_group_symop_operation_xyz
x,y,z
-x,y,-z
-x,-y,-z
x,-y,z
1/2+x,1/2+y,z
1/2-x,1/2+y,-z
1/2-x,1/2-y,-z
1/2+x,1/2-y,z
loop_
_atom_site_type_symbol
_atom_site_label
_atom_site_fract_x
_atom_site_fract_y
_atom_site_fract_z
Si Si1 0.253106 0.114204 0.566838
Si Si2 0.804305 0.117263 0.926757
Si Si3 0.217313 0.319876 0.660722
Si Si4 0.418727 0.193008 0.062483
Si Si5 0.996928 0.384143 0.306609
O O1 0.208490 0.200182 0.633116
O O2 0.226171 0.135873 0.430295
O O3 0.382445 0.124758 0.613327
O O4 0.223750 0.000000 0.588335
O O5 0.778978 0.153439 0.793253
O O6 0.691436 0.131840 0.955036
O O7 0.836633 0.000000 0.938175
O O8 0.885055 0.195851 0.009282
O O9 0.098027 0.364885 0.637570
O O10 0.476315 0.191541 0.198963
O O11 0.500000 0.147401 0.000000
O O12 0.982969 0.500000 0.261189
#
# Coordination Sequence:
#
# PCOD9185198 Si02
#       5
#     8   8   8   8   8
#     4  10  20  34  57  83 105 137 177 216 261 311
#     4  10  21  36  54  77 107 142 176 213 263 317
#     4  10  19  34  56  80 110 137 172 219 261 311
#     4  10  20  35  53  76 106 136 176 220 259 303
#     4  10  20  35  55  79 107 140 177 216 261 312
#
# _framework density 20.081620999999998
#
# number of rings (size 3 to 8) (size 9 to 14) (size 15 to 20)
#    0.000    2.000    0.000    5.400    0.000    3.600 
#    0.000   14.000    0.000   13.200    0.000    0.000 
#    0.000    0.000    0.000    0.000    0.000    0.000 
#
# Total GULP energy -111650.829778 kJ/mol
# GULP energy per Si atom -5582.541489 kJ/mol
# Density = 2.003591 g / cm^3
# Si number density = 20.081621 Si / 1000 Ang^3
#
#
#
# Elastic Constant Matrix: (Units=GPa)
#
#
# Indices 1 2 3 4 5 6 
#
# 1 39.6669 12.1740 23.4054 0.0000 -9.8348 0.0000
# 2 12.1740 129.6023 50.3100 0.0000 9.2300 0.0000
# 3 23.4054 50.3100 89.0566 0.0000 -2.1735 0.0000
# 4 0.0000 0.0000 0.0000 12.1269 0.0000 -4.3555
# 5 -9.8348 9.2300 -2.1735 0.0000 14.9756 0.0000
# 6 0.0000 0.0000 0.0000 -4.3555 0.0000 20.3099
#
#
#
# Elastic Compliance Matrix: (Units=1/GPa)
#
#
# Indices 1 2 3 4 5 6 
#
# 1 0.036431 -0.002113 -0.007793 0.000000 0.024096 0.000000
# 2 -0.002113 0.010778 -0.005750 0.000000 -0.008865 0.000000
# 3 -0.007793 -0.005750 0.016545 0.000000 0.000827 0.000000
# 4 0.000000 0.000000 0.000000 0.089342 0.000000 0.019160
# 5 0.024096 -0.008865 0.000827 0.000000 0.088184 0.000000
# 6 0.000000 0.000000 0.000000 0.019160 0.000000 0.053346
#
#
# Mechanical properties :
#
#
# Convention : Reuss Voigt Hill
#
# Bulk Modulus (GPa) = 30.82341 47.78939 39.30640
# Shear Modulus (GPa) = 14.84776 20.97823 17.91300
#
# Velocity S-wave (km/s) = 2.72209 3.23561 2.98989
# Velocity P-wave (km/s) = 5.02614 6.14883 5.61561
#
# Compressibility (1/GPa) = 0.03244287
#
# Stress axis : x y z
#
# Youngs Moduli (GPa) = 27.44918 92.78480 60.44092
#
# Poissons Ratio (x) = 0.19607 0.47100
# Poissons Ratio (y) = 0.05800 0.34751
# Poissons Ratio (z) = 0.21390 0.53347
#
# Static dielectric constant tensor:
#      x y z
#    x 1.719160 0.000000 -0.003460 
#    y 0.000000 1.715240 0.000000 
#    z -0.003460 0.000000 1.734680 
# 
# From -- ./inp_files/140254.got.cif
#   From: 2010.05.17/outbox.cif.g08.bks.cpg/sg12_71_cif.got.tgz:140254.got - 2010.06.03 13:09:07.
