data_PCOD9185948
_publ_section_title
;
Structure prediction by ZEFSAII (Michael W. Deem and Ramdas Pophale) SiO2 
 PCOD9185948
Probable space group: C 2/M
;
_chemical_formula_sum "Si O2"
_cell_formula_units_Z 56
_cell_length_a 19.667930
_cell_length_b 9.028290
_cell_length_c 21.388172
_cell_angle_alpha 90.000000
_cell_angle_beta 124.558132
_cell_angle_gamma 90.000000
_cell_volume 3127.723620
_symmetry_space_group_name_H-M "C 2/M"
_symmetry_group_IT_number 12
_symmetry_cell_setting 'monoclinic'
loop_
_space_group_symop_operation_xyz
x,y,z
-x,y,-z
-x,-y,-z
x,-y,z
1/2+x,1/2+y,z
1/2-x,1/2+y,-z
1/2-x,1/2-y,-z
1/2+x,1/2-y,z
loop_
_atom_site_type_symbol
_atom_site_label
_atom_site_fract_x
_atom_site_fract_y
_atom_site_fract_z
Si Si1 0.087864 0.323224 0.367081
Si Si2 0.338851 0.676955 0.043730
Si Si3 0.740662 0.177902 0.358247
Si Si4 0.077790 0.821555 0.497531
Si Si5 0.141859 0.174535 0.197408
Si Si6 0.485799 0.325064 0.207114
Si Si7 0.901095 0.669710 0.952770
O O1 0.084908 0.500000 0.370805
O O2 0.175651 0.283173 0.379772
O O3 0.076835 0.250186 0.428657
O O4 0.017962 0.265657 0.282975
O O5 0.333386 0.500000 0.041939
O O6 0.398929 0.721849 0.132171
O O7 0.250000 0.750000 0.000000
O O8 0.378436 0.731292 0.999966
O O9 0.834116 0.215803 0.425128
O O10 0.709644 0.259573 0.279924
O O11 0.734975 0.000000 0.346227
O O12 0.000000 0.776827 0.500000
O O13 0.074732 0.000000 0.489209
O O14 0.136108 0.262369 0.129840
O O15 0.054952 0.192301 0.189016
O O16 0.154703 0.000000 0.193326
O O17 0.482781 0.500000 0.221301
O O18 0.872743 0.500000 0.946786
O O19 0.000000 0.668663 0.000000
#
# Coordination Sequence:
#
# PCOD9185948 Si02
#       7
#     8   8   8   8   8   8   8
#     4  10  20  34  58  86 110 140 182 234 280 325
#     4  11  23  40  59  83 116 154 196 239 288 343
#     4   9  19  36  57  83 112 143 185 232 278 333
#     4  10  21  38  58  80 111 150 184 220 275 340
#     4  10  19  34  58  87 114 145 188 238 287 334
#     4   9  19  36  58  82 112 148 187 230 280 340
#     4  11  22  36  59  87 116 152 193 239 288 338
#
# _framework density 17.904395000000001
#
# number of rings (size 3 to 8) (size 9 to 14) (size 15 to 20)
#    0.000    2.000    1.429    2.143    0.000    3.714 
#    2.571    0.000    0.000    0.000    0.000    0.000 
#    0.000    0.000    0.000    0.000    0.000    0.000 
#
# Total GULP energy -156328.234199 kJ/mol
# GULP energy per Si atom -5583.151221 kJ/mol
# Density = 1.786364 g / cm^3
# Si number density = 17.904395 Si / 1000 Ang^3
#
#
#
# Elastic Constant Matrix: (Units=GPa)
#
#
# Indices 1 2 3 4 5 6 
#
# 1 80.3983 34.5699 73.7118 0.0000 15.1945 0.0000
# 2 34.5699 51.0628 60.0822 0.0000 7.2281 0.0000
# 3 73.7118 60.0822 161.0995 0.0000 12.5021 0.0000
# 4 0.0000 0.0000 0.0000 34.3446 0.0000 -4.8942
# 5 15.1945 7.2281 12.5021 0.0000 25.4760 0.0000
# 6 0.0000 0.0000 0.0000 -4.8942 0.0000 26.0336
#
#
#
# Elastic Compliance Matrix: (Units=1/GPa)
#
#
# Indices 1 2 3 4 5 6 
#
# 1 0.023979 -0.005142 -0.008376 0.000000 -0.008732 0.000000
# 2 -0.005142 0.036331 -0.011056 0.000000 -0.001815 0.000000
# 3 -0.008376 -0.011056 0.014068 0.000000 0.001229 0.000000
# 4 0.000000 0.000000 0.000000 0.029918 0.000000 0.005624
# 5 -0.008732 -0.001815 0.001229 0.000000 0.044373 0.000000
# 6 0.000000 0.000000 0.000000 0.005624 0.000000 0.039469
#
#
# Mechanical properties :
#
#
# Convention : Reuss Voigt Hill
#
# Bulk Modulus (GPa) = 39.63695 69.92093 54.77894
# Shear Modulus (GPa) = 20.35037 25.45062 22.90050
#
# Velocity S-wave (km/s) = 3.37503 3.77433 3.58025
# Velocity P-wave (km/s) = 6.11342 7.62439 6.91033
#
# Compressibility (1/GPa) = 0.02522899
#
# Stress axis : x y z
#
# Youngs Moduli (GPa) = 41.70310 27.52497 71.08393
#
# Poissons Ratio (x) = 0.14154 0.59542
# Poissons Ratio (y) = 0.21444 0.78589
# Poissons Ratio (z) = 0.34932 0.30431
#
# Static dielectric constant tensor:
#      x y z
#    x 1.601070 0.000000 0.005730 
#    y 0.000000 1.595910 0.000000 
#    z 0.005730 0.000000 1.583310 
# 
# From -- ./inp_files/319718.got.cif
#   From: 2010.05.17/outbox.cif.g08.bks.cpg/sg12_160_cif.got.tgz:319718.got - 2010.06.03 13:09:07.
