data_PCOD9185022
_publ_section_title
;
Structure prediction by ZEFSAII (Michael W. Deem and Ramdas Pophale) SiO2 
 PCOD9185022
Probable space group: C 2/M
;
_chemical_formula_sum "Si O2"
_cell_formula_units_Z 58
_cell_length_a 32.214950
_cell_length_b 8.955729
_cell_length_c 11.923376
_cell_angle_alpha 90.000000
_cell_angle_beta 104.644360
_cell_angle_gamma 90.000000
_cell_volume 3328.241085
_symmetry_space_group_name_H-M "C 2/M"
_symmetry_group_IT_number 12
_symmetry_cell_setting 'monoclinic'
loop_
_space_group_symop_operation_xyz
x,y,z
-x,y,-z
-x,-y,-z
x,-y,z
1/2+x,1/2+y,z
1/2-x,1/2+y,-z
1/2-x,1/2-y,-z
1/2+x,1/2-y,z
loop_
_atom_site_type_symbol
_atom_site_label
_atom_site_fract_x
_atom_site_fract_y
_atom_site_fract_z
Si Si1 0.976199 0.672927 0.603717
Si Si2 0.000000 0.000000 0.000000
Si Si3 0.621445 0.820153 0.788742
Si Si4 0.108541 0.823959 0.535239
Si Si5 0.779422 0.319782 0.115261
Si Si6 0.460418 0.334391 0.182149
Si Si7 0.682639 0.831016 0.452549
Si Si8 0.262284 0.329057 0.679430
O O1 0.965739 0.500000 0.620583
O O2 0.933875 0.770523 0.557971
O O3 0.000000 0.677296 0.500000
O O4 0.006859 0.740111 0.719742
O O5 0.979848 0.128236 0.073274
O O6 0.612423 0.762815 0.656149
O O7 0.670320 0.777413 0.853622
O O8 0.585453 0.747121 0.843450
O O9 0.618003 0.000000 0.787665
O O10 0.148266 0.776972 0.484676
O O11 0.108092 0.000000 0.555227
O O12 0.778150 0.500000 0.108458
O O13 0.758430 0.275175 0.219434
O O14 0.750000 0.250000 0.000000
O O15 0.455084 0.500000 0.232265
O O16 0.700522 0.771830 0.346931
O O17 0.723382 0.832832 0.563889
O O18 0.665849 0.000000 0.433933
O O19 0.277523 0.500000 0.703633
#
# Coordination Sequence:
#
# PCOD9185022 Si02
#       8
#     8   2   8   8   8   8   8   8
#     4  11  22  36  60  95 130 159 193 252 316 372
#     4   8  24  44  64  88 128 164 218 250 308 364
#     4  11  21  38  62  91 122 156 201 256 310 372
#     4  12  23  34  56  93 126 159 195 243 309 379
#     4  10  22  39  59  85 119 155 203 260 308 353
#     4  10  21  41  65  90 121 162 203 252 304 367
#     4  10  19  34  55  81 116 155 195 239 291 365
#     4   9  18  35  55  78 113 154 194 241 298 356
#
# _framework density 17.426624
#
# number of rings (size 3 to 8) (size 9 to 14) (size 15 to 20)
#    0.414    1.241    2.759    2.897    0.000    2.759 
#    0.000    2.759    3.034    1.655    0.000    0.000 
#    0.000    0.000    0.000    0.000    0.000    0.000 
#
# Total GULP energy -161479.941928 kJ/mol
# GULP energy per Si atom -5568.273860 kJ/mol
# Density = 1.738696 g / cm^3
# Si number density = 17.426624 Si / 1000 Ang^3
#
#
#
# Elastic Constant Matrix: (Units=GPa)
#
#
# Indices 1 2 3 4 5 6 
#
# 1 94.7621 38.8915 61.3279 0.0000 -18.5355 0.0000
# 2 38.8915 82.0789 31.4206 0.0000 -8.4787 0.0000
# 3 61.3279 31.4206 90.2954 0.0000 -15.9908 0.0000
# 4 0.0000 0.0000 0.0000 24.6775 0.0000 -1.7971
# 5 -18.5355 -8.4787 -15.9908 0.0000 25.0459 0.0000
# 6 0.0000 0.0000 0.0000 -1.7971 0.0000 32.2055
#
#
#
# Elastic Compliance Matrix: (Units=1/GPa)
#
#
# Indices 1 2 3 4 5 6 
#
# 1 0.021464 -0.005018 -0.011635 0.000000 0.006757 0.000000
# 2 -0.005018 0.015305 -0.001869 0.000000 0.000274 0.000000
# 3 -0.011635 -0.001869 0.020284 0.000000 0.003707 0.000000
# 4 0.000000 0.000000 0.000000 0.040688 0.000000 0.002270
# 5 0.006757 0.000274 0.003707 0.000000 0.047387 0.000000
# 6 0.000000 0.000000 0.000000 0.002270 0.000000 0.031177
#
#
# Mechanical properties :
#
#
# Convention : Reuss Voigt Hill
#
# Bulk Modulus (GPa) = 49.97905 58.93517 54.45711
# Shear Modulus (GPa) = 22.72519 25.41888 24.07203
#
# Velocity S-wave (km/s) = 3.61508 3.82334 3.72067
# Velocity P-wave (km/s) = 6.79463 7.30637 7.05514
#
# Compressibility (1/GPa) = 0.02000838
#
# Stress axis : x y z
#
# Youngs Moduli (GPa) = 46.58926 65.33842 49.29934
#
# Poissons Ratio (x) = 0.32788 0.57362
# Poissons Ratio (y) = 0.23380 0.09213
# Poissons Ratio (z) = 0.54208 0.12211
#
# Static dielectric constant tensor:
#      x y z
#    x 1.602630 0.000000 0.001720 
#    y 0.000000 1.597680 0.000000 
#    z 0.001720 0.000000 1.579260 
# 
# From -- ./inp_files/186765.got.cif
#   From: 2010.05.17/outbox.cif.g08.bks.cpg/sg12_94_cif.got.tgz:186765.got - 2010.06.03 13:09:07.
