data_PCOD9185640
_publ_section_title
;
Structure prediction by ZEFSAII (Michael W. Deem and Ramdas Pophale) SiO2 
 PCOD9185640
Probable space group: C 2/M
;
_chemical_formula_sum "Si O2"
_cell_formula_units_Z 56
_cell_length_a 23.861486
_cell_length_b 8.736653
_cell_length_c 19.315645
_cell_angle_alpha 90.000000
_cell_angle_beta 52.033615
_cell_angle_gamma 90.000000
_cell_volume 3174.555188
_symmetry_space_group_name_H-M "C 2/M"
_symmetry_group_IT_number 12
_symmetry_cell_setting 'monoclinic'
loop_
_space_group_symop_operation_xyz
x,y,z
-x,y,-z
-x,-y,-z
x,-y,z
1/2+x,1/2+y,z
1/2-x,1/2+y,-z
1/2-x,1/2-y,-z
1/2+x,1/2-y,z
loop_
_atom_site_type_symbol
_atom_site_label
_atom_site_fract_x
_atom_site_fract_y
_atom_site_fract_z
Si Si1 0.377201 0.185041 0.481951
Si Si2 0.963822 0.676644 0.795398
Si Si3 0.757563 0.684143 0.334440
Si Si4 0.812966 0.815941 0.905956
Si Si5 0.465995 0.824538 0.625341
Si Si6 0.112403 0.817869 0.680398
Si Si7 0.682879 0.316935 0.256220
O O1 0.311492 0.260749 0.570629
O O2 0.454841 0.230860 0.453556
O O3 0.374915 0.238354 0.403824
O O4 0.373347 0.000000 0.487663
O O5 0.966015 0.500000 0.815890
O O6 0.889844 0.754921 0.871644
O O7 0.966171 0.677710 0.709414
O O8 0.034379 0.765277 0.764453
O O9 0.763684 0.500000 0.334121
O O10 0.826656 0.761105 0.314428
O O11 0.741313 0.731050 0.267651
O O12 0.804642 0.763958 0.831921
O O13 0.812420 0.000000 0.908123
O O14 0.750000 0.750000 0.000000
O O15 0.395209 0.735282 0.659601
O O16 0.458338 0.000000 0.608185
O O17 0.114770 0.000000 0.669875
O O18 0.682485 0.500000 0.254846
#
# Coordination Sequence:
#
# PCOD9185640 Si02
#       7
#     8   8   8   8   8   8   8
#     4  10  20  34  50  72  99 133 176 220 258 296
#     4   9  17  32  53  78 104 133 166 205 250 299
#     4  11  22  35  49  69  99 138 176 214 254 297
#     4  10  19  34  57  85 109 132 162 202 250 304
#     4   8  16  30  49  70  97 130 166 207 252 296
#     4  11  21  34  52  74 100 135 175 216 254 295
#     4   9  20  35  51  72 102 135 168 203 251 308
#
# _framework density 17.640266
#
# number of rings (size 3 to 8) (size 9 to 14) (size 15 to 20)
#    0.000    2.286    0.000    4.286    0.000    6.286 
#    0.000    2.857    0.000    0.857    0.000    6.000 
#    0.000    0.000    0.000    0.000    0.000    0.000 
#
# Total GULP energy -156251.995735 kJ/mol
# GULP energy per Si atom -5580.428419 kJ/mol
# Density = 1.760012 g / cm^3
# Si number density = 17.640266 Si / 1000 Ang^3
#
#
#
# Elastic Constant Matrix: (Units=GPa)
#
#
# Indices 1 2 3 4 5 6 
#
# 1 93.6828 13.5991 48.3333 -0.0001 -4.9110 -0.0001
# 2 13.5991 45.0048 18.7726 -0.0005 -4.0334 0.0002
# 3 48.3333 18.7726 90.4193 0.0001 -21.7745 0.0000
# 4 -0.0001 -0.0005 0.0001 23.5631 0.0001 -8.6370
# 5 -4.9110 -4.0334 -21.7745 0.0001 21.9887 0.0000
# 6 -0.0001 0.0002 0.0000 -8.6370 0.0000 28.5450
#
#
#
# Elastic Compliance Matrix: (Units=1/GPa)
#
#
# Indices 1 2 3 4 5 6 
#
# 1 0.015416 -0.001264 -0.009461 0.000000 -0.006158 0.000000
# 2 -0.001264 0.024439 -0.004447 0.000001 -0.000204 0.000000
# 3 -0.009461 -0.004447 0.021450 0.000000 0.018313 0.000000
# 4 0.000000 0.000001 0.000000 0.047733 0.000000 0.014443
# 5 -0.006158 -0.000204 0.018313 0.000000 0.062199 0.000000
# 6 0.000000 0.000000 0.000000 0.014443 0.000000 0.039402
#
#
# Mechanical properties :
#
#
# Convention : Reuss Voigt Hill
#
# Bulk Modulus (GPa) = 32.29913 43.39077 37.84495
# Shear Modulus (GPa) = 19.89614 24.71281 22.30447
#
# Velocity S-wave (km/s) = 3.36204 3.74696 3.55971
# Velocity P-wave (km/s) = 5.78106 6.58564 6.19642
#
# Compressibility (1/GPa) = 0.03096058
#
# Stress axis : x y z
#
# Youngs Moduli (GPa) = 64.86666 40.91895 46.61921
#
# Poissons Ratio (x) = 0.05171 0.44107
# Poissons Ratio (y) = 0.08197 0.20733
# Poissons Ratio (z) = 0.61372 0.18198
#
# Static dielectric constant tensor:
#      x y z
#    x 1.613230 0.000000 0.016650 
#    y 0.000000 1.593350 0.000000 
#    z 0.016650 0.000000 1.595480 
# 
# From -- ./inp_files/288258.got.cif
#   From: 2010.05.17/outbox.cif.g08.bks.cpg/sg12_145_cif.got.tgz:288258.got - 2010.06.03 13:09:07.
