data_PCOD9185330
_publ_section_title
;
Structure prediction by ZEFSAII (Michael W. Deem and Ramdas Pophale) SiO2 
 PCOD9185330
Probable space group: C 2/M
;
_chemical_formula_sum "Si O2"
_cell_formula_units_Z 64
_cell_length_a 25.704304
_cell_length_b 7.985717
_cell_length_c 14.787289
_cell_angle_alpha 90.000000
_cell_angle_beta 90.341627
_cell_angle_gamma 90.000000
_cell_volume 3035.292894
_symmetry_space_group_name_H-M "C 2/M"
_symmetry_group_IT_number 12
_symmetry_cell_setting 'monoclinic'
loop_
_space_group_symop_operation_xyz
x,y,z
-x,y,-z
-x,-y,-z
x,-y,z
1/2+x,1/2+y,z
1/2-x,1/2+y,-z
1/2-x,1/2-y,-z
1/2+x,1/2-y,z
loop_
_atom_site_type_symbol
_atom_site_label
_atom_site_fract_x
_atom_site_fract_y
_atom_site_fract_z
Si Si1 0.582337 0.690802 0.486586
Si Si2 0.445845 0.799586 0.318851
Si Si3 0.838021 0.704990 0.232024
Si Si4 0.307381 0.811605 0.524699
Si Si5 0.308244 0.201458 0.031050
Si Si6 0.058028 0.698595 0.284686
Si Si7 0.228007 0.196257 0.296210
Si Si8 0.850855 0.703443 0.846250
O O1 0.566364 0.500000 0.476402
O O2 0.554517 0.766120 0.573711
O O3 0.644105 0.704317 0.506663
O O4 0.573711 0.776578 0.389731
O O5 0.392660 0.735526 0.273007
O O6 0.499342 0.732657 0.276856
O O7 0.445562 0.000000 0.307273
O O8 0.838627 0.500000 0.231506
O O9 0.825652 0.763322 0.129953
O O10 0.787894 0.750070 0.291965
O O11 0.250000 0.750000 0.500000
O O12 0.305215 0.801489 0.633238
O O13 0.315647 0.000000 0.492212
O O14 0.308776 0.000000 0.036241
O O15 0.250000 0.250000 0.000000
O O16 0.347867 0.251316 0.951284
O O17 0.055728 0.500000 0.268353
O O18 0.100562 0.764499 0.213891
O O19 0.201022 0.223144 0.200061
O O20 0.225009 0.000000 0.321348
O O21 0.848595 0.500000 0.841001
#
# Coordination Sequence:
#
# PCOD9185330 Si02
#       8
#     8   8   8   8   8   8   8   8
#     4  12  24  38  58  85 114 150 196 244 293 341
#     4  10  21  39  60  80 111 156 197 241 295 347
#     4   9  19  35  56  83 115 148 189 236 286 345
#     4  12  24  38  55  81 118 155 193 235 287 346
#     4  10  19  34  56  84 115 148 187 236 292 346
#     4  10  21  38  59  83 112 153 199 240 290 347
#     4  11  20  33  55  82 113 151 191 231 285 343
#     4  10  20  34  55  83 114 146 186 237 287 344
#
# _framework density 21.085277999999999
#
# number of rings (size 3 to 8) (size 9 to 14) (size 15 to 20)
#    0.000    1.500    2.500    3.750    0.000    3.000 
#    0.000    1.875    0.000    3.750    0.000    0.000 
#    0.000    4.000    0.000    0.000    0.000    0.000 
#
# Total GULP energy -178769.582340 kJ/mol
# GULP energy per Si atom -5586.549448 kJ/mol
# Density = 2.103729 g / cm^3
# Si number density = 21.085278 Si / 1000 Ang^3
#
#
#
# Elastic Constant Matrix: (Units=GPa)
#
#
# Indices 1 2 3 4 5 6 
#
# 1 140.1454 3.7974 37.3911 0.0000 -22.3926 0.0000
# 2 3.7974 26.5882 -2.6841 0.0000 -3.1632 0.0000
# 3 37.3911 -2.6841 92.4326 0.0000 -15.3302 0.0000
# 4 0.0000 0.0000 0.0000 12.5312 0.0000 2.0349
# 5 -22.3926 -3.1632 -15.3302 0.0000 23.1023 0.0000
# 6 0.0000 0.0000 0.0000 2.0349 0.0000 15.6319
#
#
#
# Elastic Compliance Matrix: (Units=1/GPa)
#
#
# Indices 1 2 3 4 5 6 
#
# 1 0.008920 -0.000704 -0.002484 0.000000 0.006901 0.000000
# 2 -0.000704 0.038700 0.002443 0.000000 0.006238 0.000000
# 3 -0.002484 0.002443 0.012979 0.000000 0.006539 0.000000
# 4 0.000000 0.000000 0.000000 0.081524 0.000000 -0.010613
# 5 0.006901 0.006238 0.006539 0.000000 0.055168 0.000000
# 6 0.000000 0.000000 0.000000 -0.010613 0.000000 0.065353
#
#
# Mechanical properties :
#
#
# Convention : Reuss Voigt Hill
#
# Bulk Modulus (GPa) = 16.91784 37.35276 27.13530
# Shear Modulus (GPa) = 17.61569 24.96387 21.28978
#
# Velocity S-wave (km/s) = 2.89355 3.44459 3.18102
# Velocity P-wave (km/s) = 4.38229 5.79429 5.13703
#
# Compressibility (1/GPa) = 0.05910921
#
# Stress axis : x y z
#
# Youngs Moduli (GPa) = 112.10798 25.83988 77.04689
#
# Poissons Ratio (x) = 0.01818 0.19140
# Poissons Ratio (y) = 0.07889 -0.18823
# Poissons Ratio (z) = 0.27850 -0.06313
#
# Static dielectric constant tensor:
#      x y z
#    x 1.782040 0.000000 0.005940 
#    y 0.000000 1.758660 0.000000 
#    z 0.005940 0.000000 1.798680 
# 
# From -- ./inp_files/238627.got.cif
#   From: 2010.05.17/outbox.cif.g08.bks.cpg/sg12_120_cif.got.tgz:238627.got - 2010.06.03 13:09:07.
