data_PCOD9185535
_publ_section_title
;
Structure prediction by ZEFSAII (Michael W. Deem and Ramdas Pophale) SiO2 
 PCOD9185535
Probable space group: C 2/M
;
_chemical_formula_sum "Si O2"
_cell_formula_units_Z 64
_cell_length_a 26.038789
_cell_length_b 8.688080
_cell_length_c 14.937543
_cell_angle_alpha 90.000000
_cell_angle_beta 101.864937
_cell_angle_gamma 90.000000
_cell_volume 3307.078488
_symmetry_space_group_name_H-M "C 2/M"
_symmetry_group_IT_number 12
_symmetry_cell_setting 'monoclinic'
loop_
_space_group_symop_operation_xyz
x,y,z
-x,y,-z
-x,-y,-z
x,-y,z
1/2+x,1/2+y,z
1/2-x,1/2+y,-z
1/2-x,1/2-y,-z
1/2+x,1/2-y,z
loop_
_atom_site_type_symbol
_atom_site_label
_atom_site_fract_x
_atom_site_fract_y
_atom_site_fract_z
Si Si1 0.018135 0.181601 0.103244
Si Si2 0.706604 0.686854 0.710973
Si Si3 0.410917 0.686155 0.374634
Si Si4 0.101577 0.816484 0.424845
Si Si5 0.142517 0.819706 0.166680
Si Si6 0.003516 0.682171 0.286325
Si Si7 0.305098 0.818010 0.640780
Si Si8 0.269714 0.814735 0.913270
O O1 0.080856 0.195921 0.131313
O O2 0.994910 0.264795 0.181323
O O3 0.004613 0.000000 0.104312
O O4 0.000000 0.239608 0.000000
O O5 0.706718 0.500000 0.706666
O O6 0.646912 0.737416 0.678066
O O7 0.746650 0.738099 0.646540
O O8 0.731292 0.727784 0.816196
O O9 0.413559 0.500000 0.369306
O O10 0.414877 0.727454 0.480672
O O11 0.457366 0.754878 0.332758
O O12 0.160420 0.762078 0.422952
O O13 0.058886 0.748863 0.341467
O O14 0.100218 0.000000 0.416666
O O15 0.162552 0.718097 0.256702
O O16 0.174979 0.761249 0.093210
O O17 0.154097 0.000000 0.189025
O O18 0.005708 0.500000 0.292231
O O19 0.303467 0.000000 0.623585
O O20 0.273596 0.000000 0.917099
O O21 0.250000 0.750000 0.000000
#
# Coordination Sequence:
#
# PCOD9185535 Si02
#       8
#     8   8   8   8   8   8   8   8
#     4  10  22  40  62  87 115 152 196 240 292 354
#     4   8  18  37  58  82 114 154 193 236 294 351
#     4  10  22  41  62  83 116 159 202 244 291 356
#     4  11  22  37  61  89 114 153 203 245 292 354
#     4  10  19  34  57  82 111 147 191 236 284 343
#     4  12  25  40  60  86 120 156 195 248 302 351
#     4  10  19  34  59  87 117 151 188 236 292 347
#     4  10  20  35  57  83 114 150 193 238 289 349
#
# _framework density 19.352429999999998
#
# number of rings (size 3 to 8) (size 9 to 14) (size 15 to 20)
#    0.000    1.875    1.250    3.750    0.000    4.750 
#    0.000    8.750    0.000    0.000    0.000    0.000 
#    0.000    0.000    0.000    0.000    0.000    0.000 
#
# Total GULP energy -178717.452445 kJ/mol
# GULP energy per Si atom -5584.920389 kJ/mol
# Density = 1.930838 g / cm^3
# Si number density = 19.352430 Si / 1000 Ang^3
#
#
#
# Elastic Constant Matrix: (Units=GPa)
#
#
# Indices 1 2 3 4 5 6 
#
# 1 86.0898 18.6135 38.5493 0.0000 -22.6579 0.0000
# 2 18.6135 33.8695 26.5414 0.0000 -8.5097 0.0000
# 3 38.5493 26.5414 105.5656 0.0000 -25.6360 0.0000
# 4 0.0000 0.0000 0.0000 15.8074 0.0000 -14.4870
# 5 -22.6579 -8.5097 -25.6360 0.0000 37.1979 0.0000
# 6 0.0000 0.0000 0.0000 -14.4870 0.0000 25.1808
#
#
#
# Elastic Compliance Matrix: (Units=1/GPa)
#
#
# Indices 1 2 3 4 5 6 
#
# 1 0.015645 -0.004646 -0.002989 0.000000 0.006407 0.000000
# 2 -0.004646 0.038336 -0.007806 0.000000 0.000561 0.000000
# 3 -0.002989 -0.007806 0.013993 0.000000 0.006037 0.000000
# 4 0.000000 0.000000 0.000000 0.133820 0.000000 0.076989
# 5 0.006407 0.000561 0.006037 0.000000 0.035075 0.000000
# 6 0.000000 0.000000 0.000000 0.076989 0.000000 0.084006
#
#
# Mechanical properties :
#
#
# Convention : Reuss Voigt Hill
#
# Bulk Modulus (GPa) = 26.95973 43.65926 35.30949
# Shear Modulus (GPa) = 13.73173 25.09195 19.41184
#
# Velocity S-wave (km/s) = 2.66665 3.60471 3.17056
# Velocity P-wave (km/s) = 4.84175 6.31936 5.62925
#
# Compressibility (1/GPa) = 0.03709237
#
# Stress axis : x y z
#
# Youngs Moduli (GPa) = 63.91850 26.08507 71.46447
#
# Poissons Ratio (x) = 0.12119 0.21362
# Poissons Ratio (y) = 0.29695 0.55784
# Poissons Ratio (z) = 0.19106 0.20362
#
# Static dielectric constant tensor:
#      x y z
#    x 1.678820 0.000000 -0.003330 
#    y 0.000000 1.662000 0.000000 
#    z -0.003330 0.000000 1.675970 
# 
# From -- ./inp_files/238691.got.cif
#   From: 2010.05.17/outbox.cif.g08.bks.cpg/sg12_120_cif.got.tgz:238691.got - 2010.06.03 13:09:07.
