data_PCOD9185441
_publ_section_title
;
Structure prediction by ZEFSAII (Michael W. Deem and Ramdas Pophale) SiO2 
 PCOD9185441
Probable space group: C 2/M
;
_chemical_formula_sum "Si O2"
_cell_formula_units_Z 48
_cell_length_a 27.973310
_cell_length_b 7.772407
_cell_length_c 15.932499
_cell_angle_alpha 90.000000
_cell_angle_beta 138.944568
_cell_angle_gamma 90.000000
_cell_volume 2275.145021
_symmetry_space_group_name_H-M "C 2/M"
_symmetry_group_IT_number 12
_symmetry_cell_setting 'monoclinic'
loop_
_space_group_symop_operation_xyz
x,y,z
-x,y,-z
-x,-y,-z
x,-y,z
1/2+x,1/2+y,z
1/2-x,1/2+y,-z
1/2-x,1/2-y,-z
1/2+x,1/2-y,z
loop_
_atom_site_type_symbol
_atom_site_label
_atom_site_fract_x
_atom_site_fract_y
_atom_site_fract_z
Si Si1 0.450275 0.711239 0.512382
Si Si2 0.541250 0.288975 0.138713
Si Si3 0.208321 0.794950 0.359300
Si Si4 0.198810 0.294622 0.010634
Si Si5 0.031015 0.204253 0.785604
Si Si6 0.215358 0.795324 0.713519
O O1 0.500000 0.763040 0.500000
O O2 0.449561 0.500000 0.512483
O O3 0.486863 0.771961 0.647190
O O4 0.367249 0.771327 0.393803
O O5 0.541045 0.500000 0.138412
O O6 0.625033 0.231619 0.250911
O O7 0.499206 0.228408 0.166072
O O8 0.500000 0.233972 0.000000
O O9 0.250000 0.750000 0.500000
O O10 0.249398 0.731833 0.330680
O O11 0.205466 0.000000 0.349732
O O12 0.194127 0.500000 0.010137
O O13 0.234945 0.226440 0.144782
O O14 0.250000 0.250000 0.000000
O O15 0.116973 0.229752 0.890544
O O16 0.017581 0.000000 0.769090
O O17 0.210085 0.000000 0.720231
#
# Coordination Sequence:
#
# PCOD9185441 Si02
#       6
#     8   8   8   8   8   8
#     4   9  17  32  55  79 104 141 187 228 269 324
#     4   9  18  33  54  79 106 142 187 227 266 322
#     4  11  22  37  59  85 114 148 186 230 279 332
#     4  11  23  38  58  84 115 149 185 229 280 334
#     4  10  19  34  57  80 105 140 183 230 275 323
#     4  10  21  38  59  83 111 146 190 234 276 327
#
# _framework density 21.097556999999998
#
# number of rings (size 3 to 8) (size 9 to 14) (size 15 to 20)
#    0.000    2.000    0.000    4.000    0.000    8.000 
#    0.000    4.167    0.000    6.500    0.000    0.000 
#    0.000    0.000    0.000    0.000    0.000    0.000 
#
# Total GULP energy -134148.550189 kJ/mol
# GULP energy per Si atom -5589.522925 kJ/mol
# Density = 2.104954 g / cm^3
# Si number density = 21.097557 Si / 1000 Ang^3
#
#
#
# Elastic Constant Matrix: (Units=GPa)
#
#
# Indices 1 2 3 4 5 6 
#
# 1 78.4334 -14.0031 -0.3497 0.0000 -1.5851 0.0000
# 2 -14.0031 22.6267 -2.0601 0.0000 -2.8931 0.0000
# 3 -0.3497 -2.0601 108.9351 0.0000 -4.2800 0.0000
# 4 0.0000 0.0000 0.0000 16.3011 0.0000 6.6158
# 5 -1.5851 -2.8931 -4.2800 0.0000 45.9520 0.0000
# 6 0.0000 0.0000 0.0000 6.6158 0.0000 22.1677
#
#
#
# Elastic Compliance Matrix: (Units=1/GPa)
#
#
# Indices 1 2 3 4 5 6 
#
# 1 0.014392 0.009070 0.000261 0.000000 0.001092 0.000000
# 2 0.009070 0.050370 0.001123 0.000000 0.003589 0.000000
# 3 0.000261 0.001123 0.009239 0.000000 0.000940 0.000000
# 4 0.000000 0.000000 0.000000 0.069800 0.000000 -0.020831
# 5 0.001092 0.003589 0.000940 0.000000 0.022113 0.000000
# 6 0.000000 0.000000 0.000000 -0.020831 0.000000 0.051327
#
#
# Mechanical properties :
#
#
# Convention : Reuss Voigt Hill
#
# Bulk Modulus (GPa) = 10.53647 19.68548 15.11097
# Shear Modulus (GPa) = 21.93269 31.97803 26.95536
#
# Velocity S-wave (km/s) = 3.22776 3.89745 3.57831
# Velocity P-wave (km/s) = 4.34698 5.44100 4.92446
#
# Compressibility (1/GPa) = 0.09490845
#
# Stress axis : x y z
#
# Youngs Moduli (GPa) = 69.48170 19.85307 108.23930
#
# Poissons Ratio (x) = -0.18007 -0.02821
# Poissons Ratio (y) = -0.63022 -0.12152
# Poissons Ratio (z) = -0.01811 -0.02229
#
# Static dielectric constant tensor:
#      x y z
#    x 1.756400 0.000000 -0.043390 
#    y 0.000000 1.782290 0.000000 
#    z -0.043390 0.000000 1.755450 
# 
# From -- ./inp_files/244608.got.cif
#   From: 2010.05.17/outbox.cif.g08.bks.cpg/sg12_123_cif.got.tgz:244608.got - 2010.06.03 13:09:07.
