data_PCOD9185969
_publ_section_title
;
Structure prediction by ZEFSAII (Michael W. Deem and Ramdas Pophale) SiO2 
 PCOD9185969
Probable space group: C 2/M
;
_chemical_formula_sum "Si O2"
_cell_formula_units_Z 52
_cell_length_a 4.986469
_cell_length_b 28.620557
_cell_length_c 16.185882
_cell_angle_alpha 90.000000
_cell_angle_beta 64.373203
_cell_angle_gamma 90.000000
_cell_volume 2082.744967
_symmetry_space_group_name_H-M "C 2/M"
_symmetry_group_IT_number 12
_symmetry_cell_setting 'monoclinic'
loop_
_space_group_symop_operation_xyz
x,y,z
-x,y,-z
-x,-y,-z
x,-y,z
1/2+x,1/2+y,z
1/2-x,1/2+y,-z
1/2-x,1/2-y,-z
1/2+x,1/2-y,z
loop_
_atom_site_type_symbol
_atom_site_label
_atom_site_fract_x
_atom_site_fract_y
_atom_site_fract_z
Si Si1 0.460930 0.361152 0.164867
Si Si2 0.300811 0.388370 0.357942
Si Si3 0.508521 0.220475 0.233643
Si Si4 0.846176 0.304416 0.441943
Si Si5 0.000000 0.381987 0.000000
Si Si6 0.293055 0.947498 0.347894
Si Si7 0.354297 0.946420 0.863353
O O1 0.493283 0.364069 0.259234
O O2 0.183117 0.326740 0.186990
O O3 0.389877 0.414685 0.149200
O O4 0.737938 0.350055 0.070803
O O5 0.526268 0.410923 0.392260
O O6 0.067307 0.348851 0.411593
O O7 0.090541 0.429958 0.352806
O O8 0.248943 0.237775 0.209008
O O9 0.386452 0.215125 0.343744
O O10 0.500000 0.316467 0.500000
O O11 0.000000 0.277049 0.500000
O O12 0.914873 0.416635 0.936757
O O13 0.376620 0.947689 0.238801
O O14 0.215380 0.000000 0.382696
O O15 0.269100 0.000000 0.890812
#
# Coordination Sequence:
#
# PCOD9185969 Si02
#       7
#     8   8   8   8   4   8   8
#     4  10  24  40  63  90 133 175 224 268 332 387
#     4  10  20  38  59  86 126 169 212 261 323 389
#     4  11  26  46  73  99 133 174 218 270 328 396
#     4  11  23  40  68 102 130 159 201 262 334 401
#     4  12  21  38  62  92 136 174 220 280 325 394
#     4  10  19  34  58  87 122 172 225 265 311 380
#     4  10  22  37  60  95 135 173 220 280 337 384
#
# _framework density 24.967051000000001
#
# number of rings (size 3 to 8) (size 9 to 14) (size 15 to 20)
#    0.000    1.538    1.538    3.000    2.154    6.769 
#    0.000    0.769    0.000    9.231    0.000    0.000 
#    0.000    0.000    0.000    0.000    0.000    0.000 
#
# Total GULP energy -145494.685910 kJ/mol
# GULP energy per Si atom -5595.949458 kJ/mol
# Density = 2.491022 g / cm^3
# Si number density = 24.967051 Si / 1000 Ang^3
#
#
#
# Elastic Constant Matrix: (Units=GPa)
#
#
# Indices 1 2 3 4 5 6 
#
# 1 86.0441 8.8925 34.7929 0.0000 -21.4119 0.0000
# 2 8.8925 86.7506 39.0983 0.0000 -18.9780 0.0000
# 3 34.7929 39.0983 116.0634 0.0000 -26.6533 0.0000
# 4 0.0000 0.0000 0.0000 21.0296 0.0000 -10.0956
# 5 -21.4119 -18.9780 -26.6533 0.0000 44.2867 0.0000
# 6 0.0000 0.0000 0.0000 -10.0956 0.0000 64.6522
#
#
#
# Elastic Compliance Matrix: (Units=1/GPa)
#
#
# Indices 1 2 3 4 5 6 
#
# 1 0.014219 0.001271 -0.003466 0.000000 0.005334 0.000000
# 2 0.001271 0.014206 -0.004209 0.000000 0.004169 0.000000
# 3 -0.003466 -0.004209 0.011922 0.000000 0.003695 0.000000
# 4 0.000000 0.000000 0.000000 0.051406 0.000000 0.008027
# 5 0.005334 0.004169 0.003695 0.000000 0.029169 0.000000
# 6 0.000000 0.000000 0.000000 0.008027 0.000000 0.016721
#
#
# Mechanical properties :
#
#
# Convention : Reuss Voigt Hill
#
# Bulk Modulus (GPa) = 36.31203 50.49171 43.40187
# Shear Modulus (GPa) = 31.32231 39.73198 35.52714
#
# Velocity S-wave (km/s) = 3.54580 3.99353 3.77631
# Velocity P-wave (km/s) = 5.59814 6.44451 6.03617
#
# Compressibility (1/GPa) = 0.02753908
#
# Stress axis : x y z
#
# Youngs Moduli (GPa) = 70.32672 70.39192 83.88125
#
# Poissons Ratio (x) = -0.08949 0.29074
# Poissons Ratio (y) = -0.08941 0.35309
# Poissons Ratio (z) = 0.24376 0.29630
#
# Static dielectric constant tensor:
#      x y z
#    x 2.005580 0.000000 0.011060 
#    y 0.000000 2.011490 0.000000 
#    z 0.011060 0.000000 2.036760 
# 
# From -- ./inp_files/298351.got.cif
#   From: 2010.05.17/outbox.cif.g08.bks.cpg/sg12_150_cif.got.tgz:298351.got - 2010.06.03 13:09:07.
