data_PCOD9185108
_publ_section_title
;
Structure prediction by ZEFSAII (Michael W. Deem and Ramdas Pophale) SiO2 
 PCOD9185108
Probable space group: C 2/M
;
_chemical_formula_sum "Si O2"
_cell_formula_units_Z 56
_cell_length_a 9.739775
_cell_length_b 29.791095
_cell_length_c 21.327717
_cell_angle_alpha 90.000000
_cell_angle_beta 151.252073
_cell_angle_gamma 90.000000
_cell_volume 2976.364072
_symmetry_space_group_name_H-M "C 2/M"
_symmetry_group_IT_number 12
_symmetry_cell_setting 'monoclinic'
loop_
_space_group_symop_operation_xyz
x,y,z
-x,y,-z
-x,-y,-z
x,-y,z
1/2+x,1/2+y,z
1/2-x,1/2+y,-z
1/2-x,1/2-y,-z
1/2+x,1/2-y,z
loop_
_atom_site_type_symbol
_atom_site_label
_atom_site_fract_x
_atom_site_fract_y
_atom_site_fract_z
Si Si1 0.139947 0.395510 0.713842
Si Si2 0.666481 0.373753 0.002769
Si Si3 0.957864 0.711826 0.057021
Si Si4 0.676275 0.119037 0.284111
Si Si5 0.019630 0.689601 0.581298
Si Si6 0.632333 0.715413 0.671486
Si Si7 0.138072 0.950477 0.484983
O O1 0.445899 0.399980 0.869993
O O2 0.927735 0.385973 0.686842
O O3 0.138341 0.352436 0.667629
O O4 0.973254 0.437653 0.617578
O O5 0.500000 0.357615 0.000000
O O6 0.803385 0.333963 0.016879
O O7 0.934342 0.399378 0.140272
O O8 0.260614 0.717645 0.213953
O O9 0.750000 0.750000 0.000000
O O10 0.000000 0.714028 0.000000
O O11 0.697677 0.172496 0.285288
O O12 0.963974 0.091466 0.386626
O O13 0.694519 0.701355 0.470413
O O14 0.000000 0.679637 0.500000
O O15 0.183728 0.736311 0.660800
O O16 0.000000 0.953369 0.500000
O O17 0.091308 0.000000 0.438390
#
# Coordination Sequence:
#
# PCOD9185108 Si02
#       7
#     8   8   8   8   8   8   8
#     4  10  19  34  56  76 106 140 172 221 262 313
#     4   9  19  35  54  76 104 138 176 218 270 317
#     4  11  23  36  52  72 103 142 184 222 265 310
#     4   9  18  35  54  78 105 137 174 214 270 313
#     4  11  24  33  50  75 106 139 178 219 259 309
#     4  10  23  35  51  74 104 138 178 218 259 314
#     4   9  17  31  54  82 108 136 171 212 265 324
#
# _framework density 18.814903000000001
#
# number of rings (size 3 to 8) (size 9 to 14) (size 15 to 20)
#    0.000    2.143    1.429    1.286    8.000    1.143 
#    0.000    0.714    0.000    4.714    0.000    0.000 
#    0.000    4.571    0.000    0.000    0.000    0.000 
#
# Total GULP energy -155901.059282 kJ/mol
# GULP energy per Si atom -5567.894974 kJ/mol
# Density = 1.877208 g / cm^3
# Si number density = 18.814903 Si / 1000 Ang^3
#
#
#
# Elastic Constant Matrix: (Units=GPa)
#
#
# Indices 1 2 3 4 5 6 
#
# 1 41.7407 8.4846 14.9112 0.0017 -11.3894 0.0004
# 2 8.4846 69.7151 25.5111 0.0002 -6.2117 0.0010
# 3 14.9112 25.5111 97.0693 -0.0314 -11.8509 -0.0047
# 4 0.0017 0.0002 -0.0314 -0.0339 0.0005 -0.0123
# 5 -11.3894 -6.2117 -11.8509 0.0005 24.2517 0.0006
# 6 0.0004 0.0010 -0.0047 -0.0123 0.0006 7.4630
#
#
#
# Elastic Compliance Matrix: (Units=1/GPa)
#
#
# Indices 1 2 3 4 5 6 
#
# 1 0.028357 -0.001480 -0.002538 0.003935 0.011698 0.000003
# 2 -0.001480 0.016054 -0.003800 0.003572 0.001560 0.000001
# 3 -0.002538 -0.003800 0.012147 -0.011350 0.003771 -0.000011
# 4 0.003935 0.003572 -0.011350-29.442548 -0.002215 -0.048670
# 5 0.011698 0.001560 0.003771 -0.002215 0.048970 -0.000006
# 6 0.000003 0.000001 -0.000011 -0.048670 -0.000006 0.133913
#
#
# Mechanical properties :
#
#
# Convention : Reuss Voigt Hill
#
# Bulk Modulus (GPa) = 24.43699 34.03768 29.23733
# Shear Modulus (GPa) = -0.17139 16.97738 8.40300
#
# Velocity S-wave (km/s) = -0.30214 3.00715 2.11562
# Velocity P-wave (km/s) = 3.59090 5.49430 4.64122
#
# Compressibility (1/GPa) = 0.04092157
#
# Stress axis : x y z
#
# Youngs Moduli (GPa) = 35.26526 62.29042 82.32365
#
# Poissons Ratio (x) = 0.09221 0.20890
# Poissons Ratio (y) = 0.05220 0.31285
# Poissons Ratio (z) = 0.08949 0.23672
#
# Static dielectric constant tensor:
#      x y z
#    x 1.650140 0.000000 0.000860 
#    y 0.000000 1.649950 -0.000010 
#    z 0.000860 -0.000010 1.746210 
# 
# From -- ./inp_files/303071.got.cif
#   From: 2010.05.17/outbox.cif.g08.bks.cpg/sg12_152_cif.got.tgz:303071.got - 2010.06.03 13:09:07.
