data_PCOD9185207
_publ_section_title
;
Structure prediction by ZEFSAII (Michael W. Deem and Ramdas Pophale) SiO2 
 PCOD9185207
Probable space group: C 2/M
;
_chemical_formula_sum "Si O2"
_cell_formula_units_Z 56
_cell_length_a 24.593287
_cell_length_b 8.148728
_cell_length_c 15.426759
_cell_angle_alpha 90.000000
_cell_angle_beta 118.414526
_cell_angle_gamma 90.000000
_cell_volume 2719.134844
_symmetry_space_group_name_H-M "C 2/M"
_symmetry_group_IT_number 12
_symmetry_cell_setting 'monoclinic'
loop_
_space_group_symop_operation_xyz
x,y,z
-x,y,-z
-x,-y,-z
x,-y,z
1/2+x,1/2+y,z
1/2-x,1/2+y,-z
1/2-x,1/2-y,-z
1/2+x,1/2-y,z
loop_
_atom_site_type_symbol
_atom_site_label
_atom_site_fract_x
_atom_site_fract_y
_atom_site_fract_z
Si Si1 0.766491 0.692943 0.278396
Si Si2 0.375275 0.307313 0.821329
Si Si3 0.945273 0.310375 0.024533
Si Si4 0.933604 0.811287 0.202340
Si Si5 0.432520 0.698918 0.686918
Si Si6 0.310899 0.196854 0.492231
Si Si7 0.796157 0.807315 0.111165
O O1 0.780110 0.500000 0.274747
O O2 0.696051 0.704507 0.257719
O O3 0.806480 0.757533 0.389223
O O4 0.771771 0.777042 0.189474
O O5 0.389424 0.500000 0.846975
O O6 0.416008 0.244008 0.772196
O O7 0.386090 0.212687 0.918589
O O8 0.952112 0.500000 0.056309
O O9 0.942564 0.197123 0.105534
O O10 0.000000 0.265841 0.000000
O O11 0.866024 0.733122 0.164201
O O12 0.998805 0.741211 0.287063
O O13 0.930601 0.000000 0.230537
O O14 0.434501 0.500000 0.691663
O O15 0.374749 0.748118 0.584347
O O16 0.250000 0.250000 0.500000
O O17 0.309408 0.000000 0.488403
O O18 0.803355 0.000000 0.100691
O O19 0.750000 0.750000 0.000000
#
# Coordination Sequence:
#
# PCOD9185207 Si02
#       7
#     8   8   8   8   8   8   8
#     4  10  22  40  60  86 118 155 198 243 292 355
#     4  10  19  34  56  80 112 154 194 231 290 358
#     4  11  22  32  48  82 119 147 187 238 292 353
#     4  10  22  40  60  81 114 158 201 241 296 361
#     4  10  20  37  59  85 116 153 194 243 297 352
#     4  11  22  38  61  91 125 159 199 246 300 358
#     4  11  24  42  64  90 117 157 205 249 294 351
#
# _framework density 20.594785000000002
#
# number of rings (size 3 to 8) (size 9 to 14) (size 15 to 20)
#    0.000    1.571    2.857    2.143    0.000    8.000 
#    0.000    0.714    0.000    4.286    0.000    0.000 
#    0.000    0.000    0.000    0.000    0.000    0.000 
#
# Total GULP energy -156221.297411 kJ/mol
# GULP energy per Si atom -5579.332050 kJ/mol
# Density = 2.054791 g / cm^3
# Si number density = 20.594785 Si / 1000 Ang^3
#
#
#
# Elastic Constant Matrix: (Units=GPa)
#
#
# Indices 1 2 3 4 5 6 
#
# 1 104.3575 13.2661 41.6319 0.0000 21.5080 0.0000
# 2 13.2661 17.2708 4.2724 0.0000 8.5247 0.0000
# 3 41.6319 4.2724 131.2702 0.0000 22.0716 0.0000
# 4 0.0000 0.0000 0.0000 26.5329 0.0000 2.1138
# 5 21.5080 8.5247 22.0716 0.0000 32.1178 0.0000
# 6 0.0000 0.0000 0.0000 2.1138 0.0000 19.6240
#
#
#
# Elastic Compliance Matrix: (Units=1/GPa)
#
#
# Indices 1 2 3 4 5 6 
#
# 1 0.012570 -0.006646 -0.002998 0.000000 -0.004593 0.000000
# 2 -0.006646 0.070241 0.002497 0.000000 -0.015908 0.000000
# 3 -0.002998 0.002497 0.009341 0.000000 -0.005074 0.000000
# 4 0.000000 0.000000 0.000000 0.038015 0.000000 -0.004095
# 5 -0.004593 -0.015908 -0.005074 0.000000 0.041920 0.000000
# 6 0.000000 0.000000 0.000000 -0.004095 0.000000 0.051399
#
#
# Mechanical properties :
#
#
# Convention : Reuss Voigt Hill
#
# Bulk Modulus (GPa) = 12.84426 41.24882 27.04654
# Shear Modulus (GPa) = 18.95849 28.57014 23.76432
#
# Velocity S-wave (km/s) = 3.03735 3.72862 3.40060
# Velocity P-wave (km/s) = 4.30707 6.21362 5.34602
#
# Compressibility (1/GPa) = 0.07785580
#
# Stress axis : x y z
#
# Youngs Moduli (GPa) = 79.55441 14.23671 107.06038
#
# Poissons Ratio (x) = 0.09462 0.32096
# Poissons Ratio (y) = 0.52876 -0.26728
# Poissons Ratio (z) = 0.23850 -0.03554
#
# Static dielectric constant tensor:
#      x y z
#    x 1.782620 0.000000 0.054280 
#    y 0.000000 1.749090 0.000000 
#    z 0.054280 0.000000 1.754270 
# 
# From -- ./inp_files/238884.got.cif
#   From: 2010.05.17/outbox.cif.g08.bks.cpg/sg12_120_cif.got.tgz:238884.got - 2010.06.03 13:09:07.
