data_PCOD9185575
_publ_section_title
;
Structure prediction by ZEFSAII (Michael W. Deem and Ramdas Pophale) SiO2 
 PCOD9185575
Probable space group: C 2/M
;
_chemical_formula_sum "Si O2"
_cell_formula_units_Z 64
_cell_length_a 15.262635
_cell_length_b 15.031219
_cell_length_c 23.317923
_cell_angle_alpha 90.000000
_cell_angle_beta 138.870686
_cell_angle_gamma 90.000000
_cell_volume 3518.694059
_symmetry_space_group_name_H-M "C 2/M"
_symmetry_group_IT_number 12
_symmetry_cell_setting 'monoclinic'
loop_
_space_group_symop_operation_xyz
x,y,z
-x,y,-z
-x,-y,-z
x,-y,z
1/2+x,1/2+y,z
1/2-x,1/2+y,-z
1/2-x,1/2-y,-z
1/2+x,1/2-y,z
loop_
_atom_site_type_symbol
_atom_site_label
_atom_site_fract_x
_atom_site_fract_y
_atom_site_fract_z
Si Si1 0.754693 0.234199 0.772261
Si Si2 0.904419 0.103607 0.587840
Si Si3 0.959178 0.254944 0.122014
Si Si4 0.393154 0.309382 0.401515
Si Si5 0.316748 0.895317 0.614831
Si Si6 0.510688 0.261203 0.727490
Si Si7 0.232965 0.103427 0.016231
Si Si8 0.133745 0.099747 0.091380
O O1 0.677743 0.237907 0.674236
O O2 0.655830 0.274309 0.770930
O O3 0.796547 0.141016 0.819786
O O4 0.897867 0.278887 0.833930
O O5 0.768207 0.118667 0.485317
O O6 0.021645 0.128975 0.600134
O O7 0.919563 0.165460 0.650872
O O8 0.914565 0.000000 0.607319
O O9 0.980540 0.237441 0.200071
O O10 0.859543 0.336911 0.061760
O O11 0.892154 0.163937 0.065344
O O12 0.500000 0.273499 0.500000
O O13 0.280903 0.362497 0.381809
O O14 0.446626 0.833830 0.679127
O O15 0.344335 0.000000 0.634731
O O16 0.230181 0.100649 0.084166
O O17 0.230184 0.000000 0.995434
O O18 0.093618 0.000000 0.086988
O O19 0.000000 0.145575 0.000000
#
# Coordination Sequence:
#
# PCOD9185575 Si02
#       8
#     8   8   8   8   8   8   8   8
#     4  11  21  36  55  86 118 150 189 237 287 344
#     4   9  19  35  55  80 114 154 194 235 283 340
#     4  11  22  38  60  87 114 152 188 234 297 344
#     4   9  18  34  57  83 114 152 194 239 287 334
#     4  10  19  34  57  83 112 149 195 244 287 328
#     4  11  22  35  55  86 115 151 191 235 285 340
#     4  10  22  40  61  86 115 147 191 241 288 346
#     4  10  19  34  58  84 110 146 191 239 284 334
#
# _framework density 18.188565000000001
#
# number of rings (size 3 to 8) (size 9 to 14) (size 15 to 20)
#    0.000    1.875    3.750    0.750    0.000    3.000 
#    0.000    0.625    0.000    1.125    0.000    0.000 
#    0.000    0.000    0.000    0.000    0.000    0.000 
#
# Total GULP energy -178248.391069 kJ/mol
# GULP energy per Si atom -5570.262221 kJ/mol
# Density = 1.814717 g / cm^3
# Si number density = 18.188565 Si / 1000 Ang^3
#
#
#
# Elastic Constant Matrix: (Units=GPa)
#
#
# Indices 1 2 3 4 5 6 
#
# 1 63.2259 19.5252 29.7236 0.0000 13.1136 0.0000
# 2 19.5252 99.5030 67.8628 0.0000 -12.7107 0.0000
# 3 29.7236 67.8628 97.0315 0.0000 -4.4171 0.0000
# 4 0.0000 0.0000 0.0000 22.5567 0.0000 -3.5515
# 5 13.1136 -12.7107 -4.4171 0.0000 26.7912 0.0000
# 6 0.0000 0.0000 0.0000 -3.5515 0.0000 15.1389
#
#
#
# Elastic Compliance Matrix: (Units=1/GPa)
#
#
# Indices 1 2 3 4 5 6 
#
# 1 0.021775 -0.001781 -0.005993 0.000000 -0.012491 0.000000
# 2 -0.001781 0.020739 -0.013573 0.000000 0.008473 0.000000
# 3 -0.005993 -0.013573 0.021638 0.000000 0.000061 0.000000
# 4 0.000000 0.000000 0.000000 0.046033 0.000000 0.010799
# 5 -0.012491 0.008473 0.000061 0.000000 0.047470 0.000000
# 6 0.000000 0.000000 0.000000 0.010799 0.000000 0.068589
#
#
# Mechanical properties :
#
#
# Convention : Reuss Voigt Hill
#
# Bulk Modulus (GPa) = 46.60653 54.88706 50.74680
# Shear Modulus (GPa) = 18.11001 22.40727 20.25864
#
# Velocity S-wave (km/s) = 3.15886 3.51371 3.34100
# Velocity P-wave (km/s) = 6.24374 6.83401 6.54553
#
# Compressibility (1/GPa) = 0.02145622
#
# Stress axis : x y z
#
# Youngs Moduli (GPa) = 45.92507 48.21805 46.21538
#
# Poissons Ratio (x) = 0.08587 0.27698
# Poissons Ratio (y) = 0.08179 0.62730
# Poissons Ratio (z) = 0.27524 0.65449
#
# Static dielectric constant tensor:
#      x y z
#    x 1.661260 0.000000 0.025470 
#    y 0.000000 1.613810 0.000000 
#    z 0.025470 0.000000 1.649980 
# 
# From -- ./inp_files/340127.got.cif
#   From: 2010.05.17/outbox.cif.g08.bks.cpg/sg12_171_cif.got.tgz:340127.got - 2010.06.03 13:09:07.
