data_PCOD9185698
_publ_section_title
;
Structure prediction by ZEFSAII (Michael W. Deem and Ramdas Pophale) SiO2 
 PCOD9185698
Probable space group: C 2/M
;
_chemical_formula_sum "Si O2"
_cell_formula_units_Z 48
_cell_length_a 29.929005
_cell_length_b 8.561531
_cell_length_c 8.237006
_cell_angle_alpha 90.000000
_cell_angle_beta 102.192359
_cell_angle_gamma 90.000000
_cell_volume 2063.027466
_symmetry_space_group_name_H-M "C 2/M"
_symmetry_group_IT_number 12
_symmetry_cell_setting 'monoclinic'
loop_
_space_group_symop_operation_xyz
x,y,z
-x,y,-z
-x,-y,-z
x,-y,z
1/2+x,1/2+y,z
1/2-x,1/2+y,-z
1/2-x,1/2-y,-z
1/2+x,1/2-y,z
loop_
_atom_site_type_symbol
_atom_site_label
_atom_site_fract_x
_atom_site_fract_y
_atom_site_fract_z
Si Si1 0.275335 0.688311 0.681065
Si Si2 0.472302 0.812127 0.315465
Si Si3 0.389369 0.316787 0.078271
Si Si4 0.940826 0.314485 0.805644
Si Si5 0.139078 0.811822 0.444035
Si Si6 0.191387 0.686922 0.802605
O O1 0.273937 0.500000 0.681058
O O2 0.250000 0.750000 0.500000
O O3 0.327638 0.729783 0.683576
O O4 0.243521 0.742576 0.806355
O O5 0.500000 0.774772 0.500000
O O6 0.424198 0.729821 0.249855
O O7 0.507547 0.768138 0.198160
O O8 0.465100 0.000000 0.306074
O O9 0.383622 0.500000 0.065493
O O10 0.339293 0.246844 0.073050
O O11 0.416366 0.259200 0.941260
O O12 0.940808 0.500000 0.825629
O O13 0.909052 0.266672 0.629649
O O14 0.163632 0.746478 0.622497
O O15 0.135305 0.000000 0.451285
O O16 0.191333 0.500000 0.807502
#
# Coordination Sequence:
#
# PCOD9185698 Si02
#       6
#     8   8   8   8   8   8
#     4   8  16  30  52  81 112 146 184 230 278 327
#     4  10  22  41  64  87 111 142 183 228 275 336
#     4  12  25  39  57  83 115 149 187 235 286 329
#     4  11  23  39  59  83 114 153 190 224 274 340
#     4  10  19  34  57  87 118 146 185 235 283 328
#     4  10  19  35  58  83 113 151 193 231 276 335
#
# _framework density 23.266777000000001
#
# number of rings (size 3 to 8) (size 9 to 14) (size 15 to 20)
#    0.000    1.833    0.000    4.500    0.000    6.333 
#    0.000    0.833    0.000    0.000    0.000    0.000 
#    0.000    0.000    0.000    0.000    0.000    0.000 
#
# Total GULP energy -134175.811963 kJ/mol
# GULP energy per Si atom -5590.658832 kJ/mol
# Density = 2.321382 g / cm^3
# Si number density = 23.266777 Si / 1000 Ang^3
#
#
#
# Elastic Constant Matrix: (Units=GPa)
#
#
# Indices 1 2 3 4 5 6 
#
# 1 146.9109 32.1919 10.7315 0.0000 -25.6305 0.0000
# 2 32.1919 55.1390 1.1426 0.0000 -20.4348 0.0000
# 3 10.7315 1.1426 75.1497 0.0000 -23.2208 0.0000
# 4 0.0000 0.0000 0.0000 94.9629 0.0000 -17.2988
# 5 -25.6305 -20.4348 -23.2208 0.0000 46.1700 0.0000
# 6 0.0000 0.0000 0.0000 -17.2988 0.0000 23.4127
#
#
#
# Elastic Compliance Matrix: (Units=1/GPa)
#
#
# Indices 1 2 3 4 5 6 
#
# 1 0.008118 -0.003723 -0.000260 0.000000 0.002728 0.000000
# 2 -0.003723 0.024039 0.003333 0.000000 0.010249 0.000000
# 3 -0.000260 0.003333 0.016226 0.000000 0.009492 0.000000
# 4 0.000000 0.000000 0.000000 0.012168 0.000000 0.008991
# 5 0.002728 0.010249 0.009492 0.000000 0.032484 0.000000
# 6 0.000000 0.000000 0.000000 0.008991 0.000000 0.049355
#
#
# Mechanical properties :
#
#
# Convention : Reuss Voigt Hill
#
# Bulk Modulus (GPa) = 21.23879 40.59238 30.91559
# Shear Modulus (GPa) = 31.37107 48.45138 39.91122
#
# Velocity S-wave (km/s) = 3.67593 4.56831 4.14620
# Velocity P-wave (km/s) = 5.21199 6.73130 6.01977
#
# Compressibility (1/GPa) = 0.04708367
#
# Stress axis : x y z
#
# Youngs Moduli (GPa) = 123.19034 41.59923 61.62903
#
# Poissons Ratio (x) = 0.15487 0.01600
# Poissons Ratio (y) = 0.45862 -0.20542
# Poissons Ratio (z) = 0.03199 -0.13866
#
# Static dielectric constant tensor:
#      x y z
#    x 1.992310 0.000000 0.082220 
#    y 0.000000 1.764030 0.000000 
#    z 0.082220 0.000000 2.068410 
# 
# From -- ./inp_files/108666.got.cif
#   From: 2010.05.17/outbox.cif.g08.bks.cpg/sg12_55_cif.got.tgz:108666.got - 2010.06.03 13:09:07.
