data_PCOD9185840
_publ_section_title
;
Structure prediction by ZEFSAII (Michael W. Deem and Ramdas Pophale) SiO2 
 PCOD9185840
Probable space group: C 2/M
;
_chemical_formula_sum "Si O2"
_cell_formula_units_Z 64
_cell_length_a 24.833358
_cell_length_b 8.856333
_cell_length_c 30.156805
_cell_angle_alpha 90.000000
_cell_angle_beta 33.302339
_cell_angle_gamma 90.000000
_cell_volume 3641.598811
_symmetry_space_group_name_H-M "C 2/M"
_symmetry_group_IT_number 12
_symmetry_cell_setting 'monoclinic'
loop_
_space_group_symop_operation_xyz
x,y,z
-x,y,-z
-x,-y,-z
x,-y,z
1/2+x,1/2+y,z
1/2-x,1/2+y,-z
1/2-x,1/2-y,-z
1/2+x,1/2-y,z
loop_
_atom_site_type_symbol
_atom_site_label
_atom_site_fract_x
_atom_site_fract_y
_atom_site_fract_z
Si Si1 0.987687 0.320528 0.881134
Si Si2 0.144626 0.181184 0.287525
Si Si3 0.311738 0.679799 0.230825
Si Si4 0.945239 0.679564 0.266393
Si Si5 0.964651 0.181674 0.474779
Si Si6 0.116669 0.819451 0.203429
Si Si7 0.745093 0.179845 0.376971
Si Si8 0.221055 0.819742 0.972394
O O1 0.976456 0.500000 0.894576
O O2 0.082956 0.260416 0.841218
O O3 0.008983 0.291282 0.814157
O O4 0.888725 0.235679 0.962345
O O5 0.239222 0.260911 0.243127
O O6 0.128669 0.215745 0.247011
O O7 0.049221 0.224593 0.381957
O O8 0.156772 0.000000 0.283863
O O9 0.324599 0.500000 0.219241
O O10 0.262677 0.714815 0.312577
O O11 0.944676 0.500000 0.273531
O O12 0.835281 0.743464 0.340497
O O13 0.014214 0.759755 0.254477
O O14 0.860544 0.257450 0.537058
O O15 0.000000 0.223395 0.500000
O O16 0.952896 0.000000 0.481740
O O17 0.202443 0.741622 0.116172
O O18 0.122118 0.000000 0.193863
O O19 0.749700 0.000000 0.379162
O O20 0.226034 0.000000 0.971516
O O21 0.250000 0.750000 0.000000
#
# Coordination Sequence:
#
# PCOD9185840 Si02
#       8
#     8   8   8   8   8   8   8   8
#     4  10  20  35  58  86 115 146 186 237 286 334
#     4  10  22  39  58  83 115 155 192 232 286 343
#     4  10  20  34  55  84 117 151 187 233 285 339
#     4  10  20  35  57  83 113 149 190 231 283 341
#     4  10  19  34  58  84 113 147 192 238 281 335
#     4  11  23  39  59  83 117 153 190 234 285 341
#     4  10  20  33  54  85 117 146 186 237 289 334
#     4  12  23  37  59  87 117 148 190 236 282 334
#
# _framework density 17.574697
#
# number of rings (size 3 to 8) (size 9 to 14) (size 15 to 20)
#    0.000    1.625    2.500    3.000    0.000    3.750 
#    0.000    1.250    0.000    3.750    0.000    0.000 
#    0.000    0.000    0.000    0.000    0.000    0.000 
#
# Total GULP energy -178792.125853 kJ/mol
# GULP energy per Si atom -5587.253933 kJ/mol
# Density = 1.753470 g / cm^3
# Si number density = 17.574697 Si / 1000 Ang^3
#
#
#
# Elastic Constant Matrix: (Units=GPa)
#
#
# Indices 1 2 3 4 5 6 
#
# 1 139.3644 74.9802 78.8005 -0.0059 -19.6464 0.0114
# 2 74.9802 75.1075 56.5947 -0.0046 -7.6917 -0.0054
# 3 78.8005 56.5947 117.4868 -0.0019 -16.1939 0.0007
# 4 -0.0059 -0.0046 -0.0019 30.1169 0.0009 -9.2065
# 5 -19.6464 -7.6917 -16.1939 0.0009 31.6129 -0.0047
# 6 0.0114 -0.0054 0.0007 -9.2065 -0.0047 29.5642
#
#
#
# Elastic Compliance Matrix: (Units=1/GPa)
#
#
# Indices 1 2 3 4 5 6 
#
# 1 0.018120 -0.014033 -0.004639 -0.000002 0.005470 -0.000009
# 2 -0.014033 0.031769 -0.006486 0.000006 -0.004314 0.000012
# 3 -0.004639 -0.006486 0.015206 -0.000001 0.003328 0.000001
# 4 -0.000002 0.000006 -0.000001 0.036697 0.000000 0.011428
# 5 0.005470 -0.004314 0.003328 0.000000 0.035687 0.000003
# 6 -0.000009 0.000012 0.000001 0.011428 0.000003 0.037383
#
#
# Mechanical properties :
#
#
# Convention : Reuss Voigt Hill
#
# Bulk Modulus (GPa) = 67.66595 83.63437 75.65016
# Shear Modulus (GPa) = 21.72912 26.36436 24.04674
#
# Velocity S-wave (km/s) = 3.52004 3.87736 3.70301
# Velocity P-wave (km/s) = 7.42337 8.23021 7.83718
#
# Compressibility (1/GPa) = 0.01477848
#
# Stress axis : x y z
#
# Youngs Moduli (GPa) = 55.18825 31.47736 65.76167
#
# Poissons Ratio (x) = 0.44172 0.30510
# Poissons Ratio (y) = 0.77446 0.42652
# Poissons Ratio (z) = 0.25604 0.20416
#
# Static dielectric constant tensor:
#      x y z
#    x 1.576920 0.000000 0.000040 
#    y 0.000000 1.582770 0.000000 
#    z 0.000040 0.000000 1.580780 
# 
# From -- ./inp_files/287567.got.cif
#   From: 2010.05.17/outbox.cif.g08.bks.cpg/sg12_144_cif.got.tgz:287567.got - 2010.06.03 13:09:07.
