data_PCOD9185777
_publ_section_title
;
Structure prediction by ZEFSAII (Michael W. Deem and Ramdas Pophale) SiO2 
 PCOD9185777
Probable space group: C 2/M
;
_chemical_formula_sum "Si O2"
_cell_formula_units_Z 40
_cell_length_a 14.211954
_cell_length_b 31.992241
_cell_length_c 8.398499
_cell_angle_alpha 90.000000
_cell_angle_beta 29.089330
_cell_angle_gamma 90.000000
_cell_volume 1856.481631
_symmetry_space_group_name_H-M "C 2/M"
_symmetry_group_IT_number 12
_symmetry_cell_setting 'monoclinic'
loop_
_space_group_symop_operation_xyz
x,y,z
-x,y,-z
-x,-y,-z
x,-y,z
1/2+x,1/2+y,z
1/2-x,1/2+y,-z
1/2-x,1/2-y,-z
1/2+x,1/2-y,z
loop_
_atom_site_type_symbol
_atom_site_label
_atom_site_fract_x
_atom_site_fract_y
_atom_site_fract_z
Si Si1 0.295124 0.197741 0.132033
Si Si2 0.806359 0.430953 0.386305
Si Si3 0.546507 0.500000 0.616240
Si Si4 0.267142 0.836558 0.505751
Si Si5 0.738163 0.205517 0.161734
Si Si6 0.162679 0.500000 0.392177
O O1 0.202514 0.187257 0.440088
O O2 0.314566 0.247833 0.084549
O O3 0.501333 0.174070 0.829542
O O4 0.199685 0.187556 0.102199
O O5 0.666904 0.458966 0.484568
O O6 0.729279 0.385478 0.543273
O O7 0.848527 0.459484 0.478024
O O8 0.000000 0.424377 0.000000
O O9 0.500000 0.500000 0.500000
O O10 0.363160 0.500000 0.002360
O O11 0.201167 0.821162 0.775941
O O12 0.500000 0.208302 0.500000
O O13 0.000000 0.500000 0.500000
#
# Coordination Sequence:
#
# PCOD9185777 Si02
#       6
#     8   8   4   8   8   4
#     4   9  17  33  52  78 115 157 215 260 311 368
#     4  11  21  40  68  99 135 169 215 268 330 397
#     4  11  24  47  70  96 132 167 212 269 326 406
#     4  10  19  34  58  82 120 165 210 267 318 371
#     4   9  18  31  54  79 113 168 216 266 308 371
#     4  11  24  43  74  98 126 171 208 257 338 412
#
# _framework density 21.546132
#
# number of rings (size 3 to 8) (size 9 to 14) (size 15 to 20)
#    0.000    2.000    2.000    4.200    0.000    2.400 
#    3.600    1.000   30.800    0.000    0.000    0.000 
#    0.000    0.000    0.000    0.000    0.000    0.000 
#
# Total GULP energy -111744.218244 kJ/mol
# GULP energy per Si atom -5587.210912 kJ/mol
# Density = 2.149709 g / cm^3
# Si number density = 21.546132 Si / 1000 Ang^3
#
#
#
# Elastic Constant Matrix: (Units=GPa)
#
#
# Indices 1 2 3 4 5 6 
#
# 1 180.9143 81.5694 41.1499 0.0000 51.8779 0.0000
# 2 81.5694 134.7435 21.9794 0.0000 30.3373 0.0000
# 3 41.1499 21.9794 81.5846 0.0000 42.3861 0.0000
# 4 0.0000 0.0000 0.0000 62.0242 0.0000 11.1382
# 5 51.8779 30.3373 42.3861 0.0000 64.5307 0.0000
# 6 0.0000 0.0000 0.0000 11.1382 0.0000 2.1683
#
#
#
# Elastic Compliance Matrix: (Units=1/GPa)
#
#
# Indices 1 2 3 4 5 6 
#
# 1 0.008978 -0.004244 -0.001020 0.000000 -0.004553 0.000000
# 2 -0.004244 0.010311 0.000165 0.000000 -0.001544 0.000000
# 3 -0.001020 0.000165 0.018735 0.000000 -0.011563 0.000000
# 4 0.000000 0.000000 0.000000 0.207934 0.000000 -1.068118
# 5 -0.004553 -0.001544 -0.011563 0.000000 0.027478 0.000000
# 6 0.000000 0.000000 0.000000 -1.068118 0.000000 5.947905
#
#
# Mechanical properties :
#
#
# Convention : Reuss Voigt Hill
#
# Bulk Modulus (GPa) = 35.93643 76.29330 56.11487
# Shear Modulus (GPa) = 0.80118 42.58089 21.69103
#
# Velocity S-wave (km/s) = 0.61045 4.45034 3.17634
# Velocity P-wave (km/s) = 4.14872 7.86725 6.28910
#
# Compressibility (1/GPa) = 0.02782691
#
# Stress axis : x y z
#
# Youngs Moduli (GPa) = 111.37762 96.98056 53.37689
#
# Poissons Ratio (x) = 0.41157 0.05443
# Poissons Ratio (y) = 0.47266 -0.00880
# Poissons Ratio (z) = 0.11358 -0.01598
#
# Static dielectric constant tensor:
#      x y z
#    x 1.780620 0.000000 -0.008510 
#    y 0.000000 1.582790 0.000000 
#    z -0.008510 0.000000 1.865870 
# 
# From -- ./inp_files/66199.got.cif
#   From: 2010.05.17/outbox.cif.g08.bks.cpg/sg12_34_cif.got.tgz:66199.got - 2010.06.03 13:09:07.
