data_PCOD9185612
_publ_section_title
;
Structure prediction by ZEFSAII (Michael W. Deem and Ramdas Pophale) SiO2 
 PCOD9185612
Probable space group: C 2/M
;
_chemical_formula_sum "Si O2"
_cell_formula_units_Z 64
_cell_length_a 14.638939
_cell_length_b 9.462821
_cell_length_c 30.296994
_cell_angle_alpha 90.000000
_cell_angle_beta 49.264636
_cell_angle_gamma 90.000000
_cell_volume 3180.132581
_symmetry_space_group_name_H-M "C 2/M"
_symmetry_group_IT_number 12
_symmetry_cell_setting 'monoclinic'
loop_
_space_group_symop_operation_xyz
x,y,z
-x,y,-z
-x,-y,-z
x,-y,z
1/2+x,1/2+y,z
1/2-x,1/2+y,-z
1/2-x,1/2-y,-z
1/2+x,1/2-y,z
loop_
_atom_site_type_symbol
_atom_site_label
_atom_site_fract_x
_atom_site_fract_y
_atom_site_fract_z
Si Si1 0.008897 0.338219 0.726529
Si Si2 0.047711 0.668277 0.935809
Si Si3 0.329044 0.332621 0.839397
Si Si4 0.861817 0.332946 0.406376
Si Si5 0.304086 0.836876 0.250542
Si Si6 0.636562 0.165564 0.454359
Si Si7 0.006757 0.831345 0.864539
Si Si8 0.612045 0.835905 0.360885
O O1 0.968002 0.500000 0.734481
O O2 0.073309 0.297159 0.660782
O O3 0.108211 0.334541 0.734201
O O4 0.898436 0.244613 0.778017
O O5 0.034465 0.500000 0.930900
O O6 0.189534 0.704807 0.888503
O O7 0.981771 0.759633 0.919334
O O8 0.000000 0.694467 0.000000
O O9 0.337156 0.500000 0.829430
O O10 0.402084 0.302378 0.861617
O O11 0.834324 0.500000 0.414918
O O12 0.739631 0.246172 0.448162
O O13 0.968967 0.306193 0.407195
O O14 0.373747 0.744320 0.192474
O O15 0.181535 0.765094 0.305571
O O16 0.289239 0.000000 0.241300
O O17 0.500000 0.220788 0.500000
O O18 0.665484 0.176168 0.392981
O O19 0.634860 0.000000 0.467492
O O20 0.022377 0.000000 0.862940
O O21 0.624942 0.000000 0.342856
#
# Coordination Sequence:
#
# PCOD9185612 Si02
#       8
#     8   8   8   8   8   8   8   8
#     4   9  18  33  54  81 113 143 179 230 283 336
#     4  10  22  40  59  82 115 153 193 236 282 336
#     4   9  20  37  56  81 112 149 188 228 281 338
#     4  10  21  37  56  83 113 146 188 233 284 337
#     4  10  19  34  57  84 114 146 185 229 281 341
#     4  10  22  40  59  81 114 154 194 236 283 336
#     4  10  21  37  57  83 114 147 188 234 281 335
#     4  10  21  36  56  83 115 149 186 233 286 335
#
# _framework density 20.124948
#
# number of rings (size 3 to 8) (size 9 to 14) (size 15 to 20)
#    0.000    2.250    1.250    0.750    1.750    4.000 
#    0.000    0.000    0.000    0.000    0.000    0.000 
#    0.000    0.000    0.000    0.000    0.000    0.000 
#
# Total GULP energy -178768.886255 kJ/mol
# GULP energy per Si atom -5586.527695 kJ/mol
# Density = 2.007914 g / cm^3
# Si number density = 20.124948 Si / 1000 Ang^3
#
#
#
# Elastic Constant Matrix: (Units=GPa)
#
#
# Indices 1 2 3 4 5 6 
#
# 1 80.3082 32.0972 16.8232 0.0000 -5.2824 0.0000
# 2 32.0972 44.5961 21.7498 0.0000 -1.9491 0.0000
# 3 16.8232 21.7498 52.8086 0.0000 -1.1261 0.0000
# 4 0.0000 0.0000 0.0000 30.6002 0.0000 -5.3974
# 5 -5.2824 -1.9491 -1.1261 0.0000 33.9771 0.0000
# 6 0.0000 0.0000 0.0000 -5.3974 0.0000 19.4645
#
#
#
# Elastic Compliance Matrix: (Units=1/GPa)
#
#
# Indices 1 2 3 4 5 6 
#
# 1 0.017627 -0.012364 -0.000480 0.000000 0.002015 0.000000
# 2 -0.012364 0.036784 -0.011215 0.000000 -0.000184 0.000000
# 3 -0.000480 -0.011215 0.023710 0.000000 0.000068 0.000000
# 4 0.000000 0.000000 0.000000 0.034360 0.000000 0.009528
# 5 0.002015 -0.000184 0.000068 0.000000 0.029737 0.000000
# 6 0.000000 0.000000 0.000000 0.009528 0.000000 0.054018
#
#
# Mechanical properties :
#
#
# Convention : Reuss Voigt Hill
#
# Bulk Modulus (GPa) = 33.33118 35.45038 34.39078
# Shear Modulus (GPa) = 19.65761 23.94453 21.80107
#
# Velocity S-wave (km/s) = 3.12874 3.45308 3.29490
# Velocity P-wave (km/s) = 5.44519 5.79239 5.62147
#
# Compressibility (1/GPa) = 0.03000193
#
# Stress axis : x y z
#
# Youngs Moduli (GPa) = 56.73142 27.18567 42.17698
#
# Poissons Ratio (x) = 0.33614 0.02024
# Poissons Ratio (y) = 0.70145 0.47301
# Poissons Ratio (z) = 0.02723 0.30488
#
# Static dielectric constant tensor:
#      x y z
#    x 1.741670 0.000000 0.021980 
#    y 0.000000 1.674820 0.000000 
#    z 0.021980 0.000000 1.704890 
# 
# From -- ./inp_files/375380.got.cif
#   From: 2010.05.17/outbox.cif.g08.bks.cpg/sg12_188_cif.got.tgz:375380.got - 2010.06.03 13:09:07.
