data_PCOD9185930
_publ_section_title
;
Structure prediction by ZEFSAII (Michael W. Deem and Ramdas Pophale) SiO2 
 PCOD9185930
Probable space group: C 2/M
;
_chemical_formula_sum "Si O2"
_cell_formula_units_Z 56
_cell_length_a 11.598116
_cell_length_b 27.151671
_cell_length_c 18.217047
_cell_angle_alpha 90.000000
_cell_angle_beta 29.375978
_cell_angle_gamma 90.000000
_cell_volume 2814.070915
_symmetry_space_group_name_H-M "C 2/M"
_symmetry_group_IT_number 12
_symmetry_cell_setting 'monoclinic'
loop_
_space_group_symop_operation_xyz
x,y,z
-x,y,-z
-x,-y,-z
x,-y,z
1/2+x,1/2+y,z
1/2-x,1/2+y,-z
1/2-x,1/2-y,-z
1/2+x,1/2-y,z
loop_
_atom_site_type_symbol
_atom_site_label
_atom_site_fract_x
_atom_site_fract_y
_atom_site_fract_z
Si Si1 0.136043 0.299785 0.220751
Si Si2 0.218457 0.186789 0.146270
Si Si3 0.025412 0.944285 0.153488
Si Si4 0.004750 0.911140 0.324836
Si Si5 0.752643 0.126211 0.597673
Si Si6 0.064839 0.445592 0.822957
Si Si7 0.022541 0.840952 0.096009
O O1 0.135092 0.241483 0.211707
O O2 0.278109 0.313448 0.215503
O O3 0.887194 0.326135 0.351374
O O4 0.297530 0.323890 0.066844
O O5 0.096703 0.144619 0.261864
O O6 0.142033 0.174633 0.105764
O O7 0.500000 0.184339 0.000000
O O8 0.929981 0.932342 0.287742
O O9 0.968038 0.899316 0.130829
O O10 0.963860 0.000000 0.165051
O O11 0.310037 0.941211 0.000849
O O12 0.228255 0.940081 0.232864
O O13 0.810493 0.908140 0.495764
O O14 0.000000 0.137817 0.500000
O O15 0.396256 0.095806 0.259868
O O16 0.919430 0.500000 0.219630
#
# Coordination Sequence:
#
# PCOD9185930 Si02
#       7
#     8   8   8   8   8   8   8
#     4  11  22  39  61  85 119 160 198 243 297 343
#     4  11  22  35  63  91 117 154 201 248 292 342
#     4  10  19  35  59  85 115 151 198 246 292 345
#     4  10  21  34  53  86 121 155 190 243 297 351
#     4  10  23  38  57  84 125 160 193 241 294 360
#     4  10  19  34  58  86 117 154 199 248 292 343
#     4  10  21  38  60  92 117 149 200 254 286 347
#
# _framework density 19.899996000000002
#
# number of rings (size 3 to 8) (size 9 to 14) (size 15 to 20)
#    0.000    1.714    2.857    3.000    2.000    4.857 
#    0.000    5.000    0.000    0.857    0.000    0.000 
#    0.000    0.000    0.000    0.000    0.000    0.000 
#
# Total GULP energy -156327.527929 kJ/mol
# GULP energy per Si atom -5583.125997 kJ/mol
# Density = 1.985470 g / cm^3
# Si number density = 19.899996 Si / 1000 Ang^3
#
#
#
# Elastic Constant Matrix: (Units=GPa)
#
#
# Indices 1 2 3 4 5 6 
#
# 1 60.3182 22.5169 15.5610 -0.0030 -1.1540 0.0015
# 2 22.5169 129.0399 4.1062 0.0113 -12.1878 -0.0092
# 3 15.5610 4.1062 35.5035 0.0276 1.6414 -0.0398
# 4 -0.0030 0.0113 0.0276 14.0145 0.0025 -0.2339
# 5 -1.1540 -12.1878 1.6414 0.0025 21.3583 0.0016
# 6 0.0015 -0.0092 -0.0398 -0.2339 0.0016 18.6392
#
#
#
# Elastic Compliance Matrix: (Units=1/GPa)
#
#
# Indices 1 2 3 4 5 6 
#
# 1 0.019937 -0.003224 -0.008360 0.000023 -0.000120 -0.000021
# 2 -0.003224 0.008761 0.000177 -0.000009 0.004811 0.000004
# 3 -0.008360 0.000177 0.031940 -0.000063 -0.002805 0.000068
# 4 0.000023 -0.000009 -0.000063 0.071370 -0.000007 0.000896
# 5 -0.000120 0.004811 -0.002805 -0.000007 0.049775 -0.000008
# 6 -0.000021 0.000004 0.000068 0.000896 -0.000008 0.053662
#
#
# Mechanical properties :
#
#
# Convention : Reuss Voigt Hill
#
# Bulk Modulus (GPa) = 26.43807 34.35887 30.39847
# Shear Modulus (GPa) = 18.45939 22.98089 20.72014
#
# Velocity S-wave (km/s) = 3.04897 3.40195 3.23028
# Velocity P-wave (km/s) = 5.07043 5.72139 5.40572
#
# Compressibility (1/GPa) = 0.03782424
#
# Stress axis : x y z
#
# Youngs Moduli (GPa) = 50.15872 114.14285 31.30913
#
# Poissons Ratio (x) = 0.36802 0.26174
# Poissons Ratio (y) = 0.16172 -0.00556
# Poissons Ratio (z) = 0.41931 -0.02026
#
# Static dielectric constant tensor:
#      x y z
#    x 1.706230 0.000000 0.010200 
#    y 0.000000 1.708930 0.000010 
#    z 0.010200 0.000010 1.698390 
# 
# From -- ./inp_files/307414.got.cif
#   From: 2010.05.17/outbox.cif.g08.bks.cpg/sg12_154_cif.got.tgz:307414.got - 2010.06.03 13:09:07.
