data_PCOD9185180
_publ_section_title
;
Structure prediction by ZEFSAII (Michael W. Deem and Ramdas Pophale) SiO2 
 PCOD9185180
Probable space group: C 2/M
;
_chemical_formula_sum "Si O2"
_cell_formula_units_Z 64
_cell_length_a 31.549662
_cell_length_b 7.655290
_cell_length_c 14.008943
_cell_angle_alpha 90.000000
_cell_angle_beta 121.726168
_cell_angle_gamma 90.000000
_cell_volume 2877.877558
_symmetry_space_group_name_H-M "C 2/M"
_symmetry_group_IT_number 12
_symmetry_cell_setting 'monoclinic'
loop_
_space_group_symop_operation_xyz
x,y,z
-x,y,-z
-x,-y,-z
x,-y,z
1/2+x,1/2+y,z
1/2-x,1/2+y,-z
1/2-x,1/2-y,-z
1/2+x,1/2-y,z
loop_
_atom_site_type_symbol
_atom_site_label
_atom_site_fract_x
_atom_site_fract_y
_atom_site_fract_z
Si Si1 0.217949 0.708742 0.054844
Si Si2 0.482665 0.704731 0.196896
Si Si3 0.544405 0.286042 0.623994
Si Si4 0.882113 0.710597 0.979582
Si Si5 0.125553 0.201490 0.583117
Si Si6 0.334783 0.786654 0.720741
Si Si7 0.089812 0.297476 0.346569
Si Si8 0.264991 0.286842 0.312725
O O1 0.215286 0.500000 0.056714
O O2 0.245783 0.764679 0.184649
O O3 0.250000 0.750000 0.000000
O O4 0.160739 0.772273 0.996448
O O5 0.492123 0.500000 0.218460
O O6 0.465517 0.774214 0.280463
O O7 0.436977 0.729470 0.071381
O O8 0.535927 0.784541 0.233818
O O9 0.500000 0.234819 0.500000
O O10 0.545766 0.500000 0.626324
O O11 0.595974 0.222412 0.637775
O O12 0.882989 0.500000 0.982011
O O13 0.862917 0.763316 0.852069
O O14 0.089607 0.206709 0.448994
O O15 0.178515 0.277093 0.613029
O O16 0.135785 0.000000 0.620187
O O17 0.366525 0.724365 0.668575
O O18 0.277468 0.728357 0.663303
O O19 0.335320 0.000000 0.718450
O O20 0.099980 0.500000 0.377594
O O21 0.264709 0.500000 0.318132
#
# Coordination Sequence:
#
# PCOD9185180 Si02
#       8
#     8   8   8   8   8   8   8   8
#     4   9  18  32  52  78 108 141 179 220 259 311
#     4  11  22  36  56  81 108 138 179 223 265 318
#     4   9  17  32  52  73 103 140 173 209 257 316
#     4   9  19  37  56  77 107 142 180 220 265 314
#     4  10  19  34  56  80 105 138 180 220 260 313
#     4   8  17  36  57  76 104 143 180 216 261 320
#     4  11  22  36  55  78 106 140 179 221 270 320
#     4   8  16  32  55  78 102 139 184 217 251 313
#
# _framework density 22.238609
#
# number of rings (size 3 to 8) (size 9 to 14) (size 15 to 20)
#    0.000    2.625    1.250    2.250    1.750    1.500 
#    0.000    6.250    0.000    3.000    0.000    0.000 
#    0.000    0.000    0.000    0.000    0.000    0.000 
#
# Total GULP energy -178594.580218 kJ/mol
# GULP energy per Si atom -5581.080632 kJ/mol
# Density = 2.218799 g / cm^3
# Si number density = 22.238609 Si / 1000 Ang^3
#
#
#
# Elastic Constant Matrix: (Units=GPa)
#
#
# Indices 1 2 3 4 5 6 
#
# 1 130.8626 6.6844 3.3247 0.0000 8.2705 0.0000
# 2 6.6844 43.3545 -2.0197 0.0000 -0.6245 0.0000
# 3 3.3247 -2.0197 17.8937 0.0000 17.3219 0.0000
# 4 0.0000 0.0000 0.0000 11.3244 0.0000 1.4946
# 5 8.2705 -0.6245 17.3219 0.0000 40.2704 0.0000
# 6 0.0000 0.0000 0.0000 1.4946 0.0000 13.3437
#
#
#
# Elastic Compliance Matrix: (Units=1/GPa)
#
#
# Indices 1 2 3 4 5 6 
#
# 1 0.007807 -0.001228 -0.000032 0.000000 -0.001609 0.000000
# 2 -0.001228 0.023421 0.003900 0.000000 -0.001062 0.000000
# 3 -0.000032 0.003900 0.096412 0.000000 -0.041403 0.000000
# 4 0.000000 0.000000 0.000000 0.089630 0.000000 -0.010039
# 5 -0.001609 -0.001062 -0.041403 0.000000 0.042955 0.000000
# 6 0.000000 0.000000 0.000000 -0.010039 0.000000 0.076066
#
#
# Mechanical properties :
#
#
# Convention : Reuss Voigt Hill
#
# Bulk Modulus (GPa) = 7.52335 23.12106 15.32221
# Shear Modulus (GPa) = 13.32203 25.26247 19.29225
#
# Velocity S-wave (km/s) = 2.45020 3.37408 2.94855
# Velocity P-wave (km/s) = 3.37565 5.05950 4.30079
#
# Compressibility (1/GPa) = 0.13291945
#
# Stress axis : x y z
#
# Youngs Moduli (GPa) = 128.09315 42.69592 10.37217
#
# Poissons Ratio (x) = 0.05244 0.00033
# Poissons Ratio (y) = 0.15734 -0.04045
# Poissons Ratio (z) = 0.00409 -0.16651
#
# Static dielectric constant tensor:
#      x y z
#    x 1.857190 0.000000 0.017030 
#    y 0.000000 1.832330 0.000000 
#    z 0.017030 0.000000 1.780340 
# 
# From -- ./inp_files/249254.got.cif
#   From: 2010.05.17/outbox.cif.g08.bks.cpg/sg12_125_cif.got.tgz:249254.got - 2010.06.03 13:09:07.
