data_PCOD9185918
_publ_section_title
;
Structure prediction by ZEFSAII (Michael W. Deem and Ramdas Pophale) SiO2 
 PCOD9185918
Probable space group: C 2/M
;
_chemical_formula_sum "Si O2"
_cell_formula_units_Z 64
_cell_length_a 33.305754
_cell_length_b 7.642734
_cell_length_c 15.525683
_cell_angle_alpha 90.000000
_cell_angle_beta 132.859200
_cell_angle_gamma 90.000000
_cell_volume 2896.936446
_symmetry_space_group_name_H-M "C 2/M"
_symmetry_group_IT_number 12
_symmetry_cell_setting 'monoclinic'
loop_
_space_group_symop_operation_xyz
x,y,z
-x,y,-z
-x,-y,-z
x,-y,z
1/2+x,1/2+y,z
1/2-x,1/2+y,-z
1/2-x,1/2-y,-z
1/2+x,1/2-y,z
loop_
_atom_site_type_symbol
_atom_site_label
_atom_site_fract_x
_atom_site_fract_y
_atom_site_fract_z
Si Si1 0.426240 0.714375 0.255688
Si Si2 0.788542 0.709168 0.476214
Si Si3 0.746322 0.707764 0.231692
Si Si4 0.558940 0.799820 0.058940
Si Si5 0.952036 0.214171 0.603192
Si Si6 0.636770 0.288609 0.665146
Si Si7 0.130198 0.204638 0.000844
Si Si8 0.093429 0.799147 0.289411
O O1 0.426872 0.500000 0.257014
O O2 0.489812 0.767311 0.350903
O O3 0.391694 0.770002 0.288137
O O4 0.398889 0.776495 0.126835
O O5 0.796190 0.500000 0.480400
O O6 0.750000 0.750000 0.500000
O O7 0.761739 0.776609 0.348897
O O8 0.847162 0.791562 0.580820
O O9 0.737451 0.500000 0.229783
O O10 0.800488 0.733194 0.253802
O O11 0.689814 0.781049 0.111209
O O12 0.591198 0.715618 0.027304
O O13 0.593038 0.794194 0.197279
O O14 0.549298 0.000000 0.018562
O O15 0.500000 0.722775 0.000000
O O16 0.901093 0.271996 0.470065
O O17 0.946380 0.272231 0.694199
O O18 0.950379 0.000000 0.602875
O O19 0.635947 0.500000 0.662702
O O20 0.138856 0.000000 0.994058
O O21 0.078770 0.000000 0.250153
#
# Coordination Sequence:
#
# PCOD9185918 Si02
#       8
#     8   8   8   8   8   8   8   8
#     4   9  18  33  57  86 113 145 191 246 295 338
#     4  11  22  36  55  80 112 150 192 240 293 346
#     4  10  22  38  55  79 116 154 189 236 291 346
#     4  11  24  40  58  85 120 156 192 236 291 348
#     4   9  17  31  54  86 117 144 184 239 294 348
#     4  10  19  34  58  86 114 148 191 240 292 346
#     4  10  21  39  60  83 113 154 201 243 286 343
#     4  11  21  35  58  86 113 148 193 237 289 348
#
# _framework density 22.092305
#
# number of rings (size 3 to 8) (size 9 to 14) (size 15 to 20)
#    0.000    1.875    1.250    3.000    0.000    6.000 
#    0.000    0.625    0.000    3.000    0.000    0.000 
#    0.000    0.000    0.000    0.000    0.000    0.000 
#
# Total GULP energy -178839.618422 kJ/mol
# GULP energy per Si atom -5588.738076 kJ/mol
# Density = 2.204202 g / cm^3
# Si number density = 22.092305 Si / 1000 Ang^3
#
#
#
# Elastic Constant Matrix: (Units=GPa)
#
#
# Indices 1 2 3 4 5 6 
#
# 1 115.9232 -17.7680 26.7372 0.0000 -0.7846 0.0000
# 2 -17.7680 42.5292 -1.1838 0.0000 0.2092 0.0001
# 3 26.7372 -1.1838 95.0560 0.0000 4.4911 0.0000
# 4 0.0000 0.0000 0.0000 1.9328 0.0000 2.2097
# 5 -0.7846 0.2092 4.4911 0.0000 40.8273 0.0000
# 6 0.0000 0.0001 0.0000 2.2097 0.0000 -0.0018
#
#
#
# Elastic Compliance Matrix: (Units=1/GPa)
#
#
# Indices 1 2 3 4 5 6 
#
# 1 0.009885 0.004051 -0.002752 0.000000 0.000472 0.000000
# 2 0.004051 0.025182 -0.000828 -0.000001 0.000040 0.000001
# 3 -0.002752 -0.000828 0.011345 0.000000 -0.001297 0.000000
# 4 0.000000 -0.000001 0.000000 0.000378 0.000000 0.452217
# 5 0.000472 0.000040 -0.001297 0.000000 0.024645 0.000000
# 6 0.000000 0.000001 0.000000 0.452217 0.000000 -0.395541
#
#
# Mechanical properties :
#
#
# Convention : Reuss Voigt Hill
#
# Bulk Modulus (GPa) = 21.11716 29.89769 25.50742
# Shear Modulus (GPa) = -16.16752 24.93319 4.38283
#
# Velocity S-wave (km/s) = -2.70815 3.36310 1.41003
# Velocity P-wave (km/s) = 0.44653 5.35192 3.77118
#
# Compressibility (1/GPa) = 0.04735485
#
# Stress axis : x y z
#
# Youngs Moduli (GPa) = 101.16000 39.71016 88.14262
#
# Poissons Ratio (x) = -0.16087 0.24260
# Poissons Ratio (y) = -0.40980 0.07296
# Poissons Ratio (z) = 0.27843 0.03287
#
# Static dielectric constant tensor:
#      x y z
#    x 1.796950 0.000000 -0.009600 
#    y 0.000000 1.910090 0.000000 
#    z -0.009600 0.000000 1.829370 
# 
# From -- ./inp_files/250095.got.cif
#   From: 2010.05.17/outbox.cif.g08.bks.cpg/sg12_126_cif.got.tgz:250095.got - 2010.06.03 13:09:07.
