data_PCOD9185719
_publ_section_title
;
Structure prediction by ZEFSAII (Michael W. Deem and Ramdas Pophale) SiO2 
 PCOD9185719
Probable space group: C 2/M
;
_chemical_formula_sum "Si O2"
_cell_formula_units_Z 58
_cell_length_a 20.323237
_cell_length_b 7.295317
_cell_length_c 27.346053
_cell_angle_alpha 90.000000
_cell_angle_beta 31.737418
_cell_angle_gamma 90.000000
_cell_volume 2132.749664
_symmetry_space_group_name_H-M "C 2/M"
_symmetry_group_IT_number 12
_symmetry_cell_setting 'monoclinic'
loop_
_space_group_symop_operation_xyz
x,y,z
-x,y,-z
-x,-y,-z
x,-y,z
1/2+x,1/2+y,z
1/2-x,1/2+y,-z
1/2-x,1/2-y,-z
1/2+x,1/2-y,z
loop_
_atom_site_type_symbol
_atom_site_label
_atom_site_fract_x
_atom_site_fract_y
_atom_site_fract_z
Si Si1 0.975932 0.292132 0.949664
Si Si2 0.434590 0.216563 0.351296
Si Si3 0.500000 0.000000 0.500000
Si Si4 0.581629 0.722306 0.122708
Si Si5 0.688775 0.208076 0.665581
Si Si6 0.268893 0.777404 0.254364
Si Si7 0.494285 0.708950 0.419027
Si Si8 0.214867 0.220046 0.132592
O O1 0.000029 0.500000 0.950251
O O2 0.888009 0.208034 0.148681
O O3 0.857096 0.214576 0.055374
O O4 0.920109 0.297140 0.930271
O O5 0.337702 0.291273 0.371352
O O6 0.418402 0.284755 0.416646
O O7 0.582008 0.246236 0.243509
O O8 0.415779 0.000000 0.363004
O O9 0.542658 0.159293 0.513735
O O10 0.577965 0.500000 0.123900
O O11 0.454531 0.797097 0.225961
O O12 0.684207 0.782970 0.096637
O O13 0.742735 0.291757 0.682045
O O14 0.738591 0.000000 0.628855
O O15 0.136269 0.732621 0.315216
O O16 0.282515 0.000000 0.248381
O O17 0.502969 0.500000 0.430530
O O18 0.227267 0.000000 0.126145
#
# Coordination Sequence:
#
# PCOD9185719 Si02
#       8
#     8   8   2   8   8   8   8   8
#     4   9  16  28  44  67 107 157 207 249 288 337
#     4  10  19  34  57  88 123 160 203 249 294 346
#     4  12  26  48  72 102 118 144 194 234 308 378
#     4   9  15  22  35  65 105 147 202 253 292 331
#     4   8  15  30  53  80 114 158 200 240 291 345
#     4   8  16  33  57  86 115 157 206 246 297 347
#     4  11  23  43  71  97 122 152 189 246 294 365
#     4   9  17  27  43  69 109 159 206 249 290 335
#
# _framework density 27.194939999999999
#
# number of rings (size 3 to 8) (size 9 to 14) (size 15 to 20)
#    0.000    2.759    0.690    2.276    0.000    1.655 
#    4.966    0.690    0.000    4.966    0.000    0.000 
#    0.000    0.000    0.000    0.000    0.000    0.000 
#
# Total GULP energy -161563.065695 kJ/mol
# GULP energy per Si atom -5571.140196 kJ/mol
# Density = 2.713304 g / cm^3
# Si number density = 27.194940 Si / 1000 Ang^3
#
#
#
# Elastic Constant Matrix: (Units=GPa)
#
#
# Indices 1 2 3 4 5 6 
#
# 1 130.3854 -1.8775 56.7980 -0.0005 51.1698 -0.0146
# 2 -1.8775 160.4679 -8.0595 0.0036 23.9796 -0.0012
# 3 56.7980 -8.0595 127.4943 -0.0045 -2.0986 0.0020
# 4 -0.0005 0.0036 -0.0045 -2.4143 0.0003 13.2100
# 5 51.1698 23.9796 -2.0986 0.0003 60.5504 -0.0006
# 6 -0.0146 -0.0012 0.0020 13.2100 -0.0006 16.0012
#
#
#
# Elastic Compliance Matrix: (Units=1/GPa)
#
#
# Indices 1 2 3 4 5 6 
#
# 1 0.017281 0.002160 -0.007821 0.000018 -0.015730 0.000001
# 2 0.002160 0.006912 -0.000601 0.000004 -0.004584 -0.000001
# 3 -0.007821 -0.000601 0.011409 -0.000012 0.007243 0.000001
# 4 0.000018 0.000004 -0.000012 -0.075075 -0.000017 0.061979
# 5 -0.015730 -0.004584 0.007243 -0.000017 0.031875 -0.000001
# 6 0.000001 -0.000001 0.000001 0.061979 -0.000001 0.011328
#
#
# Mechanical properties :
#
#
# Convention : Reuss Voigt Hill
#
# Bulk Modulus (GPa) = 43.33082 56.89663 50.11372
# Shear Modulus (GPa) = 208.81040 39.59322 124.20181
#
# Velocity S-wave (km/s) = 8.77209 3.81977 6.76536
# Velocity P-wave (km/s) = 10.88886 6.35778 8.91596
#
# Compressibility (1/GPa) = 0.02307826
#
# Stress axis : x y z
#
# Youngs Moduli (GPa) = 57.86714 144.67983 87.65076
#
# Poissons Ratio (x) = -0.31252 0.68551
# Poissons Ratio (y) = -0.12500 0.05266
# Poissons Ratio (z) = 0.45258 0.08693
#
# Static dielectric constant tensor:
#      x y z
#    x 2.139960 -0.000010 -0.018090 
#    y -0.000010 2.062460 0.000040 
#    z -0.018090 0.000040 2.196680 
# 
# From -- ./inp_files/346447.got.cif
#   From: 2010.05.17/outbox.cif.g08.bks.cpg/sg12_174_cif.got.tgz:346447.got - 2010.06.03 13:09:07.
