data_PCOD9185319
_publ_section_title
;
Structure prediction by ZEFSAII (Michael W. Deem and Ramdas Pophale) SiO2 
 PCOD9185319
Probable space group: C 2/M
;
_chemical_formula_sum "Si O2"
_cell_formula_units_Z 36
_cell_length_a 15.443189
_cell_length_b 14.510146
_cell_length_c 10.205635
_cell_angle_alpha 90.000000
_cell_angle_beta 70.184914
_cell_angle_gamma 90.000000
_cell_volume 2151.504244
_symmetry_space_group_name_H-M "C 2/M"
_symmetry_group_IT_number 12
_symmetry_cell_setting 'monoclinic'
loop_
_space_group_symop_operation_xyz
x,y,z
-x,y,-z
-x,-y,-z
x,-y,z
1/2+x,1/2+y,z
1/2-x,1/2+y,-z
1/2-x,1/2-y,-z
1/2+x,1/2-y,z
loop_
_atom_site_type_symbol
_atom_site_label
_atom_site_fract_x
_atom_site_fract_y
_atom_site_fract_z
Si Si1 0.495904 0.500000 0.251880
Si Si2 0.993249 0.800412 0.154480
Si Si3 0.198842 0.000000 0.241830
Si Si4 0.711978 0.700913 0.647416
Si Si5 0.300115 0.500000 0.454042
Si Si6 0.197179 0.207380 0.150525
O O1 0.491115 0.411125 0.163267
O O2 0.588411 0.500000 0.287653
O O3 0.410921 0.500000 0.394093
O O4 0.087946 0.778399 0.181641
O O5 0.895572 0.774339 0.269666
O O6 0.000000 0.769290 0.000000
O O7 0.221952 0.098460 0.161185
O O8 0.230016 0.000000 0.378128
O O9 0.750000 0.750000 0.500000
O O10 0.724623 0.592385 0.611930
O O11 0.769357 0.737133 0.740494
O O12 0.250000 0.250000 0.000000
#
# Coordination Sequence:
#
# PCOD9185319 Si02
#       6
#     4   8   4   8   4   8
#     4   8  18  28  52  86 112 134 187 234 303 343
#     4  10  19  34  56  83 117 147 185 239 293 339
#     4  10  19  34  56  83 118 148 184 237 294 343
#     4  11  22  37  60  87 115 151 194 237 287 343
#     4  10  19  34  56  83 117 149 184 238 295 338
#     4  11  22  37  60  87 116 151 194 237 288 344
#
# _framework density 16.732479000000001
#
# number of rings (size 3 to 8) (size 9 to 14) (size 15 to 20)
#    0.000    1.778    4.444    0.667    0.000    1.778 
#    0.000    0.000    0.000    8.000    0.000    0.000 
#    0.000    0.000    0.000    0.000    0.000    0.000 
#
# Total GULP energy -100225.945358 kJ/mol
# GULP energy per Si atom -5568.108075 kJ/mol
# Density = 1.669439 g / cm^3
# Si number density = 16.732479 Si / 1000 Ang^3
#
#
#
# Elastic Constant Matrix: (Units=GPa)
#
#
# Indices 1 2 3 4 5 6 
#
# 1 117.6543 49.5572 69.1373 0.0000 -2.1345 0.0000
# 2 49.5572 117.6955 63.8747 0.0000 2.4816 0.0000
# 3 69.1373 63.8747 151.0544 0.0000 6.1120 0.0000
# 4 0.0000 0.0000 0.0000 21.8618 0.0000 -3.2067
# 5 -2.1345 2.4816 6.1120 0.0000 26.3938 0.0000
# 6 0.0000 0.0000 0.0000 -3.2067 0.0000 25.1052
#
#
#
# Elastic Compliance Matrix: (Units=1/GPa)
#
#
# Indices 1 2 3 4 5 6 
#
# 1 0.012417 -0.002780 -0.004602 0.000000 0.002331 0.000000
# 2 -0.002780 0.011650 -0.003634 0.000000 -0.000479 0.000000
# 3 -0.004602 -0.003634 0.010362 0.000000 -0.002430 0.000000
# 4 0.000000 0.000000 0.000000 0.046615 0.000000 0.005954
# 5 0.002331 -0.000479 -0.002430 0.000000 0.038684 0.000000
# 6 0.000000 0.000000 0.000000 0.005954 0.000000 0.040593
#
#
# Mechanical properties :
#
#
# Convention : Reuss Voigt Hill
#
# Bulk Modulus (GPa) = 80.67462 83.50473 82.08968
# Shear Modulus (GPa) = 26.81185 28.26116 27.53650
#
# Velocity S-wave (km/s) = 4.00732 4.11420 4.06111
# Velocity P-wave (km/s) = 8.35048 8.51957 8.43545
#
# Compressibility (1/GPa) = 0.01239547
#
# Stress axis : x y z
#
# Youngs Moduli (GPa) = 80.53472 85.84034 96.50976
#
# Poissons Ratio (x) = 0.23863 0.44414
# Poissons Ratio (y) = 0.22388 0.35075
# Poissons Ratio (z) = 0.37063 0.31198
#
# Static dielectric constant tensor:
#      x y z
#    x 1.563670 0.000000 -0.013180 
#    y 0.000000 1.578540 0.000000 
#    z -0.013180 0.000000 1.548450 
# 
# From -- ./inp_files/46852.got.cif
#   From: 2010.05.17/outbox.cif.g08.bks.cpg/sg12_24_cif.got.tgz:46852.got - 2010.06.03 13:09:07.
