data_PCOD9185448
_publ_section_title
;
Structure prediction by ZEFSAII (Michael W. Deem and Ramdas Pophale) SiO2 
 PCOD9185448
Probable space group: C 2/M
;
_chemical_formula_sum "Si O2"
_cell_formula_units_Z 56
_cell_length_a 14.663285
_cell_length_b 8.397634
_cell_length_c 25.595396
_cell_angle_alpha 90.000000
_cell_angle_beta 69.573065
_cell_angle_gamma 90.000000
_cell_volume 2953.550228
_symmetry_space_group_name_H-M "C 2/M"
_symmetry_group_IT_number 12
_symmetry_cell_setting 'monoclinic'
loop_
_space_group_symop_operation_xyz
x,y,z
-x,y,-z
-x,-y,-z
x,-y,z
1/2+x,1/2+y,z
1/2-x,1/2+y,-z
1/2-x,1/2-y,-z
1/2+x,1/2-y,z
loop_
_atom_site_type_symbol
_atom_site_label
_atom_site_fract_x
_atom_site_fract_y
_atom_site_fract_z
Si Si1 0.019475 0.194049 0.154338
Si Si2 0.601365 0.312280 0.361045
Si Si3 0.093535 0.686284 0.552379
Si Si4 0.116796 0.807881 0.239632
Si Si5 0.221423 0.688026 0.428409
Si Si6 0.685457 0.691119 0.851613
Si Si7 0.223010 0.190901 0.062627
O O1 0.042283 0.246366 0.209200
O O2 0.917470 0.248450 0.150907
O O3 0.113195 0.000000 0.240448
O O4 0.113814 0.241745 0.101546
O O5 0.622701 0.500000 0.356333
O O6 0.499087 0.282338 0.409969
O O7 0.595708 0.253078 0.302525
O O8 0.683312 0.225505 0.378674
O O9 0.067317 0.500000 0.555919
O O10 0.136702 0.731563 0.487069
O O11 0.182928 0.717068 0.573906
O O12 0.517354 0.500000 0.154740
O O13 0.223873 0.756370 0.199810
O O14 0.240590 0.500000 0.431169
O O15 0.687119 0.500000 0.849297
O O16 0.704845 0.744717 0.907128
O O17 0.225618 0.000000 0.063510
O O18 0.250000 0.250000 0.000000
#
# Coordination Sequence:
#
# PCOD9185448 Si02
#       7
#     8   8   8   8   8   8   8
#     4   8  17  35  56  74 102 142 176 209 258 313
#     4  11  22  35  55  81 110 144 181 223 274 329
#     4  10  21  37  56  79 107 139 179 226 275 330
#     4   9  20  38  54  75 107 141 176 218 265 312
#     4  10  21  37  56  78 107 142 179 223 276 332
#     4  10  19  34  57  81 103 138 182 219 261 313
#     4  10  20  36  55  79 112 144 175 217 262 311
#
# _framework density 18.960231
#
# number of rings (size 3 to 8) (size 9 to 14) (size 15 to 20)
#    0.000    2.286    0.000    3.429    0.000    6.286 
#    0.000   11.429    0.000    0.000    0.000    0.000 
#    0.000    0.000    0.000    0.000    0.000    0.000 
#
# Total GULP energy -156304.469551 kJ/mol
# GULP energy per Si atom -5582.302484 kJ/mol
# Density = 1.891708 g / cm^3
# Si number density = 18.960231 Si / 1000 Ang^3
#
#
#
# Elastic Constant Matrix: (Units=GPa)
#
#
# Indices 1 2 3 4 5 6 
#
# 1 118.2087 -0.0595 40.7291 0.0000 25.2356 0.0000
# 2 -0.0595 7.9428 5.7806 0.0000 4.8574 0.0000
# 3 40.7291 5.7806 55.3865 0.0000 25.0475 0.0000
# 4 0.0000 0.0000 0.0000 27.7137 0.0000 0.4024
# 5 25.2356 4.8574 25.0475 0.0000 17.0278 0.0000
# 6 0.0000 0.0000 0.0000 0.4024 0.0000 29.6653
#
#
#
# Elastic Compliance Matrix: (Units=1/GPa)
#
#
# Indices 1 2 3 4 5 6 
#
# 1 0.013787 0.014932 -0.001584 0.000000 -0.022362 0.000000
# 2 0.014932 0.171049 0.009682 0.000000 -0.085166 0.000000
# 3 -0.001584 0.009682 0.054952 0.000000 -0.081248 0.000000
# 4 0.000000 0.000000 0.000000 0.036090 0.000000 -0.000490
# 5 -0.022362 -0.085166 -0.081248 0.000000 0.235677 0.000000
# 6 0.000000 0.000000 0.000000 -0.000490 0.000000 0.033716
#
#
# Mechanical properties :
#
#
# Convention : Reuss Voigt Hill
#
# Bulk Modulus (GPa) = 3.49837 30.49315 16.99576
# Shear Modulus (GPa) = 8.41051 23.88721 16.14886
#
# Velocity S-wave (km/s) = 2.10844 3.55330 2.92160
# Velocity P-wave (km/s) = 2.78863 5.74040 4.51268
#
# Compressibility (1/GPa) = 0.28584774
#
# Stress axis : x y z
#
# Youngs Moduli (GPa) = 72.53323 5.84626 18.19777
#
# Poissons Ratio (x) = -0.08729 0.02882
# Poissons Ratio (y) = -1.08303 -0.17619
# Poissons Ratio (z) = 0.11488 -0.05660
#
# Static dielectric constant tensor:
#      x y z
#    x 1.648690 0.000000 0.013630 
#    y 0.000000 1.649780 0.000000 
#    z 0.013630 0.000000 1.649430 
# 
# From -- ./inp_files/337906.got.cif
#   From: 2010.05.17/outbox.cif.g08.bks.cpg/sg12_169_cif.got.tgz:337906.got - 2010.06.03 13:09:07.
