data_PCOD9185874
_publ_section_title
;
Structure prediction by ZEFSAII (Michael W. Deem and Ramdas Pophale) SiO2 
 PCOD9185874
Probable space group: C 2/M
;
_chemical_formula_sum "Si O2"
_cell_formula_units_Z 48
_cell_length_a 22.186107
_cell_length_b 7.574349
_cell_length_c 22.190876
_cell_angle_alpha 90.000000
_cell_angle_beta 32.792272
_cell_angle_gamma 90.000000
_cell_volume 2019.646551
_symmetry_space_group_name_H-M "C 2/M"
_symmetry_group_IT_number 12
_symmetry_cell_setting 'monoclinic'
loop_
_space_group_symop_operation_xyz
x,y,z
-x,y,-z
-x,-y,-z
x,-y,z
1/2+x,1/2+y,z
1/2-x,1/2+y,-z
1/2-x,1/2-y,-z
1/2+x,1/2-y,z
loop_
_atom_site_type_symbol
_atom_site_label
_atom_site_fract_x
_atom_site_fract_y
_atom_site_fract_z
Si Si1 0.052890 0.298178 0.043020
Si Si2 0.163682 0.210242 0.624577
Si Si3 0.790977 0.217676 0.834803
Si Si4 0.917555 0.213947 0.843352
Si Si5 0.695903 0.705521 0.732846
Si Si6 0.911252 0.799183 0.620712
O O1 0.043353 0.500000 0.031522
O O2 0.079580 0.290864 0.092229
O O3 0.931338 0.216918 0.136921
O O4 0.167295 0.221031 0.920469
O O5 0.250000 0.250000 0.500000
O O6 0.193963 0.277910 0.665822
O O7 0.038042 0.263881 0.714903
O O8 0.159610 0.000000 0.635211
O O9 0.824957 0.271755 0.873657
O O10 0.883566 0.278535 0.709348
O O11 0.789413 0.000000 0.835165
O O12 0.911497 0.000000 0.854281
O O13 0.727839 0.500000 0.705501
O O14 0.790549 0.801683 0.690737
O O15 0.000000 0.716932 0.500000
O O16 0.951183 0.000000 0.598167
#
# Coordination Sequence:
#
# PCOD9185874 Si02
#       6
#     8   8   8   8   8   8
#     4  10  19  34  58  85 113 144 185 231 275 329
#     4   9  19  32  52  78 106 143 181 223 272 322
#     4   9  19  35  56  84 115 147 183 229 279 324
#     4   9  18  34  54  80 117 148 176 224 282 331
#     4  10  22  40  57  78 113 148 182 231 282 324
#     4  10  22  39  61  84 108 146 192 230 270 329
#
# _framework density 23.766535999999999
#
# number of rings (size 3 to 8) (size 9 to 14) (size 15 to 20)
#    0.000    2.500    0.000    2.500    2.333    4.333 
#    0.000    6.667    0.000    0.000    0.000    0.000 
#    0.000    0.000    0.000    0.000    0.000    0.000 
#
# Total GULP energy -134031.508475 kJ/mol
# GULP energy per Si atom -5584.646186 kJ/mol
# Density = 2.371244 g / cm^3
# Si number density = 23.766536 Si / 1000 Ang^3
#
#
#
# Elastic Constant Matrix: (Units=GPa)
#
#
# Indices 1 2 3 4 5 6 
#
# 1 96.8140 -2.1583 14.1682 0.0014 -4.9269 -0.0015
# 2 -2.1583 59.9959 -7.6236 0.0040 0.8870 -0.0058
# 3 14.1682 -7.6236 125.6847 0.0000 1.6679 0.0005
# 4 0.0014 0.0040 0.0000 8.3030 -0.0014 -2.7538
# 5 -4.9269 0.8870 1.6679 -0.0014 25.8690 0.0017
# 6 -0.0015 -0.0058 0.0005 -2.7538 0.0017 12.5081
#
#
#
# Elastic Compliance Matrix: (Units=1/GPa)
#
#
# Indices 1 2 3 4 5 6 
#
# 1 0.010617 0.000197 -0.001213 -0.000001 0.002094 0.000001
# 2 0.000197 0.016812 0.001006 -0.000006 -0.000604 0.000006
# 3 -0.001213 0.001006 0.008165 0.000000 -0.000792 0.000000
# 4 -0.000001 -0.000006 0.000000 0.129925 0.000005 0.028604
# 5 0.002094 -0.000604 -0.000792 0.000005 0.039127 -0.000004
# 6 0.000001 0.000006 0.000000 0.028604 -0.000004 0.086245
#
#
# Mechanical properties :
#
#
# Convention : Reuss Voigt Hill
#
# Bulk Modulus (GPa) = 28.11107 32.36300 30.23704
# Shear Modulus (GPa) = 16.51423 27.87658 22.19541
#
# Velocity S-wave (km/s) = 2.63886 3.42853 3.05928
# Velocity P-wave (km/s) = 4.59766 5.41477 5.02286
#
# Compressibility (1/GPa) = 0.03557318
#
# Stress axis : x y z
#
# Youngs Moduli (GPa) = 94.18414 59.48277 122.47951
#
# Poissons Ratio (x) = -0.01171 0.14853
# Poissons Ratio (y) = -0.01855 -0.12316
# Poissons Ratio (z) = 0.11422 -0.05981
#
# Static dielectric constant tensor:
#      x y z
#    x 1.900490 0.000000 0.037410 
#    y 0.000000 1.944580 0.000000 
#    z 0.037410 0.000000 1.946540 
# 
# From -- ./inp_files/348764.got.cif
#   From: 2010.05.17/outbox.cif.g08.bks.cpg/sg12_175_cif.got.tgz:348764.got - 2010.06.03 13:09:07.
