data_PCOD9185071
_publ_section_title
;
Structure prediction by ZEFSAII (Michael W. Deem and Ramdas Pophale) SiO2 
 PCOD9185071
Probable space group: C 2/M
;
_chemical_formula_sum "Si O2"
_cell_formula_units_Z 58
_cell_length_a 27.094174
_cell_length_b 7.612216
_cell_length_c 28.762142
_cell_angle_alpha 90.000000
_cell_angle_beta 26.360139
_cell_angle_gamma 90.000000
_cell_volume 2633.921783
_symmetry_space_group_name_H-M "C 2/M"
_symmetry_group_IT_number 12
_symmetry_cell_setting 'monoclinic'
loop_
_space_group_symop_operation_xyz
x,y,z
-x,y,-z
-x,-y,-z
x,-y,z
1/2+x,1/2+y,z
1/2-x,1/2+y,-z
1/2-x,1/2-y,-z
1/2+x,1/2-y,z
loop_
_atom_site_type_symbol
_atom_site_label
_atom_site_fract_x
_atom_site_fract_y
_atom_site_fract_z
Si Si1 0.347213 0.699021 0.159484
Si Si2 0.471977 0.797653 0.143337
Si Si3 0.500000 0.000000 0.000000
Si Si4 0.053706 0.201060 0.678314
Si Si5 0.094888 0.713483 0.383574
Si Si6 0.044186 0.703396 0.583247
Si Si7 0.123623 0.709337 0.095203
Si Si8 0.707385 0.284266 0.627824
O O1 0.339310 0.500000 0.146919
O O2 0.426719 0.695653 0.137593
O O3 0.403117 0.844212 0.080122
O O4 0.224165 0.760288 0.280005
O O5 0.579109 0.733897 0.081902
O O6 0.374593 0.788004 0.263980
O O7 0.488087 0.000000 0.113354
O O8 0.953990 0.210450 0.799479
O O9 0.023527 0.289566 0.655520
O O10 0.158621 0.271722 0.618910
O O11 0.076756 0.000000 0.646968
O O12 0.096793 0.500000 0.385515
O O13 0.000000 0.773274 0.500000
O O14 0.050903 0.773314 0.370111
O O15 0.054263 0.500000 0.561235
O O16 0.167288 0.777342 0.471017
O O17 0.105722 0.500000 0.111325
O O18 0.250000 0.750000 0.000000
O O19 0.702030 0.500000 0.633819
#
# Coordination Sequence:
#
# PCOD9185071 Si02
#       8
#     8   8   2   8   8   8   8   8
#     4  11  23  44  70  94 127 172 213 270 329 383
#     4  10  20  37  61  90 118 150 200 257 307 364
#     4  12  26  48  66  94 132 160 230 278 316 382
#     4  10  20  34  51  80 118 154 196 239 290 363
#     4   9  19  38  65  94 124 160 210 263 323 392
#     4  10  19  34  55  84 118 157 197 240 302 373
#     4  10  21  38  59  84 115 150 194 250 301 354
#     4   9  18  32  56  84 117 158 198 238 293 370
#
# _framework density 22.020396000000002
#
# number of rings (size 3 to 8) (size 9 to 14) (size 15 to 20)
#    0.000    2.069    0.690    2.690    0.000    4.966 
#    3.724    0.345    0.000    0.000    0.000    0.000 
#    0.000    0.000    0.000    0.000    0.000    0.000 
#
# Total GULP energy -161630.623277 kJ/mol
# GULP energy per Si atom -5573.469768 kJ/mol
# Density = 2.197028 g / cm^3
# Si number density = 22.020396 Si / 1000 Ang^3
#
#
#
# Elastic Constant Matrix: (Units=GPa)
#
#
# Indices 1 2 3 4 5 6 
#
# 1 88.1427 11.2658 15.7687 0.0025 -25.6423 -0.0017
# 2 11.2658 78.5033 24.2975 0.0057 -3.8083 0.0038
# 3 15.7687 24.2975 88.2869 0.0068 -27.2498 -0.0060
# 4 0.0025 0.0057 0.0068 18.2865 -0.0039 7.5925
# 5 -25.6423 -3.8083 -27.2498 -0.0039 32.4851 -0.0002
# 6 -0.0017 0.0038 -0.0060 7.5925 -0.0002 15.5813
#
#
#
# Elastic Compliance Matrix: (Units=1/GPa)
#
#
# Indices 1 2 3 4 5 6 
#
# 1 0.015160 -0.002151 0.002024 -0.000001 0.013412 0.000004
# 2 -0.002151 0.014340 -0.004814 -0.000001 -0.004055 -0.000005
# 3 0.002024 -0.004814 0.017014 -0.000007 0.015305 0.000011
# 4 -0.000001 -0.000001 -0.000007 0.068555 0.000002 -0.033406
# 5 0.013412 -0.004055 0.015305 0.000002 0.053734 0.000008
# 6 0.000004 -0.000005 0.000011 -0.033406 0.000008 0.080458
#
#
# Mechanical properties :
#
#
# Convention : Reuss Voigt Hill
#
# Bulk Modulus (GPa) = 27.29867 39.73296 33.51582
# Shear Modulus (GPa) = 18.42611 26.84398 22.63504
#
# Velocity S-wave (km/s) = 2.89584 3.49528 3.20959
# Velocity P-wave (km/s) = 4.85851 5.86278 5.38411
#
# Compressibility (1/GPa) = 0.03663182
#
# Stress axis : x y z
#
# Youngs Moduli (GPa) = 65.96321 69.73346 58.77480
#
# Poissons Ratio (x) = 0.15002 -0.11897
# Poissons Ratio (y) = 0.14191 0.28294
# Poissons Ratio (z) = -0.13352 0.33570
#
# Static dielectric constant tensor:
#      x y z
#    x 1.864210 -0.000020 0.019410 
#    y -0.000020 1.840120 0.000020 
#    z 0.019410 0.000020 1.802900 
# 
# From -- ./inp_files/367507.got.cif
#   From: 2010.05.17/outbox.cif.g08.bks.cpg/sg12_184_cif.got.tgz:367507.got - 2010.06.03 13:09:07.
