data_PCOD9185367
_publ_section_title
;
Structure prediction by ZEFSAII (Michael W. Deem and Ramdas Pophale) SiO2 
 PCOD9185367
Probable space group: C 2/M
;
_chemical_formula_sum "Si O2"
_cell_formula_units_Z 48
_cell_length_a 14.676999
_cell_length_b 28.337539
_cell_length_c 6.592053
_cell_angle_alpha 90.000000
_cell_angle_beta 73.268458
_cell_angle_gamma 90.000000
_cell_volume 2625.628742
_symmetry_space_group_name_H-M "C 2/M"
_symmetry_group_IT_number 12
_symmetry_cell_setting 'monoclinic'
loop_
_space_group_symop_operation_xyz
x,y,z
-x,y,-z
-x,-y,-z
x,-y,z
1/2+x,1/2+y,z
1/2-x,1/2+y,-z
1/2-x,1/2-y,-z
1/2+x,1/2-y,z
loop_
_atom_site_type_symbol
_atom_site_label
_atom_site_fract_x
_atom_site_fract_y
_atom_site_fract_z
Si Si1 0.887822 0.372040 0.099040
Si Si2 0.715686 0.946399 0.113243
Si Si3 0.746383 0.305452 0.966269
Si Si4 0.935466 0.051395 0.842341
Si Si5 0.736769 0.866914 0.434828
Si Si6 0.593719 0.353132 0.357515
O O1 0.837971 0.329478 0.010626
O O2 0.851084 0.365864 0.352322
O O3 0.844222 0.419006 0.020561
O O4 0.000000 0.371992 0.000000
O O5 0.721025 0.913401 0.308200
O O6 0.682261 0.000000 0.171052
O O7 0.824355 0.948727 0.969884
O O8 0.654727 0.326752 0.144254
O O9 0.750000 0.250000 0.000000
O O10 0.750455 0.323842 0.732099
O O11 0.946929 0.098652 0.709886
O O12 0.956608 0.000000 0.735395
O O13 0.000000 0.054848 0.000000
O O14 0.830767 0.866225 0.515171
O O15 0.500000 0.326477 0.500000
#
# Coordination Sequence:
#
# PCOD9185367 Si02
#       6
#     8   8   8   8   8   8
#     4  10  22  41  61  89 118 159 202 254 307 361
#     4  10  20  36  58  87 122 160 206 250 297 359
#     4  10  23  44  60  88 120 155 201 257 305 372
#     4  10  19  34  56  85 125 165 203 247 298 364
#     4  10  20  40  63  82 122 163 194 253 307 355
#     4  11  22  36  61  92 122 161 201 252 306 365
#
# _framework density 18.281334999999999
#
# number of rings (size 3 to 8) (size 9 to 14) (size 15 to 20)
#    0.000    1.833    5.000    1.000    0.000    7.333 
#    6.000    0.833    0.000    0.000    0.000    0.000 
#    0.000    0.000    0.000    0.000    0.000    0.000 
#
# Total GULP energy -133786.488830 kJ/mol
# GULP energy per Si atom -5574.437035 kJ/mol
# Density = 1.823973 g / cm^3
# Si number density = 18.281335 Si / 1000 Ang^3
#
#
#
# Elastic Constant Matrix: (Units=GPa)
#
#
# Indices 1 2 3 4 5 6 
#
# 1 123.0768 32.2838 54.2316 0.0000 -28.1873 0.0000
# 2 32.2838 137.4341 45.1061 0.0000 4.6596 0.0000
# 3 54.2316 45.1061 126.6711 0.0000 -10.1661 0.0000
# 4 0.0000 0.0000 0.0000 -0.4360 0.0000 5.8582
# 5 -28.1873 4.6596 -10.1661 0.0000 20.7627 0.0000
# 6 0.0000 0.0000 0.0000 5.8582 0.0000 24.3577
#
#
#
# Elastic Compliance Matrix: (Units=1/GPa)
#
#
# Indices 1 2 3 4 5 6 
#
# 1 0.014938 -0.002896 -0.003835 0.000000 0.019052 0.000000
# 2 -0.002896 0.009041 -0.002558 0.000000 -0.007213 0.000000
# 3 -0.003835 -0.002558 0.010488 0.000000 0.000503 0.000000
# 4 0.000000 0.000000 0.000000 -0.542028 0.000000 0.130360
# 5 0.019052 -0.007213 0.000503 0.000000 0.075893 0.000000
# 6 0.000000 0.000000 0.000000 0.130360 0.000000 0.009702
#
#
# Mechanical properties :
#
#
# Convention : Reuss Voigt Hill
#
# Bulk Modulus (GPa) = 62.94363 72.26945 67.60654
# Shear Modulus (GPa) = -12.55994 25.97425 6.70716
#
# Velocity S-wave (km/s) = -2.62398 3.77345 1.91750
# Velocity P-wave (km/s) = 5.03239 7.65525 6.47795
#
# Compressibility (1/GPa) = 0.01588723
#
# Stress axis : x y z
#
# Youngs Moduli (GPa) = 66.94427 110.61036 95.35019
#
# Poissons Ratio (x) = 0.32035 0.36567
# Poissons Ratio (y) = 0.19389 0.24393
# Poissons Ratio (z) = 0.25673 0.28297
#
# Static dielectric constant tensor:
#      x y z
#    x 1.608550 0.000000 -0.018100 
#    y 0.000000 1.647240 0.000000 
#    z -0.018100 0.000000 1.675760 
# 
# From -- ./inp_files/12832.got.cif
#   From: 2010.05.17/outbox.cif.g08.bks.cpg/sg12_7_cif.got.tgz:12832.got - 2010.06.03 13:09:07.
