data_PCOD9185569
_publ_section_title
;
Structure prediction by ZEFSAII (Michael W. Deem and Ramdas Pophale) SiO2 
 PCOD9185569
Probable space group: C 2/M
;
_chemical_formula_sum "Si O2"
_cell_formula_units_Z 64
_cell_length_a 35.265797
_cell_length_b 8.116133
_cell_length_c 26.850250
_cell_angle_alpha 90.000000
_cell_angle_beta 155.577158
_cell_angle_gamma 90.000000
_cell_volume 3177.550971
_symmetry_space_group_name_H-M "C 2/M"
_symmetry_group_IT_number 12
_symmetry_cell_setting 'monoclinic'
loop_
_space_group_symop_operation_xyz
x,y,z
-x,y,-z
-x,-y,-z
x,-y,z
1/2+x,1/2+y,z
1/2-x,1/2+y,-z
1/2-x,1/2-y,-z
1/2+x,1/2-y,z
loop_
_atom_site_type_symbol
_atom_site_label
_atom_site_fract_x
_atom_site_fract_y
_atom_site_fract_z
Si Si1 0.378046 0.700129 0.977463
Si Si2 0.029227 0.310030 0.664013
Si Si3 0.899316 0.195964 0.593549
Si Si4 0.811982 0.194976 0.793292
Si Si5 0.324860 0.800059 0.235069
Si Si6 0.935666 0.799777 0.748677
Si Si7 0.301404 0.196739 0.674957
Si Si8 0.887323 0.810114 0.416223
O O1 0.379436 0.500000 0.981244
O O2 0.375241 0.745522 0.915546
O O3 0.280581 0.752873 0.884272
O O4 0.466894 0.758899 0.112995
O O5 0.043209 0.500000 0.693795
O O6 0.982339 0.226166 0.655064
O O7 0.956331 0.295711 0.531660
O O8 0.123159 0.242806 0.752410
O O9 0.918050 0.259682 0.671467
O O10 0.803186 0.260452 0.456399
O O11 0.887105 0.000000 0.583313
O O12 0.845285 0.229723 0.777578
O O13 0.715002 0.286104 0.684501
O O14 0.794287 0.000000 0.777741
O O15 0.379163 0.740129 0.348928
O O16 0.326867 0.000000 0.238053
O O17 0.857319 0.743544 0.692838
O O18 0.936574 0.000000 0.749249
O O19 0.300107 0.000000 0.679007
O O20 0.914967 0.000000 0.454039
#
# Coordination Sequence:
#
# PCOD9185569 Si02
#       8
#     8   8   8   8   8   8   8   8
#     4   8  17  36  59  80 107 142 188 231 265 315
#     4  11  21  33  54  80 109 146 185 223 268 324
#     4  10  22  38  56  80 112 144 182 228 279 327
#     4  10  19  34  57  83 111 147 183 221 269 328
#     4   9  19  35  54  79 109 145 186 223 265 324
#     4  10  21  39  61  80 102 145 191 230 273 325
#     4  11  22  36  55  83 115 143 176 229 283 330
#     4  11  20  31  50  80 116 147 177 220 275 326
#
# _framework density 20.141297000000002
#
# number of rings (size 3 to 8) (size 9 to 14) (size 15 to 20)
#    0.000    2.000    1.250    3.750    0.000    4.000 
#    0.000    6.250    0.000    0.000    0.000    0.000 
#    0.000    0.000    0.000    0.000    0.000    0.000 
#
# Total GULP energy -178675.600501 kJ/mol
# GULP energy per Si atom -5583.612516 kJ/mol
# Density = 2.009545 g / cm^3
# Si number density = 20.141297 Si / 1000 Ang^3
#
#
#
# Elastic Constant Matrix: (Units=GPa)
#
#
# Indices 1 2 3 4 5 6 
#
# 1 76.3078 -15.1393 43.0990 0.0000 43.3484 0.0000
# 2 -15.1393 16.4907 8.9235 0.0000 10.1838 0.0000
# 3 43.0990 8.9235 65.1936 0.0000 -16.2872 0.0000
# 4 0.0000 0.0000 0.0000 5.4615 0.0000 -1.1331
# 5 43.3484 10.1838 -16.2872 0.0000 -18.5165 0.0000
# 6 0.0000 0.0000 0.0000 -1.1331 0.0000 27.7160
#
#
#
# Elastic Compliance Matrix: (Units=1/GPa)
#
#
# Indices 1 2 3 4 5 6 
#
# 1 0.005745 -0.002264 -0.000360 0.000000 0.012522 0.000000
# 2 -0.002264 0.046158 0.000161 0.000000 0.019945 0.000000
# 3 -0.000360 0.000161 0.012598 0.000000 -0.011835 0.000000
# 4 0.000000 0.000000 0.000000 0.184665 0.000000 0.007550
# 5 0.012522 0.019945 -0.011835 0.000000 -0.003310 0.000000
# 6 0.000000 0.000000 0.000000 0.007550 0.000000 0.036389
#
#
# Mechanical properties :
#
#
# Convention : Reuss Voigt Hill
#
# Bulk Modulus (GPa) = 16.78507 25.75095 21.26801
# Shear Modulus (GPa) = 16.28513 11.00613 13.64563
#
# Velocity S-wave (km/s) = 2.84658 2.34015 2.60570
# Velocity P-wave (km/s) = 4.37673 4.48494 4.43116
#
# Compressibility (1/GPa) = 0.05957674
#
# Stress axis : x y z
#
# Youngs Moduli (GPa) = 174.04946 21.66476 79.37747
#
# Poissons Ratio (x) = 0.04904 0.02858
# Poissons Ratio (y) = 0.39399 -0.01281
# Poissons Ratio (z) = 0.06266 -0.00350
#
# Static dielectric constant tensor:
#      x y z
#    x 1.722750 0.000000 0.012860 
#    y 0.000000 1.712790 0.000000 
#    z 0.012860 0.000000 1.704860 
# 
# From -- ./inp_files/243886.got.cif
#   From: 2010.05.17/outbox.cif.g08.bks.cpg/sg12_122_cif.got.tgz:243886.got - 2010.06.03 13:09:07.
