data_PCOD9185730
_publ_section_title
;
Structure prediction by ZEFSAII (Michael W. Deem and Ramdas Pophale) SiO2 
 PCOD9185730
Probable space group: C 2/M
;
_chemical_formula_sum "Si O2"
_cell_formula_units_Z 48
_cell_length_a 26.153465
_cell_length_b 22.394728
_cell_length_c 10.215654
_cell_angle_alpha 90.000000
_cell_angle_beta 159.551325
_cell_angle_gamma 90.000000
_cell_volume 2090.376666
_symmetry_space_group_name_H-M "C 2/M"
_symmetry_group_IT_number 12
_symmetry_cell_setting 'monoclinic'
loop_
_space_group_symop_operation_xyz
x,y,z
-x,y,-z
-x,-y,-z
x,-y,z
1/2+x,1/2+y,z
1/2-x,1/2+y,-z
1/2-x,1/2-y,-z
1/2+x,1/2-y,z
loop_
_atom_site_type_symbol
_atom_site_label
_atom_site_fract_x
_atom_site_fract_y
_atom_site_fract_z
Si Si1 0.657308 0.068944 0.680395
Si Si2 0.686703 0.802232 0.756104
Si Si3 0.966560 0.871779 0.767341
Si Si4 0.559159 0.273474 0.787349
Si Si5 0.236331 0.569214 0.571946
Si Si6 0.176432 0.430073 0.143252
O O1 0.723472 0.130918 0.892409
O O2 0.674661 0.083463 0.566557
O O3 0.711002 0.000000 0.833036
O O4 0.485969 0.069694 0.302407
O O5 0.511679 0.790600 0.347436
O O6 0.750000 0.750000 0.000000
O O7 0.767834 0.785419 0.814394
O O8 0.995584 0.815941 0.745306
O O9 0.802700 0.896099 0.369833
O O10 0.000000 0.858950 0.000000
O O11 0.089928 0.919106 0.017197
O O12 0.500000 0.290613 0.500000
O O13 0.201667 0.500000 0.478218
O O14 0.173679 0.595144 0.286184
O O15 0.222918 0.500000 0.259362
#
# Coordination Sequence:
#
# PCOD9185730 Si02
#       6
#     8   8   8   8   8   8
#     4  10  19  34  60  91 126 159 206 262 311 365
#     4  10  22  41  65  87 115 164 213 252 311 384
#     4  10  19  34  57  89 128 161 208 259 308 365
#     4  10  22  41  63  86 112 164 214 251 307 382
#     4   9  16  30  54  84 126 170 205 244 306 380
#     4   9  18  30  52  90 130 168 200 244 314 377
#
# _framework density 22.962368999999999
#
# number of rings (size 3 to 8) (size 9 to 14) (size 15 to 20)
#    0.000    2.333    1.667    1.000    2.333    4.000 
#    0.000    2.500    0.000   19.000    0.000    0.000 
#    0.000    0.000    0.000    0.000    0.000    0.000 
#
# Total GULP energy -133657.344018 kJ/mol
# GULP energy per Si atom -5569.056001 kJ/mol
# Density = 2.291011 g / cm^3
# Si number density = 22.962369 Si / 1000 Ang^3
#
#
#
# Elastic Constant Matrix: (Units=GPa)
#
#
# Indices 1 2 3 4 5 6 
#
# 1 101.7882 37.9539 40.2111 0.0000 22.2775 0.0000
# 2 37.9539 123.6065 18.7060 0.0000 15.5651 0.0000
# 3 40.2111 18.7060 59.3408 0.0000 31.0826 0.0000
# 4 0.0000 0.0000 0.0000 22.6564 0.0000 3.8473
# 5 22.2775 15.5651 31.0826 0.0000 20.9715 0.0000
# 6 0.0000 0.0000 0.0000 3.8473 0.0000 30.9705
#
#
#
# Elastic Compliance Matrix: (Units=1/GPa)
#
#
# Indices 1 2 3 4 5 6 
#
# 1 0.014469 -0.003111 -0.008864 0.000000 0.000077 0.000000
# 2 -0.003111 0.009709 0.004878 0.000000 -0.011131 0.000000
# 3 -0.008864 0.004878 0.081753 0.000000 -0.115372 0.000000
# 4 0.000000 0.000000 0.000000 0.045089 0.000000 -0.005601
# 5 0.000077 -0.011131 -0.115372 0.000000 0.226861 0.000000
# 6 0.000000 0.000000 0.000000 -0.005601 0.000000 0.032985
#
#
# Mechanical properties :
#
#
# Convention : Reuss Voigt Hill
#
# Bulk Modulus (GPa) = 10.90082 53.16416 32.03249
# Shear Modulus (GPa) = 10.97359 27.44396 19.20878
#
# Velocity S-wave (km/s) = 2.18845 3.46088 2.89543
# Velocity P-wave (km/s) = 3.33816 6.25885 5.01580
#
# Compressibility (1/GPa) = 0.09173620
#
# Stress axis : x y z
#
# Youngs Moduli (GPa) = 69.11134 102.99802 12.23201
#
# Poissons Ratio (x) = 0.32043 0.10843
# Poissons Ratio (y) = 0.21501 -0.05967
# Poissons Ratio (z) = 0.61263 -0.50243
#
# Static dielectric constant tensor:
#      x y z
#    x 1.963950 0.000000 -0.020670 
#    y 0.000000 1.893180 0.000000 
#    z -0.020670 0.000000 2.078770 
# 
# From -- ./inp_files/184813.got.cif
#   From: 2010.05.17/outbox.cif.g08.bks.cpg/sg12_93_cif.got.tgz:184813.got - 2010.06.03 13:09:07.
