data_PCOD9185820
_publ_section_title
;
Structure prediction by ZEFSAII (Michael W. Deem and Ramdas Pophale) SiO2 
 PCOD9185820
Probable space group: C 2/M
;
_chemical_formula_sum "Si O2"
_cell_formula_units_Z 64
_cell_length_a 25.695609
_cell_length_b 8.583626
_cell_length_c 15.802083
_cell_angle_alpha 90.000000
_cell_angle_beta 70.407885
_cell_angle_gamma 90.000000
_cell_volume 3283.542997
_symmetry_space_group_name_H-M "C 2/M"
_symmetry_group_IT_number 12
_symmetry_cell_setting 'monoclinic'
loop_
_space_group_symop_operation_xyz
x,y,z
-x,y,-z
-x,-y,-z
x,-y,z
1/2+x,1/2+y,z
1/2-x,1/2+y,-z
1/2-x,1/2-y,-z
1/2+x,1/2-y,z
loop_
_atom_site_type_symbol
_atom_site_label
_atom_site_fract_x
_atom_site_fract_y
_atom_site_fract_z
Si Si1 0.204690 0.171652 0.969823
Si Si2 0.772526 0.175570 0.238218
Si Si3 0.046014 0.311826 0.678195
Si Si4 0.083599 0.188997 0.008679
Si Si5 0.605355 0.813860 0.816932
Si Si6 0.432110 0.313434 0.794997
Si Si7 0.850617 0.310419 0.705978
Si Si8 0.937255 0.310530 0.515624
O O1 0.226876 0.160527 0.863397
O O2 0.193833 0.000000 0.011039
O O3 0.250000 0.250000 0.000000
O O4 0.145561 0.249475 0.994326
O O5 0.830150 0.262891 0.224225
O O6 0.711220 0.242662 0.286665
O O7 0.776094 0.000000 0.272816
O O8 0.044025 0.500000 0.680795
O O9 0.076167 0.258161 0.746926
O O10 0.074927 0.264989 0.574645
O O11 0.983552 0.250925 0.714074
O O12 0.055561 0.231839 0.113139
O O13 0.082150 0.000000 0.002256
O O14 0.074521 0.249922 0.918424
O O15 0.603028 0.000000 0.822492
O O16 0.429733 0.500000 0.793897
O O17 0.376274 0.249141 0.781047
O O18 0.848720 0.500000 0.711351
O O19 0.893449 0.259578 0.609586
O O20 0.937144 0.500000 0.519469
O O21 0.000000 0.259823 0.500000
#
# Coordination Sequence:
#
# PCOD9185820 Si02
#       8
#     8   8   8   8   8   8   8   8
#     4   9  16  27  43  65  95 131 168 209 254 302
#     4   9  19  34  52  75 106 142 178 217 265 322
#     4  10  21  38  57  79 107 141 183 225 266 321
#     4   9  20  36  50  70 106 145 179 215 264 325
#     4  10  21  36  56  78 104 142 186 229 265 304
#     4  11  22  34  53  83 113 142 176 223 277 320
#     4  10  19  34  58  84 109 142 181 220 265 322
#     4   9  16  32  59  83 105 139 177 215 265 324
#
# _framework density 19.491140999999999
#
# number of rings (size 3 to 8) (size 9 to 14) (size 15 to 20)
#    0.000    2.375    1.250    2.250    0.000    5.000 
#    0.000    4.375    0.000    0.000    0.000    0.000 
#    0.000    0.000    0.000    0.000    0.000    0.000 
#
# Total GULP energy -178201.820045 kJ/mol
# GULP energy per Si atom -5568.806876 kJ/mol
# Density = 1.944678 g / cm^3
# Si number density = 19.491141 Si / 1000 Ang^3
#
#
#
# Elastic Constant Matrix: (Units=GPa)
#
#
# Indices 1 2 3 4 5 6 
#
# 1 33.5383 0.9776 27.8155 0.0000 0.8467 0.0000
# 2 0.9776 11.6765 10.1840 0.0000 7.2414 0.0000
# 3 27.8155 10.1840 108.5623 0.0000 5.2929 0.0000
# 4 0.0000 0.0000 0.0000 12.1295 0.0000 -4.7061
# 5 0.8467 7.2414 5.2929 0.0000 34.7918 0.0000
# 6 0.0000 0.0000 0.0000 -4.7061 0.0000 10.4639
#
#
#
# Elastic Compliance Matrix: (Units=1/GPa)
#
#
# Indices 1 2 3 4 5 6 
#
# 1 0.038235 0.006230 -0.010349 0.000000 -0.000653 0.000000
# 2 0.006230 0.107355 -0.010649 0.000000 -0.020876 0.000000
# 3 -0.010349 -0.010649 0.012837 0.000000 0.000515 0.000000
# 4 0.000000 0.000000 0.000000 0.099871 0.000000 0.044917
# 5 -0.000653 -0.020876 0.000515 0.000000 0.033025 0.000000
# 6 0.000000 0.000000 0.000000 0.044917 0.000000 0.115769
#
#
# Mechanical properties :
#
#
# Convention : Reuss Voigt Hill
#
# Bulk Modulus (GPa) = 7.75859 25.74795 16.75327
# Shear Modulus (GPa) = 10.42555 19.13036 14.77795
#
# Velocity S-wave (km/s) = 2.31527 3.13627 2.75651
# Velocity P-wave (km/s) = 3.33714 5.13359 4.32956
#
# Compressibility (1/GPa) = 0.12888937
#
# Stress axis : x y z
#
# Youngs Moduli (GPa) = 26.15435 9.31490 77.90156
#
# Poissons Ratio (x) = -0.05803 0.80620
# Poissons Ratio (y) = -0.16293 0.82958
# Poissons Ratio (z) = 0.27067 0.09920
#
# Static dielectric constant tensor:
#      x y z
#    x 1.729280 0.000000 -0.023430 
#    y 0.000000 1.702800 0.000000 
#    z -0.023430 0.000000 1.736710 
# 
# From -- ./inp_files/243745.got.cif
#   From: 2010.05.17/outbox.cif.g08.bks.cpg/sg12_122_cif.got.tgz:243745.got - 2010.06.03 13:09:07.
