data_PCOD9185797
_publ_section_title
;
Structure prediction by ZEFSAII (Michael W. Deem and Ramdas Pophale) SiO2 
 PCOD9185797
Probable space group: C 2/M
;
_chemical_formula_sum "Si O2"
_cell_formula_units_Z 48
_cell_length_a 31.901915
_cell_length_b 8.687536
_cell_length_c 9.890736
_cell_angle_alpha 90.000000
_cell_angle_beta 101.984435
_cell_angle_gamma 90.000000
_cell_volume 2681.460696
_symmetry_space_group_name_H-M "C 2/M"
_symmetry_group_IT_number 12
_symmetry_cell_setting 'monoclinic'
loop_
_space_group_symop_operation_xyz
x,y,z
-x,y,-z
-x,-y,-z
x,-y,z
1/2+x,1/2+y,z
1/2-x,1/2+y,-z
1/2-x,1/2-y,-z
1/2+x,1/2-y,z
loop_
_atom_site_type_symbol
_atom_site_label
_atom_site_fract_x
_atom_site_fract_y
_atom_site_fract_z
Si Si1 0.549171 0.815413 0.058079
Si Si2 0.379535 0.684498 0.091724
Si Si3 0.237148 0.683266 0.637968
Si Si4 0.643354 0.315199 0.623018
Si Si5 0.183299 0.683852 0.162668
Si Si6 0.889072 0.815763 0.688534
O O1 0.568796 0.745400 0.208425
O O2 0.552435 0.000000 0.066152
O O3 0.500000 0.772238 0.000000
O O4 0.579991 0.754503 0.959758
O O5 0.380407 0.500000 0.077800
O O6 0.377856 0.724700 0.248327
O O7 0.337487 0.748671 0.987381
O O8 0.241070 0.500000 0.636788
O O9 0.250000 0.750000 0.500000
O O10 0.188979 0.733466 0.638333
O O11 0.270314 0.751513 0.768901
O O12 0.650728 0.500000 0.626942
O O13 0.615122 0.278591 0.472230
O O14 0.183794 0.500000 0.158160
O O15 0.150942 0.739818 0.259441
O O16 0.886195 0.000000 0.703620
#
# Coordination Sequence:
#
# PCOD9185797 Si02
#       6
#     8   8   8   8   8   8
#     4  10  21  38  60  85 112 143 182 227 275 337
#     4  10  21  38  59  83 113 147 183 230 283 334
#     4  12  23  35  55  81 111 150 194 236 275 322
#     4  10  22  38  56  82 115 148 185 231 282 331
#     4  11  21  35  55  80 111 150 192 234 275 326
#     4  10  19  34  58  83 110 144 184 230 277 332
#
# _framework density 17.900690999999998
#
# number of rings (size 3 to 8) (size 9 to 14) (size 15 to 20)
#    0.000    1.500    1.667    6.500    0.000    4.000 
#    0.000    0.833    0.000    5.000    0.000    0.000 
#    0.000    0.000    0.000    0.000    0.000    0.000 
#
# Total GULP energy -134099.921575 kJ/mol
# GULP energy per Si atom -5587.496732 kJ/mol
# Density = 1.785995 g / cm^3
# Si number density = 17.900691 Si / 1000 Ang^3
#
#
#
# Elastic Constant Matrix: (Units=GPa)
#
#
# Indices 1 2 3 4 5 6 
#
# 1 110.3726 43.7162 62.6142 0.0000 26.5118 0.0000
# 2 43.7162 79.8387 50.4476 0.0000 8.8482 0.0000
# 3 62.6142 50.4476 152.6655 0.0000 13.1863 0.0000
# 4 0.0000 0.0000 0.0000 13.5107 0.0000 3.3800
# 5 26.5118 8.8482 13.1863 0.0000 22.4791 0.0000
# 6 0.0000 0.0000 0.0000 3.3800 0.0000 29.6842
#
#
#
# Elastic Compliance Matrix: (Units=1/GPa)
#
#
# Indices 1 2 3 4 5 6 
#
# 1 0.017161 -0.005126 -0.003972 0.000000 -0.015892 0.000000
# 2 -0.005126 0.017602 -0.003832 0.000000 0.001364 0.000000
# 3 -0.003972 -0.003832 0.009386 0.000000 0.000687 0.000000
# 4 0.000000 0.000000 0.000000 0.076185 0.000000 -0.008675
# 5 -0.015892 0.001364 0.000687 0.000000 0.062289 0.000000
# 6 0.000000 0.000000 0.000000 -0.008675 0.000000 0.034676
#
#
# Mechanical properties :
#
#
# Convention : Reuss Voigt Hill
#
# Bulk Modulus (GPa) = 54.67513 72.93697 63.80605
# Shear Modulus (GPa) = 20.05974 25.54139 22.80056
#
# Velocity S-wave (km/s) = 3.35119 3.78145 3.57280
# Velocity P-wave (km/s) = 6.75158 7.73948 7.26235
#
# Compressibility (1/GPa) = 0.01828985
#
# Stress axis : x y z
#
# Youngs Moduli (GPa) = 58.27170 56.81182 106.53777
#
# Poissons Ratio (x) = 0.29119 0.42317
# Poissons Ratio (y) = 0.29867 0.40827
# Poissons Ratio (z) = 0.23146 0.21771
#
# Static dielectric constant tensor:
#      x y z
#    x 1.581510 0.000000 0.010740 
#    y 0.000000 1.600180 0.000000 
#    z 0.010740 0.000000 1.621100 
# 
# From -- ./inp_files/108782.got.cif
#   From: 2010.05.17/outbox.cif.g08.bks.cpg/sg12_55_cif.got.tgz:108782.got - 2010.06.03 13:09:07.
