data_PCOD9185801
_publ_section_title
;
Structure prediction by ZEFSAII (Michael W. Deem and Ramdas Pophale) SiO2 
 PCOD9185801
Probable space group: C 2/M
;
_chemical_formula_sum "Si O2"
_cell_formula_units_Z 32
_cell_length_a 12.483054
_cell_length_b 25.462129
_cell_length_c 5.143557
_cell_angle_alpha 90.000000
_cell_angle_beta 116.939862
_cell_angle_gamma 90.000000
_cell_volume 1457.444294
_symmetry_space_group_name_H-M "C 2/M"
_symmetry_group_IT_number 12
_symmetry_cell_setting 'monoclinic'
loop_
_space_group_symop_operation_xyz
x,y,z
-x,y,-z
-x,-y,-z
x,-y,z
1/2+x,1/2+y,z
1/2-x,1/2+y,-z
1/2-x,1/2-y,-z
1/2+x,1/2-y,z
loop_
_atom_site_type_symbol
_atom_site_label
_atom_site_fract_x
_atom_site_fract_y
_atom_site_fract_z
Si Si1 0.000000 0.891068 0.500000
Si Si2 0.275765 0.162447 0.499138
Si Si3 0.637379 0.558377 0.269731
Si Si4 0.000000 0.707727 0.500000
Si Si5 0.356674 0.303622 0.121220
O O1 0.893816 0.929498 0.462882
O O2 0.958505 0.849021 0.239410
O O3 0.231708 0.105621 0.336248
O O4 0.414499 0.173480 0.591686
O O5 0.230942 0.175658 0.741433
O O6 0.202251 0.200125 0.223686
O O7 0.682877 0.500000 0.270511
O O8 0.500000 0.560473 0.000000
O O9 0.916695 0.748459 0.251519
#
# Coordination Sequence:
#
# PCOD9185801 Si02
#       5
#     4   8   8   4   8
#     4   9  17  32  55  84 115 142 183 241 282 330
#     4  11  23  40  56  88 116 148 192 234 274 343
#     4  10  19  34  58  83 111 149 188 237 286 326
#     4  11  24  38  62  82 118 158 184 227 290 332
#     4  10  22  37  58  84 117 147 190 230 278 336
#
# _framework density 21.956240000000001
#
# number of rings (size 3 to 8) (size 9 to 14) (size 15 to 20)
#    0.000    1.750    2.500    1.875    0.000    3.000 
#    0.000    0.625    0.000    0.000    0.000    5.250 
#    0.000    0.000    0.000    0.000    0.000    0.000 
#
# Total GULP energy -89134.451060 kJ/mol
# GULP energy per Si atom -5570.903191 kJ/mol
# Density = 2.190627 g / cm^3
# Si number density = 21.956240 Si / 1000 Ang^3
#
#
#
# Elastic Constant Matrix: (Units=GPa)
#
#
# Indices 1 2 3 4 5 6 
#
# 1 103.0697 47.3830 0.8967 0.0000 -20.1395 0.0000
# 2 47.3830 149.9391 -3.0165 0.0000 6.6372 0.0000
# 3 0.8967 -3.0165 50.8273 0.0000 -16.9422 0.0000
# 4 0.0000 0.0000 0.0000 12.2750 0.0000 2.1877
# 5 -20.1395 6.6372 -16.9422 0.0000 18.8214 0.0000
# 6 0.0000 0.0000 0.0000 2.1877 0.0000 20.7491
#
#
#
# Elastic Compliance Matrix: (Units=1/GPa)
#
#
# Indices 1 2 3 4 5 6 
#
# 1 0.019248 -0.007304 0.009930 0.000000 0.032111 0.000000
# 2 -0.007304 0.009558 -0.004333 0.000000 -0.015087 0.000000
# 3 0.009930 -0.004333 0.033278 0.000000 0.042110 0.000000
# 4 0.000000 0.000000 0.000000 0.083027 0.000000 -0.008754
# 5 0.032111 -0.015087 0.042110 0.000000 0.130716 0.000000
# 6 0.000000 0.000000 0.000000 -0.008754 0.000000 0.049118
#
#
# Mechanical properties :
#
#
# Convention : Reuss Voigt Hill
#
# Bulk Modulus (GPa) = 17.04401 43.81805 30.43103
# Shear Modulus (GPa) = 14.37129 27.60728 20.98928
#
# Velocity S-wave (km/s) = 2.56118 3.54980 3.09521
# Velocity P-wave (km/s) = 4.06519 6.06644 5.16369
#
# Compressibility (1/GPa) = 0.05867162
#
# Stress axis : x y z
#
# Youngs Moduli (GPa) = 51.95333 104.62115 30.04945
#
# Poissons Ratio (x) = 0.76418 -0.29840
# Poissons Ratio (y) = 0.37948 0.13019
# Poissons Ratio (z) = -0.51592 0.45329
#
# Static dielectric constant tensor:
#      x y z
#    x 1.916920 0.000000 -0.012110 
#    y 0.000000 1.831350 0.000000 
#    z -0.012110 0.000000 1.975770 
# 
# From -- ./inp_files/7255.got.cif
#   From: 2010.05.17/outbox.cif.g08.bks.cpg/sg12_4_cif.got.tgz:7255.got - 2010.06.03 13:09:07.
