data_PCOD9185937
_publ_section_title
;
Structure prediction by ZEFSAII (Michael W. Deem and Ramdas Pophale) SiO2 
 PCOD9185937
Probable space group: C 2/M
;
_chemical_formula_sum "Si O2"
_cell_formula_units_Z 48
_cell_length_a 10.297723
_cell_length_b 14.465988
_cell_length_c 30.515682
_cell_angle_alpha 90.000000
_cell_angle_beta 33.898778
_cell_angle_gamma 90.000000
_cell_volume 2535.329283
_symmetry_space_group_name_H-M "C 2/M"
_symmetry_group_IT_number 12
_symmetry_cell_setting 'monoclinic'
loop_
_space_group_symop_operation_xyz
x,y,z
-x,y,-z
-x,-y,-z
x,-y,z
1/2+x,1/2+y,z
1/2-x,1/2+y,-z
1/2-x,1/2-y,-z
1/2+x,1/2-y,z
loop_
_atom_site_type_symbol
_atom_site_label
_atom_site_fract_x
_atom_site_fract_y
_atom_site_fract_z
Si Si1 0.953330 0.777615 0.883235
Si Si2 0.323060 0.598104 0.842004
Si Si3 0.222602 0.395048 0.023846
Si Si4 0.451969 0.272757 0.627582
Si Si5 0.311611 0.391049 0.513414
Si Si6 0.962096 0.792623 0.727971
O O1 0.902096 0.820690 0.850893
O O2 0.807597 0.682452 0.930121
O O3 0.227913 0.760338 0.808198
O O4 0.873664 0.848100 0.943437
O O5 0.400211 0.500000 0.839134
O O6 0.429364 0.612703 0.764173
O O7 0.043921 0.599094 0.918598
O O8 0.293927 0.500000 0.015281
O O9 0.577080 0.348839 0.562035
O O10 0.593939 0.175955 0.584414
O O11 0.455676 0.301022 0.677462
O O12 0.195626 0.255771 0.679723
O O13 0.500000 0.381096 0.500000
O O14 0.254818 0.500000 0.525371
#
# Coordination Sequence:
#
# PCOD9185937 Si02
#       6
#     8   8   8   8   8   8
#     4  10  19  34  58  86 121 159 207 252 311 355
#     4  10  20  35  60  89 119 159 211 258 301 359
#     4   9  19  35  57  85 117 160 213 261 302 359
#     4  11  22  42  64  91 129 159 195 252 299 360
#     4  10  22  41  68  95 121 160 201 242 300 364
#     4  11  22  38  60  90 125 165 196 245 311 355
#
# _framework density 18.932452999999999
#
# number of rings (size 3 to 8) (size 9 to 14) (size 15 to 20)
#    0.000    1.833    3.333    1.000    0.000    2.667 
#    0.000    2.500    0.000   23.000    0.000    0.000 
#    0.000    0.000    0.000    0.000    0.000    0.000 
#
# Total GULP energy -133838.130340 kJ/mol
# GULP energy per Si atom -5576.588764 kJ/mol
# Density = 1.888936 g / cm^3
# Si number density = 18.932453 Si / 1000 Ang^3
#
#
#
# Elastic Constant Matrix: (Units=GPa)
#
#
# Indices 1 2 3 4 5 6 
#
# 1 88.7907 39.0024 39.4396 0.0013 23.8707 -0.0016
# 2 39.0024 144.1946 45.7494 -0.0015 18.0821 0.0009
# 3 39.4396 45.7494 107.6030 -0.0084 19.1454 0.0082
# 4 0.0013 -0.0015 -0.0084 -16.0497 -0.0002 17.1505
# 5 23.8707 18.0821 19.1454 -0.0002 23.0315 0.0003
# 6 -0.0016 0.0009 0.0082 17.1505 0.0003 10.9187
#
#
#
# Elastic Compliance Matrix: (Units=1/GPa)
#
#
# Indices 1 2 3 4 5 6 
#
# 1 0.017154 -0.001963 -0.003009 0.000003 -0.013737 0.000000
# 2 -0.001963 0.008578 -0.002455 0.000000 -0.002660 0.000000
# 3 -0.003009 -0.002455 0.012372 -0.000006 -0.005239 0.000000
# 4 0.000003 0.000000 -0.000006 -0.023262 0.000000 0.036538
# 5 -0.013737 -0.002660 -0.005239 0.000000 0.064100 0.000000
# 6 0.000000 0.000000 0.000000 0.036538 0.000000 0.034193
#
#
# Mechanical properties :
#
#
# Convention : Reuss Voigt Hill
#
# Bulk Modulus (GPa) = 43.00612 65.44120 54.22366
# Shear Modulus (GPa) = 36.83535 18.00655 27.42095
#
# Velocity S-wave (km/s) = 4.41570 3.08733 3.80986
# Velocity P-wave (km/s) = 6.98304 6.88109 6.93225
#
# Compressibility (1/GPa) = 0.02325250
#
# Stress axis : x y z
#
# Youngs Moduli (GPa) = 58.29469 116.57316 80.82786
#
# Poissons Ratio (x) = 0.22879 0.24320
# Poissons Ratio (y) = 0.11441 0.19839
# Poissons Ratio (z) = 0.17540 0.28613
#
# Static dielectric constant tensor:
#      x y z
#    x 1.667140 0.000000 0.004150 
#    y 0.000000 1.686350 0.000000 
#    z 0.004150 0.000000 1.656300 
# 
# From -- ./inp_files/356290.got.cif
#   From: 2010.05.17/outbox.cif.g08.bks.cpg/sg12_179_cif.got.tgz:356290.got - 2010.06.03 13:09:07.
