data_PCOD9185727
_publ_section_title
;
Structure prediction by ZEFSAII (Michael W. Deem and Ramdas Pophale) SiO2 
 PCOD9185727
Probable space group: C 2/M
;
_chemical_formula_sum "Si O2"
_cell_formula_units_Z 48
_cell_length_a 9.899489
_cell_length_b 22.257314
_cell_length_c 11.249390
_cell_angle_alpha 90.000000
_cell_angle_beta 125.551586
_cell_angle_gamma 90.000000
_cell_volume 2016.607429
_symmetry_space_group_name_H-M "C 2/M"
_symmetry_group_IT_number 12
_symmetry_cell_setting 'monoclinic'
loop_
_space_group_symop_operation_xyz
x,y,z
-x,y,-z
-x,-y,-z
x,-y,z
1/2+x,1/2+y,z
1/2-x,1/2+y,-z
1/2-x,1/2-y,-z
1/2+x,1/2-y,z
loop_
_atom_site_type_symbol
_atom_site_label
_atom_site_fract_x
_atom_site_fract_y
_atom_site_fract_z
Si Si1 0.907572 0.842727 0.074647
Si Si2 0.271873 0.693117 0.389819
Si Si3 0.965412 0.246311 0.300205
Si Si4 0.238888 0.565803 0.363756
Si Si5 0.851072 0.567607 0.161679
Si Si6 0.322290 0.431659 0.683807
O O1 0.889827 0.784846 0.147166
O O2 0.030641 0.887435 0.207238
O O3 0.745383 0.880776 0.957949
O O4 0.000000 0.826485 0.000000
O O5 0.320976 0.746746 0.324333
O O6 0.391718 0.705516 0.562351
O O7 0.310023 0.628417 0.351453
O O8 0.078617 0.696931 0.325593
O O9 0.308479 0.500000 0.364969
O O10 0.258619 0.573226 0.516571
O O11 0.045099 0.565692 0.234847
O O12 0.784224 0.500000 0.100005
O O13 0.817171 0.577075 0.285480
O O14 0.382297 0.500000 0.727875
#
# Coordination Sequence:
#
# PCOD9185727 Si02
#       6
#     8   8   8   8   8   8
#     4  10  19  34  57  89 124 161 208 257 315 378
#     4  10  22  43  66  92 123 164 218 267 310 371
#     4  10  22  42  65  91 122 166 215 261 318 372
#     4  10  19  35  59  91 126 162 210 261 313 371
#     4   9  18  31  51  85 128 169 205 252 315 375
#     4   9  16  29  52  84 123 166 211 257 302 365
#
# _framework density 23.802351999999999
#
# number of rings (size 3 to 8) (size 9 to 14) (size 15 to 20)
#    0.000    2.333    1.667    1.000    0.000    6.667 
#    6.000    7.500    0.000    2.000    0.000    1.167 
#    0.000    0.000    0.000    0.000    0.000    0.000 
#
# Total GULP energy -134068.259665 kJ/mol
# GULP energy per Si atom -5586.177486 kJ/mol
# Density = 2.374818 g / cm^3
# Si number density = 23.802352 Si / 1000 Ang^3
#
#
#
# Elastic Constant Matrix: (Units=GPa)
#
#
# Indices 1 2 3 4 5 6 
#
# 1 61.5664 16.7950 21.0239 0.0000 4.9953 0.0000
# 2 16.7950 75.5727 13.6307 0.0000 -6.6564 0.0000
# 3 21.0239 13.6307 93.1431 0.0000 -2.2811 0.0000
# 4 0.0000 0.0000 0.0000 38.5548 0.0000 1.9457
# 5 4.9953 -6.6564 -2.2811 0.0000 21.9834 0.0000
# 6 0.0000 0.0000 0.0000 1.9457 0.0000 19.7877
#
#
#
# Elastic Compliance Matrix: (Units=1/GPa)
#
#
# Indices 1 2 3 4 5 6 
#
# 1 0.019168 -0.004089 -0.003875 0.000000 -0.005996 0.000000
# 2 -0.004089 0.014809 -0.001114 0.000000 0.005297 0.000000
# 3 -0.003875 -0.001114 0.011817 0.000000 0.001769 0.000000
# 4 0.000000 0.000000 0.000000 0.026066 0.000000 -0.002563
# 5 -0.005996 0.005297 0.001769 0.000000 0.048639 0.000000
# 6 0.000000 0.000000 0.000000 -0.002563 0.000000 0.050788
#
#
# Mechanical properties :
#
#
# Convention : Reuss Voigt Hill
#
# Bulk Modulus (GPa) = 36.18345 37.02016 36.60180
# Shear Modulus (GPa) = 25.16909 27.98735 26.57822
#
# Velocity S-wave (km/s) = 3.25533 3.43275 3.34521
# Velocity P-wave (km/s) = 5.41887 5.59451 5.50739
#
# Compressibility (1/GPa) = 0.02763694
#
# Stress axis : x y z
#
# Youngs Moduli (GPa) = 52.17090 67.52831 84.62227
#
# Poissons Ratio (x) = 0.27612 0.32791
# Poissons Ratio (y) = 0.21332 0.09431
# Poissons Ratio (z) = 0.20216 0.07526
#
# Static dielectric constant tensor:
#      x y z
#    x 1.916460 0.000000 -0.020270 
#    y 0.000000 1.953300 0.000000 
#    z -0.020270 0.000000 1.852300 
# 
# From -- ./inp_files/136764.got.cif
#   From: 2010.05.17/outbox.cif.g08.bks.cpg/sg12_69_cif.got.tgz:136764.got - 2010.06.03 13:09:07.
