data_PCOD9185175
_publ_section_title
;
Structure prediction by ZEFSAII (Michael W. Deem and Ramdas Pophale) SiO2 
 PCOD9185175
Probable space group: C 2/M
;
_chemical_formula_sum "Si O2"
_cell_formula_units_Z 56
_cell_length_a 14.970520
_cell_length_b 7.753718
_cell_length_c 31.287466
_cell_angle_alpha 90.000000
_cell_angle_beta 51.197770
_cell_angle_gamma 90.000000
_cell_volume 2830.280769
_symmetry_space_group_name_H-M "C 2/M"
_symmetry_group_IT_number 12
_symmetry_cell_setting 'monoclinic'
loop_
_space_group_symop_operation_xyz
x,y,z
-x,y,-z
-x,-y,-z
x,-y,z
1/2+x,1/2+y,z
1/2-x,1/2+y,-z
1/2-x,1/2-y,-z
1/2+x,1/2-y,z
loop_
_atom_site_type_symbol
_atom_site_label
_atom_site_fract_x
_atom_site_fract_y
_atom_site_fract_z
Si Si1 0.409279 0.288657 0.648023
Si Si2 0.557414 0.290907 0.937818
Si Si3 0.061442 0.202485 0.265003
Si Si4 0.670619 0.294426 0.563645
Si Si5 0.818657 0.797802 0.854884
Si Si6 0.701025 0.797651 0.650421
Si Si7 0.357133 0.707718 0.937560
O O1 0.408088 0.500000 0.647776
O O2 0.398415 0.229286 0.700703
O O3 0.538699 0.235326 0.596303
O O4 0.306943 0.230971 0.647391
O O5 0.566007 0.500000 0.935547
O O6 0.682308 0.216787 0.893273
O O7 0.471602 0.234536 0.926628
O O8 0.500000 0.239673 0.000000
O O9 0.121095 0.278668 0.205079
O O10 0.923828 0.217569 0.303164
O O11 0.090794 0.000000 0.257439
O O12 0.666443 0.500000 0.569846
O O13 0.750000 0.250000 0.500000
O O14 0.718403 0.223927 0.594295
O O15 0.848475 0.721564 0.892313
O O16 0.851631 0.000000 0.846346
O O17 0.690034 0.000000 0.663012
O O18 0.359577 0.500000 0.934495
O O19 0.250000 0.750000 0.000000
#
# Coordination Sequence:
#
# PCOD9185175 Si02
#       7
#     8   8   8   8   8   8   8
#     4   8  17  34  55  74 103 143 176 210 262 316
#     4  10  20  34  51  72 101 134 165 207 262 315
#     4   9  19  37  54  74 105 138 171 216 269 315
#     4  10  20  36  55  80 114 149 180 219 262 306
#     4  10  21  35  54  77 102 133 173 216 260 317
#     4  10  19  34  56  80 103 138 182 219 257 310
#     4  10  20  34  51  73 100 132 167 208 259 314
#
# _framework density 19.786024000000001
#
# number of rings (size 3 to 8) (size 9 to 14) (size 15 to 20)
#    0.000    2.429    1.429    1.714    0.000    3.143 
#    0.000   10.000    0.000    0.000    0.000    0.000 
#    0.000    0.000    0.000    0.000    0.000    0.000 
#
# Total GULP energy -156186.961697 kJ/mol
# GULP energy per Si atom -5578.105775 kJ/mol
# Density = 1.974099 g / cm^3
# Si number density = 19.786024 Si / 1000 Ang^3
#
#
#
# Elastic Constant Matrix: (Units=GPa)
#
#
# Indices 1 2 3 4 5 6 
#
# 1 173.7224 -10.8781 75.1367 -0.0004 20.3959 -0.0006
# 2 -10.8781 23.8868 -11.8635 -0.0010 2.9104 -0.0008
# 3 75.1367 -11.8635 165.2784 -0.0003 20.3641 -0.0002
# 4 -0.0004 -0.0010 -0.0003 19.8662 -0.0003 -4.6859
# 5 20.3959 2.9104 20.3641 -0.0003 15.0856 -0.0002
# 6 -0.0006 -0.0008 -0.0002 -4.6859 -0.0002 20.3297
#
#
#
# Elastic Compliance Matrix: (Units=1/GPa)
#
#
# Indices 1 2 3 4 5 6 
#
# 1 0.007960 0.003462 -0.002353 0.000000 -0.008253 0.000000
# 2 0.003462 0.047984 0.004304 0.000003 -0.019747 0.000003
# 3 -0.002353 0.004304 0.008564 0.000000 -0.009209 0.000000
# 4 0.000000 0.000003 0.000000 0.053231 0.000000 0.012269
# 5 -0.008253 -0.019747 -0.009209 0.000000 0.093687 0.000000
# 6 0.000000 0.000003 0.000000 0.012269 0.000000 0.052017
#
#
# Mechanical properties :
#
#
# Convention : Reuss Voigt Hill
#
# Bulk Modulus (GPa) = 13.27470 51.96421 32.61945
# Shear Modulus (GPa) = 18.00317 31.75580 24.87949
#
# Velocity S-wave (km/s) = 3.01972 4.01054 3.54987
# Velocity P-wave (km/s) = 4.34534 6.91130 5.77269
#
# Compressibility (1/GPa) = 0.07533127
#
# Stress axis : x y z
#
# Youngs Moduli (GPa) = 125.63102 20.84036 116.77147
#
# Poissons Ratio (x) = -0.07214 0.27479
# Poissons Ratio (y) = -0.43489 -0.50253
# Poissons Ratio (z) = 0.29564 -0.08969
#
# Static dielectric constant tensor:
#      x y z
#    x 1.685960 0.000000 0.026490 
#    y 0.000000 1.762860 0.000000 
#    z 0.026490 0.000000 1.692270 
# 
# From -- ./inp_files/360039.got.cif
#   From: 2010.05.17/outbox.cif.g08.bks.cpg/sg12_181_cif.got.tgz:360039.got - 2010.06.03 13:09:07.
