data_PCOD9185399
_publ_section_title
;
Structure prediction by ZEFSAII (Michael W. Deem and Ramdas Pophale) SiO2 
 PCOD9185399
Probable space group: C 2/M
;
_chemical_formula_sum "Si O2"
_cell_formula_units_Z 44
_cell_length_a 17.724661
_cell_length_b 23.365231
_cell_length_c 6.166846
_cell_angle_alpha 90.000000
_cell_angle_beta 50.383213
_cell_angle_gamma 90.000000
_cell_volume 1967.369486
_symmetry_space_group_name_H-M "C 2/M"
_symmetry_group_IT_number 12
_symmetry_cell_setting 'monoclinic'
loop_
_space_group_symop_operation_xyz
x,y,z
-x,y,-z
-x,-y,-z
x,-y,z
1/2+x,1/2+y,z
1/2-x,1/2+y,-z
1/2-x,1/2-y,-z
1/2+x,1/2-y,z
loop_
_atom_site_type_symbol
_atom_site_label
_atom_site_fract_x
_atom_site_fract_y
_atom_site_fract_z
Si Si1 0.900697 0.217950 0.546508
Si Si2 0.500000 0.651519 0.000000
Si Si3 0.745269 0.867601 0.765154
Si Si4 0.148662 0.565782 0.312941
Si Si5 0.149590 0.064857 0.788881
Si Si6 0.404558 0.167430 0.316662
O O1 0.808970 0.178811 0.782252
O O2 0.883138 0.284628 0.536745
O O3 0.000000 0.211378 0.500000
O O4 0.927554 0.191517 0.263742
O O5 0.566273 0.608489 0.019712
O O6 0.815767 0.912644 0.511294
O O7 0.685587 0.835830 0.684986
O O8 0.669215 0.903023 0.048929
O O9 0.116486 0.500000 0.353389
O O10 0.255224 0.566030 0.234307
O O11 0.083748 0.606546 0.584049
O O12 0.114580 0.000000 0.841888
O O13 0.500000 0.181118 0.000000
#
# Coordination Sequence:
#
# PCOD9185399 Si02
#       6
#     8   4   8   8   8   8
#     4  11  23  39  63  91 123 158 199 244 297 360
#     4  10  19  34  56  88 125 160 196 240 294 356
#     4  10  22  40  63  90 121 159 198 245 301 355
#     4  10  22  40  63  88 118 156 202 250 299 352
#     4   9  18  34  57  88 123 159 197 241 294 357
#     4  11  25  42  62  87 123 158 202 248 300 352
#
# _framework density 22.364887
#
# number of rings (size 3 to 8) (size 9 to 14) (size 15 to 20)
#    0.000    1.818    0.909    2.455    2.545    1.818 
#    0.000    0.909    0.000    8.727    0.000    0.000 
#    0.000    0.000    0.000    0.000    0.000    0.000 
#
# Total GULP energy -122897.280074 kJ/mol
# GULP energy per Si atom -5586.240003 kJ/mol
# Density = 2.231398 g / cm^3
# Si number density = 22.364887 Si / 1000 Ang^3
#
#
#
# Elastic Constant Matrix: (Units=GPa)
#
#
# Indices 1 2 3 4 5 6 
#
# 1 73.8710 32.6990 -0.1418 0.0000 -2.1503 0.0000
# 2 32.6990 137.9037 14.0893 0.0000 -3.8786 0.0000
# 3 -0.1418 14.0893 36.5466 0.0000 -6.3890 0.0000
# 4 0.0000 0.0000 0.0000 20.8992 0.0000 4.5051
# 5 -2.1503 -3.8786 -6.3890 0.0000 21.4413 0.0000
# 6 0.0000 0.0000 0.0000 4.5051 0.0000 24.6413
#
#
#
# Elastic Compliance Matrix: (Units=1/GPa)
#
#
# Indices 1 2 3 4 5 6 
#
# 1 0.015242 -0.003754 0.001746 0.000000 0.001370 0.000000
# 2 -0.003754 0.008479 -0.003250 0.000000 0.000189 0.000000
# 3 0.001746 -0.003250 0.030119 0.000000 0.008562 0.000000
# 4 0.000000 0.000000 0.000000 0.049812 0.000000 -0.009107
# 5 0.001370 0.000189 0.008562 0.000000 0.049362 0.000000
# 6 0.000000 0.000000 0.000000 -0.009107 0.000000 0.042247
#
#
# Mechanical properties :
#
#
# Convention : Reuss Voigt Hill
#
# Bulk Modulus (GPa) = 23.08246 37.95714 30.51980
# Shear Modulus (GPa) = 22.70474 26.84136 24.77305
#
# Velocity S-wave (km/s) = 3.18967 3.46809 3.33179
# Velocity P-wave (km/s) = 4.88964 5.74851 5.33638
#
# Compressibility (1/GPa) = 0.04332293
#
# Stress axis : x y z
#
# Youngs Moduli (GPa) = 65.60808 117.93922 33.20173
#
# Poissons Ratio (x) = 0.44274 -0.05796
# Poissons Ratio (y) = 0.24629 0.10792
# Poissons Ratio (z) = -0.11454 0.38334
#
# Static dielectric constant tensor:
#      x y z
#    x 1.848890 0.000000 -0.005130 
#    y 0.000000 1.820450 0.000000 
#    z -0.005130 0.000000 1.809500 
# 
# From -- ./inp_files/11655.got.cif
#   From: 2010.05.17/outbox.cif.g08.bks.cpg/sg12_6_cif.got.tgz:11655.got - 2010.06.03 13:09:07.
