data_PCOD9185247
_publ_section_title
;
Structure prediction by ZEFSAII (Michael W. Deem and Ramdas Pophale) SiO2 
 PCOD9185247
Probable space group: C 2/M
;
_chemical_formula_sum "Si O2"
_cell_formula_units_Z 64
_cell_length_a 12.453847
_cell_length_b 14.477644
_cell_length_c 30.089228
_cell_angle_alpha 90.000000
_cell_angle_beta 34.456646
_cell_angle_gamma 90.000000
_cell_volume 3069.459885
_symmetry_space_group_name_H-M "C 2/M"
_symmetry_group_IT_number 12
_symmetry_cell_setting 'monoclinic'
loop_
_space_group_symop_operation_xyz
x,y,z
-x,y,-z
-x,-y,-z
x,-y,z
1/2+x,1/2+y,z
1/2-x,1/2+y,-z
1/2-x,1/2-y,-z
1/2+x,1/2-y,z
loop_
_atom_site_type_symbol
_atom_site_label
_atom_site_fract_x
_atom_site_fract_y
_atom_site_fract_z
Si Si1 0.229909 0.205921 0.390631
Si Si2 0.837795 0.257039 0.133376
Si Si3 0.719480 0.606670 0.244228
Si Si4 0.780331 0.900295 0.417162
Si Si5 0.064103 0.106368 0.828793
Si Si6 0.032940 0.733352 0.777056
Si Si7 0.312776 0.344999 0.500795
Si Si8 0.620478 0.898450 0.003973
O O1 0.197788 0.310777 0.420037
O O2 0.388922 0.211474 0.298698
O O3 0.278141 0.148393 0.419040
O O4 0.038175 0.163170 0.434682
O O5 0.725383 0.340415 0.195715
O O6 0.850534 0.169322 0.161151
O O7 0.695651 0.229046 0.142524
O O8 0.037797 0.306872 0.055691
O O9 0.767540 0.500000 0.223771
O O10 0.507471 0.613340 0.335327
O O11 0.867444 0.660249 0.224646
O O12 0.752193 0.906465 0.479946
O O13 0.728205 0.000000 0.414803
O O14 0.095298 0.165607 0.773392
O O15 0.127999 0.000000 0.804974
O O16 0.839874 0.106475 0.916358
O O17 0.250000 0.250000 0.500000
O O18 0.591295 0.000000 0.036512
O O19 0.500000 0.901483 0.000000
#
# Coordination Sequence:
#
# PCOD9185247 Si02
#       8
#     8   8   8   8   8   8   8   8
#     4  10  19  35  55  81 106 145 184 223 281 334
#     4  11  21  36  60  83 112 155 190 225 283 340
#     4  10  21  35  53  83 114 144 187 234 277 334
#     4  10  19  34  56  82 108 139 184 236 278 326
#     4  10  23  38  56  84 118 150 188 235 278 329
#     4  11  21  35  58  82 112 147 189 230 284 337
#     4   9  19  35  56  75 107 147 177 220 276 338
#     4  10  19  35  59  87 115 146 188 236 277 325
#
# _framework density 20.850573000000001
#
# number of rings (size 3 to 8) (size 9 to 14) (size 15 to 20)
#    0.000    1.875    3.750    0.750    0.000    1.500 
#    0.000    6.875    0.000    4.875    0.000    0.000 
#    0.000    0.000    0.000    0.000    0.000    0.000 
#
# Total GULP energy -178258.425518 kJ/mol
# GULP energy per Si atom -5570.575797 kJ/mol
# Density = 2.080312 g / cm^3
# Si number density = 20.850573 Si / 1000 Ang^3
#
#
#
# Elastic Constant Matrix: (Units=GPa)
#
#
# Indices 1 2 3 4 5 6 
#
# 1 48.4653 5.2706 -6.9040 0.0018 -5.9261 -0.0007
# 2 5.2706 91.0854 2.3769 -0.0003 -12.7857 -0.0002
# 3 -6.9040 2.3769 47.4958 0.0000 2.0160 -0.0030
# 4 0.0018 -0.0003 0.0000 7.0620 -0.0017 3.3661
# 5 -5.9261 -12.7857 2.0160 -0.0017 21.3781 0.0015
# 6 -0.0007 -0.0002 -0.0030 3.3661 0.0015 7.7991
#
#
#
# Elastic Compliance Matrix: (Units=1/GPa)
#
#
# Indices 1 2 3 4 5 6 
#
# 1 0.021780 -0.000578 0.002965 -0.000007 0.005412 0.000005
# 2 -0.000578 0.012039 -0.000989 0.000004 0.007133 -0.000003
# 3 0.002965 -0.000989 0.021612 -0.000007 -0.001808 0.000012
# 4 -0.000007 0.000004 -0.000007 0.178280 0.000020 -0.076945
# 5 0.005412 0.007133 -0.001808 0.000020 0.052714 -0.000019
# 6 0.000005 -0.000003 0.000012 -0.076945 -0.000019 0.161429
#
#
# Mechanical properties :
#
#
# Convention : Reuss Voigt Hill
#
# Bulk Modulus (GPa) = 17.17408 20.94817 19.06112
# Shear Modulus (GPa) = 10.76502 19.66805 15.21653
#
# Velocity S-wave (km/s) = 2.27467 3.07463 2.70439
# Velocity P-wave (km/s) = 3.89275 4.76162 4.34894
#
# Compressibility (1/GPa) = 0.05822730
#
# Stress axis : x y z
#
# Youngs Moduli (GPa) = 45.91285 83.06135 46.27114
#
# Poissons Ratio (x) = 0.04801 -0.13720
# Poissons Ratio (y) = 0.02654 0.04578
# Poissons Ratio (z) = -0.13614 0.08217
#
# Static dielectric constant tensor:
#      x y z
#    x 1.815240 0.000000 -0.031180 
#    y 0.000000 1.825900 0.000000 
#    z -0.031180 0.000000 1.827020 
# 
# From -- ./inp_files/358441.got.cif
#   From: 2010.05.17/outbox.cif.g08.bks.cpg/sg12_180_cif.got.tgz:358441.got - 2010.06.03 13:09:07.
