data_PCOD9185101
_publ_section_title
;
Structure prediction by ZEFSAII (Michael W. Deem and Ramdas Pophale) SiO2 
 PCOD9185101
Probable space group: C 2/M
;
_chemical_formula_sum "Si O2"
_cell_formula_units_Z 48
_cell_length_a 18.861440
_cell_length_b 14.859382
_cell_length_c 19.469747
_cell_angle_alpha 90.000000
_cell_angle_beta 20.431359
_cell_angle_gamma 90.000000
_cell_volume 1904.877591
_symmetry_space_group_name_H-M "C 2/M"
_symmetry_group_IT_number 12
_symmetry_cell_setting 'monoclinic'
loop_
_space_group_symop_operation_xyz
x,y,z
-x,y,-z
-x,-y,-z
x,-y,z
1/2+x,1/2+y,z
1/2-x,1/2+y,-z
1/2-x,1/2-y,-z
1/2+x,1/2-y,z
loop_
_atom_site_type_symbol
_atom_site_label
_atom_site_fract_x
_atom_site_fract_y
_atom_site_fract_z
Si Si1 0.233942 0.704194 0.264809
Si Si2 0.276318 0.597312 0.738535
Si Si3 0.290395 0.283980 0.368845
Si Si4 0.049216 0.600242 0.803402
Si Si5 0.138736 0.102457 0.112107
Si Si6 0.612767 0.101052 0.254883
O O1 0.256120 0.800829 0.207157
O O2 0.342790 0.699841 0.239853
O O3 0.256014 0.627035 0.188981
O O4 0.000000 0.698418 0.500000
O O5 0.500000 0.599046 0.500000
O O6 0.269373 0.500000 0.782372
O O7 0.116706 0.593199 0.820814
O O8 0.309018 0.176431 0.358053
O O9 0.072886 0.328659 0.579378
O O10 0.455298 0.330108 0.267728
O O11 0.073879 0.500000 0.750360
O O12 0.814168 0.626474 0.007187
O O13 0.261904 0.103594 0.928657
O O14 0.068302 0.000000 0.189173
O O15 0.530808 0.000000 0.339481
#
# Coordination Sequence:
#
# PCOD9185101 Si02
#       6
#     8   8   8   8   8   8
#     4   8  16  29  47  73 100 131 171 212 252 297
#     4   8  13  25  48  74  98 127 165 209 258 306
#     4  10  19  34  56  75 100 141 176 207 257 308
#     4   9  18  33  53  78 106 133 168 215 258 303
#     4  10  21  35  52  77 107 138 172 210 254 305
#     4  10  21  35  51  76 108 137 172 216 253 296
#
# _framework density 25.198471000000001
#
# number of rings (size 3 to 8) (size 9 to 14) (size 15 to 20)
#    0.000    2.833    0.000    2.000    0.000    5.000 
#    0.000    1.667    0.000    2.000    0.000    4.667 
#    0.000    0.000    0.000    0.000    0.000    0.000 
#
# Total GULP energy -134176.377354 kJ/mol
# GULP energy per Si atom -5590.682390 kJ/mol
# Density = 2.514112 g / cm^3
# Si number density = 25.198471 Si / 1000 Ang^3
#
#
#
# Elastic Constant Matrix: (Units=GPa)
#
#
# Indices 1 2 3 4 5 6 
#
# 1 116.8189 23.0986 18.9804 -0.0126 -15.6754 0.0106
# 2 23.0986 99.9317 14.7934 0.1325 1.6253 0.3565
# 3 18.9804 14.7934 71.1259 0.0030 -8.3308 0.2219
# 4 -0.0126 0.1325 0.0030 96.2324 0.0246 75.6301
# 5 -15.6754 1.6253 -8.3308 0.0246 35.1297 -0.0039
# 6 0.0106 0.3565 0.2219 75.6301 -0.0039 137.2638
#
#
#
# Elastic Compliance Matrix: (Units=1/GPa)
#
#
# Indices 1 2 3 4 5 6 
#
# 1 0.009793 -0.002077 -0.001706 -0.000005 0.004061 0.000010
# 2 -0.002077 0.010801 -0.001912 0.000009 -0.001880 -0.000030
# 3 -0.001706 -0.001912 0.015258 0.000029 0.002946 -0.000036
# 4 -0.000005 0.000009 0.000029 0.018328 -0.000010 -0.010099
# 5 0.004061 -0.001880 0.002946 -0.000010 0.031064 0.000006
# 6 0.000010 -0.000030 -0.000036 -0.010099 0.000006 0.012849
#
#
# Mechanical properties :
#
#
# Convention : Reuss Voigt Hill
#
# Bulk Modulus (GPa) = 40.88096 44.62456 42.75276
# Shear Modulus (GPa) = 42.50378 69.12545 55.81461
#
# Velocity S-wave (km/s) = 4.11147 5.24328 4.71148
# Velocity P-wave (km/s) = 6.22879 7.37588 6.82647
#
# Compressibility (1/GPa) = 0.02446127
#
# Stress axis : x y z
#
# Youngs Moduli (GPa) = 102.11271 92.58641 65.54115
#
# Poissons Ratio (x) = 0.19232 0.11179
# Poissons Ratio (y) = 0.21211 0.12533
# Poissons Ratio (z) = 0.17417 0.17705
#
# Static dielectric constant tensor:
#      x y z
#    x 2.052190 -0.000010 0.048920 
#    y -0.000010 1.980890 0.000040 
#    z 0.048920 0.000040 2.050970 
# 
# From -- ./inp_files/347471.got.cif
#   From: 2010.05.17/outbox.cif.g08.bks.cpg/sg12_174_cif.got.tgz:347471.got - 2010.06.03 13:09:07.
