data_PCOD9185458
_publ_section_title
;
Structure prediction by ZEFSAII (Michael W. Deem and Ramdas Pophale) SiO2 
 PCOD9185458
Probable space group: C 2/M
;
_chemical_formula_sum "Si O2"
_cell_formula_units_Z 64
_cell_length_a 21.119162
_cell_length_b 8.519241
_cell_length_c 22.315401
_cell_angle_alpha 90.000000
_cell_angle_beta 61.560171
_cell_angle_gamma 90.000000
_cell_volume 3530.434122
_symmetry_space_group_name_H-M "C 2/M"
_symmetry_group_IT_number 12
_symmetry_cell_setting 'monoclinic'
loop_
_space_group_symop_operation_xyz
x,y,z
-x,y,-z
-x,-y,-z
x,-y,z
1/2+x,1/2+y,z
1/2-x,1/2+y,-z
1/2-x,1/2-y,-z
1/2+x,1/2-y,z
loop_
_atom_site_type_symbol
_atom_site_label
_atom_site_fract_x
_atom_site_fract_y
_atom_site_fract_z
Si Si1 0.665352 0.691523 0.919194
Si Si2 0.026962 0.808890 0.552532
Si Si3 0.086902 0.810055 0.076514
Si Si4 0.828103 0.188375 0.446785
Si Si5 0.594374 0.186766 0.703996
Si Si6 0.049012 0.188173 0.292021
Si Si7 0.330770 0.187943 0.843816
Si Si8 0.919911 0.189888 0.160723
O O1 0.664684 0.500000 0.919943
O O2 0.748203 0.742669 0.881140
O O3 0.623962 0.741073 0.877956
O O4 0.624548 0.741907 0.997888
O O5 0.107276 0.760361 0.537151
O O6 0.000000 0.752944 0.500000
O O7 0.973199 0.763284 0.630719
O O8 0.027577 0.000000 0.550584
O O9 0.129533 0.747107 0.114433
O O10 0.003437 0.762057 0.116735
O O11 0.088653 0.000000 0.077574
O O12 0.750000 0.250000 0.500000
O O13 0.851754 0.247552 0.370581
O O14 0.827570 0.000000 0.446754
O O15 0.515504 0.251162 0.721235
O O16 0.610507 0.243907 0.763581
O O17 0.593649 0.000000 0.701669
O O18 0.123629 0.251875 0.233249
O O19 0.049159 0.000000 0.289196
O O20 0.331416 0.000000 0.843189
O O21 0.918007 0.000000 0.164402
#
# Coordination Sequence:
#
# PCOD9185458 Si02
#       8
#     8   8   8   8   8   8   8   8
#     4   9  20  36  53  79 111 146 181 226 280 333
#     4   8  16  33  57  82 107 137 177 225 268 313
#     4  10  19  34  59  81 102 141 192 228 270 333
#     4  10  20  36  59  85 116 148 184 223 271 325
#     4  11  21  35  57  83 112 144 186 230 274 323
#     4  10  19  34  57  81 106 143 187 224 268 328
#     4  11  21  34  53  78 113 145 179 226 277 324
#     4  10  19  35  58  80 108 143 186 229 274 330
#
# _framework density 18.128081000000002
#
# number of rings (size 3 to 8) (size 9 to 14) (size 15 to 20)
#    0.000    2.125    1.250    3.750    0.000    1.500 
#    2.250    2.500    0.000   14.250    0.000    0.000 
#    0.000    0.000    0.000    0.000    0.000    0.000 
#
# Total GULP energy -178631.553807 kJ/mol
# GULP energy per Si atom -5582.236056 kJ/mol
# Density = 1.808682 g / cm^3
# Si number density = 18.128081 Si / 1000 Ang^3
#
#
#
# Elastic Constant Matrix: (Units=GPa)
#
#
# Indices 1 2 3 4 5 6 
#
# 1 145.8113 27.8112 102.5963 -0.0002 2.5107 -0.0011
# 2 27.8112 31.1730 27.9143 -0.0007 -0.5892 -0.0025
# 3 102.5963 27.9143 164.6439 0.0000 1.4804 -0.0003
# 4 -0.0002 -0.0007 0.0000 14.1351 0.0001 -13.0041
# 5 2.5107 -0.5892 1.4804 0.0001 33.6612 -0.0002
# 6 -0.0011 -0.0025 -0.0003 -13.0041 -0.0002 10.6074
#
#
#
# Elastic Compliance Matrix: (Units=1/GPa)
#
#
# Indices 1 2 3 4 5 6 
#
# 1 0.012876 -0.005096 -0.007153 0.000000 -0.000735 0.000000
# 2 -0.005096 0.039868 -0.003595 -0.000078 0.001236 -0.000087
# 3 -0.007153 -0.003595 0.011141 0.000012 -0.000019 0.000013
# 4 0.000000 -0.000078 0.000012 -0.553293 -0.000003 -0.678310
# 5 -0.000735 0.001236 -0.000019 -0.000003 0.029785 -0.000003
# 6 0.000000 -0.000087 0.000013 -0.678310 -0.000003 -0.737302
#
#
# Mechanical properties :
#
#
# Convention : Reuss Voigt Hill
#
# Bulk Modulus (GPa) = 31.05895 73.14128 52.10011
# Shear Modulus (GPa) = -4.33086 23.90117 9.78515
#
# Velocity S-wave (km/s) = -1.54733 3.63500 2.32583
# Velocity P-wave (km/s) = 3.73871 7.61920 6.00126
#
# Compressibility (1/GPa) = 0.03219684
#
# Stress axis : x y z
#
# Youngs Moduli (GPa) = 77.66606 25.08280 89.76215
#
# Poissons Ratio (x) = 0.12782 0.64205
# Poissons Ratio (y) = 0.39578 0.32269
# Poissons Ratio (z) = 0.55552 0.09017
#
# Static dielectric constant tensor:
#      x y z
#    x 1.607790 0.000000 -0.002030 
#    y 0.000000 1.617040 0.000000 
#    z -0.002030 0.000000 1.613840 
# 
# From -- ./inp_files/319842.got.cif
#   From: 2010.05.17/outbox.cif.g08.bks.cpg/sg12_160_cif.got.tgz:319842.got - 2010.06.03 13:09:07.
