data_PCOD9185534
_publ_section_title
;
Structure prediction by ZEFSAII (Michael W. Deem and Ramdas Pophale) SiO2 
 PCOD9185534
Probable space group: C 2/M
;
_chemical_formula_sum "Si O2"
_cell_formula_units_Z 64
_cell_length_a 20.944167
_cell_length_b 8.311105
_cell_length_c 20.512986
_cell_angle_alpha 90.000000
_cell_angle_beta 75.986904
_cell_angle_gamma 90.000000
_cell_volume 3464.416525
_symmetry_space_group_name_H-M "C 2/M"
_symmetry_group_IT_number 12
_symmetry_cell_setting 'monoclinic'
loop_
_space_group_symop_operation_xyz
x,y,z
-x,y,-z
-x,-y,-z
x,-y,z
1/2+x,1/2+y,z
1/2-x,1/2+y,-z
1/2-x,1/2-y,-z
1/2+x,1/2-y,z
loop_
_atom_site_type_symbol
_atom_site_label
_atom_site_fract_x
_atom_site_fract_y
_atom_site_fract_z
Si Si1 0.178914 0.194948 0.789735
Si Si2 0.797951 0.190592 0.574485
Si Si3 0.447376 0.303816 0.921480
Si Si4 0.428484 0.187676 0.287970
Si Si5 0.405943 0.695796 0.070950
Si Si6 0.345366 0.689823 0.423070
Si Si7 0.929085 0.189835 0.781004
Si Si8 0.322297 0.809411 0.707060
O O1 0.127233 0.255206 0.748924
O O2 0.152197 0.248693 0.867023
O O3 0.252319 0.248053 0.753737
O O4 0.177852 0.000000 0.788886
O O5 0.727268 0.277635 0.588600
O O6 0.839040 0.239557 0.500274
O O7 0.831634 0.228161 0.634533
O O8 0.785424 0.000000 0.571682
O O9 0.446819 0.500000 0.920488
O O10 0.523586 0.257479 0.915120
O O11 0.423167 0.248795 0.857034
O O12 0.407111 0.251033 0.995409
O O13 0.398634 0.219261 0.366758
O O14 0.495594 0.282375 0.258628
O O15 0.441570 0.000000 0.275228
O O16 0.405293 0.500000 0.070094
O O17 0.359101 0.500000 0.415923
O O18 0.879935 0.273173 0.743248
O O19 0.914931 0.000000 0.783975
O O20 0.317505 0.000000 0.697517
#
# Coordination Sequence:
#
# PCOD9185534 Si02
#       8
#     8   8   8   8   8   8   8   8
#     4  10  19  34  57  82 111 147 188 232 278 330
#     4  10  20  35  57  85 114 147 185 228 276 326
#     4   8  14  26  51  82 107 138 183 233 277 330
#     4  12  23  35  56  85 115 144 186 235 279 331
#     4   8  13  26  51  83 109 134 182 234 277 327
#     4  10  20  35  57  85 115 145 183 229 278 328
#     4  11  22  38  58  79 111 151 191 233 284 339
#     4  11  23  37  55  81 116 154 189 229 279 334
#
# _framework density 18.47353
#
# number of rings (size 3 to 8) (size 9 to 14) (size 15 to 20)
#    0.000    2.000    2.500    3.375    0.000    2.000 
#    0.000    1.250    0.000    6.000    0.000    0.000 
#    0.000    0.000    0.000    0.000    0.000    0.000 
#
# Total GULP energy -178596.350759 kJ/mol
# GULP energy per Si atom -5581.135961 kJ/mol
# Density = 1.843148 g / cm^3
# Si number density = 18.473530 Si / 1000 Ang^3
#
#
#
# Elastic Constant Matrix: (Units=GPa)
#
#
# Indices 1 2 3 4 5 6 
#
# 1 58.9658 -6.7932 35.7697 0.0000 9.1329 0.0000
# 2 -6.7932 13.1002 -0.4464 0.0000 -1.4844 0.0000
# 3 35.7697 -0.4464 137.7405 0.0000 8.4156 0.0000
# 4 0.0000 0.0000 0.0000 12.0693 0.0000 3.5011
# 5 9.1329 -1.4844 8.4156 0.0000 25.2719 0.0000
# 6 0.0000 0.0000 0.0000 3.5011 0.0000 20.9374
#
#
#
# Elastic Compliance Matrix: (Units=1/GPa)
#
#
# Indices 1 2 3 4 5 6 
#
# 1 0.022368 0.010775 -0.005429 0.000000 -0.005643 0.000000
# 2 0.010775 0.082037 -0.002642 0.000000 0.001805 0.000000
# 3 -0.005429 -0.002642 0.008729 0.000000 -0.001100 0.000000
# 4 0.000000 0.000000 0.000000 0.087079 0.000000 -0.014561
# 5 -0.005643 0.001805 -0.001100 0.000000 0.042081 0.000000
# 6 0.000000 0.000000 0.000000 -0.014561 0.000000 0.050196
#
#
# Mechanical properties :
#
#
# Convention : Reuss Voigt Hill
#
# Bulk Modulus (GPa) = 8.43604 29.65184 19.04394
# Shear Modulus (GPa) = 15.30946 23.74081 19.52514
#
# Velocity S-wave (km/s) = 2.88188 3.58875 3.25457
# Velocity P-wave (km/s) = 3.95602 5.76698 4.94511
#
# Compressibility (1/GPa) = 0.11853909
#
# Stress axis : x y z
#
# Youngs Moduli (GPa) = 44.70764 12.18967 114.56719
#
# Poissons Ratio (x) = -0.13134 0.62198
# Poissons Ratio (y) = -0.48170 0.30274
# Poissons Ratio (z) = 0.24272 0.03221
#
# Static dielectric constant tensor:
#      x y z
#    x 1.593460 0.000000 -0.009290 
#    y 0.000000 1.629390 0.000000 
#    z -0.009290 0.000000 1.668510 
# 
# From -- ./inp_files/319143.got.cif
#   From: 2010.05.17/outbox.cif.g08.bks.cpg/sg12_160_cif.got.tgz:319143.got - 2010.06.03 13:09:07.
