data_PCOD9185343
_publ_section_title
;
Structure prediction by ZEFSAII (Michael W. Deem and Ramdas Pophale) SiO2 
 PCOD9185343
Probable space group: C 2/M
;
_chemical_formula_sum "Si O2"
_cell_formula_units_Z 64
_cell_length_a 29.988373
_cell_length_b 9.026751
_cell_length_c 18.618984
_cell_angle_alpha 90.000000
_cell_angle_beta 40.749912
_cell_angle_gamma 90.000000
_cell_volume 3289.977595
_symmetry_space_group_name_H-M "C 2/M"
_symmetry_group_IT_number 12
_symmetry_cell_setting 'monoclinic'
loop_
_space_group_symop_operation_xyz
x,y,z
-x,y,-z
-x,-y,-z
x,-y,z
1/2+x,1/2+y,z
1/2-x,1/2+y,-z
1/2-x,1/2-y,-z
1/2+x,1/2-y,z
loop_
_atom_site_type_symbol
_atom_site_label
_atom_site_fract_x
_atom_site_fract_y
_atom_site_fract_z
Si Si1 0.191233 0.677004 0.121072
Si Si2 0.811028 0.822898 0.720965
Si Si3 0.837274 0.325856 0.152882
Si Si4 0.597195 0.319607 0.519524
Si Si5 0.942069 0.173849 0.932604
Si Si6 0.680341 0.676742 0.557498
Si Si7 0.050705 0.825022 0.245733
Si Si8 0.414065 0.676326 0.190413
O O1 0.197151 0.500000 0.110371
O O2 0.196632 0.735094 0.196055
O O3 0.117071 0.732441 0.185386
O O4 0.250000 0.750000 0.000000
O O5 0.742955 0.798737 0.757001
O O6 0.874258 0.777841 0.593285
O O7 0.815786 0.000000 0.730425
O O8 0.847979 0.500000 0.144881
O O9 0.871486 0.249691 0.179381
O O10 0.875768 0.263263 0.036195
O O11 0.597768 0.500000 0.521940
O O12 0.648510 0.270175 0.520693
O O13 0.519507 0.275110 0.630904
O O14 0.958824 0.185318 0.828346
O O15 0.007717 0.226935 0.897520
O O16 0.930877 0.000000 0.962129
O O17 0.691892 0.500000 0.537269
O O18 0.750000 0.750000 0.500000
O O19 0.623707 0.701570 0.687980
O O20 0.062142 0.000000 0.248896
O O21 0.415963 0.500000 0.176028
#
# Coordination Sequence:
#
# PCOD9185343 Si02
#       8
#     8   8   8   8   8   8   8   8
#     4  12  26  44  66  93 123 154 194 245 303 365
#     4  10  22  41  63  88 121 159 199 243 294 353
#     4  11  23  36  54  84 119 156 198 248 301 349
#     4   9  18  37  64  89 118 159 205 245 288 355
#     4  10  20  36  58  84 114 154 201 246 292 351
#     4  10  19  34  56  84 118 158 203 248 292 343
#     4  10  20  39  67  93 118 155 203 250 298 355
#     4  10  20  35  55  81 115 155 200 244 291 351
#
# _framework density 19.453021
#
# number of rings (size 3 to 8) (size 9 to 14) (size 15 to 20)
#    0.000    1.750    1.250    3.375    0.000    7.500 
#    0.000    4.375    0.000    0.000    0.000    0.000 
#    0.000    0.000    0.000    0.000    0.000    0.000 
#
# Total GULP energy -178777.064487 kJ/mol
# GULP energy per Si atom -5586.783265 kJ/mol
# Density = 1.940874 g / cm^3
# Si number density = 19.453021 Si / 1000 Ang^3
#
#
#
# Elastic Constant Matrix: (Units=GPa)
#
#
# Indices 1 2 3 4 5 6 
#
# 1 67.2811 27.6431 52.7979 -0.0040 -5.6980 0.0062
# 2 27.6431 34.0657 56.4490 -0.0028 -5.4490 0.0097
# 3 52.7979 56.4490 138.9439 -0.0060 -0.8249 0.0070
# 4 -0.0040 -0.0028 -0.0060 20.4080 0.0016 -4.8194
# 5 -5.6980 -5.4490 -0.8249 0.0016 28.6581 -0.0014
# 6 0.0062 0.0097 0.0070 -4.8194 -0.0014 30.0385
#
#
#
# Elastic Compliance Matrix: (Units=1/GPa)
#
#
# Indices 1 2 3 4 5 6 
#
# 1 0.022974 -0.011761 -0.003938 0.000002 0.002218 0.000000
# 2 -0.011761 0.103875 -0.037635 -0.000006 0.016329 -0.000022
# 3 -0.003938 -0.037635 0.023941 0.000004 -0.007250 0.000008
# 4 0.000002 -0.000006 0.000004 0.050930 -0.000003 0.008171
# 5 0.002218 0.016329 -0.007250 -0.000003 0.038231 -0.000003
# 6 0.000000 -0.000022 0.000008 0.008171 -0.000003 0.034602
#
#
# Mechanical properties :
#
#
# Convention : Reuss Voigt Hill
#
# Bulk Modulus (GPa) = 22.66573 57.11895 39.89234
# Shear Modulus (GPa) = 12.62851 22.71429 17.67140
#
# Velocity S-wave (km/s) = 2.55066 3.42079 3.01726
# Velocity P-wave (km/s) = 4.51125 6.71034 5.71752
#
# Compressibility (1/GPa) = 0.04411947
#
# Stress axis : x y z
#
# Youngs Moduli (GPa) = 43.52790 9.62694 41.76962
#
# Poissons Ratio (x) = 0.11323 0.16451
# Poissons Ratio (y) = 0.51195 1.57201
# Poissons Ratio (z) = 0.17143 0.36231
#
# Static dielectric constant tensor:
#      x y z
#    x 1.683810 0.000000 0.003510 
#    y 0.000000 1.654050 0.000000 
#    z 0.003510 0.000000 1.688630 
# 
# From -- ./inp_files/295474.got.cif
#   From: 2010.05.17/outbox.cif.g08.bks.cpg/sg12_148_cif.got.tgz:295474.got - 2010.06.03 13:09:07.
