data_PCOD9185962
_publ_section_title
;
Structure prediction by ZEFSAII (Michael W. Deem and Ramdas Pophale) SiO2 
 PCOD9185962
Probable space group: C 2/M
;
_chemical_formula_sum "Si O2"
_cell_formula_units_Z 52
_cell_length_a 8.426746
_cell_length_b 18.663520
_cell_length_c 18.571903
_cell_angle_alpha 90.000000
_cell_angle_beta 128.922855
_cell_angle_gamma 90.000000
_cell_volume 2272.402876
_symmetry_space_group_name_H-M "C 2/M"
_symmetry_group_IT_number 12
_symmetry_cell_setting 'monoclinic'
loop_
_space_group_symop_operation_xyz
x,y,z
-x,y,-z
-x,-y,-z
x,-y,z
1/2+x,1/2+y,z
1/2-x,1/2+y,-z
1/2-x,1/2-y,-z
1/2+x,1/2-y,z
loop_
_atom_site_type_symbol
_atom_site_label
_atom_site_fract_x
_atom_site_fract_y
_atom_site_fract_z
Si Si1 0.331465 0.918966 0.512166
Si Si2 0.560300 0.296392 0.414188
Si Si3 0.000000 0.856144 0.000000
Si Si4 0.386359 0.080264 0.271133
Si Si5 0.069284 0.418326 0.886816
Si Si6 0.661854 0.709160 0.285045
Si Si7 0.022301 0.265317 0.905349
O O1 0.500000 0.891464 0.500000
O O2 0.125065 0.874536 0.457439
O O3 0.429554 0.917584 0.619134
O O4 0.290960 0.000000 0.478031
O O5 0.750000 0.250000 0.500000
O O6 0.544407 0.306752 0.323914
O O7 0.351279 0.256019 0.369382
O O8 0.188744 0.904913 0.030243
O O9 0.085408 0.800175 0.083700
O O10 0.451934 0.089368 0.206568
O O11 0.242337 0.140482 0.264630
O O12 0.294252 0.000000 0.248890
O O13 0.010689 0.500000 0.889632
O O14 0.969881 0.349606 0.899215
O O15 0.520094 0.750991 0.189701
O O16 0.250000 0.250000 0.000000
#
# Coordination Sequence:
#
# PCOD9185962 Si02
#       7
#     8   8   4   8   8   8   8
#     4  10  19  35  56  83 118 156 199 250 295 348
#     4  12  23  37  59  90 121 160 204 249 303 372
#     4  10  19  36  61  86 112 150 210 256 309 370
#     4  10  19  34  58  87 117 153 202 253 303 355
#     4  10  20  37  58  86 119 157 202 255 313 368
#     4  12  23  39  61  90 124 161 207 255 312 371
#     4  10  23  39  60  88 120 158 205 262 316 366
#
# _framework density 22.883267
#
# number of rings (size 3 to 8) (size 9 to 14) (size 15 to 20)
#    0.000    1.385    4.615    1.615    2.154    0.000 
#    0.000    1.154    0.000    2.769    0.000    0.000 
#    0.000    0.000    0.000    0.000    0.000    0.000 
#
# Total GULP energy -144939.704661 kJ/mol
# GULP energy per Si atom -5574.604025 kJ/mol
# Density = 2.283118 g / cm^3
# Si number density = 22.883267 Si / 1000 Ang^3
#
#
#
# Elastic Constant Matrix: (Units=GPa)
#
#
# Indices 1 2 3 4 5 6 
#
# 1 19.4837 9.7058 13.5433 0.0000 -5.2843 0.0000
# 2 9.7058 145.5393 30.3513 0.0000 -5.8832 0.0000
# 3 13.5433 30.3513 109.3991 0.0000 -9.0094 0.0000
# 4 0.0000 0.0000 0.0000 29.6592 0.0000 -8.8762
# 5 -5.2843 -5.8832 -9.0094 0.0000 30.2566 0.0000
# 6 0.0000 0.0000 0.0000 -8.8762 0.0000 18.5726
#
#
#
# Elastic Compliance Matrix: (Units=1/GPa)
#
#
# Indices 1 2 3 4 5 6 
#
# 1 0.058826 -0.002354 -0.005967 0.000000 0.008039 0.000000
# 2 -0.002354 0.007408 -0.001721 0.000000 0.000517 0.000000
# 3 -0.005967 -0.001721 0.010501 0.000000 0.001750 0.000000
# 4 0.000000 0.000000 0.000000 0.039344 0.000000 0.018803
# 5 0.008039 0.000517 0.001750 0.000000 0.035076 0.000000
# 6 0.000000 0.000000 0.000000 0.018803 0.000000 0.062829
#
#
# Mechanical properties :
#
#
# Convention : Reuss Voigt Hill
#
# Bulk Modulus (GPa) = 17.65215 42.40255 30.02735
# Shear Modulus (GPa) = 19.76662 30.41912 25.09287
#
# Velocity S-wave (km/s) = 2.94224 3.64994 3.31503
# Velocity P-wave (km/s) = 4.39012 6.02768 5.27285
#
# Compressibility (1/GPa) = 0.05665032
#
# Stress axis : x y z
#
# Youngs Moduli (GPa) = 16.99935 134.99271 95.22666
#
# Poissons Ratio (x) = 0.31771 0.56826
# Poissons Ratio (y) = 0.04001 0.16391
# Poissons Ratio (z) = 0.10144 0.23236
#
# Static dielectric constant tensor:
#      x y z
#    x 1.997150 0.000000 -0.013620 
#    y 0.000000 1.951150 0.000000 
#    z -0.013620 0.000000 1.875140 
# 
# From -- ./inp_files/306277.got.cif
#   From: 2010.05.17/outbox.cif.g08.bks.cpg/sg12_154_cif.got.tgz:306277.got - 2010.06.03 13:09:07.
