data_PCOD9185423
_publ_section_title
;
Structure prediction by ZEFSAII (Michael W. Deem and Ramdas Pophale) SiO2 
 PCOD9185423
Probable space group: C 2/M
;
_chemical_formula_sum "Si O2"
_cell_formula_units_Z 56
_cell_length_a 11.738963
_cell_length_b 13.570543
_cell_length_c 19.256113
_cell_angle_alpha 90.000000
_cell_angle_beta 118.674760
_cell_angle_gamma 90.000000
_cell_volume 2691.362773
_symmetry_space_group_name_H-M "C 2/M"
_symmetry_group_IT_number 12
_symmetry_cell_setting 'monoclinic'
loop_
_space_group_symop_operation_xyz
x,y,z
-x,y,-z
-x,-y,-z
x,-y,z
1/2+x,1/2+y,z
1/2-x,1/2+y,-z
1/2-x,1/2-y,-z
1/2+x,1/2-y,z
loop_
_atom_site_type_symbol
_atom_site_label
_atom_site_fract_x
_atom_site_fract_y
_atom_site_fract_z
Si Si1 0.204352 0.175706 0.887496
Si Si2 0.567185 0.693520 0.250584
Si Si3 0.113294 0.390017 0.183414
Si Si4 0.541433 0.745852 0.395121
Si Si5 0.675945 0.107141 0.622122
Si Si6 0.310321 0.889944 0.066886
Si Si7 0.265315 0.389534 0.487309
O O1 0.285274 0.130972 0.848033
O O2 0.226397 0.294764 0.897529
O O3 0.050616 0.159124 0.832235
O O4 0.252495 0.130607 0.973990
O O5 0.614536 0.800418 0.237966
O O6 0.507234 0.703142 0.310181
O O7 0.692707 0.625372 0.296355
O O8 0.134711 0.500000 0.219006
O O9 0.967028 0.388465 0.109639
O O10 0.425378 0.808134 0.391934
O O11 0.596679 0.662771 0.462368
O O12 0.664378 0.819139 0.419168
O O13 0.711914 0.107448 0.551354
O O14 0.618659 0.000000 0.622355
O O15 0.272239 0.000000 0.080224
O O16 0.271557 0.500000 0.462019
#
# Coordination Sequence:
#
# PCOD9185423 Si02
#       7
#     8   8   8   8   8   8   8
#     4  10  19  34  57  79 108 140 177 224 267 315
#     4  10  22  36  50  78 112 142 178 218 262 314
#     4  10  20  35  55  78 106 142 181 219 265 321
#     4  10  19  34  57  79 108 140 177 224 267 315
#     4  10  20  35  55  78 106 142 181 219 265 321
#     4   9  19  35  57  82 104 135 180 225 270 318
#     4   9  19  35  57  82 104 135 180 225 270 318
#
# _framework density 20.807303000000001
#
# number of rings (size 3 to 8) (size 9 to 14) (size 15 to 20)
#    0.000    2.286    0.000    2.571    0.000    4.571 
#    0.000    7.143    0.000   24.000    0.000    0.000 
#    0.000    0.000    0.000    0.000    0.000    0.000 
#
# Total GULP energy -156355.636357 kJ/mol
# GULP energy per Si atom -5584.129870 kJ/mol
# Density = 2.075994 g / cm^3
# Si number density = 20.807303 Si / 1000 Ang^3
#
#
#
# Elastic Constant Matrix: (Units=GPa)
#
#
# Indices 1 2 3 4 5 6 
#
# 1 39.4662 4.3636 -6.8192 0.0000 -2.4253 0.0000
# 2 4.3636 69.1082 -11.4593 0.0000 9.3242 0.0000
# 3 -6.8192 -11.4593 53.1966 0.0000 12.7652 0.0000
# 4 0.0000 0.0000 0.0000 12.9726 0.0000 0.9327
# 5 -2.4253 9.3242 12.7652 0.0000 12.7950 0.0000
# 6 0.0000 0.0000 0.0000 0.9327 0.0000 30.7573
#
#
#
# Elastic Compliance Matrix: (Units=1/GPa)
#
#
# Indices 1 2 3 4 5 6 
#
# 1 0.026152 -0.001961 0.001837 0.000000 0.004553 0.000000
# 2 -0.001961 0.019504 0.009795 0.000000 -0.024358 0.000000
# 3 0.001837 0.009795 0.029941 0.000000 -0.036661 0.000000
# 4 0.000000 0.000000 0.000000 0.077254 0.000000 -0.002343
# 5 0.004553 -0.024358 -0.036661 0.000000 0.133345 0.000000
# 6 0.000000 0.000000 0.000000 -0.002343 0.000000 0.032584
#
#
# Mechanical properties :
#
#
# Convention : Reuss Voigt Hill
#
# Bulk Modulus (GPa) = 10.53286 14.88235 12.70760
# Shear Modulus (GPa) = 15.10191 23.01739 19.05965
#
# Velocity S-wave (km/s) = 2.69699 3.32959 3.02985
# Velocity P-wave (km/s) = 3.84336 4.68504 4.28491
#
# Compressibility (1/GPa) = 0.09494095
#
# Stress axis : x y z
#
# Youngs Moduli (GPa) = 38.23768 51.27026 33.39900
#
# Poissons Ratio (x) = 0.10054 -0.06137
# Poissons Ratio (y) = 0.07498 -0.32715
# Poissons Ratio (z) = -0.07026 -0.50220
#
# Static dielectric constant tensor:
#      x y z
#    x 1.719140 0.000000 0.009980 
#    y 0.000000 1.780440 0.000000 
#    z 0.009980 0.000000 1.719020 
# 
# From -- ./inp_files/263428.got.cif
#   From: 2010.05.17/outbox.cif.g08.bks.cpg/sg12_132_cif.got.tgz:263428.got - 2010.06.03 13:09:07.
