data_PCOD9185941
_publ_section_title
;
Structure prediction by ZEFSAII (Michael W. Deem and Ramdas Pophale) SiO2 
 PCOD9185941
Probable space group: C 2/M
;
_chemical_formula_sum "Si O2"
_cell_formula_units_Z 64
_cell_length_a 20.530114
_cell_length_b 18.394320
_cell_length_c 18.128679
_cell_angle_alpha 90.000000
_cell_angle_beta 24.779415
_cell_angle_gamma 90.000000
_cell_volume 2869.364822
_symmetry_space_group_name_H-M "C 2/M"
_symmetry_group_IT_number 12
_symmetry_cell_setting 'monoclinic'
loop_
_space_group_symop_operation_xyz
x,y,z
-x,y,-z
-x,-y,-z
x,-y,z
1/2+x,1/2+y,z
1/2-x,1/2+y,-z
1/2-x,1/2-y,-z
1/2+x,1/2-y,z
loop_
_atom_site_type_symbol
_atom_site_label
_atom_site_fract_x
_atom_site_fract_y
_atom_site_fract_z
Si Si1 0.393429 0.584445 0.267138
Si Si2 0.416757 0.227482 0.662614
Si Si3 0.113047 0.086307 0.550738
Si Si4 0.751226 0.418288 0.870688
Si Si5 0.067423 0.419259 0.164533
Si Si6 0.848269 0.584290 0.195048
Si Si7 0.838732 0.302355 0.466188
Si Si8 0.710530 0.625455 0.191626
O O1 0.344677 0.500000 0.304479
O O2 0.399235 0.597710 0.349519
O O3 0.274731 0.647558 0.366651
O O4 0.566262 0.592667 0.057654
O O5 0.500000 0.242607 0.500000
O O6 0.346103 0.146626 0.736389
O O7 0.539832 0.235212 0.603082
O O8 0.283027 0.287372 0.810416
O O9 0.264861 0.117147 0.352444
O O10 0.954094 0.108797 0.675689
O O11 0.124807 0.000000 0.528672
O O12 0.787447 0.500000 0.805923
O O13 0.803737 0.417003 0.902780
O O14 0.996576 0.500000 0.237897
O O15 0.942888 0.359225 0.313123
O O16 0.153559 0.405205 0.999578
O O17 0.888015 0.500000 0.169683
O O18 0.722246 0.590058 0.259587
O O19 0.000000 0.618661 0.000000
O O20 0.750000 0.250000 0.500000
#
# Coordination Sequence:
#
# PCOD9185941 Si02
#       8
#     8   8   8   8   8   8   8   8
#     4  10  20  38  65  95 125 155 204 270 332 386
#     4  11  26  46  65  91 129 175 217 260 324 399
#     4  10  19  34  58  86 123 169 211 254 311 380
#     4   9  20  41  69  96 123 160 215 274 328 393
#     4  10  21  38  64  98 129 168 217 268 319 385
#     4  10  22  36  53  85 128 172 218 262 311 377
#     4  11  25  40  66  96 134 167 212 271 330 380
#     4  12  22  37  62  85 127 170 219 259 313 381
#
# _framework density 22.304587999999999
#
# number of rings (size 3 to 8) (size 9 to 14) (size 15 to 20)
#    0.000    1.625    1.250    3.375    3.500    2.750 
#    0.000    0.625    0.000    1.500    0.000    0.000 
#    0.000    0.000    0.000    0.000    0.000    0.000 
#
# Total GULP energy -178884.735990 kJ/mol
# GULP energy per Si atom -5590.148000 kJ/mol
# Density = 2.225382 g / cm^3
# Si number density = 22.304588 Si / 1000 Ang^3
#
#
#
# Elastic Constant Matrix: (Units=GPa)
#
#
# Indices 1 2 3 4 5 6 
#
# 1 40.6032 10.6300 3.9036 0.0044 1.0093 -0.0021
# 2 10.6300 82.9338 26.6357 0.0045 -8.6312 -0.0029
# 3 3.9036 26.6357 72.6441 -0.0007 -8.9504 -0.0041
# 4 0.0044 0.0045 -0.0007 35.1175 -0.0013 -7.8949
# 5 1.0093 -8.6312 -8.9504 -0.0013 23.3220 0.0004
# 6 -0.0021 -0.0029 -0.0041 -7.8949 0.0004 22.7429
#
#
#
# Elastic Compliance Matrix: (Units=1/GPa)
#
#
# Indices 1 2 3 4 5 6 
#
# 1 0.025626 -0.003407 -0.000441 -0.000003 -0.002539 0.000001
# 2 -0.003407 0.014365 -0.004630 -0.000001 0.003687 0.000000
# 3 -0.000441 -0.004630 0.016036 0.000002 0.004460 0.000003
# 4 -0.000003 -0.000001 0.000002 0.030886 0.000002 0.010722
# 5 -0.002539 0.003687 0.004460 0.000002 0.046064 0.000001
# 6 0.000001 0.000000 0.000003 0.010722 0.000001 0.047692
#
#
# Mechanical properties :
#
#
# Convention : Reuss Voigt Hill
#
# Bulk Modulus (GPa) = 25.59352 30.94666 28.27009
# Shear Modulus (GPa) = 23.73612 26.57060 25.15336
#
# Velocity S-wave (km/s) = 3.26572 3.45521 3.36180
# Velocity P-wave (km/s) = 5.07142 5.46101 5.26982
#
# Compressibility (1/GPa) = 0.03907239
#
# Stress axis : x y z
#
# Youngs Moduli (GPa) = 39.02269 69.61260 62.35779
#
# Poissons Ratio (x) = 0.23720 0.02747
# Poissons Ratio (y) = 0.13297 0.28870
# Poissons Ratio (z) = 0.01719 0.32229
#
# Static dielectric constant tensor:
#      x y z
#    x 1.846420 -0.000010 -0.032630 
#    y -0.000010 1.829080 0.000010 
#    z -0.032630 0.000010 1.809620 
# 
# From -- ./inp_files/326103.got.cif
#   From: 2010.05.17/outbox.cif.g08.bks.cpg/sg12_164_cif.got.tgz:326103.got - 2010.06.03 13:09:07.
