data_PCOD9185102
_publ_section_title
;
Structure prediction by ZEFSAII (Michael W. Deem and Ramdas Pophale) SiO2 
 PCOD9185102
Probable space group: C 2/M
;
_chemical_formula_sum "Si O2"
_cell_formula_units_Z 48
_cell_length_a 20.096545
_cell_length_b 7.869677
_cell_length_c 31.024185
_cell_angle_alpha 90.000000
_cell_angle_beta 150.020985
_cell_angle_gamma 90.000000
_cell_volume 2451.732425
_symmetry_space_group_name_H-M "C 2/M"
_symmetry_group_IT_number 12
_symmetry_cell_setting 'monoclinic'
loop_
_space_group_symop_operation_xyz
x,y,z
-x,y,-z
-x,-y,-z
x,-y,z
1/2+x,1/2+y,z
1/2-x,1/2+y,-z
1/2-x,1/2-y,-z
1/2+x,1/2-y,z
loop_
_atom_site_type_symbol
_atom_site_label
_atom_site_fract_x
_atom_site_fract_y
_atom_site_fract_z
Si Si1 0.875029 0.697453 0.958125
Si Si2 0.471306 0.700001 0.876336
Si Si3 0.580285 0.797232 0.248276
Si Si4 0.384059 0.794461 0.403531
Si Si5 0.910095 0.697545 0.231274
Si Si6 0.167408 0.291876 0.720572
O O1 0.854692 0.500000 0.935548
O O2 0.739707 0.792152 0.871085
O O3 0.000000 0.762335 0.000000
O O4 0.919212 0.713136 0.032462
O O5 0.478537 0.500000 0.889324
O O6 0.480301 0.727521 0.830295
O O7 0.322829 0.761127 0.806536
O O8 0.736894 0.757063 0.336085
O O9 0.507374 0.727279 0.249822
O O10 0.562627 0.000000 0.236995
O O11 0.500000 0.731829 0.500000
O O12 0.396527 0.738873 0.360657
O O13 0.388004 0.000000 0.405664
O O14 0.948253 0.500000 0.257525
O O15 0.902945 0.770519 0.275541
O O16 0.168904 0.500000 0.722237
#
# Coordination Sequence:
#
# PCOD9185102 Si02
#       6
#     8   8   8   8   8   8
#     4  11  22  33  50  79 110 137 176 228 267 298
#     4  10  19  34  56  75 100 143 185 218 256 312
#     4  10  21  35  53  78 109 137 170 222 273 311
#     4   9  18  35  59  82 103 134 176 216 258 320
#     4  10  20  35  53  74 104 144 181 215 262 317
#     4   8  15  30  53  76  97 132 178 214 249 306
#
# _framework density 19.577991999999998
#
# number of rings (size 3 to 8) (size 9 to 14) (size 15 to 20)
#    0.000    2.333    1.667    2.500    0.000    3.000 
#    0.000    0.833    0.000    0.000    0.000    0.000 
#    0.000    0.000    0.000    0.000    0.000    0.000 
#
# Total GULP energy -133928.272736 kJ/mol
# GULP energy per Si atom -5580.344697 kJ/mol
# Density = 1.953343 g / cm^3
# Si number density = 19.577992 Si / 1000 Ang^3
#
#
#
# Elastic Constant Matrix: (Units=GPa)
#
#
# Indices 1 2 3 4 5 6 
#
# 1 181.3513 -3.1400 52.4921 -0.0001 -9.8645 0.0003
# 2 -3.1400 27.0838 -9.4209 -0.0002 -0.2005 0.0015
# 3 52.4921 -9.4209 77.3661 0.0001 -19.0263 -0.0001
# 4 -0.0001 -0.0002 0.0001 13.6677 -0.0001 -1.2823
# 5 -9.8645 -0.2005 -19.0263 -0.0001 20.2739 0.0000
# 6 0.0003 0.0015 -0.0001 -1.2823 0.0000 8.4477
#
#
#
# Elastic Compliance Matrix: (Units=1/GPa)
#
#
# Indices 1 2 3 4 5 6 
#
# 1 0.006916 -0.001014 -0.005188 0.000000 -0.001514 0.000000
# 2 -0.001014 0.039318 0.007085 0.000000 0.006545 -0.000007
# 3 -0.005188 0.007085 0.021717 0.000000 0.017926 -0.000001
# 4 0.000000 0.000000 0.000000 0.074222 0.000000 0.011267
# 5 -0.001514 0.006545 0.017926 0.000000 0.065476 -0.000001
# 6 0.000000 -0.000007 -0.000001 0.011267 -0.000001 0.120086
#
#
# Mechanical properties :
#
#
# Convention : Reuss Voigt Hill
#
# Bulk Modulus (GPa) = 14.34366 40.62927 27.48646
# Shear Modulus (GPa) = 14.31810 24.86918 19.59364
#
# Velocity S-wave (km/s) = 2.70726 3.56794 3.16697
# Velocity P-wave (km/s) = 4.13699 6.14583 5.23860
#
# Compressibility (1/GPa) = 0.06971724
#
# Stress axis : x y z
#
# Youngs Moduli (GPa) = 144.59263 25.43364 46.04667
#
# Poissons Ratio (x) = 0.02579 0.23890
# Poissons Ratio (y) = 0.14663 -0.32626
# Poissons Ratio (z) = 0.75018 -0.18021
#
# Static dielectric constant tensor:
#      x y z
#    x 1.724050 0.000000 -0.017130 
#    y 0.000000 1.699830 0.000000 
#    z -0.017130 0.000000 1.647330 
# 
# From -- ./inp_files/230361.got.cif
#   From: 2010.05.17/outbox.cif.g08.bks.cpg/sg12_116_cif.got.tgz:230361.got - 2010.06.03 13:09:07.
