data_PCOD9185078
_publ_section_title
;
Structure prediction by ZEFSAII (Michael W. Deem and Ramdas Pophale) SiO2 
 PCOD9185078
Probable space group: C 2/M
;
_chemical_formula_sum "Si O2"
_cell_formula_units_Z 60
_cell_length_a 9.958435
_cell_length_b 17.736614
_cell_length_c 13.742593
_cell_angle_alpha 90.000000
_cell_angle_beta 89.975796
_cell_angle_gamma 90.000000
_cell_volume 2427.339111
_symmetry_space_group_name_H-M "C 2/M"
_symmetry_group_IT_number 12
_symmetry_cell_setting 'monoclinic'
loop_
_space_group_symop_operation_xyz
x,y,z
-x,y,-z
-x,-y,-z
x,-y,z
1/2+x,1/2+y,z
1/2-x,1/2+y,-z
1/2-x,1/2-y,-z
1/2+x,1/2-y,z
loop_
_atom_site_type_symbol
_atom_site_label
_atom_site_fract_x
_atom_site_fract_y
_atom_site_fract_z
Si Si1 0.790984 0.640550 0.651872
Si Si2 0.150402 0.290984 0.669921
Si Si3 0.463582 0.834490 0.825210
Si Si4 0.500000 0.704529 0.500000
Si Si5 0.764845 0.087666 0.550575
Si Si6 0.114165 0.185580 0.085269
Si Si7 0.577721 0.585118 0.796009
Si Si8 0.192698 0.414725 0.033608
O O1 0.769532 0.730685 0.654884
O O2 0.904001 0.625270 0.730371
O O3 0.817226 0.602472 0.549292
O O4 0.650645 0.610860 0.697544
O O5 0.049471 0.257928 0.587834
O O6 0.190026 0.375309 0.641253
O O7 0.092298 0.293071 0.779155
O O8 0.370356 0.767789 0.868919
O O9 0.446009 0.894314 0.910849
O O10 0.385816 0.646243 0.533218
O O11 0.798768 0.000000 0.560389
O O12 0.045465 0.134851 0.168198
O O13 0.246374 0.145407 0.042742
O O14 0.000000 0.192239 0.000000
O O15 0.531499 0.500000 0.785053
O O16 0.692728 0.587052 0.880015
O O17 0.193194 0.500000 0.995354
#
# Coordination Sequence:
#
# PCOD9185078 Si02
#       8
#     8   8   8   4   8   8   8   8
#     4  10  20  36  57  84 120 155 198 240 297 353
#     4  11  21  38  60  88 121 162 202 244 295 362
#     4  11  21  35  58  86 113 158 199 242 291 361
#     4  10  21  42  65  90 120 166 204 244 301 358
#     4  11  23  39  63  93 127 160 199 250 301 358
#     4  10  19  34  55  85 109 146 195 247 300 349
#     4   9  16  30  53  82 113 139 181 243 300 343
#     4   9  19  33  52  79 112 147 185 241 301 349
#
# _framework density 24.718426000000001
#
# number of rings (size 3 to 8) (size 9 to 14) (size 15 to 20)
#    0.000    1.867    1.333    4.600    0.000    2.667 
#    0.000    2.333    0.000    1.200    0.000    0.000 
#    0.000    0.000    0.000    0.000    0.000    0.000 
#
# Total GULP energy -167705.446410 kJ/mol
# GULP energy per Si atom -5590.181547 kJ/mol
# Density = 2.466217 g / cm^3
# Si number density = 24.718426 Si / 1000 Ang^3
#
#
#
# Elastic Constant Matrix: (Units=GPa)
#
#
# Indices 1 2 3 4 5 6 
#
# 1 44.8854 1.4172 24.9457 0.0000 -13.9622 0.0000
# 2 1.4172 107.9344 33.7300 0.0000 -19.8767 0.0000
# 3 24.9457 33.7300 87.5780 0.0000 -14.6684 0.0000
# 4 0.0000 0.0000 0.0000 26.1945 0.0000 -7.2888
# 5 -13.9622 -19.8767 -14.6684 0.0000 47.1841 0.0000
# 6 0.0000 0.0000 0.0000 -7.2888 0.0000 24.3179
#
#
#
# Elastic Compliance Matrix: (Units=1/GPa)
#
#
# Indices 1 2 3 4 5 6 
#
# 1 0.029217 0.003652 -0.008464 0.000000 0.007553 0.000000
# 2 0.003652 0.011516 -0.004728 0.000000 0.004462 0.000000
# 3 -0.008464 -0.004728 0.015716 0.000000 0.000389 0.000000
# 4 0.000000 0.000000 0.000000 0.041650 0.000000 0.012484
# 5 0.007553 0.004462 0.000389 0.000000 0.025429 0.000000
# 6 0.000000 0.000000 0.000000 0.012484 0.000000 0.044864
#
#
# Mechanical properties :
#
#
# Convention : Reuss Voigt Hill
#
# Bulk Modulus (GPa) = 26.76012 40.06484 33.41248
# Shear Modulus (GPa) = 25.00907 31.55962 28.28434
#
# Velocity S-wave (km/s) = 3.18427 3.57706 3.38636
# Velocity P-wave (km/s) = 4.93648 5.77098 5.36996
#
# Compressibility (1/GPa) = 0.03736904
#
# Stress axis : x y z
#
# Youngs Moduli (GPa) = 34.22667 86.83344 63.63144
#
# Poissons Ratio (x) = -0.31714 0.53856
# Poissons Ratio (y) = -0.12501 0.30087
# Poissons Ratio (z) = 0.28969 0.41058
#
# Static dielectric constant tensor:
#      x y z
#    x 2.032470 0.000000 0.026050 
#    y 0.000000 1.895500 0.000000 
#    z 0.026050 0.000000 1.994480 
# 
# From -- ./inp_files/206155.got.cif
#   From: 2010.05.17/outbox.cif.g08.bks.cpg/sg12_104_cif.got.tgz:206155.got - 2010.06.03 13:09:07.
