data_PCOD9185766
_publ_section_title
;
Structure prediction by ZEFSAII (Michael W. Deem and Ramdas Pophale) SiO2 
 PCOD9185766
Probable space group: C 2/M
;
_chemical_formula_sum "Si O2"
_cell_formula_units_Z 48
_cell_length_a 24.214805
_cell_length_b 12.396292
_cell_length_c 14.352198
_cell_angle_alpha 90.000000
_cell_angle_beta 34.825248
_cell_angle_gamma 90.000000
_cell_volume 2460.280438
_symmetry_space_group_name_H-M "C 2/M"
_symmetry_group_IT_number 12
_symmetry_cell_setting 'monoclinic'
loop_
_space_group_symop_operation_xyz
x,y,z
-x,y,-z
-x,-y,-z
x,-y,z
1/2+x,1/2+y,z
1/2-x,1/2+y,-z
1/2-x,1/2-y,-z
1/2+x,1/2-y,z
loop_
_atom_site_type_symbol
_atom_site_label
_atom_site_fract_x
_atom_site_fract_y
_atom_site_fract_z
Si Si1 0.157605 0.871933 0.384360
Si Si2 0.986483 0.263645 0.708845
Si Si3 0.315285 0.219713 0.821580
Si Si4 0.861101 0.124257 0.027787
Si Si5 0.865026 0.623567 0.370365
Si Si6 0.188060 0.231850 0.717974
O O1 0.169253 0.823898 0.264818
O O2 0.244703 0.821838 0.324841
O O3 0.059638 0.821705 0.561360
O O4 0.157732 0.000000 0.386045
O O5 0.917068 0.312683 0.725676
O O6 0.051548 0.351398 0.670883
O O7 0.923094 0.199479 0.873121
O O8 0.251509 0.138062 0.848363
O O9 0.250000 0.250000 0.000000
O O10 0.866393 0.168126 0.125580
O O11 0.890040 0.000000 0.980558
O O12 0.866233 0.500000 0.338811
O O13 0.875406 0.706221 0.270180
O O14 0.762539 0.653345 0.560603
#
# Coordination Sequence:
#
# PCOD9185766 Si02
#       6
#     8   8   8   8   8   8
#     4  10  19  34  58  82 109 144 178 221 271 314
#     4  10  21  35  53  85 114 136 180 225 263 325
#     4   9  20  35  51  78 111 140 179 221 258 317
#     4  10  20  37  57  76 107 146 180 222 274 318
#     4  10  20  37  59  79 108 144 176 221 274 318
#     4   9  20  37  56  82 108 137 186 225 257 323
#
# _framework density 19.509972000000001
#
# number of rings (size 3 to 8) (size 9 to 14) (size 15 to 20)
#    0.000    2.333    0.000    2.000    0.000    5.333 
#    0.000   11.667    0.000    6.000    0.000    0.000 
#    0.000    0.000    0.000    0.000    0.000    0.000 
#
# Total GULP energy -133944.135057 kJ/mol
# GULP energy per Si atom -5581.005627 kJ/mol
# Density = 1.946557 g / cm^3
# Si number density = 19.509972 Si / 1000 Ang^3
#
#
#
# Elastic Constant Matrix: (Units=GPa)
#
#
# Indices 1 2 3 4 5 6 
#
# 1 62.3248 -0.5606 -8.2795 0.0000 0.9698 0.0000
# 2 -0.5606 60.5223 6.6037 0.0000 0.4590 0.0000
# 3 -8.2795 6.6037 42.3437 0.0000 13.4980 0.0000
# 4 0.0000 0.0000 0.0000 11.7560 0.0000 1.4507
# 5 0.9698 0.4590 13.4980 0.0000 32.3240 0.0000
# 6 0.0000 0.0000 0.0000 1.4507 0.0000 6.5961
#
#
#
# Elastic Compliance Matrix: (Units=1/GPa)
#
#
# Indices 1 2 3 4 5 6 
#
# 1 0.016604 -0.000264 0.003974 0.000000 -0.002154 0.000000
# 2 -0.000264 0.016840 -0.003004 0.000000 0.001023 0.000000
# 3 0.003974 -0.003004 0.028708 0.000000 -0.012064 0.000000
# 4 0.000000 0.000000 0.000000 0.087436 0.000000 -0.019230
# 5 -0.002154 0.001023 -0.012064 0.000000 0.036025 0.000000
# 6 0.000000 0.000000 0.000000 -0.019230 0.000000 0.155834
#
#
# Mechanical properties :
#
#
# Convention : Reuss Voigt Hill
#
# Bulk Modulus (GPa) = 15.73171 17.85754 16.79462
# Shear Modulus (GPa) = 13.84192 21.29704 17.56948
#
# Velocity S-wave (km/s) = 2.66649 3.30752 3.00415
# Velocity P-wave (km/s) = 4.19061 4.87433 4.54534
#
# Compressibility (1/GPa) = 0.06356590
#
# Stress axis : x y z
#
# Youngs Moduli (GPa) = 60.22608 59.38096 34.83383
#
# Poissons Ratio (x) = 0.01565 -0.13844
# Poissons Ratio (y) = 0.01587 0.10464
# Poissons Ratio (z) = -0.23936 0.17838
#
# Static dielectric constant tensor:
#      x y z
#    x 1.716820 0.000000 -0.018180 
#    y 0.000000 1.617630 0.000000 
#    z -0.018180 0.000000 1.693010 
# 
# From -- ./inp_files/245849.got.cif
#   From: 2010.05.17/outbox.cif.g08.bks.cpg/sg12_123_cif.got.tgz:245849.got - 2010.06.03 13:09:07.
