data_PCOD9185904
_publ_section_title
;
Structure prediction by ZEFSAII (Michael W. Deem and Ramdas Pophale) SiO2 
 PCOD9185904
Probable space group: C 2/M
;
_chemical_formula_sum "Si O2"
_cell_formula_units_Z 56
_cell_length_a 10.240221
_cell_length_b 13.390223
_cell_length_c 17.745529
_cell_angle_alpha 90.000000
_cell_angle_beta 66.911323
_cell_angle_gamma 90.000000
_cell_volume 2238.340966
_symmetry_space_group_name_H-M "C 2/M"
_symmetry_group_IT_number 12
_symmetry_cell_setting 'monoclinic'
loop_
_space_group_symop_operation_xyz
x,y,z
-x,y,-z
-x,-y,-z
x,-y,z
1/2+x,1/2+y,z
1/2-x,1/2+y,-z
1/2-x,1/2-y,-z
1/2+x,1/2-y,z
loop_
_atom_site_type_symbol
_atom_site_label
_atom_site_fract_x
_atom_site_fract_y
_atom_site_fract_z
Si Si1 0.571680 0.152543 0.171692
Si Si2 0.652701 0.839061 0.993677
Si Si3 0.659591 0.391517 0.588535
Si Si4 0.306031 0.865921 0.701934
Si Si5 0.115490 0.342848 0.579683
Si Si6 0.242068 0.364702 0.705418
Si Si7 0.386180 0.392653 0.824169
O O1 0.617480 0.110553 0.081100
O O2 0.680658 0.117719 0.211967
O O3 0.415612 0.116297 0.228421
O O4 0.559488 0.276854 0.175796
O O5 0.500000 0.803177 0.000000
O O6 0.750000 0.750000 0.000000
O O7 0.740270 0.889564 0.906889
O O8 0.599277 0.500000 0.576091
O O9 0.687182 0.402088 0.671370
O O10 0.813284 0.376830 0.513503
O O11 0.596982 0.279708 0.586616
O O12 0.462657 0.886378 0.634017
O O13 0.276939 0.750213 0.702299
O O14 0.226203 0.380305 0.619468
O O15 0.351219 0.402337 0.743293
O O16 0.456029 0.500000 0.831563
#
# Coordination Sequence:
#
# PCOD9185904 Si02
#       7
#     8   8   8   8   8   8   8
#     4   9  18  35  54  75 106 148 182 220 280 346
#     4  10  19  34  58  86 110 154 195 231 283 354
#     4  10  20  35  56  80 108 143 183 226 279 339
#     4   9  18  33  54  77 103 142 182 223 272 334
#     4   9  19  34  54  79 109 142 180 228 281 334
#     4   9  17  34  53  74 103 144 181 217 273 339
#     4  10  20  33  54  83 109 138 185 239 281 326
#
# _framework density 25.018528
#
# number of rings (size 3 to 8) (size 9 to 14) (size 15 to 20)
#    0.000    2.571    1.429    0.429    0.000    2.000 
#    0.000   14.286    0.000   18.000    0.000    0.000 
#    0.000    0.000    0.000    0.000    0.000    0.000 
#
# Total GULP energy -155911.522765 kJ/mol
# GULP energy per Si atom -5568.268670 kJ/mol
# Density = 2.496158 g / cm^3
# Si number density = 25.018528 Si / 1000 Ang^3
#
#
#
# Elastic Constant Matrix: (Units=GPa)
#
#
# Indices 1 2 3 4 5 6 
#
# 1 75.8778 10.0945 23.2865 0.0000 10.3915 0.0000
# 2 10.0945 194.6938 3.6933 0.0000 -2.1713 0.0000
# 3 23.2865 3.6933 95.4392 0.0000 16.4564 0.0000
# 4 0.0000 0.0000 0.0000 -65.6040 0.0000 41.5463
# 5 10.3915 -2.1713 16.4564 0.0000 41.5806 0.0000
# 6 0.0000 0.0000 0.0000 41.5463 0.0000 -43.6962
#
#
#
# Elastic Compliance Matrix: (Units=1/GPa)
#
#
# Indices 1 2 3 4 5 6 
#
# 1 0.014563 -0.000724 -0.003103 0.000000 -0.002449 0.000000
# 2 -0.000724 0.005181 -0.000109 0.000000 0.000495 0.000000
# 3 -0.003103 -0.000109 0.011920 0.000000 -0.003948 0.000000
# 4 0.000000 0.000000 0.000000 -0.038312 0.000000 -0.036427
# 5 -0.002449 0.000495 -0.003948 0.000000 0.026250 0.000000
# 6 0.000000 0.000000 0.000000 -0.036427 0.000000 -0.057520
#
#
# Mechanical properties :
#
#
# Convention : Reuss Voigt Hill
#
# Bulk Modulus (GPa) = 42.02946 48.90658 45.46802
# Shear Modulus (GPa) = -226.09446 8.38520 -108.85463
#
# Velocity S-wave (km/s) = -9.51667 1.83272 -6.60334
# Velocity P-wave (km/s) = 10.19413 4.90602 6.31867
#
# Compressibility (1/GPa) = 0.02379284
#
# Stress axis : x y z
#
# Youngs Moduli (GPa) = 68.66699 192.99910 83.89313
#
# Poissons Ratio (x) = 0.13964 0.26032
# Poissons Ratio (y) = 0.04968 0.00917
# Poissons Ratio (z) = 0.21307 0.02109
#
# Static dielectric constant tensor:
#      x y z
#    x 2.007520 0.000000 -0.027960 
#    y 0.000000 2.151980 0.000000 
#    z -0.027960 0.000000 2.043140 
# 
# From -- ./inp_files/262819.got.cif
#   From: 2010.05.17/outbox.cif.g08.bks.cpg/sg12_132_cif.got.tgz:262819.got - 2010.06.03 13:09:07.
