data_PCOD9185197
_publ_section_title
;
Structure prediction by ZEFSAII (Michael W. Deem and Ramdas Pophale) SiO2 
 PCOD9185197
Probable space group: C 2/M
;
_chemical_formula_sum "Si O2"
_cell_formula_units_Z 64
_cell_length_a 14.869902
_cell_length_b 8.732171
_cell_length_c 26.526393
_cell_angle_alpha 90.000000
_cell_angle_beta 101.527521
_cell_angle_gamma 90.000000
_cell_volume 3374.883230
_symmetry_space_group_name_H-M "C 2/M"
_symmetry_group_IT_number 12
_symmetry_cell_setting 'monoclinic'
loop_
_space_group_symop_operation_xyz
x,y,z
-x,y,-z
-x,-y,-z
x,-y,z
1/2+x,1/2+y,z
1/2-x,1/2+y,-z
1/2-x,1/2-y,-z
1/2+x,1/2-y,z
loop_
_atom_site_type_symbol
_atom_site_label
_atom_site_fract_x
_atom_site_fract_y
_atom_site_fract_z
Si Si1 0.179467 0.683468 0.324433
Si Si2 0.085899 0.684270 0.859139
Si Si3 0.524806 0.314670 0.059506
Si Si4 0.376125 0.315345 0.377286
Si Si5 0.563161 0.819306 0.407423
Si Si6 0.917264 0.183046 0.782069
Si Si7 0.344421 0.682384 0.489597
Si Si8 0.294446 0.314464 0.863091
O O1 0.172195 0.500000 0.316663
O O2 0.286420 0.726754 0.335480
O O3 0.143155 0.716436 0.376609
O O4 0.118951 0.765859 0.276056
O O5 0.085160 0.500000 0.859522
O O6 0.190524 0.738454 0.861020
O O7 0.044847 0.745793 0.907262
O O8 0.013713 0.743233 0.809269
O O9 0.519519 0.500000 0.062514
O O10 0.628591 0.269464 0.087058
O O11 0.500000 0.269324 0.000000
O O12 0.385980 0.500000 0.376881
O O13 0.469022 0.234507 0.371658
O O14 0.360913 0.268778 0.434028
O O15 0.579305 0.733964 0.461826
O O16 0.563142 0.000000 0.416818
O O17 0.840468 0.231042 0.815017
O O18 0.926594 0.000000 0.785835
O O19 0.338366 0.500000 0.488620
O O20 0.250000 0.750000 0.500000
O O21 0.290642 0.500000 0.862896
#
# Coordination Sequence:
#
# PCOD9185197 Si02
#       8
#     8   8   8   8   8   8   8   8
#     4  10  22  41  58  78 113 145 176 224 281 328
#     4  10  19  34  56  80 109 145 184 227 276 322
#     4   9  18  34  54  79 115 153 186 225 271 319
#     4  10  22  40  58  81 113 146 179 223 275 328
#     4  11  23  39  58  84 113 145 184 225 273 332
#     4  10  21  38  58  80 106 139 184 228 273 330
#     4  11  21  37  60  83 112 147 182 223 274 329
#     4   8  17  34  54  77 108 144 181 223 271 323
#
# _framework density 18.963619000000001
#
# number of rings (size 3 to 8) (size 9 to 14) (size 15 to 20)
#    0.000    2.125    1.250    2.625    0.000    5.750 
#    0.000   10.000    0.000    0.000    0.000    0.000 
#    0.000    0.000    0.000    0.000    0.000    0.000 
#
# Total GULP energy -178614.704234 kJ/mol
# GULP energy per Si atom -5581.709507 kJ/mol
# Density = 1.892046 g / cm^3
# Si number density = 18.963619 Si / 1000 Ang^3
#
#
#
# Elastic Constant Matrix: (Units=GPa)
#
#
# Indices 1 2 3 4 5 6 
#
# 1 127.5959 19.3605 18.6175 0.0000 9.2902 0.0000
# 2 19.3605 22.2366 19.7750 0.0000 3.9883 0.0000
# 3 18.6175 19.7750 67.6924 0.0000 21.9643 0.0000
# 4 0.0000 0.0000 0.0000 23.0502 0.0000 0.1502
# 5 9.2902 3.9883 21.9643 0.0000 16.8571 0.0000
# 6 0.0000 0.0000 0.0000 0.1502 0.0000 29.1718
#
#
#
# Elastic Compliance Matrix: (Units=1/GPa)
#
#
# Indices 1 2 3 4 5 6 
#
# 1 0.009285 -0.008628 0.001672 0.000000 -0.005254 0.000000
# 2 -0.008628 0.071095 -0.025087 0.000000 0.020623 0.000000
# 3 0.001672 -0.025087 0.034674 0.000000 -0.040165 0.000000
# 4 0.000000 0.000000 0.000000 0.043385 0.000000 -0.000223
# 5 -0.005254 0.020623 -0.040165 0.000000 0.109673 0.000000
# 6 0.000000 0.000000 0.000000 -0.000223 0.000000 0.034281
#
#
# Mechanical properties :
#
#
# Convention : Reuss Voigt Hill
#
# Bulk Modulus (GPa) = 19.62101 37.00344 28.31223
# Shear Modulus (GPa) = 13.03885 24.46729 18.75307
#
# Velocity S-wave (km/s) = 2.62500 3.59586 3.14808
# Velocity P-wave (km/s) = 4.42229 6.06593 5.30812
#
# Compressibility (1/GPa) = 0.05096578
#
# Stress axis : x y z
#
# Youngs Moduli (GPa) = 107.69959 14.06574 28.83986
#
# Poissons Ratio (x) = 0.12137 -0.04821
# Poissons Ratio (y) = 0.92928 0.72352
# Poissons Ratio (z) = -0.18004 0.35287
#
# Static dielectric constant tensor:
#      x y z
#    x 1.682630 0.000000 0.008170 
#    y 0.000000 1.636110 0.000000 
#    z 0.008170 0.000000 1.653060 
# 
# From -- ./inp_files/338731.got.cif
#   From: 2010.05.17/outbox.cif.g08.bks.cpg/sg12_170_cif.got.tgz:338731.got - 2010.06.03 13:09:07.
