data_PCOD9185680
_publ_section_title
;
Structure prediction by ZEFSAII (Michael W. Deem and Ramdas Pophale) SiO2 
 PCOD9185680
Probable space group: C 2/M
;
_chemical_formula_sum "Si O2"
_cell_formula_units_Z 64
_cell_length_a 29.767942
_cell_length_b 11.736139
_cell_length_c 17.932781
_cell_angle_alpha 90.000000
_cell_angle_beta 30.609900
_cell_angle_gamma 90.000000
_cell_volume 3190.080777
_symmetry_space_group_name_H-M "C 2/M"
_symmetry_group_IT_number 12
_symmetry_cell_setting 'monoclinic'
loop_
_space_group_symop_operation_xyz
x,y,z
-x,y,-z
-x,-y,-z
x,-y,z
1/2+x,1/2+y,z
1/2-x,1/2+y,-z
1/2-x,1/2-y,-z
1/2+x,1/2-y,z
loop_
_atom_site_type_symbol
_atom_site_label
_atom_site_fract_x
_atom_site_fract_y
_atom_site_fract_z
Si Si1 0.470803 0.701433 0.621569
Si Si2 0.905144 0.365546 0.110327
Si Si3 0.357534 0.835216 0.417943
Si Si4 0.887448 0.127890 0.885004
Si Si5 0.813529 0.628304 0.806494
Si Si6 0.062999 0.629818 0.107760
Si Si7 0.374348 0.874535 0.561598
Si Si8 0.744241 0.373996 0.436304
O O1 0.500000 0.650987 0.500000
O O2 0.441168 0.623809 0.731460
O O3 0.387006 0.783285 0.726318
O O4 0.551273 0.779930 0.534545
O O5 0.906800 0.500000 0.129992
O O6 0.819631 0.319322 0.275343
O O7 0.899552 0.360520 0.029475
O O8 0.000000 0.316915 0.000000
O O9 0.456361 0.870612 0.257046
O O10 0.337787 0.870684 0.530584
O O11 0.343292 0.699869 0.436721
O O12 0.289402 0.877219 0.453043
O O13 0.913132 0.250770 0.885470
O O14 0.898296 0.000000 0.906104
O O15 0.782568 0.140547 0.021617
O O16 0.845209 0.500000 0.777078
O O17 0.806046 0.639589 0.726950
O O18 0.088010 0.500000 0.100558
O O19 0.415519 0.000000 0.513021
O O20 0.724507 0.500000 0.437468
#
# Coordination Sequence:
#
# PCOD9185680 Si02
#       8
#     8   8   8   8   8   8   8   8
#     4  10  20  37  62  87 111 149 198 238 281 345
#     4   9  17  33  59  84 112 149 196 251 296 339
#     4  11  21  33  56  87 116 152 196 244 292 340
#     4  11  24  40  59  86 123 158 185 233 302 355
#     4   9  20  37  58  86 120 154 190 237 294 349
#     4  11  22  38  63  88 112 151 206 251 285 342
#     4  10  19  34  57  86 116 149 194 245 288 335
#     4  10  21  36  54  83 120 157 196 244 300 348
#
# _framework density 20.062187000000002
#
# number of rings (size 3 to 8) (size 9 to 14) (size 15 to 20)
#    0.000    1.875    2.500    1.875    1.750    2.750 
#    0.000    0.625    0.000    1.125    0.000    0.000 
#    0.000    0.000    0.000    0.000    0.000    0.000 
#
# Total GULP energy -178246.585874 kJ/mol
# GULP energy per Si atom -5570.205809 kJ/mol
# Density = 2.001652 g / cm^3
# Si number density = 20.062187 Si / 1000 Ang^3
#
#
#
# Elastic Constant Matrix: (Units=GPa)
#
#
# Indices 1 2 3 4 5 6 
#
# 1 43.2485 25.4888 11.0666 0.0000 14.2273 0.0000
# 2 25.4888 110.6875 25.9223 0.0000 -2.0238 0.0000
# 3 11.0666 25.9223 71.9521 0.0000 12.4106 0.0000
# 4 0.0000 0.0000 0.0000 21.8326 0.0000 -1.8266
# 5 14.2273 -2.0238 12.4106 0.0000 24.9793 0.0000
# 6 0.0000 0.0000 0.0000 -1.8266 0.0000 16.0691
#
#
#
# Elastic Compliance Matrix: (Units=1/GPa)
#
#
# Indices 1 2 3 4 5 6 
#
# 1 0.034943 -0.008781 0.001471 0.000000 -0.021344 0.000000
# 2 -0.008781 0.012257 -0.004483 0.000000 0.008222 0.000000
# 3 0.001471 -0.004483 0.016947 0.000000 -0.009621 0.000000
# 4 0.000000 0.000000 0.000000 0.046243 0.000000 0.005256
# 5 -0.021344 0.008222 -0.009621 0.000000 0.057636 0.000000
# 6 0.000000 0.000000 0.000000 0.005256 0.000000 0.062829
#
#
# Mechanical properties :
#
#
# Convention : Reuss Voigt Hill
#
# Bulk Modulus (GPa) = 24.65567 38.98259 31.81913
# Shear Modulus (GPa) = 18.65944 23.47023 21.06483
#
# Velocity S-wave (km/s) = 3.05303 3.42405 3.24385
# Velocity P-wave (km/s) = 4.97436 5.92497 5.47035
#
# Compressibility (1/GPa) = 0.04055862
#
# Stress axis : x y z
#
# Youngs Moduli (GPa) = 28.61830 81.58696 59.00899
#
# Poissons Ratio (x) = 0.71643 -0.08679
# Poissons Ratio (y) = 0.25130 0.26456
# Poissons Ratio (z) = -0.04209 0.36578
#
# Static dielectric constant tensor:
#      x y z
#    x 1.716180 0.000000 0.033090 
#    y 0.000000 1.761710 0.000000 
#    z 0.033090 0.000000 1.711560 
# 
# From -- ./inp_files/296474.got.cif
#   From: 2010.05.17/outbox.cif.g08.bks.cpg/sg12_149_cif.got.tgz:296474.got - 2010.06.03 13:09:07.
