data_PCOD9185491
_publ_section_title
;
Structure prediction by ZEFSAII (Michael W. Deem and Ramdas Pophale) SiO2 
 PCOD9185491
Probable space group: C 2/M
;
_chemical_formula_sum "Si O2"
_cell_formula_units_Z 48
_cell_length_a 28.474570
_cell_length_b 7.423335
_cell_length_c 9.829999
_cell_angle_alpha 90.000000
_cell_angle_beta 79.632190
_cell_angle_gamma 90.000000
_cell_volume 2043.903286
_symmetry_space_group_name_H-M "C 2/M"
_symmetry_group_IT_number 12
_symmetry_cell_setting 'monoclinic'
loop_
_space_group_symop_operation_xyz
x,y,z
-x,y,-z
-x,-y,-z
x,-y,z
1/2+x,1/2+y,z
1/2-x,1/2+y,-z
1/2-x,1/2-y,-z
1/2+x,1/2-y,z
loop_
_atom_site_type_symbol
_atom_site_label
_atom_site_fract_x
_atom_site_fract_y
_atom_site_fract_z
Si Si1 0.933085 0.717870 0.930070
Si Si2 0.304690 0.720255 0.243630
Si Si3 0.824987 0.793830 0.931418
Si Si4 0.965830 0.719958 0.216052
Si Si5 0.702208 0.795373 0.350100
Si Si6 0.119406 0.294092 0.574035
O O1 0.930871 0.500000 0.929694
O O2 0.882349 0.787379 0.908645
O O3 0.978761 0.772864 0.816217
O O4 0.944406 0.772858 0.079823
O O5 0.306383 0.500000 0.245095
O O6 0.255186 0.781794 0.337248
O O7 0.349533 0.791350 0.303667
O O8 0.307047 0.777909 0.085558
O O9 0.807256 0.699074 0.805716
O O10 0.809018 0.000000 0.928787
O O11 0.964577 0.500000 0.219138
O O12 0.931506 0.784380 0.354772
O O13 0.656363 0.709461 0.447240
O O14 0.704546 0.000000 0.401169
O O15 0.110184 0.500000 0.533329
#
# Coordination Sequence:
#
# PCOD9185491 Si02
#       6
#     8   8   8   8   8   8
#     4   9  16  31  55  78 103 133 168 214 259 301
#     4  10  21  36  53  77 106 137 175 215 257 305
#     4  11  22  35  52  77 107 139 176 214 255 305
#     4   8  15  29  53  82 103 127 168 214 257 303
#     4  10  22  37  53  75 106 141 175 212 256 308
#     4  10  19  34  57  82 104 132 173 215 258 309
#
# _framework density 23.484477999999999
#
# number of rings (size 3 to 8) (size 9 to 14) (size 15 to 20)
#    0.000    2.333    1.667    2.500    0.000    2.000 
#    0.000    3.333    0.000    5.000    0.000    0.000 
#    0.000    0.000    0.000    0.000    0.000    0.000 
#
# Total GULP energy -134075.253571 kJ/mol
# GULP energy per Si atom -5586.468899 kJ/mol
# Density = 2.343103 g / cm^3
# Si number density = 23.484478 Si / 1000 Ang^3
#
#
#
# Elastic Constant Matrix: (Units=GPa)
#
#
# Indices 1 2 3 4 5 6 
#
# 1 82.5395 -7.0072 21.8110 0.0000 -36.9770 0.0000
# 2 -7.0072 81.3264 -0.2611 0.0000 2.2419 0.0000
# 3 21.8110 -0.2611 106.6998 0.0000 -29.6057 0.0000
# 4 0.0000 0.0000 0.0000 7.4497 0.0000 -0.7555
# 5 -36.9770 2.2419 -29.6057 0.0000 42.4155 0.0000
# 6 0.0000 0.0000 0.0000 -0.7555 0.0000 38.6898
#
#
#
# Elastic Compliance Matrix: (Units=1/GPa)
#
#
# Indices 1 2 3 4 5 6 
#
# 1 0.020076 0.001234 0.000914 0.000000 0.018075 0.000000
# 2 0.001234 0.012393 -0.000130 0.000000 0.000330 0.000000
# 3 0.000914 -0.000130 0.011668 0.000000 0.008948 0.000000
# 4 0.000000 0.000000 0.000000 0.134501 0.000000 0.002626
# 5 0.018075 0.000330 0.008948 0.000000 0.045562 0.000000
# 6 0.000000 0.000000 0.000000 0.002626 0.000000 0.025898
#
#
# Mechanical properties :
#
#
# Convention : Reuss Voigt Hill
#
# Bulk Modulus (GPa) = 20.75841 33.29456 27.02649
# Shear Modulus (GPa) = 19.07541 34.77920 26.92731
#
# Velocity S-wave (km/s) = 2.85310 3.85248 3.38982
# Velocity P-wave (km/s) = 4.43982 5.83068 5.18212
#
# Compressibility (1/GPa) = 0.04817325
#
# Stress axis : x y z
#
# Youngs Moduli (GPa) = 49.81095 80.69090 85.70727
#
# Poissons Ratio (x) = -0.09961 -0.07837
# Poissons Ratio (y) = -0.06149 0.01118
# Poissons Ratio (z) = -0.04555 0.01052
#
# Static dielectric constant tensor:
#      x y z
#    x 1.849630 0.000000 -0.054120 
#    y 0.000000 1.883020 0.000000 
#    z -0.054120 0.000000 1.900680 
# 
# From -- ./inp_files/185739.got.cif
#   From: 2010.05.17/outbox.cif.g08.bks.cpg/sg12_93_cif.got.tgz:185739.got - 2010.06.03 13:09:07.
