data_PCOD9185991
_publ_section_title
;
Structure prediction by ZEFSAII (Michael W. Deem and Ramdas Pophale) SiO2 
 PCOD9185991
Probable space group: C 2/M
;
_chemical_formula_sum "Si O2"
_cell_formula_units_Z 60
_cell_length_a 22.790439
_cell_length_b 14.361913
_cell_length_c 9.617639
_cell_angle_alpha 90.000000
_cell_angle_beta 68.480510
_cell_angle_gamma 90.000000
_cell_volume 2928.553310
_symmetry_space_group_name_H-M "C 2/M"
_symmetry_group_IT_number 12
_symmetry_cell_setting 'monoclinic'
loop_
_space_group_symop_operation_xyz
x,y,z
-x,y,-z
-x,-y,-z
x,-y,z
1/2+x,1/2+y,z
1/2-x,1/2+y,-z
1/2-x,1/2-y,-z
1/2+x,1/2-y,z
loop_
_atom_site_type_symbol
_atom_site_label
_atom_site_fract_x
_atom_site_fract_y
_atom_site_fract_z
Si Si1 0.573750 0.305708 0.905203
Si Si2 0.784782 0.500000 0.992151
Si Si3 0.544733 0.394173 0.641680
Si Si4 0.634223 0.719403 0.395031
Si Si5 0.731032 0.604631 0.489708
Si Si6 0.895736 0.896750 0.835779
Si Si7 0.766950 0.348575 0.765408
Si Si8 0.816817 0.333540 0.181371
O O1 0.573989 0.367753 0.765890
O O2 0.614269 0.211904 0.863089
O O3 0.500000 0.287007 0.000000
O O4 0.603057 0.362721 0.007959
O O5 0.765845 0.418616 0.892976
O O6 0.807774 0.417476 0.082541
O O7 0.563084 0.500000 0.581092
O O8 0.567818 0.313201 0.517755
O O9 0.469564 0.396704 0.727567
O O10 0.681002 0.675172 0.468005
O O11 0.639222 0.667163 0.243390
O O12 0.660436 0.821132 0.338357
O O13 0.712962 0.500000 0.466305
O O14 0.737551 0.612864 0.648094
O O15 0.794278 0.631508 0.352410
O O16 0.868622 0.000000 0.848048
O O17 0.728951 0.252422 0.823443
#
# Coordination Sequence:
#
# PCOD9185991 Si02
#       8
#     8   4   8   8   8   8   8   8
#     4  10  21  39  60  86 122 163 200 249 303 359
#     4  12  24  42  63  86 128 162 202 256 300 364
#     4  10  19  34  58  88 125 161 200 242 297 364
#     4  11  21  35  58  86 118 155 199 244 297 361
#     4  11  21  40  63  86 119 155 203 250 302 361
#     4  10  20  34  53  87 125 160 197 242 300 366
#     4  11  24  42  62  89 124 160 202 251 309 361
#     4  11  23  42  62  93 120 159 208 253 304 362
#
# _framework density 20.487931
#
# number of rings (size 3 to 8) (size 9 to 14) (size 15 to 20)
#    0.000    1.333    1.333    6.400    0.000    3.733 
#    7.200    0.333    0.000    0.000    0.000    4.667 
#    0.000    0.000    0.000    0.000    0.000    0.000 
#
# Total GULP energy -167089.432521 kJ/mol
# GULP energy per Si atom -5569.647751 kJ/mol
# Density = 2.044130 g / cm^3
# Si number density = 20.487931 Si / 1000 Ang^3
#
#
#
# Elastic Constant Matrix: (Units=GPa)
#
#
# Indices 1 2 3 4 5 6 
#
# 1 50.7279 12.5698 25.6968 0.0000 13.7451 0.0000
# 2 12.5698 85.7537 8.3427 0.0000 0.9385 0.0000
# 3 25.6968 8.3427 51.4948 0.0000 22.2758 0.0000
# 4 0.0000 0.0000 0.0000 26.9628 0.0000 24.5107
# 5 13.7451 0.9385 22.2758 0.0000 40.8481 0.0000
# 6 0.0000 0.0000 0.0000 24.5107 0.0000 22.8291
#
#
#
# Elastic Compliance Matrix: (Units=1/GPa)
#
#
# Indices 1 2 3 4 5 6 
#
# 1 0.027175 -0.002787 -0.012016 0.000000 -0.002528 0.000000
# 2 -0.002787 0.012166 -0.001132 0.000000 0.001276 0.000000
# 3 -0.012016 -0.001132 0.031199 0.000000 -0.012944 0.000000
# 4 0.000000 0.000000 0.000000 1.546511 0.000000 -1.660428
# 5 -0.002528 0.001276 -0.012944 0.000000 0.032361 0.000000
# 6 0.000000 0.000000 0.000000 -1.660428 0.000000 1.826541
#
#
# Mechanical properties :
#
#
# Convention : Reuss Voigt Hill
#
# Bulk Modulus (GPa) = 25.86000 31.24389 28.55195
# Shear Modulus (GPa) = 1.42017 27.55249 14.48633
#
# Velocity S-wave (km/s) = 0.83347 3.67115 2.66196
# Velocity P-wave (km/s) = 3.68452 5.76652 4.83883
#
# Compressibility (1/GPa) = 0.03866976
#
# Stress axis : x y z
#
# Youngs Moduli (GPa) = 36.79815 82.19651 32.05279
#
# Poissons Ratio (x) = 0.22906 0.38515
# Poissons Ratio (y) = 0.10254 0.03629
# Poissons Ratio (z) = 0.44217 0.09307
#
# Static dielectric constant tensor:
#      x y z
#    x 1.771670 0.000000 -0.067520 
#    y 0.000000 1.718150 0.000000 
#    z -0.067520 0.000000 1.777350 
# 
# From -- ./inp_files/96857.got.cif
#   From: 2010.05.17/outbox.cif.g08.bks.cpg/sg12_49_cif.got.tgz:96857.got - 2010.06.03 13:09:07.
