data_PCOD9185505
_publ_section_title
;
Structure prediction by ZEFSAII (Michael W. Deem and Ramdas Pophale) SiO2 
 PCOD9185505
Probable space group: C 2/M
;
_chemical_formula_sum "Si O2"
_cell_formula_units_Z 56
_cell_length_a 19.564363
_cell_length_b 7.956691
_cell_length_c 17.282432
_cell_angle_alpha 90.000000
_cell_angle_beta 88.335952
_cell_angle_gamma 90.000000
_cell_volume 2689.179992
_symmetry_space_group_name_H-M "C 2/M"
_symmetry_group_IT_number 12
_symmetry_cell_setting 'monoclinic'
loop_
_space_group_symop_operation_xyz
x,y,z
-x,y,-z
-x,-y,-z
x,-y,z
1/2+x,1/2+y,z
1/2-x,1/2+y,-z
1/2-x,1/2-y,-z
1/2+x,1/2-y,z
loop_
_atom_site_type_symbol
_atom_site_label
_atom_site_fract_x
_atom_site_fract_y
_atom_site_fract_z
Si Si1 0.805635 0.798644 0.733383
Si Si2 0.328512 0.692266 0.187549
Si Si3 0.537926 0.796917 0.245161
Si Si4 0.408249 0.806822 0.330121
Si Si5 0.673220 0.200234 0.983999
Si Si6 0.223189 0.297461 0.584662
Si Si7 0.957484 0.295049 0.926713
O O1 0.752468 0.725063 0.797632
O O2 0.883663 0.745093 0.740297
O O3 0.774564 0.743277 0.651419
O O4 0.801824 0.000000 0.738597
O O5 0.343401 0.500000 0.206303
O O6 0.368410 0.803258 0.248940
O O7 0.347339 0.729413 0.098953
O O8 0.482285 0.730992 0.308492
O O9 0.521015 0.735487 0.158686
O O10 0.531645 0.000000 0.244836
O O11 0.352808 0.731409 0.391153
O O12 0.419321 0.000000 0.353873
O O13 0.668897 0.000000 0.978469
O O14 0.750000 0.250000 0.000000
O O15 0.620429 0.254361 0.051938
O O16 0.219882 0.500000 0.589180
O O17 0.250000 0.250000 0.500000
O O18 0.961694 0.500000 0.924981
O O19 0.000000 0.238732 0.000000
#
# Coordination Sequence:
#
# PCOD9185505 Si02
#       7
#     8   8   8   8   8   8   8
#     4  10  21  37  56  80 111 143 177 223 277 324
#     4  11  21  34  53  76 102 139 188 229 269 325
#     4  10  19  34  57  82 108 141 183 226 271 327
#     4   9  19  36  57  81 109 140 175 218 268 319
#     4  11  21  33  50  73 103 137 177 230 283 326
#     4   9  19  36  58  83 109 140 176 216 266 323
#     4   9  18  32  51  74 100 136 180 222 267 316
#
# _framework density 20.824193000000001
#
# number of rings (size 3 to 8) (size 9 to 14) (size 15 to 20)
#    0.000    2.143    0.000    4.714    0.000    6.857 
#    0.000    1.429    0.000    7.286    0.000    0.000 
#    0.000    0.000    0.000    0.000    0.000    0.000 
#
# Total GULP energy -156333.296683 kJ/mol
# GULP energy per Si atom -5583.332024 kJ/mol
# Density = 2.077680 g / cm^3
# Si number density = 20.824193 Si / 1000 Ang^3
#
#
#
# Elastic Constant Matrix: (Units=GPa)
#
#
# Indices 1 2 3 4 5 6 
#
# 1 97.1090 1.4030 18.2856 0.0000 -24.2149 0.0000
# 2 1.4030 33.2068 6.4318 0.0000 -4.9234 0.0000
# 3 18.2856 6.4318 94.9924 0.0000 -28.3058 0.0000
# 4 0.0000 0.0000 0.0000 20.6456 0.0000 2.8361
# 5 -24.2149 -4.9234 -28.3058 0.0000 31.1088 0.0000
# 6 0.0000 0.0000 0.0000 2.8361 0.0000 23.0942
#
#
#
# Elastic Compliance Matrix: (Units=1/GPa)
#
#
# Indices 1 2 3 4 5 6 
#
# 1 0.012839 0.000922 0.000669 0.000000 0.010748 0.000000
# 2 0.000922 0.030957 -0.000823 0.000000 0.004868 0.000000
# 3 0.000669 -0.000823 0.014503 0.000000 0.013586 0.000000
# 4 0.000000 0.000000 0.000000 0.049268 0.000000 -0.006050
# 5 0.010748 0.004868 0.013586 0.000000 0.053644 0.000000
# 6 0.000000 0.000000 0.000000 -0.006050 0.000000 0.044044
#
#
# Mechanical properties :
#
#
# Convention : Reuss Voigt Hill
#
# Bulk Modulus (GPa) = 16.71322 30.83876 23.77599
# Shear Modulus (GPa) = 22.35513 28.24889 25.30201
#
# Velocity S-wave (km/s) = 3.28001 3.68712 3.48951
# Velocity P-wave (km/s) = 4.73159 5.74175 5.26097
#
# Compressibility (1/GPa) = 0.05983289
#
# Stress axis : x y z
#
# Youngs Moduli (GPa) = 77.89060 32.30335 68.95338
#
# Poissons Ratio (x) = -0.02977 -0.04612
# Poissons Ratio (y) = -0.07178 0.05674
# Poissons Ratio (z) = -0.05210 0.02658
#
# Static dielectric constant tensor:
#      x y z
#    x 1.771840 0.000000 -0.029030 
#    y 0.000000 1.765970 0.000000 
#    z -0.029030 0.000000 1.724130 
# 
# From -- ./inp_files/280153.got.cif
#   From: 2010.05.17/outbox.cif.g08.bks.cpg/sg12_141_cif.got.tgz:280153.got - 2010.06.03 13:09:07.
