data_PCOD9185325
_publ_section_title
;
Structure prediction by ZEFSAII (Michael W. Deem and Ramdas Pophale) SiO2 
 PCOD9185325
Probable space group: C 2/M
;
_chemical_formula_sum "Si O2"
_cell_formula_units_Z 40
_cell_length_a 10.903849
_cell_length_b 16.165561
_cell_length_c 9.383890
_cell_angle_alpha 90.000000
_cell_angle_beta 91.270763
_cell_angle_gamma 90.000000
_cell_volume 1653.661793
_symmetry_space_group_name_H-M "C 2/M"
_symmetry_group_IT_number 12
_symmetry_cell_setting 'monoclinic'
loop_
_space_group_symop_operation_xyz
x,y,z
-x,y,-z
-x,-y,-z
x,-y,z
1/2+x,1/2+y,z
1/2-x,1/2+y,-z
1/2-x,1/2-y,-z
1/2+x,1/2-y,z
loop_
_atom_site_type_symbol
_atom_site_label
_atom_site_fract_x
_atom_site_fract_y
_atom_site_fract_z
Si Si1 0.706644 0.330106 0.586556
Si Si2 0.797558 0.500000 0.478897
Si Si3 0.894711 0.336629 0.857486
Si Si4 0.697624 0.595872 0.035576
Si Si5 0.499156 0.000000 0.740412
Si Si6 0.495737 0.337326 0.200006
O O1 0.750000 0.250000 0.500000
O O2 0.724651 0.415386 0.502027
O O3 0.798596 0.331618 0.724240
O O4 0.570623 0.329318 0.650500
O O5 0.900162 0.500000 0.608270
O O6 0.869789 0.500000 0.332233
O O7 0.812652 0.347842 0.996557
O O8 0.972890 0.418495 0.829943
O O9 0.974660 0.254927 0.850544
O O10 0.731359 0.500000 0.027774
O O11 0.599105 0.615637 0.907092
O O12 0.625553 0.616952 0.178489
#
# Coordination Sequence:
#
# PCOD9185325 Si02
#       6
#     8   4   8   8   4   8
#     4  10  21  34  53  80 112 149 189 229 273 335
#     4   9  18  30  51  72 103 139 194 221 259 314
#     4  10  19  34  56  84 108 141 186 235 273 328
#     4  10  20  36  58  85 109 142 191 231 273 338
#     4   9  16  30  51  76  99 139 180 228 259 314
#     4  10  20  31  56  82 112 139 180 235 283 313
#
# _framework density 24.188744
#
# number of rings (size 3 to 8) (size 9 to 14) (size 15 to 20)
#    0.000    2.200    1.000    3.000    5.600    2.400 
#    0.000    0.000    4.400    3.600    5.200    0.000 
#    0.000    0.000    0.000    0.000    0.000    0.000 
#
# Total GULP energy -111940.395539 kJ/mol
# GULP energy per Si atom -5597.019777 kJ/mol
# Density = 2.413369 g / cm^3
# Si number density = 24.188744 Si / 1000 Ang^3
#
#
#
# Elastic Constant Matrix: (Units=GPa)
#
#
# Indices 1 2 3 4 5 6 
#
# 1 75.0866 47.1864 83.0422 0.0000 -30.3818 0.0000
# 2 47.1864 169.6672 45.4027 0.0000 -40.3296 0.0000
# 3 83.0422 45.4027 132.1759 0.0000 -48.0239 0.0000
# 4 0.0000 0.0000 0.0000 37.7753 0.0000 4.5921
# 5 -30.3818 -40.3296 -48.0239 0.0000 73.9276 0.0000
# 6 0.0000 0.0000 0.0000 4.5921 0.0000 78.6594
#
#
#
# Elastic Compliance Matrix: (Units=1/GPa)
#
#
# Indices 1 2 3 4 5 6 
#
# 1 0.048739 -0.006286 -0.029360 0.000000 -0.002471 0.000000
# 2 -0.006286 0.007754 0.002466 0.000000 0.003249 0.000000
# 3 -0.029360 0.002466 0.027840 0.000000 0.007365 0.000000
# 4 0.000000 0.000000 0.000000 0.026662 0.000000 -0.001556
# 5 -0.002471 0.003249 0.007365 0.000000 0.019068 0.000000
# 6 0.000000 0.000000 0.000000 -0.001556 0.000000 0.012804
#
#
# Mechanical properties :
#
#
# Convention : Reuss Voigt Hill
#
# Bulk Modulus (GPa) = 55.63536 80.91027 68.27281
# Shear Modulus (GPa) = 23.23235 51.49234 37.36234
#
# Velocity S-wave (km/s) = 3.10249 4.61887 3.93443
# Velocity P-wave (km/s) = 5.99036 7.87194 6.99471
#
# Compressibility (1/GPa) = 0.01797418
#
# Stress axis : x y z
#
# Youngs Moduli (GPa) = 20.51757 128.95928 35.91900
#
# Poissons Ratio (x) = 0.81058 1.05458
# Poissons Ratio (y) = 0.12896 -0.08857
# Poissons Ratio (z) = 0.60239 -0.31799
#
# Static dielectric constant tensor:
#      x y z
#    x 1.985670 0.000000 0.048390 
#    y 0.000000 1.849670 0.000000 
#    z 0.048390 0.000000 1.954240 
# 
# From -- ./inp_files/129609.got.cif
#   From: 2010.05.17/outbox.cif.g08.bks.cpg/sg12_65_cif.got.tgz:129609.got - 2010.06.03 13:09:07.
