data_PCOD9185970
_publ_section_title
;
Structure prediction by ZEFSAII (Michael W. Deem and Ramdas Pophale) SiO2 
 PCOD9185970
Probable space group: C 2/M
;
_chemical_formula_sum "Si O2"
_cell_formula_units_Z 40
_cell_length_a 11.313292
_cell_length_b 13.548352
_cell_length_c 13.668110
_cell_angle_alpha 90.000000
_cell_angle_beta 103.685531
_cell_angle_gamma 90.000000
_cell_volume 2035.520202
_symmetry_space_group_name_H-M "C 2/M"
_symmetry_group_IT_number 12
_symmetry_cell_setting 'monoclinic'
loop_
_space_group_symop_operation_xyz
x,y,z
-x,y,-z
-x,-y,-z
x,-y,z
1/2+x,1/2+y,z
1/2-x,1/2+y,-z
1/2-x,1/2-y,-z
1/2+x,1/2-y,z
loop_
_atom_site_type_symbol
_atom_site_label
_atom_site_fract_x
_atom_site_fract_y
_atom_site_fract_z
Si Si1 0.633098 0.886237 0.449241
Si Si2 0.391412 0.268242 0.058982
Si Si3 0.317190 0.614287 0.217074
Si Si4 0.538250 0.883458 0.215805
Si Si5 0.383592 0.694851 0.425071
O O1 0.552861 0.866019 0.335762
O O2 0.623469 0.806381 0.534101
O O3 0.767940 0.866730 0.436712
O O4 0.617985 0.000000 0.475504
O O5 0.376674 0.363848 0.124776
O O6 0.439164 0.180076 0.138953
O O7 0.500000 0.278543 0.000000
O O8 0.250000 0.250000 0.000000
O O9 0.329725 0.500000 0.246874
O O10 0.172418 0.637520 0.195174
O O11 0.383525 0.682165 0.309736
O O12 0.514960 0.000000 0.198733
O O13 0.500000 0.650498 0.500000
#
# Coordination Sequence:
#
# PCOD9185970 Si02
#       5
#     8   8   8   8   8
#     4   9  19  35  58  89 124 163 207 251 296 361
#     4  12  24  41  66  95 124 158 208 270 320 365
#     4  10  22  40  61  87 125 170 210 253 311 380
#     4   9  19  39  64  89 122 169 213 246 304 386
#     4  10  19  34  58  87 124 164 203 246 307 368
#
# _framework density 19.650995999999999
#
# number of rings (size 3 to 8) (size 9 to 14) (size 15 to 20)
#    0.000    2.000    2.000    3.000    0.000    3.600 
#    0.000    1.000    0.000    0.000    0.000    0.000 
#    0.000    0.000    0.000    0.000    0.000    0.000 
#
# Total GULP energy -111447.260839 kJ/mol
# GULP energy per Si atom -5572.363042 kJ/mol
# Density = 1.960627 g / cm^3
# Si number density = 19.650996 Si / 1000 Ang^3
#
#
#
# Elastic Constant Matrix: (Units=GPa)
#
#
# Indices 1 2 3 4 5 6 
#
# 1 111.6745 43.6248 67.9263 0.0000 7.6732 0.0000
# 2 43.6248 106.3197 59.7319 0.0000 11.0401 0.0000
# 3 67.9263 59.7319 116.0061 0.0000 4.5617 0.0000
# 4 0.0000 0.0000 0.0000 26.6834 0.0000 15.0283
# 5 7.6732 11.0401 4.5617 0.0000 44.8949 0.0000
# 6 0.0000 0.0000 0.0000 15.0283 0.0000 -4.6016
#
#
#
# Elastic Compliance Matrix: (Units=1/GPa)
#
#
# Indices 1 2 3 4 5 6 
#
# 1 0.014176 -0.001473 -0.007491 0.000000 -0.001299 0.000000
# 2 -0.001473 0.013690 -0.006088 0.000000 -0.002496 0.000000
# 3 -0.007491 -0.006088 0.016096 0.000000 0.001142 0.000000
# 4 0.000000 0.000000 0.000000 0.013199 0.000000 0.043106
# 5 -0.001299 -0.002496 0.001142 0.000000 0.022994 0.000000
# 6 0.000000 0.000000 0.000000 0.043106 0.000000 -0.076536
#
#
# Mechanical properties :
#
#
# Convention : Reuss Voigt Hill
#
# Bulk Modulus (GPa) = 72.16320 75.17404 73.66862
# Shear Modulus (GPa) = 130.40703 24.24316 77.32509
#
# Velocity S-wave (km/s) = 8.15510 3.51620 6.27970
# Velocity P-wave (km/s) = 11.20162 7.40422 9.49470
#
# Compressibility (1/GPa) = 0.01385748
#
# Stress axis : x y z
#
# Youngs Moduli (GPa) = 70.54343 73.04807 62.12615
#
# Poissons Ratio (x) = 0.10761 0.46537
# Poissons Ratio (y) = 0.10392 0.37823
# Poissons Ratio (z) = 0.52843 0.44472
#
# Static dielectric constant tensor:
#      x y z
#    x 1.735110 0.000000 -0.037670 
#    y 0.000000 1.670720 0.000000 
#    z -0.037670 0.000000 1.735520 
# 
# From -- ./inp_files/129823.got.cif
#   From: 2010.05.17/outbox.cif.g08.bks.cpg/sg12_65_cif.got.tgz:129823.got - 2010.06.03 13:09:07.
