data_PCOD9185256
_publ_section_title
;
Structure prediction by ZEFSAII (Michael W. Deem and Ramdas Pophale) SiO2 
 PCOD9185256
Probable space group: C 2/M
;
_chemical_formula_sum "Si O2"
_cell_formula_units_Z 44
_cell_length_a 17.412912
_cell_length_b 14.528274
_cell_length_c 9.107083
_cell_angle_alpha 90.000000
_cell_angle_beta 67.547977
_cell_angle_gamma 90.000000
_cell_volume 2129.268955
_symmetry_space_group_name_H-M "C 2/M"
_symmetry_group_IT_number 12
_symmetry_cell_setting 'monoclinic'
loop_
_space_group_symop_operation_xyz
x,y,z
-x,y,-z
-x,-y,-z
x,-y,z
1/2+x,1/2+y,z
1/2-x,1/2+y,-z
1/2-x,1/2-y,-z
1/2+x,1/2-y,z
loop_
_atom_site_type_symbol
_atom_site_label
_atom_site_fract_x
_atom_site_fract_y
_atom_site_fract_z
Si Si1 0.902350 0.605005 0.608610
Si Si2 0.298974 0.389876 0.703954
Si Si3 0.053375 0.101869 0.609444
Si Si4 0.410778 0.727759 0.823595
Si Si5 0.372879 0.889453 0.305369
Si Si6 0.000000 0.695725 0.000000
O O1 0.874540 0.500000 0.664361
O O2 0.893794 0.679509 0.743042
O O3 0.864544 0.639606 0.481542
O O4 0.000000 0.599888 0.500000
O O5 0.301193 0.500000 0.725220
O O6 0.356560 0.372346 0.518050
O O7 0.341554 0.341506 0.812284
O O8 0.206376 0.360490 0.732341
O O9 0.000000 0.091719 0.500000
O O10 0.001155 0.180493 0.726622
O O11 0.055244 0.000000 0.680049
O O12 0.423201 0.749211 0.984645
O O13 0.372161 0.000000 0.313119
O O14 0.457760 0.861624 0.162050
#
# Coordination Sequence:
#
# PCOD9185256 Si02
#       6
#     8   8   8   8   8   4
#     4  10  19  34  56  82 110 144 189 234 275 324
#     4   9  19  37  63  86 110 142 186 239 286 327
#     4   8  15  31  58  85 104 135 183 231 278 326
#     4  11  21  36  57  86 116 149 187 227 279 334
#     4  10  22  39  58  83 111 147 191 235 281 331
#     4  12  25  34  53  82 116 158 190 222 270 342
#
# _framework density 20.664368
#
# number of rings (size 3 to 8) (size 9 to 14) (size 15 to 20)
#    0.000    2.182    1.818    3.545    0.000    2.182 
#    0.000    1.818    0.000    0.000    0.000    0.000 
#    0.000    0.000    0.000    0.000    0.000    0.000 
#
# Total GULP energy -122559.482510 kJ/mol
# GULP energy per Si atom -5570.885569 kJ/mol
# Density = 2.061733 g / cm^3
# Si number density = 20.664368 Si / 1000 Ang^3
#
#
#
# Elastic Constant Matrix: (Units=GPa)
#
#
# Indices 1 2 3 4 5 6 
#
# 1 105.5394 23.3459 22.3988 0.0000 18.3462 0.0000
# 2 23.3459 87.5953 29.0962 0.0000 10.6944 0.0000
# 3 22.3988 29.0962 45.9076 0.0000 24.5236 0.0000
# 4 0.0000 0.0000 0.0000 -5.0832 0.0000 2.5856
# 5 18.3462 10.6944 24.5236 0.0000 34.6757 0.0000
# 6 0.0000 0.0000 0.0000 2.5856 0.0000 19.5961
#
#
#
# Elastic Compliance Matrix: (Units=1/GPa)
#
#
# Indices 1 2 3 4 5 6 
#
# 1 0.010980 -0.001707 -0.002335 0.000000 -0.003631 0.000000
# 2 -0.001707 0.014957 -0.010712 0.000000 0.003866 0.000000
# 3 -0.002335 -0.010712 0.043855 0.000000 -0.026476 0.000000
# 4 0.000000 0.000000 0.000000 -0.184354 0.000000 0.024325
# 5 -0.003631 0.003866 -0.026476 0.000000 0.048292 0.000000
# 6 0.000000 0.000000 0.000000 0.024325 0.000000 0.047821
#
#
# Mechanical properties :
#
#
# Convention : Reuss Voigt Hill
#
# Bulk Modulus (GPa) = 24.82487 43.19156 34.00821
# Shear Modulus (GPa) = 204.18123 20.78451 112.48287
#
# Velocity S-wave (km/s) = 9.95102 3.17490 7.38589
# Velocity P-wave (km/s) = 12.00291 5.86403 9.44608
#
# Compressibility (1/GPa) = 0.04028219
#
# Stress axis : x y z
#
# Youngs Moduli (GPa) = 91.07799 66.85651 22.80231
#
# Poissons Ratio (x) = 0.11414 0.05325
# Poissons Ratio (y) = 0.15549 0.24427
# Poissons Ratio (z) = 0.21270 0.71619
#
# Static dielectric constant tensor:
#      x y z
#    x 1.766000 0.000000 -0.015740 
#    y 0.000000 1.812610 0.000000 
#    z -0.015740 0.000000 1.795460 
# 
# From -- ./inp_files/61074.got.cif
#   From: 2010.05.17/outbox.cif.g08.bks.cpg/sg12_31_cif.got.tgz:61074.got - 2010.06.03 13:09:07.
