data_PCOD9185138
_publ_section_title
;
Structure prediction by ZEFSAII (Michael W. Deem and Ramdas Pophale) SiO2 
 PCOD9185138
Probable space group: C 2/M
;
_chemical_formula_sum "Si O2"
_cell_formula_units_Z 64
_cell_length_a 14.268413
_cell_length_b 7.453964
_cell_length_c 28.312968
_cell_angle_alpha 90.000000
_cell_angle_beta 67.474823
_cell_angle_gamma 90.000000
_cell_volume 2781.535516
_symmetry_space_group_name_H-M "C 2/M"
_symmetry_group_IT_number 12
_symmetry_cell_setting 'monoclinic'
loop_
_space_group_symop_operation_xyz
x,y,z
-x,y,-z
-x,-y,-z
x,-y,z
1/2+x,1/2+y,z
1/2-x,1/2+y,-z
1/2-x,1/2-y,-z
1/2+x,1/2-y,z
loop_
_atom_site_type_symbol
_atom_site_label
_atom_site_fract_x
_atom_site_fract_y
_atom_site_fract_z
Si Si1 0.261372 0.720113 0.645529
Si Si2 0.843761 0.220065 0.121429
Si Si3 0.943100 0.702432 0.277028
Si Si4 0.075811 0.218332 0.097200
Si Si5 0.362932 0.204540 0.810552
Si Si6 0.183837 0.712347 0.558649
Si Si7 0.121276 0.789813 0.987295
Si Si8 0.020036 0.207550 0.363131
O O1 0.259672 0.500000 0.646044
O O2 0.169681 0.781543 0.697307
O O3 0.236399 0.778943 0.596907
O O4 0.372244 0.777272 0.640260
O O5 0.750358 0.281754 0.171823
O O6 0.830640 0.286264 0.069723
O O7 0.956549 0.267619 0.116138
O O8 0.840783 0.000000 0.120780
O O9 0.931855 0.500000 0.260005
O O10 0.978748 0.696185 0.324615
O O11 0.036956 0.790280 0.231484
O O12 0.118336 0.295283 0.137062
O O13 0.080826 0.000000 0.097490
O O14 0.132016 0.281339 0.038346
O O15 0.358842 0.000000 0.792897
O O16 0.175165 0.500000 0.564643
O O17 0.250000 0.750000 0.500000
O O18 0.068886 0.783407 0.580889
O O19 0.147176 0.000000 0.984317
O O20 0.000000 0.780782 0.000000
O O21 0.033332 0.000000 0.347066
#
# Coordination Sequence:
#
# PCOD9185138 Si02
#       8
#     8   8   8   8   8   8   8   8
#     4   8  17  34  54  72  98 136 170 200 246 299
#     4   8  15  29  47  67  92 124 159 195 242 300
#     4   9  19  36  51  68  98 133 164 201 252 304
#     4   9  17  30  48  68  91 121 160 201 240 292
#     4  10  20  32  48  70  97 126 157 198 252 304
#     4  10  20  36  55  80 115 147 171 202 242 286
#     4   7  11  23  44  65  86 118 157 193 234 292
#     4  10  19  34  56  78  97 129 175 213 245 286
#
# _framework density 23.008875
#
# number of rings (size 3 to 8) (size 9 to 14) (size 15 to 20)
#    0.000    3.125    0.000    3.000    0.000    2.500 
#    0.000    9.375    0.000    3.375    0.000    0.000 
#    0.000    0.000    0.000    0.000    0.000    0.000 
#
# Total GULP energy -178544.357132 kJ/mol
# GULP energy per Si atom -5579.511160 kJ/mol
# Density = 2.295651 g / cm^3
# Si number density = 23.008875 Si / 1000 Ang^3
#
#
#
# Elastic Constant Matrix: (Units=GPa)
#
#
# Indices 1 2 3 4 5 6 
#
# 1 102.2212 -2.2027 29.1316 0.0000 -40.1994 0.0000
# 2 -2.2027 77.0359 -5.5075 0.0000 -1.1505 0.0000
# 3 29.1316 -5.5075 87.6586 0.0000 -42.3137 0.0000
# 4 0.0000 0.0000 0.0000 1.9390 0.0000 10.1051
# 5 -40.1994 -1.1505 -42.3137 0.0000 35.6822 0.0000
# 6 0.0000 0.0000 0.0000 10.1051 0.0000 6.0971
#
#
#
# Elastic Compliance Matrix: (Units=1/GPa)
#
#
# Indices 1 2 3 4 5 6 
#
# 1 0.021216 0.001932 0.010848 0.000000 0.036828 0.000000
# 2 0.001932 0.013379 0.003409 0.000000 0.006650 0.000000
# 3 0.010848 0.003409 0.032671 0.000000 0.051074 0.000000
# 4 0.000000 0.000000 0.000000 -0.067528 0.000000 0.111917
# 5 0.036828 0.006650 0.051074 0.000000 0.130296 0.000000
# 6 0.000000 0.000000 0.000000 0.111917 0.000000 -0.021475
#
#
# Mechanical properties :
#
#
# Convention : Reuss Voigt Hill
#
# Bulk Modulus (GPa) = 10.03577 34.41762 22.22670
# Shear Modulus (GPa) = 45.70544 25.10995 35.40770
#
# Velocity S-wave (km/s) = 4.46177 3.30709 3.92710
# Velocity P-wave (km/s) = 5.56007 5.43814 5.49944
#
# Compressibility (1/GPa) = 0.09964353
#
# Stress axis : x y z
#
# Youngs Moduli (GPa) = 47.13488 74.74281 30.60826
#
# Poissons Ratio (x) = -0.14442 -0.33204
# Poissons Ratio (y) = -0.09107 -0.10433
# Poissons Ratio (z) = -0.51132 -0.25477
#
# Static dielectric constant tensor:
#      x y z
#    x 1.872300 0.000000 -0.044830 
#    y 0.000000 2.077530 0.000000 
#    z -0.044830 0.000000 1.876210 
# 
# From -- ./inp_files/374983.got.cif
#   From: 2010.05.17/outbox.cif.g08.bks.cpg/sg12_188_cif.got.tgz:374983.got - 2010.06.03 13:09:07.
