data_PCOD9185845
_publ_section_title
;
Structure prediction by ZEFSAII (Michael W. Deem and Ramdas Pophale) SiO2 
 PCOD9185845
Probable space group: C 2/M
;
_chemical_formula_sum "Si O2"
_cell_formula_units_Z 48
_cell_length_a 18.468509
_cell_length_b 15.411691
_cell_length_c 6.823319
_cell_angle_alpha 90.000000
_cell_angle_beta 75.437700
_cell_angle_gamma 90.000000
_cell_volume 1879.736591
_symmetry_space_group_name_H-M "C 2/M"
_symmetry_group_IT_number 12
_symmetry_cell_setting 'monoclinic'
loop_
_space_group_symop_operation_xyz
x,y,z
-x,y,-z
-x,-y,-z
x,-y,z
1/2+x,1/2+y,z
1/2-x,1/2+y,-z
1/2-x,1/2-y,-z
1/2+x,1/2-y,z
loop_
_atom_site_type_symbol
_atom_site_label
_atom_site_fract_x
_atom_site_fract_y
_atom_site_fract_z
Si Si1 0.929061 0.093351 0.843610
Si Si2 0.416140 0.213474 0.976314
Si Si3 0.408071 0.618723 0.387906
Si Si4 0.846874 0.741971 0.616626
Si Si5 0.231056 0.605789 0.845457
Si Si6 0.752823 0.909387 0.293761
O O1 0.905634 0.180276 0.974942
O O2 0.914961 0.096009 0.615403
O O3 0.018865 0.091911 0.775611
O O4 0.899227 0.000000 0.930073
O O5 0.398978 0.203757 0.753411
O O6 0.500000 0.196034 0.000000
O O7 0.350982 0.151514 0.109805
O O8 0.399879 0.722127 0.410776
O O9 0.332770 0.587753 0.340998
O O10 0.790235 0.820599 0.725090
O O11 0.793230 0.667407 0.582202
O O12 0.234269 0.500000 0.786768
O O13 0.252724 0.604811 0.061563
O O14 0.713019 0.000000 0.354970
#
# Coordination Sequence:
#
# PCOD9185845 Si02
#       6
#     8   8   8   8   8   8
#     4  10  21  35  55  86 123 154 188 236 296 360
#     4  10  22  38  59  84 119 155 199 239 292 345
#     4  10  20  36  57  85 120 156 190 235 293 354
#     4  10  22  39  58  90 120 152 195 245 297 349
#     4  10  23  41  61  85 117 155 201 249 292 343
#     4  10  19  34  58  84 114 152 192 238 289 345
#
# _framework density 25.535495000000001
#
# number of rings (size 3 to 8) (size 9 to 14) (size 15 to 20)
#    0.000    2.000    0.000    4.500    4.667    4.667 
#    0.000    0.833    0.000    1.000    0.000    7.000 
#    0.000    0.000    0.000    0.000    0.000    0.000 
#
# Total GULP energy -133970.729575 kJ/mol
# GULP energy per Si atom -5582.113732 kJ/mol
# Density = 2.547737 g / cm^3
# Si number density = 25.535495 Si / 1000 Ang^3
#
#
#
# Elastic Constant Matrix: (Units=GPa)
#
#
# Indices 1 2 3 4 5 6 
#
# 1 201.0909 69.0095 36.8886 0.0000 25.3368 0.0000
# 2 69.0095 157.6987 29.7447 0.0000 -11.0143 0.0000
# 3 36.8886 29.7447 118.9375 0.0000 15.8929 0.0000
# 4 0.0000 0.0000 0.0000 11.6302 0.0000 -4.2130
# 5 25.3368 -11.0143 15.8929 0.0000 48.3240 0.0000
# 6 0.0000 0.0000 0.0000 -4.2130 0.0000 4.5013
#
#
#
# Elastic Compliance Matrix: (Units=1/GPa)
#
#
# Indices 1 2 3 4 5 6 
#
# 1 0.006653 -0.003039 -0.000779 0.000000 -0.003925 0.000000
# 2 -0.003039 0.008265 -0.001662 0.000000 0.004024 0.000000
# 3 -0.000779 -0.001662 0.009478 0.000000 -0.003087 0.000000
# 4 0.000000 0.000000 0.000000 0.130089 0.000000 0.121757
# 5 -0.003925 0.004024 -0.003087 0.000000 0.024684 0.000000
# 6 0.000000 0.000000 0.000000 0.121757 0.000000 0.336118
#
#
# Mechanical properties :
#
#
# Convention : Reuss Voigt Hill
#
# Bulk Modulus (GPa) = 74.42597 83.22364 78.82480
# Shear Modulus (GPa) = 9.42106 35.69669 22.55888
#
# Velocity S-wave (km/s) = 1.92286 3.74294 2.97548
# Velocity P-wave (km/s) = 5.84288 7.16530 6.53761
#
# Compressibility (1/GPa) = 0.01343617
#
# Stress axis : x y z
#
# Youngs Moduli (GPa) = 150.30714 120.98524 105.51072
#
# Poissons Ratio (x) = 0.36762 0.08221
# Poissons Ratio (y) = 0.45672 0.17540
# Poissons Ratio (z) = 0.11711 0.20112
#
# Static dielectric constant tensor:
#      x y z
#    x 2.036960 0.000000 0.039450 
#    y 0.000000 2.085680 0.000000 
#    z 0.039450 0.000000 2.143470 
# 
# From -- ./inp_files/85171.got.cif
#   From: 2010.05.17/outbox.cif.g08.bks.cpg/sg12_43_cif.got.tgz:85171.got - 2010.06.03 13:09:07.
