data_PCOD9185427
_publ_section_title
;
Structure prediction by ZEFSAII (Michael W. Deem and Ramdas Pophale) SiO2 
 PCOD9185427
Probable space group: C 2/M
;
_chemical_formula_sum "Si O2"
_cell_formula_units_Z 56
_cell_length_a 29.219717
_cell_length_b 17.209705
_cell_length_c 9.436680
_cell_angle_alpha 90.000000
_cell_angle_beta 29.906647
_cell_angle_gamma 90.000000
_cell_volume 2365.978254
_symmetry_space_group_name_H-M "C 2/M"
_symmetry_group_IT_number 12
_symmetry_cell_setting 'monoclinic'
loop_
_space_group_symop_operation_xyz
x,y,z
-x,y,-z
-x,-y,-z
x,-y,z
1/2+x,1/2+y,z
1/2-x,1/2+y,-z
1/2-x,1/2-y,-z
1/2+x,1/2-y,z
loop_
_atom_site_type_symbol
_atom_site_label
_atom_site_fract_x
_atom_site_fract_y
_atom_site_fract_z
Si Si1 0.699073 0.356840 0.549725
Si Si2 0.344555 0.500000 0.882952
Si Si3 0.634298 0.091341 0.714806
Si Si4 0.551029 0.356218 0.734890
Si Si5 0.555634 0.237460 0.088114
Si Si6 0.833669 0.712427 0.954189
Si Si7 0.472464 0.500000 0.793028
Si Si8 0.709158 0.140538 0.214460
O O1 0.763998 0.402886 0.484340
O O2 0.635246 0.392917 0.593960
O O3 0.637484 0.294447 0.803285
O O4 0.772076 0.319593 0.248429
O O5 0.380819 0.500000 0.947122
O O6 0.438328 0.500000 0.545049
O O7 0.283168 0.572197 0.006679
O O8 0.570082 0.154691 0.969223
O O9 0.647640 0.120307 0.516885
O O10 0.606062 0.000000 0.795708
O O11 0.487243 0.423484 0.845146
O O12 0.500000 0.313041 0.000000
O O13 0.543852 0.283208 0.649803
O O14 0.576601 0.230979 0.197575
O O15 0.773884 0.785952 0.068709
O O16 0.840190 0.654653 0.803318
#
# Coordination Sequence:
#
# PCOD9185427 Si02
#       8
#     8   4   8   8   8   8   4   8
#     4  10  19  36  58  88 118 155 195 251 297 360
#     4  11  24  36  52  80 130 158 195 236 297 370
#     4  11  21  35  61  89 121 158 195 255 308 352
#     4  10  22  34  61  82 121 162 198 241 297 364
#     4  10  19  39  55  84 118 157 205 248 297 357
#     4  10  19  34  57  79 112 154 205 248 286 352
#     4  11  23  38  50  82 127 173 192 230 293 371
#     4  11  20  33  56  80 114 156 196 246 299 347
#
# _framework density 23.668858
#
# number of rings (size 3 to 8) (size 9 to 14) (size 15 to 20)
#    0.000    1.571    3.571    2.786    3.000    0.000 
#    5.143    0.000    0.000    3.857    0.000    0.000 
#    0.000   11.429    0.000    0.000    0.000    0.000 
#
# Total GULP energy -155970.000254 kJ/mol
# GULP energy per Si atom -5570.357152 kJ/mol
# Density = 2.361499 g / cm^3
# Si number density = 23.668858 Si / 1000 Ang^3
#
#
#
# Elastic Constant Matrix: (Units=GPa)
#
#
# Indices 1 2 3 4 5 6 
#
# 1 173.9013 48.6858 31.7779 0.0000 26.0999 0.0000
# 2 48.6858 90.6876 17.6071 0.0000 14.0660 0.0000
# 3 31.7779 17.6071 67.6171 0.0000 13.9607 0.0000
# 4 0.0000 0.0000 0.0000 2.0499 0.0000 11.7913
# 5 26.0999 14.0660 13.9607 0.0000 24.1474 0.0000
# 6 0.0000 0.0000 0.0000 11.7913 0.0000 31.9093
#
#
#
# Elastic Compliance Matrix: (Units=1/GPa)
#
#
# Indices 1 2 3 4 5 6 
#
# 1 0.007735 -0.002944 -0.001699 0.000000 -0.005663 0.000000
# 2 -0.002944 0.013468 -0.001318 0.000000 -0.003901 0.000000
# 3 -0.001699 -0.001318 0.017480 0.000000 -0.007501 0.000000
# 4 0.000000 0.000000 0.000000 -0.433403 0.000000 0.160153
# 5 -0.005663 -0.003901 -0.007501 0.000000 0.054142 0.000000
# 6 0.000000 0.000000 0.000000 0.160153 0.000000 -0.027842
#
#
# Mechanical properties :
#
#
# Convention : Reuss Voigt Hill
#
# Bulk Modulus (GPa) = 37.36904 58.70530 48.03717
# Shear Modulus (GPa) = -14.38535 27.23033 6.42249
#
# Velocity S-wave (km/s) = -2.46798 3.39554 1.64905
# Velocity P-wave (km/s) = 2.77512 6.34267 4.89545
#
# Compressibility (1/GPa) = 0.02676012
#
# Stress axis : x y z
#
# Youngs Moduli (GPa) = 129.27990 74.24738 57.20900
#
# Poissons Ratio (x) = 0.21861 0.09722
# Poissons Ratio (y) = 0.38064 0.07540
# Poissons Ratio (z) = 0.21969 0.09785
#
# Static dielectric constant tensor:
#      x y z
#    x 2.189010 0.000000 -0.119570 
#    y 0.000000 1.920240 0.000000 
#    z -0.119570 0.000000 2.013910 
# 
# From -- ./inp_files/112626.got.cif
#   From: 2010.05.17/outbox.cif.g08.bks.cpg/sg12_57_cif.got.tgz:112626.got - 2010.06.03 13:09:07.
