data_PCOD9185363
_publ_section_title
;
Structure prediction by ZEFSAII (Michael W. Deem and Ramdas Pophale) SiO2 
 PCOD9185363
Probable space group: C 2/M
;
_chemical_formula_sum "Si O2"
_cell_formula_units_Z 64
_cell_length_a 16.411496
_cell_length_b 8.956933
_cell_length_c 30.600263
_cell_angle_alpha 90.000000
_cell_angle_beta 131.641505
_cell_angle_gamma 90.000000
_cell_volume 3361.533834
_symmetry_space_group_name_H-M "C 2/M"
_symmetry_group_IT_number 12
_symmetry_cell_setting 'monoclinic'
loop_
_space_group_symop_operation_xyz
x,y,z
-x,y,-z
-x,-y,-z
x,-y,z
1/2+x,1/2+y,z
1/2-x,1/2+y,-z
1/2-x,1/2-y,-z
1/2+x,1/2-y,z
loop_
_atom_site_type_symbol
_atom_site_label
_atom_site_fract_x
_atom_site_fract_y
_atom_site_fract_z
Si Si1 0.477327 0.164344 0.939457
Si Si2 0.133447 0.821333 0.678217
Si Si3 0.746339 0.675814 0.433213
Si Si4 0.928959 0.676638 0.566716
Si Si5 0.818391 0.178132 0.687464
Si Si6 0.735109 0.322975 0.129982
Si Si7 0.686088 0.328309 0.014332
Si Si8 0.046684 0.322233 0.738270
O O1 0.358406 0.218834 0.883128
O O2 0.502230 0.000000 0.930239
O O3 0.500000 0.152870 0.000000
O O4 0.561428 0.293592 0.959083
O O5 0.247331 0.753643 0.700644
O O6 0.090068 0.752417 0.708730
O O7 0.038648 0.770142 0.610892
O O8 0.140184 0.000000 0.683874
O O9 0.719526 0.500000 0.431336
O O10 0.860453 0.704668 0.498123
O O11 0.653824 0.773766 0.424039
O O12 0.745694 0.699934 0.381349
O O13 0.952725 0.500000 0.578359
O O14 0.937318 0.248183 0.719103
O O15 0.828193 0.000000 0.698768
O O16 0.706416 0.500000 0.123190
O O17 0.725379 0.277152 0.075889
O O18 0.853412 0.303874 0.192335
O O19 0.707917 0.500000 0.021172
O O20 0.750000 0.250000 0.000000
O O21 0.028540 0.500000 0.724671
#
# Coordination Sequence:
#
# PCOD9185363 Si02
#       8
#     8   8   8   8   8   8   8   8
#     4   9  17  31  54  82 110 143 184 225 271 332
#     4  12  25  41  61  88 121 161 206 253 306 365
#     4   9  19  35  58  88 120 154 195 247 308 368
#     4  10  19  34  59  88 119 156 198 248 306 367
#     4  11  23  41  64  90 121 159 203 254 308 365
#     4   9  20  38  60  84 114 151 192 236 289 347
#     4  10  19  34  56  85 120 155 187 232 288 342
#     4  11  23  43  66  89 119 159 206 257 308 360
#
# _framework density 19.038927000000001
#
# number of rings (size 3 to 8) (size 9 to 14) (size 15 to 20)
#    0.000    1.875    1.250    3.000    0.000    4.500 
#    2.250    2.500    0.000    0.000    0.000    0.000 
#    0.000    0.000    0.000    0.000    0.000    0.000 
#
# Total GULP energy -178401.351139 kJ/mol
# GULP energy per Si atom -5575.042223 kJ/mol
# Density = 1.899559 g / cm^3
# Si number density = 19.038927 Si / 1000 Ang^3
#
#
#
# Elastic Constant Matrix: (Units=GPa)
#
#
# Indices 1 2 3 4 5 6 
#
# 1 103.0749 55.4363 43.3873 0.0000 15.9142 0.0000
# 2 55.4363 85.9905 48.7848 0.0000 4.5940 0.0000
# 3 43.3873 48.7848 77.1724 0.0000 18.7337 0.0000
# 4 0.0000 0.0000 0.0000 23.8097 0.0000 4.5656
# 5 15.9142 4.5940 18.7337 0.0000 14.1691 0.0000
# 6 0.0000 0.0000 0.0000 4.5656 0.0000 34.3090
#
#
#
# Elastic Compliance Matrix: (Units=1/GPa)
#
#
# Indices 1 2 3 4 5 6 
#
# 1 0.018188 -0.011736 0.001809 0.000000 -0.019015 0.000000
# 2 -0.011736 0.027698 -0.017570 0.000000 0.027431 0.000000
# 3 0.001809 -0.017570 0.032631 0.000000 -0.039479 0.000000
# 4 0.000000 0.000000 0.000000 0.043099 0.000000 -0.005735
# 5 -0.019015 0.027431 -0.039479 0.000000 0.135236 0.000000
# 6 0.000000 0.000000 0.000000 -0.005735 0.000000 0.029910
#
#
# Mechanical properties :
#
#
# Convention : Reuss Voigt Hill
#
# Bulk Modulus (GPa) = 42.51057 62.38385 52.44721
# Shear Modulus (GPa) = 14.30223 22.36618 18.33421
#
# Velocity S-wave (km/s) = 2.74379 3.43120 3.10657
# Velocity P-wave (km/s) = 5.69338 6.96671 6.36198
#
# Compressibility (1/GPa) = 0.02352356
#
# Stress axis : x y z
#
# Youngs Moduli (GPa) = 54.98209 36.10428 30.64558
#
# Poissons Ratio (x) = 0.42372 -0.05545
# Poissons Ratio (y) = 0.64527 0.53844
# Poissons Ratio (z) = -0.09949 0.63435
#
# Static dielectric constant tensor:
#      x y z
#    x 1.647320 0.000000 -0.022530 
#    y 0.000000 1.633270 0.000000 
#    z -0.022530 0.000000 1.644020 
# 
# From -- ./inp_files/375533.got.cif
#   From: 2010.05.17/outbox.cif.g08.bks.cpg/sg12_188_cif.got.tgz:375533.got - 2010.06.03 13:09:07.
