data_PCOD9185132
_publ_section_title
;
Structure prediction by ZEFSAII (Michael W. Deem and Ramdas Pophale) SiO2 
 PCOD9185132
Probable space group: C 2/M
;
_chemical_formula_sum "Si O2"
_cell_formula_units_Z 56
_cell_length_a 29.448624
_cell_length_b 14.549488
_cell_length_c 9.149300
_cell_angle_alpha 90.000000
_cell_angle_beta 141.018414
_cell_angle_gamma 90.000000
_cell_volume 2466.039174
_symmetry_space_group_name_H-M "C 2/M"
_symmetry_group_IT_number 12
_symmetry_cell_setting 'monoclinic'
loop_
_space_group_symop_operation_xyz
x,y,z
-x,y,-z
-x,-y,-z
x,-y,z
1/2+x,1/2+y,z
1/2-x,1/2+y,-z
1/2-x,1/2-y,-z
1/2+x,1/2-y,z
loop_
_atom_site_type_symbol
_atom_site_label
_atom_site_fract_x
_atom_site_fract_y
_atom_site_fract_z
Si Si1 0.507326 0.112646 0.850819
Si Si2 0.925084 0.888704 0.733703
Si Si3 0.284883 0.606018 0.883124
Si Si4 0.572026 0.612501 0.599259
Si Si5 0.358890 0.112660 0.325909
Si Si6 0.281646 0.348354 0.541653
Si Si7 0.643714 0.893694 0.012503
O O1 0.435852 0.139899 0.584123
O O2 0.509881 0.000000 0.860985
O O3 0.500000 0.142632 0.000000
O O4 0.579979 0.147069 0.953253
O O5 0.926608 0.862920 0.567449
O O6 0.856833 0.847160 0.645773
O O7 0.916579 0.000000 0.720622
O O8 0.000000 0.865747 0.000000
O O9 0.282748 0.500000 0.926060
O O10 0.209179 0.646903 0.749445
O O11 0.290763 0.606681 0.723415
O O12 0.356315 0.644716 0.137554
O O13 0.500000 0.645449 0.500000
O O14 0.570435 0.500000 0.601398
O O15 0.358827 0.000000 0.331679
O O16 0.350942 0.142644 0.138357
O O17 0.250000 0.250000 0.500000
O O18 0.219864 0.391668 0.285348
O O19 0.622818 0.000000 0.940562
#
# Coordination Sequence:
#
# PCOD9185132 Si02
#       7
#     8   8   8   8   8   8   8
#     4   9  16  27  48  80 111 136 170 219 268 315
#     4  10  20  38  66  94 119 151 196 249 300 351
#     4  10  19  34  57  81 108 144 186 232 283 345
#     4   9  17  31  57  93 120 140 182 248 309 353
#     4   9  17  30  52  83 110 135 178 232 278 326
#     4  12  25  39  54  81 119 155 191 235 291 353
#     4  10  19  34  56  78 105 144 189 235 282 338
#
# _framework density 22.708479000000001
#
# number of rings (size 3 to 8) (size 9 to 14) (size 15 to 20)
#    0.000    2.143    0.000    4.286    0.000    8.571 
#    0.000    5.000    0.000    3.429    0.000    0.000 
#    0.000    0.000    0.000    0.000    0.000    0.143 
#
# Total GULP energy -156590.741122 kJ/mol
# GULP energy per Si atom -5592.526469 kJ/mol
# Density = 2.265679 g / cm^3
# Si number density = 22.708479 Si / 1000 Ang^3
#
#
#
# Elastic Constant Matrix: (Units=GPa)
#
#
# Indices 1 2 3 4 5 6 
#
# 1 232.8986 3.3363 123.2361 0.0000 14.5061 0.0000
# 2 3.3363 58.7692 -5.3575 0.0000 6.8040 0.0000
# 3 123.2361 -5.3575 209.4331 0.0000 2.1103 0.0000
# 4 0.0000 0.0000 0.0000 -234.8825 0.0000 101.0086
# 5 14.5061 6.8040 2.1103 0.0000 49.8407 0.0000
# 6 0.0000 0.0000 0.0000 101.0086 0.0000 -33.2499
#
#
#
# Elastic Compliance Matrix: (Units=1/GPa)
#
#
# Indices 1 2 3 4 5 6 
#
# 1 0.006391 -0.000517 -0.003757 0.000000 -0.001630 0.000000
# 2 -0.000517 0.017376 0.000771 0.000000 -0.002254 0.000000
# 3 -0.003757 0.000771 0.006998 0.000000 0.000692 0.000000
# 4 0.000000 0.000000 0.000000 0.013895 0.000000 0.042212
# 5 -0.001630 -0.002254 0.000692 0.000000 0.020817 0.000000
# 6 0.000000 0.000000 0.000000 0.042212 0.000000 0.098158
#
#
# Mechanical properties :
#
#
# Convention : Reuss Voigt Hill
#
# Bulk Modulus (GPa) = 42.08718 82.61452 62.35085
# Shear Modulus (GPa) = 28.00166 -18.33262 4.83452
#
# Velocity S-wave (km/s) = 3.51535 -2.84439 1.46068
# Velocity P-wave (km/s) = 5.92038 5.06676 5.51012
#
# Compressibility (1/GPa) = 0.02376020
#
# Stress axis : x y z
#
# Youngs Moduli (GPa) = 156.47462 57.54955 142.88875
#
# Poissons Ratio (x) = 0.02973 0.53688
# Poissons Ratio (y) = 0.08083 -0.11019
# Poissons Ratio (z) = 0.58792 -0.04438
#
# Static dielectric constant tensor:
#      x y z
#    x 1.800970 0.000000 -0.007810 
#    y 0.000000 1.990810 0.000000 
#    z -0.007810 0.000000 1.808650 
# 
# From -- ./inp_files/105938.got.cif
#   From: 2010.05.17/outbox.cif.g08.bks.cpg/sg12_53_cif.got.tgz:105938.got - 2010.06.03 13:09:07.
