data_PCOD9185694
_publ_section_title
;
Structure prediction by ZEFSAII (Michael W. Deem and Ramdas Pophale) SiO2 
 PCOD9185694
Probable space group: C 2/M
;
_chemical_formula_sum "Si O2"
_cell_formula_units_Z 58
_cell_length_a 23.277149
_cell_length_b 7.716264
_cell_length_c 27.298299
_cell_angle_alpha 90.000000
_cell_angle_beta 33.703412
_cell_angle_gamma 90.000000
_cell_volume 2720.711273
_symmetry_space_group_name_H-M "C 2/M"
_symmetry_group_IT_number 12
_symmetry_cell_setting 'monoclinic'
loop_
_space_group_symop_operation_xyz
x,y,z
-x,y,-z
-x,-y,-z
x,-y,z
1/2+x,1/2+y,z
1/2-x,1/2+y,-z
1/2-x,1/2-y,-z
1/2+x,1/2-y,z
loop_
_atom_site_type_symbol
_atom_site_label
_atom_site_fract_x
_atom_site_fract_y
_atom_site_fract_z
Si Si1 0.118774 0.790967 0.967682
Si Si2 0.571552 0.701100 0.831957
Si Si3 0.237461 0.295599 0.785712
Si Si4 0.206620 0.708065 0.083550
Si Si5 0.524829 0.294002 0.395845
Si Si6 0.523193 0.794003 0.756400
Si Si7 0.129151 0.707747 0.583467
Si Si8 0.500000 0.000000 0.500000
O O1 0.157250 0.749443 0.886019
O O2 0.213309 0.725367 0.933630
O O3 0.111582 0.000000 0.973341
O O4 0.014122 0.725558 0.068691
O O5 0.546399 0.500000 0.844907
O O6 0.685217 0.719352 0.774068
O O7 0.563000 0.771345 0.783286
O O8 0.235975 0.500000 0.781460
O O9 0.358072 0.246692 0.706710
O O10 0.203646 0.500000 0.091627
O O11 0.091869 0.779447 0.167300
O O12 0.250000 0.750000 0.000000
O O13 0.527021 0.500000 0.409309
O O14 0.439731 0.278162 0.412753
O O15 0.501574 0.155769 0.455506
O O16 0.587897 0.725594 0.665140
O O17 0.516490 0.000000 0.754222
O O18 0.118086 0.500000 0.588546
O O19 0.250000 0.750000 0.500000
#
# Coordination Sequence:
#
# PCOD9185694 Si02
#       8
#     8   8   8   8   8   8   8   2
#     4  10  21  37  59  90 130 179 228 278 334 409
#     4  11  23  38  60  92 133 181 234 282 339 410
#     4  11  25  42  64  94 133 177 226 287 341 409
#     4  10  19  34  57  86 122 164 212 267 325 392
#     4  11  26  49  76 112 143 179 244 294 354 445
#     4  10  22  39  63  93 132 179 224 279 345 417
#     4  11  24  46  74 105 144 188 229 292 369 428
#     4  12  26  48  84 106 142 192 222 302 374 422
#
# _framework density 21.317955999999999
#
# number of rings (size 3 to 8) (size 9 to 14) (size 15 to 20)
#    0.000    1.379    2.069    2.690    1.931    6.621 
#    0.000    1.379    0.000    0.000    0.000    0.000 
#    0.000    0.000    0.000    0.000    0.000    0.000 
#
# Total GULP energy -161557.114486 kJ/mol
# GULP energy per Si atom -5570.934982 kJ/mol
# Density = 2.126944 g / cm^3
# Si number density = 21.317956 Si / 1000 Ang^3
#
#
#
# Elastic Constant Matrix: (Units=GPa)
#
#
# Indices 1 2 3 4 5 6 
#
# 1 158.2601 12.8859 83.5245 0.0016 1.8950 -0.0066
# 2 12.8859 83.7332 25.6088 0.0016 9.4043 -0.0082
# 3 83.5245 25.6088 148.5728 0.0000 0.9945 -0.0003
# 4 0.0016 0.0016 0.0000 24.7136 -0.0011 2.6374
# 5 1.8950 9.4043 0.9945 -0.0011 31.5263 0.0027
# 6 -0.0066 -0.0082 -0.0003 2.6374 0.0027 18.6461
#
#
#
# Elastic Compliance Matrix: (Units=1/GPa)
#
#
# Indices 1 2 3 4 5 6 
#
# 1 0.008993 0.000223 -0.005091 -0.000001 -0.000447 0.000003
# 2 0.000223 0.013058 -0.002351 -0.000002 -0.003834 0.000007
# 3 -0.005091 -0.002351 0.009993 0.000001 0.000692 -0.000003
# 4 -0.000001 -0.000002 0.000001 0.041084 0.000002 -0.005811
# 5 -0.000447 -0.003834 0.000692 0.000002 0.032868 -0.000007
# 6 0.000003 0.000007 -0.000003 -0.005811 -0.000007 0.054452
#
#
# Mechanical properties :
#
#
# Convention : Reuss Voigt Hill
#
# Bulk Modulus (GPa) = 56.79474 70.51162 63.65318
# Shear Modulus (GPa) = 27.66187 32.88033 30.27110
#
# Velocity S-wave (km/s) = 3.60611 3.93157 3.77235
# Velocity P-wave (km/s) = 6.63613 7.33196 6.99271
#
# Compressibility (1/GPa) = 0.01760726
#
# Stress axis : x y z
#
# Youngs Moduli (GPa) = 111.20053 76.58209 100.06695
#
# Poissons Ratio (x) = -0.01710 0.50944
# Poissons Ratio (y) = -0.02483 0.23521
# Poissons Ratio (z) = 0.56613 0.18001
#
# Static dielectric constant tensor:
#      x y z
#    x 1.752480 0.000000 0.019850 
#    y 0.000000 1.777830 0.000000 
#    z 0.019850 0.000000 1.775870 
# 
# From -- ./inp_files/346489.got.cif
#   From: 2010.05.17/outbox.cif.g08.bks.cpg/sg12_174_cif.got.tgz:346489.got - 2010.06.03 13:09:07.
