data_PCOD9185737
_publ_section_title
;
Structure prediction by ZEFSAII (Michael W. Deem and Ramdas Pophale) SiO2 
 PCOD9185737
Probable space group: C 2/M
;
_chemical_formula_sum "Si O2"
_cell_formula_units_Z 56
_cell_length_a 28.899438
_cell_length_b 14.195109
_cell_length_c 8.905632
_cell_angle_alpha 90.000000
_cell_angle_beta 52.064034
_cell_angle_gamma 90.000000
_cell_volume 2881.401605
_symmetry_space_group_name_H-M "C 2/M"
_symmetry_group_IT_number 12
_symmetry_cell_setting 'monoclinic'
loop_
_space_group_symop_operation_xyz
x,y,z
-x,y,-z
-x,-y,-z
x,-y,z
1/2+x,1/2+y,z
1/2-x,1/2+y,-z
1/2-x,1/2-y,-z
1/2+x,1/2-y,z
loop_
_atom_site_type_symbol
_atom_site_label
_atom_site_fract_x
_atom_site_fract_y
_atom_site_fract_z
Si Si1 0.718757 0.110640 0.621010
Si Si2 0.716820 0.387605 0.050574
Si Si3 0.567363 0.285235 0.855157
Si Si4 0.162076 0.888287 0.483099
Si Si5 0.646594 0.746395 0.971272
Si Si6 0.616356 0.891730 0.612124
Si Si7 0.357276 0.110596 0.781524
O O1 0.787403 0.132053 0.493444
O O2 0.687281 0.181642 0.796358
O O3 0.683709 0.121024 0.536014
O O4 0.712645 0.000000 0.680501
O O5 0.708840 0.500000 0.046387
O O6 0.688082 0.360219 0.268887
O O7 0.684998 0.329973 0.983367
O O8 0.786809 0.371154 0.915704
O O9 0.603487 0.339280 0.654494
O O10 0.600620 0.297643 0.946950
O O11 0.575935 0.176728 0.788574
O O12 0.500000 0.311875 0.000000
O O13 0.153465 0.000000 0.495361
O O14 0.616939 0.815638 0.152357
O O15 0.616364 0.874131 0.435611
O O16 0.601199 0.000000 0.670447
O O17 0.364847 0.000000 0.806902
#
# Coordination Sequence:
#
# PCOD9185737 Si02
#       7
#     8   8   8   8   8   8   8
#     4   9  18  33  55  89 119 148 181 225 291 351
#     4  10  21  35  55  90 125 149 175 222 291 361
#     4  11  26  42  57  79 110 156 210 246 271 315
#     4  10  21  39  60  81 116 151 187 237 289 341
#     4  11  21  34  60  84 117 152 184 236 284 343
#     4   9  20  36  59  86 119 151 183 230 284 346
#     4  10  19  34  57  91 125 145 172 220 292 367
#
# _framework density 19.434985999999999
#
# number of rings (size 3 to 8) (size 9 to 14) (size 15 to 20)
#    0.000    2.000    1.429    1.714    4.000    2.857 
#    0.000    2.857    0.000    3.429    0.000    0.000 
#    0.000    0.000    0.000    0.000    0.000    0.000 
#
# Total GULP energy -156406.324707 kJ/mol
# GULP energy per Si atom -5585.940168 kJ/mol
# Density = 1.939075 g / cm^3
# Si number density = 19.434986 Si / 1000 Ang^3
#
#
#
# Elastic Constant Matrix: (Units=GPa)
#
#
# Indices 1 2 3 4 5 6 
#
# 1 42.4183 8.5142 8.5973 0.0000 -1.2158 0.0000
# 2 8.5142 35.0919 0.8758 0.0000 6.5319 0.0000
# 3 8.5973 0.8758 28.9054 0.0000 -0.6609 0.0000
# 4 0.0000 0.0000 0.0000 14.8163 0.0000 11.5120
# 5 -1.2158 6.5319 -0.6609 0.0000 29.9609 0.0000
# 6 0.0000 0.0000 0.0000 11.5120 0.0000 17.0460
#
#
#
# Elastic Compliance Matrix: (Units=1/GPa)
#
#
# Indices 1 2 3 4 5 6 
#
# 1 0.026532 -0.006687 -0.007635 0.000000 0.002366 0.000000
# 2 -0.006687 0.031419 0.000875 0.000000 -0.007102 0.000000
# 3 -0.007635 0.000875 0.036847 0.000000 0.000312 0.000000
# 4 0.000000 0.000000 0.000000 0.142012 0.000000 -0.095908
# 5 0.002366 -0.007102 0.000312 0.000000 0.035028 0.000000
# 6 0.000000 0.000000 0.000000 -0.095908 0.000000 0.123436
#
#
# Mechanical properties :
#
#
# Convention : Reuss Voigt Hill
#
# Bulk Modulus (GPa) = 14.72671 15.82111 15.27391
# Shear Modulus (GPa) = 11.24091 18.25985 14.75038
#
# Velocity S-wave (km/s) = 2.40757 3.06851 2.75791
# Velocity P-wave (km/s) = 3.91439 4.55110 4.24470
#
# Compressibility (1/GPa) = 0.06790384
#
# Stress axis : x y z
#
# Youngs Moduli (GPa) = 37.68998 31.82765 27.13920
#
# Poissons Ratio (x) = 0.21284 0.20720
# Poissons Ratio (y) = 0.25204 -0.02374
# Poissons Ratio (z) = 0.28775 -0.02784
#
# Static dielectric constant tensor:
#      x y z
#    x 1.678060 0.000000 0.029390 
#    y 0.000000 1.716470 0.000000 
#    z 0.029390 0.000000 1.671310 
# 
# From -- ./inp_files/111567.got.cif
#   From: 2010.05.17/outbox.cif.g08.bks.cpg/sg12_56_cif.got.tgz:111567.got - 2010.06.03 13:09:07.
