data_PCOD9185757
_publ_section_title
;
Structure prediction by ZEFSAII (Michael W. Deem and Ramdas Pophale) SiO2 
 PCOD9185757
Probable space group: C 2/M
;
_chemical_formula_sum "Si O2"
_cell_formula_units_Z 64
_cell_length_a 20.554268
_cell_length_b 8.102864
_cell_length_c 16.113828
_cell_angle_alpha 90.000000
_cell_angle_beta 71.452650
_cell_angle_gamma 90.000000
_cell_volume 2544.342771
_symmetry_space_group_name_H-M "C 2/M"
_symmetry_group_IT_number 12
_symmetry_cell_setting 'monoclinic'
loop_
_space_group_symop_operation_xyz
x,y,z
-x,y,-z
-x,-y,-z
x,-y,z
1/2+x,1/2+y,z
1/2-x,1/2+y,-z
1/2-x,1/2-y,-z
1/2+x,1/2-y,z
loop_
_atom_site_type_symbol
_atom_site_label
_atom_site_fract_x
_atom_site_fract_y
_atom_site_fract_z
Si Si1 0.469530 0.303679 0.396955
Si Si2 0.722005 0.695330 0.898285
Si Si3 0.517461 0.697535 0.804540
Si Si4 0.765050 0.202006 0.297456
Si Si5 0.382302 0.809528 0.644713
Si Si6 0.824290 0.198486 0.438955
Si Si7 0.426196 0.807408 0.055298
Si Si8 0.867365 0.195253 0.838951
O O1 0.466738 0.500000 0.406973
O O2 0.475026 0.265356 0.296036
O O3 0.542360 0.255789 0.406015
O O4 0.394380 0.235116 0.451311
O O5 0.732502 0.500000 0.898158
O O6 0.723685 0.755486 0.801122
O O7 0.643273 0.730896 0.952569
O O8 0.791801 0.773511 0.907094
O O9 0.527557 0.500000 0.809805
O O10 0.568269 0.784771 0.847329
O O11 0.437680 0.741646 0.857004
O O12 0.689709 0.265415 0.356895
O O13 0.820871 0.246839 0.342931
O O14 0.763094 0.000000 0.296124
O O15 0.372338 0.789082 0.748810
O O16 0.382413 0.000000 0.623243
O O17 0.750000 0.250000 0.500000
O O18 0.826884 0.000000 0.442023
O O19 0.425373 0.000000 0.034257
O O20 0.500000 0.731774 0.000000
O O21 0.873368 0.000000 0.819069
#
# Coordination Sequence:
#
# PCOD9185757 Si02
#       8
#     8   8   8   8   8   8   8   8
#     4   9  18  33  53  76 103 133 163 207 263 305
#     4  10  19  34  58  82 102 132 175 214 254 307
#     4   9  18  34  57  80 101 133 173 209 253 308
#     4   8  16  32  53  75  99 128 163 206 251 295
#     4   9  16  28  50  78 102 128 167 209 249 300
#     4  10  20  35  51  69  99 135 170 208 252 300
#     4  11  24  38  51  73 107 141 172 212 260 304
#     4   9  17  31  52  80 111 135 161 207 263 307
#
# _framework density 25.153842000000001
#
# number of rings (size 3 to 8) (size 9 to 14) (size 15 to 20)
#    0.000    2.625    0.000    3.750    0.000    6.000 
#    0.000    6.250    0.000    3.750    0.000    0.000 
#    0.000    0.000    0.000    0.000    0.000    0.000 
#
# Total GULP energy -178746.259110 kJ/mol
# GULP energy per Si atom -5585.820597 kJ/mol
# Density = 2.509659 g / cm^3
# Si number density = 25.153842 Si / 1000 Ang^3
#
#
#
# Elastic Constant Matrix: (Units=GPa)
#
#
# Indices 1 2 3 4 5 6 
#
# 1 230.5116 22.7505 34.9348 0.0000 -26.4251 0.0000
# 2 22.7505 36.3106 -1.7213 0.0000 -6.6013 0.0000
# 3 34.9348 -1.7213 73.3365 0.0000 -25.9638 0.0000
# 4 0.0000 0.0000 0.0000 17.2708 0.0000 -9.0483
# 5 -26.4251 -6.6013 -25.9638 0.0000 52.4037 0.0000
# 6 0.0000 0.0000 0.0000 -9.0483 0.0000 26.6308
#
#
#
# Elastic Compliance Matrix: (Units=1/GPa)
#
#
# Indices 1 2 3 4 5 6 
#
# 1 0.005090 -0.003081 -0.002093 0.000000 0.001142 0.000000
# 2 -0.003081 0.030382 0.003621 0.000000 0.004068 0.000000
# 3 -0.002093 0.003621 0.017591 0.000000 0.008116 0.000000
# 4 0.000000 0.000000 0.000000 0.070440 0.000000 0.023933
# 5 0.001142 0.004068 0.008116 0.000000 0.024192 0.000000
# 6 0.000000 0.000000 0.000000 0.023933 0.000000 0.045682
#
#
# Mechanical properties :
#
#
# Convention : Reuss Voigt Hill
#
# Bulk Modulus (GPa) = 20.01714 50.23183 35.12449
# Shear Modulus (GPa) = 23.45911 38.20736 30.83324
#
# Velocity S-wave (km/s) = 3.05720 3.90160 3.50492
# Velocity P-wave (km/s) = 4.52075 6.34900 5.51121
#
# Compressibility (1/GPa) = 0.04995718
#
# Stress axis : x y z
#
# Youngs Moduli (GPa) = 196.45062 32.91454 56.84626
#
# Poissons Ratio (x) = 0.10141 0.11898
# Poissons Ratio (y) = 0.60527 -0.20583
# Poissons Ratio (z) = 0.41116 -0.11918
#
# Static dielectric constant tensor:
#      x y z
#    x 2.035950 0.000000 -0.038630 
#    y 0.000000 1.868120 0.000000 
#    z -0.038630 0.000000 2.136070 
# 
# From -- ./inp_files/319910.got.cif
#   From: 2010.05.17/outbox.cif.g08.bks.cpg/sg12_160_cif.got.tgz:319910.got - 2010.06.03 13:09:07.
