data_PCOD9185358
_publ_section_title
;
Structure prediction by ZEFSAII (Michael W. Deem and Ramdas Pophale) SiO2 
 PCOD9185358
Probable space group: C 2/M
;
_chemical_formula_sum "Si O2"
_cell_formula_units_Z 48
_cell_length_a 30.907273
_cell_length_b 7.801065
_cell_length_c 15.145382
_cell_angle_alpha 90.000000
_cell_angle_beta 40.484719
_cell_angle_gamma 90.000000
_cell_volume 2370.847276
_symmetry_space_group_name_H-M "C 2/M"
_symmetry_group_IT_number 12
_symmetry_cell_setting 'monoclinic'
loop_
_space_group_symop_operation_xyz
x,y,z
-x,y,-z
-x,-y,-z
x,-y,z
1/2+x,1/2+y,z
1/2-x,1/2+y,-z
1/2-x,1/2-y,-z
1/2+x,1/2-y,z
loop_
_atom_site_type_symbol
_atom_site_label
_atom_site_fract_x
_atom_site_fract_y
_atom_site_fract_z
Si Si1 0.679092 0.706075 0.653041
Si Si2 0.160555 0.796822 0.353132
Si Si3 0.565335 0.199391 0.348456
Si Si4 0.811639 0.791788 0.160292
Si Si5 0.432729 0.298913 0.853711
Si Si6 0.081871 0.210420 0.651069
O O1 0.673888 0.500000 0.664389
O O2 0.750000 0.750000 0.500000
O O3 0.676872 0.768697 0.757014
O O4 0.621195 0.767567 0.677205
O O5 0.126814 0.716296 0.319592
O O6 0.238615 0.762366 0.241865
O O7 0.122380 0.735370 0.500768
O O8 0.149709 0.000000 0.363549
O O9 0.500000 0.271573 0.500000
O O10 0.577200 0.283204 0.235613
O O11 0.551897 0.000000 0.351112
O O12 0.811786 0.000000 0.160273
O O13 0.870569 0.728153 0.005173
O O14 0.435758 0.500000 0.871388
O O15 0.505845 0.228459 0.763642
O O16 0.081982 0.000000 0.650305
#
# Coordination Sequence:
#
# PCOD9185358 Si02
#       6
#     8   8   8   8   8   8
#     4  10  19  34  56  85 115 148 190 233 278 331
#     4  11  21  36  61  86 112 150 193 234 277 340
#     4  11  23  38  59  87 115 145 187 239 289 337
#     4  10  22  37  57  86 120 151 185 237 288 330
#     4  10  21  39  59  83 116 152 190 233 284 340
#     4   9  18  33  57  85 110 145 192 231 272 331
#
# _framework density 20.245927999999999
#
# number of rings (size 3 to 8) (size 9 to 14) (size 15 to 20)
#    0.000    1.833    3.333    1.000    0.000    2.667 
#    0.000    4.167    0.000    0.000    0.000    3.500 
#    0.000    0.000    0.000    0.000    0.000    0.000 
#
# Total GULP energy -134072.382413 kJ/mol
# GULP energy per Si atom -5586.349267 kJ/mol
# Density = 2.019985 g / cm^3
# Si number density = 20.245928 Si / 1000 Ang^3
#
#
#
# Elastic Constant Matrix: (Units=GPa)
#
#
# Indices 1 2 3 4 5 6 
#
# 1 163.0895 -15.6113 80.9884 0.0000 -11.4080 0.0000
# 2 -15.6113 24.6472 -5.4288 0.0006 -1.0801 0.0000
# 3 80.9884 -5.4288 179.0626 0.0006 -6.9829 0.0000
# 4 0.0000 0.0006 0.0006 18.5061 0.0001 -4.8300
# 5 -11.4080 -1.0801 -6.9829 0.0001 32.2063 0.0000
# 6 0.0000 0.0000 0.0000 -4.8300 0.0000 0.9351
#
#
#
# Elastic Compliance Matrix: (Units=1/GPa)
#
#
# Indices 1 2 3 4 5 6 
#
# 1 0.008556 0.004724 -0.003633 0.000000 0.002401 0.000001
# 2 0.004724 0.043541 -0.000700 0.000006 0.002982 0.000028
# 3 -0.003633 -0.000700 0.007216 0.000001 0.000254 0.000004
# 4 0.000000 0.000006 0.000001 -0.155222 0.000000 -0.801773
# 5 0.002401 0.002982 0.000254 0.000000 0.032056 0.000000
# 6 0.000001 0.000028 0.000004 -0.801773 0.000000 -3.071988
#
#
# Mechanical properties :
#
#
# Convention : Reuss Voigt Hill
#
# Bulk Modulus (GPa) = 16.64016 54.07732 35.35874
# Shear Modulus (GPa) = -1.60432 30.78623 14.59095
#
# Velocity S-wave (km/s) = -0.89114 3.90373 2.68747
# Velocity P-wave (km/s) = 2.67918 6.86200 5.20889
#
# Compressibility (1/GPa) = 0.06009559
#
# Stress axis : x y z
#
# Youngs Moduli (GPa) = 116.87953 22.96671 138.57271
#
# Poissons Ratio (x) = -0.10850 0.50341
# Poissons Ratio (y) = -0.55217 0.09705
# Poissons Ratio (z) = 0.42461 0.01608
#
# Static dielectric constant tensor:
#      x y z
#    x 1.685070 0.000000 -0.000390 
#    y 0.000000 1.746040 0.000000 
#    z -0.000390 0.000000 1.696350 
# 
# From -- ./inp_files/244742.got.cif
#   From: 2010.05.17/outbox.cif.g08.bks.cpg/sg12_123_cif.got.tgz:244742.got - 2010.06.03 13:09:07.
