data_PCOD9185215
_publ_section_title
;
Structure prediction by ZEFSAII (Michael W. Deem and Ramdas Pophale) SiO2 
 PCOD9185215
Probable space group: C 2/M
;
_chemical_formula_sum "Si O2"
_cell_formula_units_Z 48
_cell_length_a 18.450632
_cell_length_b 10.058676
_cell_length_c 12.985876
_cell_angle_alpha 90.000000
_cell_angle_beta 97.251676
_cell_angle_gamma 90.000000
_cell_volume 2390.757575
_symmetry_space_group_name_H-M "C 2/M"
_symmetry_group_IT_number 12
_symmetry_cell_setting 'monoclinic'
loop_
_space_group_symop_operation_xyz
x,y,z
-x,y,-z
-x,-y,-z
x,-y,z
1/2+x,1/2+y,z
1/2-x,1/2+y,-z
1/2-x,1/2-y,-z
1/2+x,1/2-y,z
loop_
_atom_site_type_symbol
_atom_site_label
_atom_site_fract_x
_atom_site_fract_y
_atom_site_fract_z
Si Si1 0.867059 0.653541 0.285275
Si Si2 0.891696 0.855883 0.690935
Si Si3 0.494222 0.221904 0.164579
Si Si4 0.774823 0.155397 0.850903
Si Si5 0.613364 0.152951 0.029850
Si Si6 0.414215 0.842267 0.510910
O O1 0.846456 0.500000 0.294204
O O2 0.946587 0.658538 0.247071
O O3 0.805371 0.705110 0.196579
O O4 0.871922 0.708860 0.401298
O O5 0.823101 0.845333 0.754965
O O6 0.894324 0.740106 0.608012
O O7 0.963674 0.844055 0.776214
O O8 0.890561 0.000000 0.639430
O O9 0.561387 0.145941 0.121835
O O10 0.435238 0.231267 0.062697
O O11 0.816098 0.259930 0.931403
O O12 0.773983 0.000000 0.887509
O O13 0.626362 0.000000 0.998049
O O14 0.500000 0.827315 0.500000
O O15 0.400752 0.000000 0.522765
#
# Coordination Sequence:
#
# PCOD9185215 Si02
#       6
#     8   8   8   8   8   8
#     4  10  19  35  56  78 107 144 183 220 264 322
#     4  10  21  37  55  79 112 146 177 219 272 322
#     4  10  19  34  56  81 107 141 180 226 267 314
#     4   9  21  38  54  75 110 150 180 212 268 331
#     4  10  20  34  57  85 108 136 182 230 271 312
#     4  10  20  34  57  86 106 136 184 225 264 315
#
# _framework density 20.077318000000002
#
# number of rings (size 3 to 8) (size 9 to 14) (size 15 to 20)
#    0.000    2.167    1.667    2.000    0.000    5.667 
#    0.000    5.000    0.000    0.000    0.000    0.000 
#    0.000    0.000    0.000    0.000    0.000    0.000 
#
# Total GULP energy -133704.985949 kJ/mol
# GULP energy per Si atom -5571.041081 kJ/mol
# Density = 2.003162 g / cm^3
# Si number density = 20.077318 Si / 1000 Ang^3
#
#
#
# Elastic Constant Matrix: (Units=GPa)
#
#
# Indices 1 2 3 4 5 6 
#
# 1 94.4340 25.3024 25.2099 0.0000 8.5380 0.0000
# 2 25.3024 34.6366 17.3680 0.0000 2.2877 0.0000
# 3 25.2099 17.3680 72.7798 0.0000 3.4415 0.0000
# 4 0.0000 0.0000 0.0000 13.0253 0.0000 -0.3422
# 5 8.5380 2.2877 3.4415 0.0000 31.0774 0.0000
# 6 0.0000 0.0000 0.0000 -0.3422 0.0000 5.3416
#
#
#
# Elastic Compliance Matrix: (Units=1/GPa)
#
#
# Indices 1 2 3 4 5 6 
#
# 1 0.013857 -0.008626 -0.002605 0.000000 -0.002883 0.000000
# 2 -0.008626 0.038240 -0.006149 0.000000 0.000236 0.000000
# 3 -0.002605 -0.006149 0.016139 0.000000 -0.000619 0.000000
# 4 0.000000 0.000000 0.000000 0.076903 0.000000 0.004927
# 5 -0.002883 0.000236 -0.000619 0.000000 0.033021 0.000000
# 6 0.000000 0.000000 0.000000 0.004927 0.000000 0.187527
#
#
# Mechanical properties :
#
#
# Convention : Reuss Voigt Hill
#
# Bulk Modulus (GPa) = 29.87160 37.51234 33.69197
# Shear Modulus (GPa) = 12.14756 18.82018 15.48387
#
# Velocity S-wave (km/s) = 2.46242 3.06500 2.78008
# Velocity P-wave (km/s) = 4.79534 5.59018 5.20794
#
# Compressibility (1/GPa) = 0.03347662
#
# Stress axis : x y z
#
# Youngs Moduli (GPa) = 72.16725 26.15055 61.96162
#
# Poissons Ratio (x) = 0.22557 0.16141
# Poissons Ratio (y) = 0.62250 0.38099
# Poissons Ratio (z) = 0.18799 0.16080
#
# Static dielectric constant tensor:
#      x y z
#    x 1.738020 0.000000 0.008020 
#    y 0.000000 1.688200 0.000000 
#    z 0.008020 0.000000 1.767250 
# 
# From -- ./inp_files/153714.got.cif
#   From: 2010.05.17/outbox.cif.g08.bks.cpg/sg12_77_cif.got.tgz:153714.got - 2010.06.03 13:09:07.
