data_PCOD9185374
_publ_section_title
;
Structure prediction by ZEFSAII (Michael W. Deem and Ramdas Pophale) SiO2 
 PCOD9185374
Probable space group: C 2/M
;
_chemical_formula_sum "Si O2"
_cell_formula_units_Z 48
_cell_length_a 21.835884
_cell_length_b 19.160338
_cell_length_c 14.401242
_cell_angle_alpha 90.000000
_cell_angle_beta 20.678036
_cell_angle_gamma 90.000000
_cell_volume 2127.607736
_symmetry_space_group_name_H-M "C 2/M"
_symmetry_group_IT_number 12
_symmetry_cell_setting 'monoclinic'
loop_
_space_group_symop_operation_xyz
x,y,z
-x,y,-z
-x,-y,-z
x,-y,z
1/2+x,1/2+y,z
1/2-x,1/2+y,-z
1/2-x,1/2-y,-z
1/2+x,1/2-y,z
loop_
_atom_site_type_symbol
_atom_site_label
_atom_site_fract_x
_atom_site_fract_y
_atom_site_fract_z
Si Si1 0.711626 0.784130 0.909602
Si Si2 0.439892 0.583342 0.325520
Si Si3 0.934974 0.420536 0.827741
Si Si4 0.178764 0.084043 0.703585
Si Si5 0.176893 0.420299 0.221647
Si Si6 0.532059 0.286378 0.600832
O O1 0.870649 0.784026 0.758161
O O2 0.799458 0.755974 0.690933
O O3 0.650276 0.863946 0.985520
O O4 0.548247 0.748123 0.192449
O O5 0.437222 0.500000 0.349874
O O6 0.317470 0.598374 0.412041
O O7 0.416750 0.634722 0.443869
O O8 0.635430 0.602005 0.013489
O O9 0.937545 0.500000 0.859341
O O10 0.829134 0.420364 0.881267
O O11 0.132997 0.398640 0.523023
O O12 0.166781 0.000000 0.730060
O O13 0.000000 0.112836 0.000000
O O14 0.165206 0.500000 0.274259
O O15 0.000000 0.382352 0.500000
#
# Coordination Sequence:
#
# PCOD9185374 Si02
#       6
#     8   8   8   8   8   8
#     4  10  22  40  60  87 121 157 195 241 300 358
#     4  10  19  34  56  86 117 152 197 243 293 346
#     4  10  19  34  56  86 117 152 197 243 293 346
#     4   9  18  32  52  83 126 165 195 237 296 355
#     4   9  16  26  46  79 114 145 185 235 282 333
#     4  10  22  40  60  87 121 157 195 241 300 358
#
# _framework density 22.560549999999999
#
# number of rings (size 3 to 8) (size 9 to 14) (size 15 to 20)
#    0.000    2.333    1.667    1.000    0.000    7.333 
#    0.000    3.333    0.000    3.000    0.000    0.000 
#    0.000    0.000    0.000    0.000    0.000    0.000 
#
# Total GULP energy -133768.314678 kJ/mol
# GULP energy per Si atom -5573.679778 kJ/mol
# Density = 2.250920 g / cm^3
# Si number density = 22.560550 Si / 1000 Ang^3
#
#
#
# Elastic Constant Matrix: (Units=GPa)
#
#
# Indices 1 2 3 4 5 6 
#
# 1 51.4102 9.4640 12.8536 -0.0019 -6.3373 0.0017
# 2 9.4640 86.1847 42.0625 -0.0067 19.3447 0.0009
# 3 12.8536 42.0625 110.9006 -0.0004 29.1129 0.0039
# 4 -0.0019 -0.0067 -0.0004 22.0112 0.0005 2.6449
# 5 -6.3373 19.3447 29.1129 0.0005 31.5226 -0.0018
# 6 0.0017 0.0009 0.0039 2.6449 -0.0018 10.4737
#
#
#
# Elastic Compliance Matrix: (Units=1/GPa)
#
#
# Indices 1 2 3 4 5 6 
#
# 1 0.022208 -0.002627 -0.004188 0.000001 0.009945 0.000000
# 2 -0.002627 0.015160 -0.003781 0.000005 -0.006339 -0.000002
# 3 -0.004188 -0.003781 0.013924 0.000000 -0.011382 -0.000006
# 4 0.000001 0.000005 0.000000 0.046853 -0.000004 -0.011832
# 5 0.009945 -0.006339 -0.011382 -0.000004 0.048124 0.000012
# 6 0.000000 -0.000002 -0.000006 -0.011832 0.000012 0.098465
#
#
# Mechanical properties :
#
#
# Convention : Reuss Voigt Hill
#
# Bulk Modulus (GPa) = 33.22307 41.91730 37.57019
# Shear Modulus (GPa) = 18.11855 25.07586 21.59720
#
# Velocity S-wave (km/s) = 2.83699 3.33752 3.09738
# Velocity P-wave (km/s) = 5.04871 5.78553 5.42963
#
# Compressibility (1/GPa) = 0.03009956
#
# Stress axis : x y z
#
# Youngs Moduli (GPa) = 45.02881 65.96431 71.81589
#
# Poissons Ratio (x) = 0.17327 0.30079
# Poissons Ratio (y) = 0.11828 0.27155
# Poissons Ratio (z) = 0.18859 0.24943
#
# Static dielectric constant tensor:
#      x y z
#    x 1.797360 0.000000 0.043590 
#    y 0.000000 1.915520 0.000000 
#    z 0.043590 0.000000 1.886200 
# 
# From -- ./inp_files/241841.got.cif
#   From: 2010.05.17/outbox.cif.g08.bks.cpg/sg12_121_cif.got.tgz:241841.got - 2010.06.03 13:09:07.
