data_PCOD9185949
_publ_section_title
;
Structure prediction by ZEFSAII (Michael W. Deem and Ramdas Pophale) SiO2 
 PCOD9185949
Probable space group: C 2/M
;
_chemical_formula_sum "Si O2"
_cell_formula_units_Z 56
_cell_length_a 19.875281
_cell_length_b 13.557775
_cell_length_c 15.793704
_cell_angle_alpha 90.000000
_cell_angle_beta 41.540183
_cell_angle_gamma 90.000000
_cell_volume 2822.242255
_symmetry_space_group_name_H-M "C 2/M"
_symmetry_group_IT_number 12
_symmetry_cell_setting 'monoclinic'
loop_
_space_group_symop_operation_xyz
x,y,z
-x,y,-z
-x,-y,-z
x,-y,z
1/2+x,1/2+y,z
1/2-x,1/2+y,-z
1/2-x,1/2-y,-z
1/2+x,1/2-y,z
loop_
_atom_site_type_symbol
_atom_site_label
_atom_site_fract_x
_atom_site_fract_y
_atom_site_fract_z
Si Si1 0.519302 0.257238 0.618583
Si Si2 0.364101 0.884005 0.683666
Si Si3 0.147747 0.743361 0.654171
Si Si4 0.715074 0.708521 0.335255
Si Si5 0.290726 0.618441 0.018736
Si Si6 0.679601 0.617198 0.190547
Si Si7 0.995190 0.119036 0.104951
O O1 0.467865 0.170688 0.612217
O O2 0.564341 0.214046 0.663218
O O3 0.609487 0.312135 0.483060
O O4 0.432133 0.337180 0.715205
O O5 0.303009 0.825335 0.668146
O O6 0.374629 0.000000 0.657347
O O7 0.296015 0.866428 0.831333
O O8 0.250000 0.750000 0.500000
O O9 0.191249 0.682909 0.692933
O O10 0.095605 0.835261 0.753097
O O11 0.722050 0.658126 0.238160
O O12 0.303490 0.500000 0.001567
O O13 0.264026 0.649328 0.948454
O O14 0.398851 0.653824 0.952637
O O15 0.675740 0.500000 0.199536
O O16 0.988280 0.000000 0.114260
O O17 0.000000 0.146374 0.000000
#
# Coordination Sequence:
#
# PCOD9185949 Si02
#       7
#     8   8   8   8   8   8   8
#     4  10  21  36  55  80 110 145 189 225 272 340
#     4  10  20  36  56  80 113 144 180 230 281 335
#     4  10  21  39  53  77 123 151 185 234 278 346
#     4  10  22  35  53  81 110 146 187 227 271 333
#     4   9  18  32  54  83 106 135 179 228 283 332
#     4  10  19  35  56  78 108 138 179 231 276 321
#     4  10  19  34  58  87 115 144 188 245 298 341
#
# _framework density 19.842379999999999
#
# number of rings (size 3 to 8) (size 9 to 14) (size 15 to 20)
#    0.000    2.143    1.429    2.571    0.000    6.286 
#    2.571    5.000    0.000    0.000    0.000    3.000 
#    0.000    0.000    0.000    0.000    0.000    0.000 
#
# Total GULP energy -155927.371879 kJ/mol
# GULP energy per Si atom -5568.834710 kJ/mol
# Density = 1.979722 g / cm^3
# Si number density = 19.842380 Si / 1000 Ang^3
#
#
#
# Elastic Constant Matrix: (Units=GPa)
#
#
# Indices 1 2 3 4 5 6 
#
# 1 140.7849 9.9486 34.9920 0.0000 20.2628 0.0000
# 2 9.9486 57.2936 11.6566 0.0000 -1.7420 0.0000
# 3 34.9920 11.6566 86.4480 0.0000 18.9005 0.0000
# 4 0.0000 0.0000 0.0000 15.0305 0.0000 8.1445
# 5 20.2628 -1.7420 18.9005 0.0000 26.7482 0.0000
# 6 0.0000 0.0000 0.0000 8.1445 0.0000 10.8047
#
#
#
# Elastic Compliance Matrix: (Units=1/GPa)
#
#
# Indices 1 2 3 4 5 6 
#
# 1 0.008437 -0.001171 -0.002180 0.000000 -0.004927 0.000000
# 2 -0.001171 0.018375 -0.002909 0.000000 0.004139 0.000000
# 3 -0.002180 -0.002909 0.014811 0.000000 -0.009003 0.000000
# 4 0.000000 0.000000 0.000000 0.112469 0.000000 -0.084778
# 5 -0.004927 0.004139 -0.009003 0.000000 0.047750 0.000000
# 6 0.000000 0.000000 0.000000 -0.084778 0.000000 0.156457
#
#
# Mechanical properties :
#
#
# Convention : Reuss Voigt Hill
#
# Bulk Modulus (GPa) = 34.36062 44.19122 39.27592
# Shear Modulus (GPa) = 13.13999 25.71197 19.42598
#
# Velocity S-wave (km/s) = 2.57615 3.60364 3.13232
# Velocity P-wave (km/s) = 5.11890 6.29559 5.73749
#
# Compressibility (1/GPa) = 0.02910308
#
# Stress axis : x y z
#
# Youngs Moduli (GPa) = 118.52906 54.42190 67.51912
#
# Poissons Ratio (x) = 0.06374 0.14718
# Poissons Ratio (y) = 0.13883 0.19638
# Poissons Ratio (z) = 0.25837 0.15829
#
# Static dielectric constant tensor:
#      x y z
#    x 1.728290 0.000000 0.004720 
#    y 0.000000 1.718560 0.000000 
#    z 0.004720 0.000000 1.766750 
# 
# From -- ./inp_files/233686.got.cif
#   From: 2010.05.17/outbox.cif.g08.bks.cpg/sg12_117_cif.got.tgz:233686.got - 2010.06.03 13:09:07.
