data_PCOD9185024
_publ_section_title
;
Structure prediction by ZEFSAII (Michael W. Deem and Ramdas Pophale) SiO2 
 PCOD9185024
Probable space group: C 2/M
;
_chemical_formula_sum "Si O2"
_cell_formula_units_Z 64
_cell_length_a 14.687083
_cell_length_b 7.865824
_cell_length_c 27.672436
_cell_angle_alpha 90.000000
_cell_angle_beta 67.029826
_cell_angle_gamma 90.000000
_cell_volume 2943.399033
_symmetry_space_group_name_H-M "C 2/M"
_symmetry_group_IT_number 12
_symmetry_cell_setting 'monoclinic'
loop_
_space_group_symop_operation_xyz
x,y,z
-x,y,-z
-x,-y,-z
x,-y,z
1/2+x,1/2+y,z
1/2-x,1/2+y,-z
1/2-x,1/2-y,-z
1/2+x,1/2-y,z
loop_
_atom_site_type_symbol
_atom_site_label
_atom_site_fract_x
_atom_site_fract_y
_atom_site_fract_z
Si Si1 0.419228 0.304733 0.414698
Si Si2 0.489752 0.708195 0.854054
Si Si3 0.118763 0.209411 0.329077
Si Si4 0.402881 0.698017 0.774135
Si Si5 0.694482 0.299794 0.859331
Si Si6 0.885454 0.303306 0.521610
Si Si7 0.272200 0.194017 0.370475
Si Si8 0.721117 0.297036 0.060067
O O1 0.425468 0.500000 0.428567
O O2 0.528249 0.235423 0.381744
O O3 0.363377 0.209656 0.469141
O O4 0.360740 0.294369 0.376582
O O5 0.490111 0.500000 0.853580
O O6 0.472691 0.767953 0.802287
O O7 0.591473 0.762833 0.858007
O O8 0.390586 0.760512 0.903392
O O9 0.098811 0.271906 0.279223
O O10 0.221847 0.261287 0.332068
O O11 0.118769 0.000000 0.329278
O O12 0.429575 0.500000 0.763293
O O13 0.290911 0.710432 0.817190
O O14 0.703174 0.500000 0.846714
O O15 0.704840 0.275787 0.914774
O O16 0.877440 0.500000 0.538075
O O17 0.814862 0.199909 0.571254
O O18 0.000000 0.248678 0.500000
O O19 0.304032 0.000000 0.356620
O O20 0.723073 0.500000 0.064708
O O21 0.750000 0.250000 0.000000
#
# Coordination Sequence:
#
# PCOD9185024 Si02
#       8
#     8   8   8   8   8   8   8   8
#     4  11  22  38  58  82 108 142 181 220 267 330
#     4   8  17  33  55  77 106 145 183 217 265 322
#     4   9  20  37  58  79 107 143 179 218 272 330
#     4   9  18  37  58  78 105 143 183 223 270 324
#     4  10  19  34  55  82 109 143 185 228 270 319
#     4  11  22  37  58  82 107 140 178 222 270 324
#     4  11  22  38  57  81 110 143 179 222 272 328
#     4  10  20  36  55  80 113 151 185 226 270 321
#
# _framework density 21.743569000000001
#
# number of rings (size 3 to 8) (size 9 to 14) (size 15 to 20)
#    0.000    2.125    1.250    3.000    0.000    2.000 
#    0.000   12.500    0.000    0.000    0.000    0.000 
#    0.000    0.000    0.000    0.000    0.000    0.000 
#
# Total GULP energy -178689.517446 kJ/mol
# GULP energy per Si atom -5584.047420 kJ/mol
# Density = 2.169408 g / cm^3
# Si number density = 21.743569 Si / 1000 Ang^3
#
#
#
# Elastic Constant Matrix: (Units=GPa)
#
#
# Indices 1 2 3 4 5 6 
#
# 1 124.4590 -4.3093 16.9260 0.0000 31.3419 0.0000
# 2 -4.3093 38.2082 -11.6158 0.0000 0.9096 0.0000
# 3 16.9260 -11.6158 79.0679 0.0000 30.2227 0.0000
# 4 0.0000 0.0000 0.0000 14.5266 0.0000 3.7248
# 5 31.3419 0.9096 30.2227 0.0000 24.7449 0.0000
# 6 0.0000 0.0000 0.0000 3.7248 0.0000 20.1692
#
#
#
# Elastic Compliance Matrix: (Units=1/GPa)
#
#
# Indices 1 2 3 4 5 6 
#
# 1 0.014324 0.004968 0.008756 0.000000 -0.029019 0.000000
# 2 0.004968 0.030850 0.011831 0.000000 -0.021876 0.000000
# 3 0.008756 0.011831 0.031729 0.000000 -0.050278 0.000000
# 4 0.000000 0.000000 0.000000 0.072261 0.000000 -0.013345
# 5 -0.029019 -0.021876 -0.050278 0.000000 0.139380 0.000000
# 6 0.000000 0.000000 0.000000 -0.013345 0.000000 0.052045
#
#
# Mechanical properties :
#
#
# Convention : Reuss Voigt Hill
#
# Bulk Modulus (GPa) = 7.81175 27.08187 17.44681
# Shear Modulus (GPa) = 15.05340 27.93709 21.49525
#
# Velocity S-wave (km/s) = 2.63404 3.58836 3.14758
# Velocity P-wave (km/s) = 3.58488 5.44524 4.60988
#
# Compressibility (1/GPa) = 0.12801224
#
# Stress axis : x y z
#
# Youngs Moduli (GPa) = 69.81384 32.41474 31.51676
#
# Poissons Ratio (x) = -0.16104 -0.27596
# Poissons Ratio (y) = -0.34685 -0.37286
# Poissons Ratio (z) = -0.61128 -0.38348
#
# Static dielectric constant tensor:
#      x y z
#    x 1.826430 0.000000 0.039720 
#    y 0.000000 1.797360 0.000000 
#    z 0.039720 0.000000 1.791150 
# 
# From -- ./inp_files/359715.got.cif
#   From: 2010.05.17/outbox.cif.g08.bks.cpg/sg12_180_cif.got.tgz:359715.got - 2010.06.03 13:09:07.
