data_PCOD9185065
_publ_section_title
;
Structure prediction by ZEFSAII (Michael W. Deem and Ramdas Pophale) SiO2 
 PCOD9185065
Probable space group: C 2/M
;
_chemical_formula_sum "Si O2"
_cell_formula_units_Z 40
_cell_length_a 22.769361
_cell_length_b 12.932585
_cell_length_c 5.456426
_cell_angle_alpha 90.000000
_cell_angle_beta 85.907713
_cell_angle_gamma 90.000000
_cell_volume 1602.639204
_symmetry_space_group_name_H-M "C 2/M"
_symmetry_group_IT_number 12
_symmetry_cell_setting 'monoclinic'
loop_
_space_group_symop_operation_xyz
x,y,z
-x,y,-z
-x,-y,-z
x,-y,z
1/2+x,1/2+y,z
1/2-x,1/2+y,-z
1/2-x,1/2-y,-z
1/2+x,1/2-y,z
loop_
_atom_site_type_symbol
_atom_site_label
_atom_site_fract_x
_atom_site_fract_y
_atom_site_fract_z
Si Si1 0.850892 0.884779 0.337734
Si Si2 0.764981 0.120265 0.736586
Si Si3 0.466115 0.842001 0.770880
Si Si4 0.344891 0.207647 0.984662
Si Si5 0.949451 0.107096 0.711610
O O1 0.783353 0.869450 0.445048
O O2 0.872660 0.791255 0.166621
O O3 0.889922 0.885574 0.571454
O O4 0.855056 0.000000 0.231978
O O5 0.698379 0.137217 0.840865
O O6 0.780298 0.000000 0.793080
O O7 0.802773 0.213131 0.847266
O O8 0.500000 0.865695 0.500000
O O9 0.464882 0.718361 0.803917
O O10 0.500000 0.884849 0.000000
O O11 0.394716 0.856555 0.821433
O O12 0.000000 0.094615 0.500000
O O13 0.947673 0.000000 0.860680
#
# Coordination Sequence:
#
# PCOD9185065 Si02
#       5
#     8   8   8   8   8
#     4  10  19  34  55  83 122 158 199 246 298 367
#     4  10  22  38  57  87 120 154 204 254 303 367
#     4  11  23  38  59  88 121 160 211 255 306 371
#     4  11  21  36  62  84 117 161 201 249 312 363
#     4   9  17  30  48  76 114 155 192 232 285 352
#
# _framework density 24.958832000000001
#
# number of rings (size 3 to 8) (size 9 to 14) (size 15 to 20)
#    0.000    1.800    2.000    3.600    0.000    1.200 
#    0.000    0.000    0.000    1.200    0.000    0.000 
#    0.000    0.800    0.000    0.000    0.000    0.000 
#
# Total GULP energy -111380.310417 kJ/mol
# GULP energy per Si atom -5569.015521 kJ/mol
# Density = 2.490202 g / cm^3
# Si number density = 24.958832 Si / 1000 Ang^3
#
#
#
# Elastic Constant Matrix: (Units=GPa)
#
#
# Indices 1 2 3 4 5 6 
#
# 1 128.4372 16.7370 70.0693 0.0000 -53.4925 0.0000
# 2 16.7370 86.7108 23.7699 0.0000 -3.2917 0.0000
# 3 70.0693 23.7699 132.5733 0.0000 -48.6150 0.0000
# 4 0.0000 0.0000 0.0000 265.3409 0.0000 -223.5351
# 5 -53.4925 -3.2917 -48.6150 0.0000 75.6451 0.0000
# 6 0.0000 0.0000 0.0000 -223.5351 0.0000 184.3129
#
#
#
# Elastic Compliance Matrix: (Units=1/GPa)
#
#
# Indices 1 2 3 4 5 6 
#
# 1 0.012907 -0.001068 -0.004318 0.000000 0.006306 0.000000
# 2 -0.001068 0.012292 -0.002251 0.000000 -0.001667 0.000000
# 3 -0.004318 -0.002251 0.011871 0.000000 0.004478 0.000000
# 4 0.000000 0.000000 0.000000 -0.173524 0.000000 -0.210450
# 5 0.006306 -0.001667 0.004478 0.000000 0.020484 0.000000
# 6 0.000000 0.000000 0.000000 -0.210450 0.000000 -0.249808
#
#
# Mechanical properties :
#
#
# Convention : Reuss Voigt Hill
#
# Bulk Modulus (GPa) = 45.87912 63.20818 54.54365
# Shear Modulus (GPa) = -14.56711 120.86948 53.15119
#
# Velocity S-wave (km/s) = -2.41850 6.96654 4.61972
# Velocity P-wave (km/s) = 3.25929 9.49158 7.09624
#
# Compressibility (1/GPa) = 0.02179641
#
# Stress axis : x y z
#
# Youngs Moduli (GPa) = 77.47723 81.35060 84.24153
#
# Poissons Ratio (x) = 0.08691 0.36375
# Poissons Ratio (y) = 0.08277 0.18960
# Poissons Ratio (z) = 0.33454 0.18309
#
# Static dielectric constant tensor:
#      x y z
#    x 2.161930 0.000000 -0.037350 
#    y 0.000000 2.145240 0.000000 
#    z -0.037350 0.000000 2.075530 
# 
# From -- ./inp_files/24063.got.cif
#   From: 2010.05.17/outbox.cif.g08.bks.cpg/sg12_13_cif.got.tgz:24063.got - 2010.06.03 13:09:07.
