data_PCOD9185093
_publ_section_title
;
Structure prediction by ZEFSAII (Michael W. Deem and Ramdas Pophale) SiO2 
 PCOD9185093
Probable space group: C 2/M
;
_chemical_formula_sum "Si O2"
_cell_formula_units_Z 52
_cell_length_a 27.799551
_cell_length_b 7.572276
_cell_length_c 22.265950
_cell_angle_alpha 90.000000
_cell_angle_beta 152.430005
_cell_angle_gamma 90.000000
_cell_volume 2169.345429
_symmetry_space_group_name_H-M "C 2/M"
_symmetry_group_IT_number 12
_symmetry_cell_setting 'monoclinic'
loop_
_space_group_symop_operation_xyz
x,y,z
-x,y,-z
-x,-y,-z
x,-y,z
1/2+x,1/2+y,z
1/2-x,1/2+y,-z
1/2-x,1/2-y,-z
1/2+x,1/2-y,z
loop_
_atom_site_type_symbol
_atom_site_label
_atom_site_fract_x
_atom_site_fract_y
_atom_site_fract_z
Si Si1 0.974168 0.794577 0.041613
Si Si2 0.244878 0.297653 0.783161
Si Si3 0.421701 0.299722 0.154749
Si Si4 0.344843 0.791023 0.561345
Si Si5 0.620096 0.296805 0.758541
Si Si6 0.033937 0.500000 0.887462
Si Si7 0.116933 0.287459 0.528943
O O1 0.857194 0.713391 0.914044
O O2 0.982082 0.000000 0.070319
O O3 0.030858 0.657651 0.147199
O O4 0.000000 0.790811 0.000000
O O5 0.268847 0.500000 0.791761
O O6 0.185048 0.298430 0.779434
O O7 0.175151 0.221575 0.652578
O O8 0.386781 0.500000 0.102335
O O9 0.547007 0.303289 0.303661
O O10 0.374128 0.238512 0.165953
O O11 0.408467 0.155792 0.089304
O O12 0.250000 0.750000 0.500000
O O13 0.323380 0.753143 0.467396
O O14 0.369504 0.000000 0.594638
O O15 0.651882 0.500000 0.791890
O O16 0.499027 0.284197 0.606199
O O17 0.105697 0.500000 0.522046
#
# Coordination Sequence:
#
# PCOD9185093 Si02
#       7
#     8   8   8   8   8   4   8
#     4  10  24  46  69  94 130 165 216 277 323 376
#     4  10  21  38  63  90 124 166 209 262 326 379
#     4  10  22  40  62  90 128 168 212 262 321 381
#     4  10  19  34  55  88 129 169 210 260 312 385
#     4  10  21  36  60  92 129 166 203 258 322 385
#     4  12  23  42  70  94 118 170 218 264 321 376
#     4   9  19  35  57  88 125 168 209 247 317 395
#
# _framework density 23.970365999999999
#
# number of rings (size 3 to 8) (size 9 to 14) (size 15 to 20)
#    0.000    2.000    0.769    2.077    3.231    4.308 
#    0.000    3.846    0.000    0.000    0.000    0.000 
#    0.000    0.000    0.000    0.000    0.000    0.000 
#
# Total GULP energy -144868.020648 kJ/mol
# GULP energy per Si atom -5571.846948 kJ/mol
# Density = 2.391581 g / cm^3
# Si number density = 23.970366 Si / 1000 Ang^3
#
#
#
# Elastic Constant Matrix: (Units=GPa)
#
#
# Indices 1 2 3 4 5 6 
#
# 1 146.2723 35.8307 33.8275 0.0000 -6.8385 0.0000
# 2 35.8307 131.8190 10.8939 0.0000 -21.6839 0.0000
# 3 33.8275 10.8939 54.9454 0.0000 -6.7898 0.0000
# 4 0.0000 0.0000 0.0000 -19.7975 0.0000 -11.2976
# 5 -6.8385 -21.6839 -6.7898 0.0000 34.1588 0.0000
# 6 0.0000 0.0000 0.0000 -11.2976 0.0000 34.0385
#
#
#
# Elastic Compliance Matrix: (Units=1/GPa)
#
#
# Indices 1 2 3 4 5 6 
#
# 1 0.008419 -0.001975 -0.004857 0.000000 -0.000534 0.000000
# 2 -0.001975 0.008992 0.000092 0.000000 0.005331 0.000000
# 3 -0.004857 0.000092 0.021590 0.000000 0.003377 0.000000
# 4 0.000000 0.000000 0.000000 -0.042468 0.000000 -0.014095
# 5 -0.000534 0.005331 0.003377 0.000000 0.033224 0.000000
# 6 0.000000 0.000000 0.000000 -0.014095 0.000000 0.024700
#
#
# Mechanical properties :
#
#
# Convention : Reuss Voigt Hill
#
# Bulk Modulus (GPa) = 39.18563 54.90454 47.04508
# Shear Modulus (GPa) = 65.40731 26.51228 45.95979
#
# Velocity S-wave (km/s) = 5.22934 3.32933 4.38352
# Velocity P-wave (km/s) = 7.26941 6.14281 6.72973
#
# Compressibility (1/GPa) = 0.02551956
#
# Stress axis : x y z
#
# Youngs Moduli (GPa) = 118.78334 111.20617 46.31865
#
# Poissons Ratio (x) = 0.21960 0.22499
# Poissons Ratio (y) = 0.23456 -0.00425
# Poissons Ratio (z) = 0.57698 -0.01019
#
# Static dielectric constant tensor:
#      x y z
#    x 1.922130 0.000000 -0.070300 
#    y 0.000000 1.886810 0.000000 
#    z -0.070300 0.000000 2.118710 
# 
# From -- ./inp_files/324388.got.cif
#   From: 2010.05.17/outbox.cif.g08.bks.cpg/sg12_163_cif.got.tgz:324388.got - 2010.06.03 13:09:07.
