data_PCOD9185421
_publ_section_title
;
Structure prediction by ZEFSAII (Michael W. Deem and Ramdas Pophale) SiO2 
 PCOD9185421
Probable space group: C 2/M
;
_chemical_formula_sum "Si O2"
_cell_formula_units_Z 64
_cell_length_a 20.080023
_cell_length_b 7.387433
_cell_length_c 24.885447
_cell_angle_alpha 90.000000
_cell_angle_beta 131.242114
_cell_angle_gamma 90.000000
_cell_volume 2775.753764
_symmetry_space_group_name_H-M "C 2/M"
_symmetry_group_IT_number 12
_symmetry_cell_setting 'monoclinic'
loop_
_space_group_symop_operation_xyz
x,y,z
-x,y,-z
-x,-y,-z
x,-y,z
1/2+x,1/2+y,z
1/2-x,1/2+y,-z
1/2-x,1/2-y,-z
1/2+x,1/2-y,z
loop_
_atom_site_type_symbol
_atom_site_label
_atom_site_fract_x
_atom_site_fract_y
_atom_site_fract_z
Si Si1 0.144021 0.794412 0.240428
Si Si2 0.945899 0.778973 0.114450
Si Si3 0.576294 0.720571 0.372140
Si Si4 0.051850 0.792251 0.476825
Si Si5 0.755847 0.780024 0.600889
Si Si6 0.412812 0.279482 0.214410
Si Si7 0.405178 0.719153 0.974852
Si Si8 0.745890 0.207120 0.189770
O O1 0.197896 0.717563 0.319110
O O2 0.204521 0.797283 0.219985
O O3 0.048470 0.717472 0.173390
O O4 0.123291 0.000000 0.246714
O O5 0.901374 0.722856 0.146630
O O6 0.945609 0.000000 0.112057
O O7 0.903483 0.720150 0.035848
O O8 0.577108 0.500000 0.374393
O O9 0.543050 0.786747 0.412307
O O10 0.675687 0.775492 0.409452
O O11 0.507893 0.772528 0.288993
O O12 0.156831 0.790290 0.543264
O O13 0.000000 0.710490 0.500000
O O14 0.019672 0.000000 0.455613
O O15 0.749378 0.000000 0.597524
O O16 0.409574 0.500000 0.212612
O O17 0.335617 0.215664 0.212668
O O18 0.400571 0.500000 0.970684
O O19 0.326576 0.788487 0.896045
O O20 0.500000 0.770236 0.000000
O O21 0.763024 0.000000 0.214819
#
# Coordination Sequence:
#
# PCOD9185421 Si02
#       8
#     8   8   8   8   8   8   8   8
#     4  10  19  35  58  81 103 137 188 231 264 313
#     4   9  16  32  57  79 100 137 188 227 256 311
#     4   9  17  34  57  79 106 145 185 220 261 318
#     4  10  22  36  54  82 117 150 177 212 267 331
#     4  10  20  35  60  84 104 139 187 234 267 302
#     4   9  18  33  54  80 108 140 182 223 266 322
#     4  10  19  34  57  79 103 142 186 225 266 318
#     4  11  23  34  52  83 115 143 172 221 280 326
#
# _framework density 23.056799000000002
#
# number of rings (size 3 to 8) (size 9 to 14) (size 15 to 20)
#    0.000    2.250    2.500    0.750    1.750    1.500 
#    0.000    0.000    0.000    3.750    0.000    0.000 
#    0.000    0.000    0.000    0.000    0.000    0.000 
#
# Total GULP energy -178814.117912 kJ/mol
# GULP energy per Si atom -5587.941185 kJ/mol
# Density = 2.300432 g / cm^3
# Si number density = 23.056799 Si / 1000 Ang^3
#
#
#
# Elastic Constant Matrix: (Units=GPa)
#
#
# Indices 1 2 3 4 5 6 
#
# 1 122.7887 -5.9621 13.2673 0.0000 -19.2272 0.0000
# 2 -5.9621 79.4847 -10.2420 0.0000 -3.5146 -0.0020
# 3 13.2673 -10.2420 73.8039 0.0000 -27.7916 0.0003
# 4 0.0000 0.0000 0.0000 1.7459 0.0000 6.0395
# 5 -19.2272 -3.5146 -27.7916 0.0000 45.0386 0.0001
# 6 0.0000 -0.0020 0.0003 6.0395 0.0001 -223.7373
#
#
#
# Elastic Compliance Matrix: (Units=1/GPa)
#
#
# Indices 1 2 3 4 5 6 
#
# 1 0.008781 0.000821 -0.000038 0.000000 0.003790 0.000000
# 2 0.000821 0.013150 0.002860 0.000001 0.003142 0.000000
# 3 -0.000038 0.002860 0.018278 0.000000 0.011486 0.000000
# 4 0.000000 0.000001 0.000000 0.523841 0.000000 0.014140
# 5 0.003790 0.003142 0.011486 0.000000 0.031154 0.000000
# 6 0.000000 0.000000 0.000000 0.014140 0.000000 -0.004088
#
#
# Mechanical properties :
#
#
# Convention : Reuss Voigt Hill
#
# Bulk Modulus (GPa) = 21.05336 30.02262 25.53799
# Shear Modulus (GPa) = 8.33804 -16.78962 -4.22579
#
# Velocity S-wave (km/s) = 1.90372 -2.70142 -1.35527
# Velocity P-wave (km/s) = 3.73940 1.82187 2.94129
#
# Compressibility (1/GPa) = 0.04749835
#
# Stress axis : x y z
#
# Youngs Moduli (GPa) = 113.87641 76.04476 54.70977
#
# Poissons Ratio (x) = -0.06247 0.00205
# Poissons Ratio (y) = -0.09354 -0.15649
# Poissons Ratio (z) = 0.00427 -0.21751
#
# Static dielectric constant tensor:
#      x y z
#    x 1.832310 0.000000 -0.019600 
#    y 0.000000 1.990580 0.000000 
#    z -0.019600 0.000000 1.822110 
# 
# From -- ./inp_files/346126.got.cif
#   From: 2010.05.17/outbox.cif.g08.bks.cpg/sg12_174_cif.got.tgz:346126.got - 2010.06.03 13:09:07.
