data_PCOD9185600
_publ_section_title
;
Structure prediction by ZEFSAII (Michael W. Deem and Ramdas Pophale) SiO2 
 PCOD9185600
Probable space group: C 2/M
;
_chemical_formula_sum "Si O2"
_cell_formula_units_Z 64
_cell_length_a 26.858377
_cell_length_b 12.764054
_cell_length_c 15.447160
_cell_angle_alpha 90.000000
_cell_angle_beta 40.415498
_cell_angle_gamma 90.000000
_cell_volume 3433.289242
_symmetry_space_group_name_H-M "C 2/M"
_symmetry_group_IT_number 12
_symmetry_cell_setting 'monoclinic'
loop_
_space_group_symop_operation_xyz
x,y,z
-x,y,-z
-x,-y,-z
x,-y,z
1/2+x,1/2+y,z
1/2-x,1/2+y,-z
1/2-x,1/2-y,-z
1/2+x,1/2-y,z
loop_
_atom_site_type_symbol
_atom_site_label
_atom_site_fract_x
_atom_site_fract_y
_atom_site_fract_z
Si Si1 0.091994 0.376818 0.877960
Si Si2 0.982090 0.123874 0.303443
Si Si3 0.627184 0.293875 0.208996
Si Si4 0.243253 0.621230 0.073339
Si Si5 0.744514 0.877691 0.407524
Si Si6 0.868929 0.755243 0.343379
Si Si7 0.363497 0.622585 0.619662
Si Si8 0.709551 0.255631 0.819211
O O1 0.112844 0.500000 0.854072
O O2 0.120102 0.322687 0.751858
O O3 0.133466 0.311055 0.899151
O O4 0.000000 0.368875 0.000000
O O5 0.944927 0.184844 0.272307
O O6 0.919845 0.132116 0.463527
O O7 0.059093 0.179021 0.234450
O O8 0.995294 0.000000 0.269206
O O9 0.661805 0.176965 0.162835
O O10 0.603191 0.325146 0.337516
O O11 0.700849 0.363116 0.082514
O O12 0.235796 0.500000 0.105283
O O13 0.282221 0.687377 0.099706
O O14 0.806236 0.841589 0.397821
O O15 0.668062 0.812500 0.530589
O O16 0.779218 0.842554 0.270047
O O17 0.730197 0.000000 0.429870
O O18 0.352669 0.500000 0.650573
O O19 0.281829 0.677588 0.712764
#
# Coordination Sequence:
#
# PCOD9185600 Si02
#       8
#     8   8   8   8   8   8   8   8
#     4  10  22  39  57  82 118 152 186 231 278 328
#     4  11  21  35  58  86 116 146 184 237 288 329
#     4  10  22  37  58  83 114 146 188 235 279 339
#     4  10  21  39  60  82 111 152 191 232 278 331
#     4  10  19  35  55  79 110 146 184 228 277 331
#     4  10  21  35  56  83 111 147 187 231 275 334
#     4  10  19  34  57  84 111 143 186 236 285 329
#     4  10  20  35  58  83 110 150 188 232 270 338
#
# _framework density 18.641017000000002
#
# number of rings (size 3 to 8) (size 9 to 14) (size 15 to 20)
#    0.000    1.875    1.250    3.000    1.750    1.000 
#    0.000    1.875    0.000    3.750    0.000    0.000 
#    0.000    0.000    0.000    0.000    0.000    0.000 
#
# Total GULP energy -178618.808045 kJ/mol
# GULP energy per Si atom -5581.837751 kJ/mol
# Density = 1.859859 g / cm^3
# Si number density = 18.641017 Si / 1000 Ang^3
#
#
#
# Elastic Constant Matrix: (Units=GPa)
#
#
# Indices 1 2 3 4 5 6 
#
# 1 83.9852 56.0983 -2.4435 0.0000 -19.8952 0.0000
# 2 56.0983 103.5626 23.3358 0.0000 -13.5782 0.0000
# 3 -2.4435 23.3358 30.1128 0.0000 -0.0028 0.0000
# 4 0.0000 0.0000 0.0000 19.4492 0.0000 -1.8400
# 5 -19.8952 -13.5782 -0.0028 0.0000 24.7909 0.0000
# 6 0.0000 0.0000 0.0000 -1.8400 0.0000 20.5754
#
#
#
# Elastic Compliance Matrix: (Units=1/GPa)
#
#
# Indices 1 2 3 4 5 6 
#
# 1 0.025381 -0.015317 0.013930 0.000000 0.011981 0.000000
# 2 -0.015317 0.022056 -0.018335 0.000000 -0.000214 0.000000
# 3 0.013930 -0.018335 0.048548 0.000000 0.001142 0.000000
# 4 0.000000 0.000000 0.000000 0.051855 0.000000 0.004637
# 5 0.011981 -0.000214 0.001142 0.000000 0.049836 0.000000
# 6 0.000000 0.000000 0.000000 0.004637 0.000000 0.049016
#
#
# Mechanical properties :
#
#
# Convention : Reuss Voigt Hill
#
# Bulk Modulus (GPa) = 17.68601 41.29353 29.48977
# Shear Modulus (GPa) = 16.39436 22.34111 19.36774
#
# Velocity S-wave (km/s) = 2.96882 3.46568 3.22683
# Velocity P-wave (km/s) = 4.61087 6.18180 5.45320
#
# Compressibility (1/GPa) = 0.05654186
#
# Stress axis : x y z
#
# Youngs Moduli (GPa) = 39.39916 45.33857 20.59827
#
# Poissons Ratio (x) = 0.69443 -0.28694
# Poissons Ratio (y) = 0.60346 0.37768
# Poissons Ratio (z) = -0.54884 0.83130
#
# Static dielectric constant tensor:
#      x y z
#    x 1.666850 0.000000 0.012920 
#    y 0.000000 1.616240 0.000000 
#    z 0.012920 0.000000 1.648330 
# 
# From -- ./inp_files/245942.got.cif
#   From: 2010.05.17/outbox.cif.g08.bks.cpg/sg12_123_cif.got.tgz:245942.got - 2010.06.03 13:09:07.
