data_PCOD9185565
_publ_section_title
;
Structure prediction by ZEFSAII (Michael W. Deem and Ramdas Pophale) SiO2 
 PCOD9185565
Probable space group: C 2/M
;
_chemical_formula_sum "Si O2"
_cell_formula_units_Z 56
_cell_length_a 20.012497
_cell_length_b 8.842565
_cell_length_c 21.468899
_cell_angle_alpha 90.000000
_cell_angle_beta 124.872897
_cell_angle_gamma 90.000000
_cell_volume 3116.928492
_symmetry_space_group_name_H-M "C 2/M"
_symmetry_group_IT_number 12
_symmetry_cell_setting 'monoclinic'
loop_
_space_group_symop_operation_xyz
x,y,z
-x,y,-z
-x,-y,-z
x,-y,z
1/2+x,1/2+y,z
1/2-x,1/2+y,-z
1/2-x,1/2-y,-z
1/2+x,1/2-y,z
loop_
_atom_site_type_symbol
_atom_site_label
_atom_site_fract_x
_atom_site_fract_y
_atom_site_fract_z
Si Si1 0.163283 0.682722 0.638403
Si Si2 0.994578 0.316809 0.368536
Si Si3 0.592032 0.322011 0.053524
Si Si4 0.661368 0.676184 0.951777
Si Si5 0.759406 0.320115 0.802004
Si Si6 0.885595 0.318770 0.195390
Si Si7 0.675617 0.816995 0.499873
O O1 0.167996 0.500000 0.647155
O O2 0.228213 0.757238 0.719323
O O3 0.178448 0.721938 0.574784
O O4 0.073103 0.727885 0.615791
O O5 0.997235 0.500000 0.372369
O O6 0.086410 0.264298 0.428638
O O7 0.957009 0.274506 0.281491
O O8 0.591161 0.500000 0.070843
O O9 0.650940 0.234129 0.131498
O O10 0.500000 0.265819 0.000000
O O11 0.626764 0.310680 0.002413
O O12 0.668288 0.500000 0.939204
O O13 0.607583 0.756720 0.870425
O O14 0.750000 0.750000 0.000000
O O15 0.753275 0.500000 0.800485
O O16 0.697068 0.247986 0.818988
O O17 0.879352 0.500000 0.191544
O O18 0.750000 0.750000 0.500000
O O19 0.678574 0.000000 0.496808
#
# Coordination Sequence:
#
# PCOD9185565 Si02
#       7
#     8   8   8   8   8   8   8
#     4   9  18  35  60  82 104 142 188 227 268 322
#     4   8  16  33  58  82 104 139 187 228 262 314
#     4  10  22  40  58  77 109 152 189 225 272 330
#     4  11  21  34  57  84 111 145 185 230 275 325
#     4  11  21  34  56  84 113 142 180 233 280 325
#     4  10  19  34  57  83 111 144 183 230 276 325
#     4  10  20  36  57  82 113 146 179 220 271 328
#
# _framework density 17.966404000000001
#
# number of rings (size 3 to 8) (size 9 to 14) (size 15 to 20)
#    0.000    2.143    1.429    3.429    0.000    3.143 
#    2.571    3.571    0.000    4.286    0.000    0.000 
#    0.000    0.000    0.000    0.000    0.000    0.000 
#
# Total GULP energy -156237.250276 kJ/mol
# GULP energy per Si atom -5579.901796 kJ/mol
# Density = 1.792551 g / cm^3
# Si number density = 17.966404 Si / 1000 Ang^3
#
#
#
# Elastic Constant Matrix: (Units=GPa)
#
#
# Indices 1 2 3 4 5 6 
#
# 1 82.8315 35.2896 71.1354 0.0000 19.8750 0.0000
# 2 35.2896 58.7612 50.7890 0.0000 4.2308 0.0000
# 3 71.1354 50.7890 147.0559 0.0000 14.5650 0.0000
# 4 0.0000 0.0000 0.0000 25.6295 0.0000 -5.0238
# 5 19.8750 4.2308 14.5650 0.0000 26.1997 0.0000
# 6 0.0000 0.0000 0.0000 -5.0238 0.0000 21.1470
#
#
#
# Elastic Compliance Matrix: (Units=1/GPa)
#
#
# Indices 1 2 3 4 5 6 
#
# 1 0.025798 -0.006974 -0.008724 0.000000 -0.013594 0.000000
# 2 -0.006974 0.026160 -0.006103 0.000000 0.004459 0.000000
# 3 -0.008724 -0.006103 0.013096 0.000000 0.000323 0.000000
# 4 0.000000 0.000000 0.000000 0.040923 0.000000 0.009722
# 5 -0.013594 0.004459 0.000323 0.000000 0.047581 0.000000
# 6 0.000000 0.000000 0.000000 0.009722 0.000000 0.049598
#
#
# Mechanical properties :
#
#
# Convention : Reuss Voigt Hill
#
# Bulk Modulus (GPa) = 46.61588 67.00853 56.81221
# Shear Modulus (GPa) = 19.69200 23.35754 21.52477
#
# Velocity S-wave (km/s) = 3.31425 3.60956 3.46505
# Velocity P-wave (km/s) = 6.37559 7.39928 6.90643
#
# Compressibility (1/GPa) = 0.02145192
#
# Stress axis : x y z
#
# Youngs Moduli (GPa) = 38.76256 38.22574 76.35792
#
# Poissons Ratio (x) = 0.26658 0.66617
# Poissons Ratio (y) = 0.27032 0.46603
# Poissons Ratio (z) = 0.33818 0.23330
#
# Static dielectric constant tensor:
#      x y z
#    x 1.596310 0.000000 0.000870 
#    y 0.000000 1.609870 0.000000 
#    z 0.000870 0.000000 1.622340 
# 
# From -- ./inp_files/314406.got.cif
#   From: 2010.05.17/outbox.cif.g08.bks.cpg/sg12_158_cif.got.tgz:314406.got - 2010.06.03 13:09:07.
