data_PCOD9185252
_publ_section_title
;
Structure prediction by ZEFSAII (Michael W. Deem and Ramdas Pophale) SiO2 
 PCOD9185252
Probable space group: C 2/M
;
_chemical_formula_sum "Si O2"
_cell_formula_units_Z 60
_cell_length_a 9.245952
_cell_length_b 19.171708
_cell_length_c 30.671272
_cell_angle_alpha 90.000000
_cell_angle_beta 140.911566
_cell_angle_gamma 90.000000
_cell_volume 3428.013321
_symmetry_space_group_name_H-M "C 2/M"
_symmetry_group_IT_number 12
_symmetry_cell_setting 'monoclinic'
loop_
_space_group_symop_operation_xyz
x,y,z
-x,y,-z
-x,-y,-z
x,-y,z
1/2+x,1/2+y,z
1/2-x,1/2+y,-z
1/2-x,1/2-y,-z
1/2+x,1/2-y,z
loop_
_atom_site_type_symbol
_atom_site_label
_atom_site_fract_x
_atom_site_fract_y
_atom_site_fract_z
Si Si1 0.024902 0.415361 0.578484
Si Si2 0.328858 0.918609 0.724131
Si Si3 0.280104 0.420573 0.200118
Si Si4 0.782267 0.831341 0.709820
Si Si5 0.380332 0.208348 0.232485
Si Si6 0.992581 0.301106 0.095817
Si Si7 0.500000 0.759275 0.000000
Si Si8 0.362781 0.583910 0.576505
O O1 0.031641 0.500000 0.588433
O O2 0.093613 0.368519 0.635487
O O3 0.211467 0.400059 0.584002
O O4 0.780647 0.395950 0.499733
O O5 0.224673 0.916565 0.748421
O O6 0.533331 0.863721 0.768444
O O7 0.124065 0.893713 0.644171
O O8 0.388735 0.000000 0.729128
O O9 0.256968 0.500000 0.181714
O O10 0.516296 0.388385 0.238304
O O11 0.076024 0.373550 0.134800
O O12 0.689965 0.807491 0.734690
O O13 0.913473 0.764651 0.720263
O O14 0.167552 0.243344 0.156866
O O15 0.733798 0.284233 0.049059
O O16 0.016682 0.300958 0.049216
O O17 0.370894 0.500000 0.577435
#
# Coordination Sequence:
#
# PCOD9185252 Si02
#       8
#     8   8   8   8   8   8   4   8
#     4   9  16  30  54  80 104 142 190 230 271 325
#     4  10  19  34  56  82 109 144 184 229 276 323
#     4  10  19  34  58  84 113 143 179 219 268 324
#     4  11  21  34  54  78 108 148 186 230 276 324
#     4  11  23  37  56  80 113 141 180 230 279 318
#     4  10  20  37  57  83 106 142 178 218 262 319
#     4  10  20  36  62  80 104 138 184 214 256 324
#     4   8  15  29  53  79 105 141 187 230 270 322
#
# _framework density 17.502848
#
# number of rings (size 3 to 8) (size 9 to 14) (size 15 to 20)
#    0.000    2.133    1.333    5.200    0.000    1.067 
#    0.000    2.000    0.000    5.600    0.000    0.000 
#    0.000    0.000    0.000    0.000    0.000    0.000 
#
# Total GULP energy -167271.003084 kJ/mol
# GULP energy per Si atom -5575.700103 kJ/mol
# Density = 1.746301 g / cm^3
# Si number density = 17.502848 Si / 1000 Ang^3
#
#
#
# Elastic Constant Matrix: (Units=GPa)
#
#
# Indices 1 2 3 4 5 6 
#
# 1 64.4971 31.8430 20.2016 0.0000 -4.9282 -0.0001
# 2 31.8430 97.6043 47.8782 0.0000 8.0263 -0.0001
# 3 20.2016 47.8782 87.9576 0.0002 -9.2860 -0.0002
# 4 0.0000 0.0000 0.0002 16.6679 0.0000 -5.1574
# 5 -4.9282 8.0263 -9.2860 0.0000 18.6758 -0.0001
# 6 -0.0001 -0.0001 -0.0002 -5.1574 -0.0001 14.6115
#
#
#
# Elastic Compliance Matrix: (Units=1/GPa)
#
#
# Indices 1 2 3 4 5 6 
#
# 1 0.019635 -0.007271 0.000343 0.000000 0.008477 0.000000
# 2 -0.007271 0.018855 -0.010186 0.000000 -0.015087 0.000000
# 3 0.000343 -0.010186 0.018265 0.000000 0.013550 0.000000
# 4 0.000000 0.000000 0.000000 0.067351 0.000000 0.023773
# 5 0.008477 -0.015087 0.013550 0.000000 0.069003 0.000001
# 6 0.000000 0.000000 0.000000 0.023773 0.000001 0.076830
#
#
# Mechanical properties :
#
#
# Convention : Reuss Voigt Hill
#
# Bulk Modulus (GPa) = 44.39115 49.98940 47.19027
# Shear Modulus (GPa) = 16.04225 20.00013 18.02119
#
# Velocity S-wave (km/s) = 3.03074 3.38402 3.21224
# Velocity P-wave (km/s) = 6.13714 6.62507 6.38577
#
# Compressibility (1/GPa) = 0.02252701
#
# Stress axis : x y z
#
# Youngs Moduli (GPa) = 50.93033 53.03650 54.74820
#
# Poissons Ratio (x) = 0.38564 -0.01880
# Poissons Ratio (y) = 0.37033 0.55767
# Poissons Ratio (z) = -0.01749 0.54024
#
# Static dielectric constant tensor:
#      x y z
#    x 1.590870 0.000000 0.005090 
#    y 0.000000 1.582170 0.000000 
#    z 0.005090 0.000000 1.622040 
# 
# From -- ./inp_files/356929.got.cif
#   From: 2010.05.17/outbox.cif.g08.bks.cpg/sg12_179_cif.got.tgz:356929.got - 2010.06.03 13:09:07.
