data_PCOD9185605
_publ_section_title
;
Structure prediction by ZEFSAII (Michael W. Deem and Ramdas Pophale) SiO2 
 PCOD9185605
Probable space group: C 2/M
;
_chemical_formula_sum "Si O2"
_cell_formula_units_Z 64
_cell_length_a 23.682184
_cell_length_b 13.623703
_cell_length_c 17.796472
_cell_angle_alpha 90.000000
_cell_angle_beta 149.334957
_cell_angle_gamma 90.000000
_cell_volume 2928.441282
_symmetry_space_group_name_H-M "C 2/M"
_symmetry_group_IT_number 12
_symmetry_cell_setting 'monoclinic'
loop_
_space_group_symop_operation_xyz
x,y,z
-x,y,-z
-x,-y,-z
x,-y,z
1/2+x,1/2+y,z
1/2-x,1/2+y,-z
1/2-x,1/2-y,-z
1/2+x,1/2-y,z
loop_
_atom_site_type_symbol
_atom_site_label
_atom_site_fract_x
_atom_site_fract_y
_atom_site_fract_z
Si Si1 0.848420 0.380696 0.455899
Si Si2 0.083395 0.615267 0.693178
Si Si3 0.796215 0.881489 0.841872
Si Si4 0.253831 0.381854 0.511454
Si Si5 0.849541 0.618897 0.760245
Si Si6 0.991680 0.117732 0.172869
Si Si7 0.364148 0.213222 0.097750
Si Si8 0.392044 0.117590 0.972341
O O1 0.855862 0.500000 0.465238
O O2 0.739788 0.355461 0.283393
O O3 0.833140 0.349512 0.524467
O O4 0.958511 0.345190 0.538240
O O5 0.080738 0.500000 0.672203
O O6 0.193965 0.652933 0.778214
O O7 0.094614 0.633741 0.794979
O O8 0.794538 0.000000 0.842389
O O9 0.916488 0.857619 0.013400
O O10 0.244896 0.500000 0.498101
O O11 0.225341 0.346589 0.394931
O O12 0.378138 0.362322 0.681485
O O13 0.839891 0.500000 0.751684
O O14 0.977202 0.639910 0.886043
O O15 0.832757 0.650738 0.827365
O O16 0.941560 0.190927 0.177541
O O17 0.977559 0.000000 0.171948
O O18 0.350749 0.164532 0.001400
O O19 0.250000 0.250000 0.000000
O O20 0.382420 0.000000 0.966182
#
# Coordination Sequence:
#
# PCOD9185605 Si02
#       8
#     8   8   8   8   8   8   8   8
#     4   9  17  30  55  87 113 143 186 232 285 339
#     4  10  19  34  57  84 113 143 180 239 294 335
#     4   9  17  32  53  78 110 150 187 224 276 330
#     4   9  17  32  56  83 113 149 186 228 275 339
#     4   8  15  33  61  90 117 144 183 233 296 351
#     4  10  22  39  55  75 112 157 193 228 275 331
#     4  12  23  36  57  83 113 146 199 237 279 340
#     4   9  18  34  60  91 118 145 180 238 299 345
#
# _framework density 21.854628999999999
#
# number of rings (size 3 to 8) (size 9 to 14) (size 15 to 20)
#    0.000    2.500    1.250    2.250    0.000    4.500 
#    0.000    8.750    0.000    0.000    0.000    3.500 
#    0.000    0.000    0.000    0.000    0.000    0.000 
#
# Total GULP energy -178517.673076 kJ/mol
# GULP energy per Si atom -5578.677284 kJ/mol
# Density = 2.180489 g / cm^3
# Si number density = 21.854629 Si / 1000 Ang^3
#
#
#
# Elastic Constant Matrix: (Units=GPa)
#
#
# Indices 1 2 3 4 5 6 
#
# 1 113.7836 5.9620 46.8565 0.0000 -19.4743 0.0000
# 2 5.9620 62.7970 4.6601 0.0000 4.9997 0.0000
# 3 46.8565 4.6601 130.6899 0.0000 -18.7299 0.0000
# 4 0.0000 0.0000 0.0000 13.5527 0.0000 9.0226
# 5 -19.4743 4.9997 -18.7299 0.0000 34.5890 0.0000
# 6 0.0000 0.0000 0.0000 9.0226 0.0000 16.4723
#
#
#
# Elastic Compliance Matrix: (Units=1/GPa)
#
#
# Indices 1 2 3 4 5 6 
#
# 1 0.010967 -0.001167 -0.003232 0.000000 0.004593 0.000000
# 2 -0.001167 0.016352 -0.000648 0.000000 -0.003371 0.000000
# 3 -0.003232 -0.000648 0.009309 0.000000 0.003315 0.000000
# 4 0.000000 0.000000 0.000000 0.116136 0.000000 -0.063613
# 5 0.004593 -0.003371 0.003315 0.000000 0.033779 0.000000
# 6 0.000000 0.000000 0.000000 -0.063613 0.000000 0.095551
#
#
# Mechanical properties :
#
#
# Convention : Reuss Voigt Hill
#
# Bulk Modulus (GPa) = 37.68859 46.91416 42.30137
# Shear Modulus (GPa) = 16.60954 29.57560 23.09257
#
# Velocity S-wave (km/s) = 2.75980 3.68270 3.25413
# Velocity P-wave (km/s) = 5.23812 6.29254 5.78939
#
# Compressibility (1/GPa) = 0.02653323
#
# Stress axis : x y z
#
# Youngs Moduli (GPa) = 91.18375 61.15599 107.42717
#
# Poissons Ratio (x) = 0.07137 0.34721
# Poissons Ratio (y) = 0.10641 0.06959
# Poissons Ratio (z) = 0.29471 0.03962
#
# Static dielectric constant tensor:
#      x y z
#    x 1.795990 0.000000 -0.019110 
#    y 0.000000 1.835170 0.000000 
#    z -0.019110 0.000000 1.860640 
# 
# From -- ./inp_files/290130.got.cif
#   From: 2010.05.17/outbox.cif.g08.bks.cpg/sg12_146_cif.got.tgz:290130.got - 2010.06.03 13:09:07.
