data_PCOD9185550
_publ_section_title
;
Structure prediction by ZEFSAII (Michael W. Deem and Ramdas Pophale) SiO2 
 PCOD9185550
Probable space group: C 2/M
;
_chemical_formula_sum "Si O2"
_cell_formula_units_Z 48
_cell_length_a 17.958902
_cell_length_b 25.561721
_cell_length_c 5.266414
_cell_angle_alpha 90.000000
_cell_angle_beta 61.359913
_cell_angle_gamma 90.000000
_cell_volume 2121.803481
_symmetry_space_group_name_H-M "C 2/M"
_symmetry_group_IT_number 12
_symmetry_cell_setting 'monoclinic'
loop_
_space_group_symop_operation_xyz
x,y,z
-x,y,-z
-x,-y,-z
x,-y,z
1/2+x,1/2+y,z
1/2-x,1/2+y,-z
1/2-x,1/2-y,-z
1/2+x,1/2-y,z
loop_
_atom_site_type_symbol
_atom_site_label
_atom_site_fract_x
_atom_site_fract_y
_atom_site_fract_z
Si Si1 0.100959 0.665421 0.313114
Si Si2 0.310615 0.378070 0.352946
Si Si3 0.309022 0.202809 0.314942
Si Si4 0.950520 0.849468 0.826694
Si Si5 0.113048 0.058730 0.377536
Si Si6 0.298215 0.059457 0.838263
O O1 0.139176 0.684602 0.519668
O O2 0.136279 0.606003 0.205719
O O3 0.000000 0.664876 0.500000
O O4 0.132487 0.702692 0.030418
O O5 0.260334 0.342053 0.626662
O O6 0.387374 0.405898 0.372415
O O7 0.246561 0.420935 0.348294
O O8 0.351561 0.340760 0.067580
O O9 0.250000 0.250000 0.500000
O O10 0.934863 0.910533 0.767264
O O11 0.000000 0.826516 0.500000
O O12 0.000000 0.834097 0.000000
O O13 0.085260 0.000000 0.462544
O O14 0.213733 0.057297 0.149519
O O15 0.332411 0.000000 0.767829
#
# Coordination Sequence:
#
# PCOD9185550 Si02
#       6
#     8   8   8   8   8   8
#     4  11  23  43  70 103 141 165 208 275 330 378
#     4  10  20  38  62  84 121 162 219 267 314 379
#     4  11  24  45  72  95 123 175 222 261 320 394
#     4  11  22  37  52  80 118 160 204 263 324 366
#     4  10  19  34  57  82 117 164 215 255 305 379
#     4   9  19  35  60  95 131 175 215 252 312 398
#
# _framework density 22.622264000000001
#
# number of rings (size 3 to 8) (size 9 to 14) (size 15 to 20)
#    0.000    1.667    3.333    1.500    0.000    1.667 
#    0.000    2.500    0.000    3.000    0.000    0.000 
#    0.000    0.000    0.000    0.000    0.000    0.000 
#
# Total GULP energy -133690.753529 kJ/mol
# GULP energy per Si atom -5570.448064 kJ/mol
# Density = 2.257078 g / cm^3
# Si number density = 22.622264 Si / 1000 Ang^3
#
#
#
# Elastic Constant Matrix: (Units=GPa)
#
#
# Indices 1 2 3 4 5 6 
#
# 1 105.9699 45.1367 50.1412 0.0000 -4.9308 0.0000
# 2 45.1367 71.7929 18.0346 0.0000 -1.8244 0.0000
# 3 50.1412 18.0346 135.8070 0.0000 1.7702 0.0000
# 4 0.0000 0.0000 0.0000 22.4294 0.0000 -3.4034
# 5 -4.9308 -1.8244 1.7702 0.0000 43.3458 0.0000
# 6 0.0000 0.0000 0.0000 -3.4034 0.0000 5.2585
#
#
#
# Elastic Compliance Matrix: (Units=1/GPa)
#
#
# Indices 1 2 3 4 5 6 
#
# 1 0.015228 -0.008397 -0.004528 0.000000 0.001564 0.000000
# 2 -0.008397 0.019060 0.000571 0.000000 -0.000176 0.000000
# 3 -0.004528 0.000571 0.008970 0.000000 -0.000857 0.000000
# 4 0.000000 0.000000 0.000000 0.049440 0.000000 0.031998
# 5 0.001564 -0.000176 -0.000857 0.000000 0.023276 0.000000
# 6 0.000000 0.000000 0.000000 0.031998 0.000000 0.210879
#
#
# Mechanical properties :
#
#
# Convention : Reuss Voigt Hill
#
# Bulk Modulus (GPa) = 53.90184 60.02165 56.96175
# Shear Modulus (GPa) = 13.97647 27.55722 20.76685
#
# Velocity S-wave (km/s) = 2.48829 3.49398 3.03311
# Velocity P-wave (km/s) = 5.66869 6.54728 6.12377
#
# Compressibility (1/GPa) = 0.01855224
#
# Stress axis : x y z
#
# Youngs Moduli (GPa) = 65.66659 52.46527 111.47806
#
# Poissons Ratio (x) = 0.44056 0.50475
# Poissons Ratio (y) = 0.55141 -0.06371
# Poissons Ratio (z) = 0.29732 -0.02998
#
# Static dielectric constant tensor:
#      x y z
#    x 1.881800 0.000000 -0.004740 
#    y 0.000000 1.892770 0.000000 
#    z -0.004740 0.000000 1.992500 
# 
# From -- ./inp_files/17309.got.cif
#   From: 2010.05.17/outbox.cif.g08.bks.cpg/sg12_9_cif.got.tgz:17309.got - 2010.06.03 13:09:07.
