data_PCOD9185007
_publ_section_title
;
Structure prediction by ZEFSAII (Michael W. Deem and Ramdas Pophale) SiO2 
 PCOD9185007
Probable space group: C 2/M
;
_chemical_formula_sum "Si O2"
_cell_formula_units_Z 64
_cell_length_a 26.003929
_cell_length_b 11.393165
_cell_length_c 12.904568
_cell_angle_alpha 90.000000
_cell_angle_beta 116.862447
_cell_angle_gamma 90.000000
_cell_volume 3410.651821
_symmetry_space_group_name_H-M "C 2/M"
_symmetry_group_IT_number 12
_symmetry_cell_setting 'monoclinic'
loop_
_space_group_symop_operation_xyz
x,y,z
-x,y,-z
-x,-y,-z
x,-y,z
1/2+x,1/2+y,z
1/2-x,1/2+y,-z
1/2-x,1/2-y,-z
1/2+x,1/2-y,z
loop_
_atom_site_type_symbol
_atom_site_label
_atom_site_fract_x
_atom_site_fract_y
_atom_site_fract_z
Si Si1 0.995229 0.641179 0.614636
Si Si2 0.314951 0.367935 0.229421
Si Si3 0.375831 0.136955 0.615491
Si Si4 0.308982 0.132866 0.954049
Si Si5 0.708765 0.866730 0.656549
Si Si6 0.899703 0.245696 0.169969
Si Si7 0.662815 0.712628 0.222531
Si Si8 0.442917 0.365908 0.998057
O O1 0.993905 0.500000 0.610982
O O2 0.051388 0.683079 0.726652
O O3 0.000000 0.682722 0.500000
O O4 0.936078 0.677639 0.618132
O O5 0.311592 0.500000 0.275647
O O6 0.260157 0.363526 0.101632
O O7 0.309395 0.250076 0.294771
O O8 0.373716 0.354411 0.219658
O O9 0.326967 0.140733 0.482306
O O10 0.356766 0.214154 0.695478
O O11 0.382558 0.000000 0.652937
O O12 0.323438 0.203598 0.863009
O O13 0.327104 0.000000 0.953426
O O14 0.344074 0.179514 0.083736
O O15 0.777510 0.855093 0.702546
O O16 0.697028 0.000000 0.689462
O O17 0.925159 0.197926 0.086462
O O18 0.609144 0.638364 0.131366
O O19 0.455852 0.500000 0.036965
O O20 0.500000 0.311204 0.000000
#
# Coordination Sequence:
#
# PCOD9185007 Si02
#       8
#     8   8   8   8   8   8   8   8
#     4  10  21  36  55  81 112 146 188 236 282 332
#     4  10  21  37  56  82 116 149 184 231 286 339
#     4  10  20  35  56  82 113 150 190 233 282 332
#     4   9  19  33  51  80 112 142 178 225 281 337
#     4  10  21  37  59  86 115 149 190 234 280 334
#     4  11  20  34  57  79 105 145 188 231 278 336
#     4  10  19  34  55  81 111 145 183 229 278 335
#     4  10  21  36  53  75 106 143 183 229 279 333
#
# _framework density 18.764741000000001
#
# number of rings (size 3 to 8) (size 9 to 14) (size 15 to 20)
#    0.000    2.000    0.000    3.750    0.000    2.500 
#    0.000    4.375    0.000   14.250    0.000    0.000 
#    0.000    0.000    0.000    0.000    0.000    0.000 
#
# Total GULP energy -178370.974880 kJ/mol
# GULP energy per Si atom -5574.092965 kJ/mol
# Density = 1.872203 g / cm^3
# Si number density = 18.764741 Si / 1000 Ang^3
#
#
#
# Elastic Constant Matrix: (Units=GPa)
#
#
# Indices 1 2 3 4 5 6 
#
# 1 98.6496 14.9897 28.1255 0.0000 -2.8321 0.0000
# 2 14.9897 71.5049 18.3111 0.0000 -5.8691 0.0000
# 3 28.1255 18.3111 84.4702 0.0000 4.8953 0.0000
# 4 0.0000 0.0000 0.0000 23.7317 0.0000 0.5027
# 5 -2.8321 -5.8691 4.8953 0.0000 18.8516 0.0000
# 6 0.0000 0.0000 0.0000 0.5027 0.0000 18.8698
#
#
#
# Elastic Compliance Matrix: (Units=1/GPa)
#
#
# Indices 1 2 3 4 5 6 
#
# 1 0.011441 -0.001273 -0.003665 0.000000 0.002274 0.000000
# 2 -0.001273 0.015538 -0.003263 0.000000 0.005494 0.000000
# 3 -0.003665 -0.003263 0.014069 0.000000 -0.005220 0.000000
# 4 0.000000 0.000000 0.000000 0.042161 0.000000 -0.001123
# 5 0.002274 0.005494 -0.005220 0.000000 0.056453 0.000000
# 6 0.000000 0.000000 0.000000 -0.001123 0.000000 0.053025
#
#
# Mechanical properties :
#
#
# Convention : Reuss Voigt Hill
#
# Bulk Modulus (GPa) = 40.57526 41.94194 41.25860
# Shear Modulus (GPa) = 23.00922 25.17052 24.08987
#
# Velocity S-wave (km/s) = 3.50550 3.66645 3.58688
# Velocity P-wave (km/s) = 6.16886 6.35010 6.26014
#
# Compressibility (1/GPa) = 0.02464556
#
# Stress axis : x y z
#
# Youngs Moduli (GPa) = 87.40835 64.35660 71.08001
#
# Poissons Ratio (x) = 0.08193 0.26052
# Poissons Ratio (y) = 0.11128 0.23192
# Poissons Ratio (z) = 0.32036 0.20999
#
# Static dielectric constant tensor:
#      x y z
#    x 1.677240 0.000000 0.001440 
#    y 0.000000 1.667230 0.000000 
#    z 0.001440 0.000000 1.621120 
# 
# From -- ./inp_files/175286.got.cif
#   From: 2010.05.17/outbox.cif.g08.bks.cpg/sg12_88_cif.got.tgz:175286.got - 2010.06.03 13:09:07.
