data_PCOD9185564
_publ_section_title
;
Structure prediction by ZEFSAII (Michael W. Deem and Ramdas Pophale) SiO2 
 PCOD9185564
Probable space group: C 2/M
;
_chemical_formula_sum "Si O2"
_cell_formula_units_Z 48
_cell_length_a 25.996074
_cell_length_b 8.740523
_cell_length_c 12.016879
_cell_angle_alpha 90.000000
_cell_angle_beta 90.376805
_cell_angle_gamma 90.000000
_cell_volume 2730.407580
_symmetry_space_group_name_H-M "C 2/M"
_symmetry_group_IT_number 12
_symmetry_cell_setting 'monoclinic'
loop_
_space_group_symop_operation_xyz
x,y,z
-x,y,-z
-x,-y,-z
x,-y,z
1/2+x,1/2+y,z
1/2-x,1/2+y,-z
1/2-x,1/2-y,-z
1/2+x,1/2-y,z
loop_
_atom_site_type_symbol
_atom_site_label
_atom_site_fract_x
_atom_site_fract_y
_atom_site_fract_z
Si Si1 0.603587 0.181686 0.765424
Si Si2 0.190086 0.815164 0.381084
Si Si3 0.939446 0.815188 0.006988
Si Si4 0.697913 0.682975 0.638638
Si Si5 0.907855 0.813890 0.762982
Si Si6 0.990421 0.184306 0.370819
O O1 0.586671 0.244436 0.885344
O O2 0.657754 0.247197 0.724122
O O3 0.560098 0.238457 0.678684
O O4 0.605413 0.000000 0.767610
O O5 0.244353 0.744606 0.345780
O O6 0.181892 0.775620 0.511166
O O7 0.142680 0.763193 0.304083
O O8 0.193550 0.000000 0.375008
O O9 0.937154 0.000000 0.016132
O O10 0.912316 0.767496 0.891493
O O11 0.000000 0.774440 0.000000
O O12 0.697341 0.500000 0.647030
O O13 0.959755 0.768129 0.699555
O O14 0.907359 0.000000 0.761304
O O15 0.000000 0.218538 0.500000
O O16 0.984467 0.000000 0.359851
#
# Coordination Sequence:
#
# PCOD9185564 Si02
#       6
#     8   8   8   8   8   8
#     4  12  24  36  53  80 115 148 186 232 278 325
#     4   9  18  35  59  86 112 139 178 228 281 330
#     4  10  19  36  59  79 106 146 192 230 270 332
#     4  10  20  36  58  82 111 148 186 223 273 336
#     4   9  17  32  56  83 108 140 180 225 275 329
#     4  10  19  34  57  83 111 144 183 224 273 335
#
# _framework density 17.579792000000001
#
# number of rings (size 3 to 8) (size 9 to 14) (size 15 to 20)
#    0.000    2.000    1.667    3.000    0.000    4.000 
#    0.000    2.500    0.000    0.000    0.000    0.000 
#    0.000    0.000    0.000    0.000    0.000    0.000 
#
# Total GULP energy -134010.676731 kJ/mol
# GULP energy per Si atom -5583.778197 kJ/mol
# Density = 1.753978 g / cm^3
# Si number density = 17.579792 Si / 1000 Ang^3
#
#
#
# Elastic Constant Matrix: (Units=GPa)
#
#
# Indices 1 2 3 4 5 6 
#
# 1 83.9946 23.0885 34.0229 0.0000 -21.2111 0.0000
# 2 23.0885 28.0268 26.3992 0.0000 -11.8516 0.0000
# 3 34.0229 26.3992 72.5476 0.0000 -26.5120 0.0000
# 4 0.0000 0.0000 0.0000 13.5812 0.0000 0.9482
# 5 -21.2111 -11.8516 -26.5120 0.0000 34.1136 0.0000
# 6 0.0000 0.0000 0.0000 0.9482 0.0000 27.9368
#
#
#
# Elastic Compliance Matrix: (Units=1/GPa)
#
#
# Indices 1 2 3 4 5 6 
#
# 1 0.016810 -0.009148 -0.002649 0.000000 0.005216 0.000000
# 2 -0.009148 0.059858 -0.016719 0.000000 0.002115 0.000000
# 3 -0.002649 -0.016719 0.025678 0.000000 0.012501 0.000000
# 4 0.000000 0.000000 0.000000 0.073806 0.000000 -0.002505
# 5 0.005216 0.002115 0.012501 0.000000 0.043007 0.000000
# 6 0.000000 0.000000 0.000000 -0.002505 0.000000 0.035880
#
#
# Mechanical properties :
#
#
# Convention : Reuss Voigt Hill
#
# Bulk Modulus (GPa) = 22.06728 39.06560 30.56644
# Shear Modulus (GPa) = 15.28232 21.86353 18.57293
#
# Velocity S-wave (km/s) = 2.95161 3.53040 3.25390
# Velocity P-wave (km/s) = 4.91893 6.23606 5.61624
#
# Compressibility (1/GPa) = 0.04531595
#
# Stress axis : x y z
#
# Youngs Moduli (GPa) = 59.48826 16.70622 38.94318
#
# Poissons Ratio (x) = 0.15282 0.10315
# Poissons Ratio (y) = 0.54418 0.65108
# Poissons Ratio (z) = 0.15757 0.27931
#
# Static dielectric constant tensor:
#      x y z
#    x 1.570570 0.000000 0.007850 
#    y 0.000000 1.592220 0.000000 
#    z 0.007850 0.000000 1.588730 
# 
# From -- ./inp_files/172290.got.cif
#   From: 2010.05.17/outbox.cif.g08.bks.cpg/sg12_87_cif.got.tgz:172290.got - 2010.06.03 13:09:07.
