data_PCOD9185205
_publ_section_title
;
Structure prediction by ZEFSAII (Michael W. Deem and Ramdas Pophale) SiO2 
 PCOD9185205
Probable space group: C 2/M
;
_chemical_formula_sum "Si O2"
_cell_formula_units_Z 48
_cell_length_a 19.601671
_cell_length_b 8.682599
_cell_length_c 22.674603
_cell_angle_alpha 90.000000
_cell_angle_beta 43.068877
_cell_angle_gamma 90.000000
_cell_volume 2635.269578
_symmetry_space_group_name_H-M "C 2/M"
_symmetry_group_IT_number 12
_symmetry_cell_setting 'monoclinic'
loop_
_space_group_symop_operation_xyz
x,y,z
-x,y,-z
-x,-y,-z
x,-y,z
1/2+x,1/2+y,z
1/2-x,1/2+y,-z
1/2-x,1/2-y,-z
1/2+x,1/2-y,z
loop_
_atom_site_type_symbol
_atom_site_label
_atom_site_fract_x
_atom_site_fract_y
_atom_site_fract_z
Si Si1 0.313231 0.315337 0.780622
Si Si2 0.464011 0.815493 0.363522
Si Si3 0.710631 0.817310 0.724384
Si Si4 0.106308 0.315443 0.463924
Si Si5 0.964889 0.817844 0.238306
Si Si6 0.186264 0.316386 0.093899
O O1 0.325077 0.500000 0.775928
O O2 0.421821 0.240935 0.700133
O O3 0.240485 0.277657 0.772539
O O4 0.278586 0.252507 0.865614
O O5 0.403678 0.776225 0.460702
O O6 0.427281 0.738290 0.326409
O O7 0.464238 0.000000 0.356583
O O8 0.805471 0.772220 0.624417
O O9 0.615225 0.729061 0.759789
O O10 0.693040 0.000000 0.731816
O O11 0.122928 0.500000 0.448234
O O12 0.000000 0.281961 0.500000
O O13 0.070869 0.735468 0.161004
O O14 0.980652 0.000000 0.229861
O O15 0.192192 0.500000 0.091590
O O16 0.250000 0.250000 0.000000
#
# Coordination Sequence:
#
# PCOD9185205 Si02
#       6
#     8   8   8   8   8   8
#     4  10  20  35  57  85 115 148 189 232 280 337
#     4  10  19  34  56  80 111 151 195 239 283 334
#     4  11  23  37  56  83 117 154 192 237 287 334
#     4  10  20  34  54  81 113 151 198 242 282 332
#     4  11  23  39  59  83 116 151 189 235 286 339
#     4  11  22  40  66  91 116 145 183 227 276 339
#
# _framework density 18.214455999999998
#
# number of rings (size 3 to 8) (size 9 to 14) (size 15 to 20)
#    0.000    1.500    1.667    6.500    0.000    4.333 
#    0.000    0.833    0.000    5.000    0.000    0.000 
#    0.000    0.000    0.000    0.000    0.000    0.000 
#
# Total GULP energy -134125.495766 kJ/mol
# GULP energy per Si atom -5588.562324 kJ/mol
# Density = 1.817300 g / cm^3
# Si number density = 18.214456 Si / 1000 Ang^3
#
#
#
# Elastic Constant Matrix: (Units=GPa)
#
#
# Indices 1 2 3 4 5 6 
#
# 1 103.2053 28.0588 36.9184 0.0000 20.0585 0.0000
# 2 28.0588 62.4475 25.9391 0.0000 11.2916 0.0000
# 3 36.9184 25.9391 102.7709 0.0000 26.9939 0.0000
# 4 0.0000 0.0000 0.0000 30.6513 0.0000 -0.0932
# 5 20.0585 11.2916 26.9939 0.0000 20.8946 0.0000
# 6 0.0000 0.0000 0.0000 -0.0932 0.0000 31.7681
#
#
#
# Elastic Compliance Matrix: (Units=1/GPa)
#
#
# Indices 1 2 3 4 5 6 
#
# 1 0.012850 -0.003630 -0.001476 0.000000 -0.008468 0.000000
# 2 -0.003630 0.019391 -0.002654 0.000000 -0.003567 0.000000
# 3 -0.001476 -0.002654 0.015411 0.000000 -0.017059 0.000000
# 4 0.000000 0.000000 0.000000 0.032625 0.000000 0.000096
# 5 -0.008468 -0.003567 -0.017059 0.000000 0.079954 0.000000
# 6 0.000000 0.000000 0.000000 0.000096 0.000000 0.031478
#
#
# Mechanical properties :
#
#
# Convention : Reuss Voigt Hill
#
# Bulk Modulus (GPa) = 31.11957 50.02848 40.57402
# Shear Modulus (GPa) = 22.94213 28.49661 25.71937
#
# Velocity S-wave (km/s) = 3.55287 3.95967 3.76178
# Velocity P-wave (km/s) = 5.82690 6.95926 6.41810
#
# Compressibility (1/GPa) = 0.03213412
#
# Stress axis : x y z
#
# Youngs Moduli (GPa) = 77.82165 51.56909 64.88865
#
# Poissons Ratio (x) = 0.18717 0.09577
# Poissons Ratio (y) = 0.28246 0.17219
# Poissons Ratio (z) = 0.11485 0.13685
#
# Static dielectric constant tensor:
#      x y z
#    x 1.624290 0.000000 0.018010 
#    y 0.000000 1.607120 0.000000 
#    z 0.018010 0.000000 1.602840 
# 
# From -- ./inp_files/313583.got.cif
#   From: 2010.05.17/outbox.cif.g08.bks.cpg/sg12_157_cif.got.tgz:313583.got - 2010.06.03 13:09:07.
