data_PCOD9185445
_publ_section_title
;
Structure prediction by ZEFSAII (Michael W. Deem and Ramdas Pophale) SiO2 
 PCOD9185445
Probable space group: C 2/M
;
_chemical_formula_sum "Si O2"
_cell_formula_units_Z 64
_cell_length_a 12.892284
_cell_length_b 13.793173
_cell_length_c 32.730528
_cell_angle_alpha 90.000000
_cell_angle_beta 144.868600
_cell_angle_gamma 90.000000
_cell_volume 3349.325252
_symmetry_space_group_name_H-M "C 2/M"
_symmetry_group_IT_number 12
_symmetry_cell_setting 'monoclinic'
loop_
_space_group_symop_operation_xyz
x,y,z
-x,y,-z
-x,-y,-z
x,-y,z
1/2+x,1/2+y,z
1/2-x,1/2+y,-z
1/2-x,1/2-y,-z
1/2+x,1/2-y,z
loop_
_atom_site_type_symbol
_atom_site_label
_atom_site_fract_x
_atom_site_fract_y
_atom_site_fract_z
Si Si1 0.606039 0.886107 0.493580
Si Si2 0.475556 0.390704 0.348199
Si Si3 0.933563 0.390947 0.275260
Si Si4 0.323522 0.190517 0.898550
Si Si5 0.091208 0.102422 0.108517
Si Si6 0.883229 0.312965 0.348703
Si Si7 0.783055 0.341329 0.981123
Si Si8 0.988786 0.817829 0.731219
O O1 0.500000 0.852612 0.500000
O O2 0.818408 0.879671 0.570043
O O3 0.536103 0.829303 0.431801
O O4 0.560939 0.000000 0.473104
O O5 0.413484 0.500000 0.337698
O O6 0.368049 0.300712 0.332429
O O7 0.479456 0.373761 0.300777
O O8 0.005051 0.500000 0.290382
O O9 0.732019 0.388198 0.191325
O O10 0.928253 0.369498 0.321674
O O11 0.026933 0.297172 0.285040
O O12 0.377198 0.303386 0.908921
O O13 0.271294 0.177468 0.928842
O O14 0.157527 0.168378 0.815574
O O15 0.505838 0.131223 0.946013
O O16 0.889840 0.098437 0.061098
O O17 0.131942 0.000000 0.100262
O O18 0.695903 0.348870 0.307202
O O19 0.750000 0.250000 0.000000
#
# Coordination Sequence:
#
# PCOD9185445 Si02
#       8
#     8   8   8   8   8   8   8   8
#     4  10  19  34  57  80 106 139 179 221 260 308
#     4  10  22  38  54  79 110 138 174 221 265 311
#     4   9  19  33  51  78 107 135 175 220 260 309
#     4   9  18  33  52  74 101 138 173 206 258 316
#     4   9  17  32  53  76 102 131 171 219 256 299
#     4  11  20  33  57  81 104 141 179 216 263 313
#     4   9  17  32  52  72 100 135 168 207 254 305
#     4  10  20  34  54  77 105 139 175 213 262 318
#
# _framework density 19.108326000000002
#
# number of rings (size 3 to 8) (size 9 to 14) (size 15 to 20)
#    0.000    2.375    1.250    1.500    0.000    2.000 
#    0.000    7.500    0.000    0.375    0.000    0.000 
#    0.000    0.000    0.000    0.000    0.000    0.000 
#
# Total GULP energy -178328.285323 kJ/mol
# GULP energy per Si atom -5572.758916 kJ/mol
# Density = 1.906483 g / cm^3
# Si number density = 19.108326 Si / 1000 Ang^3
#
#
#
# Elastic Constant Matrix: (Units=GPa)
#
#
# Indices 1 2 3 4 5 6 
#
# 1 33.0097 -11.8490 8.0848 0.0000 -3.2065 0.0000
# 2 -11.8490 47.9329 2.7641 0.0000 -1.4296 0.0000
# 3 8.0848 2.7641 79.0865 0.0000 -7.5035 0.0000
# 4 0.0000 0.0000 0.0000 6.0611 0.0000 0.9862
# 5 -3.2065 -1.4296 -7.5035 0.0000 19.0810 0.0000
# 6 0.0000 0.0000 0.0000 0.9862 0.0000 5.0026
#
#
#
# Elastic Compliance Matrix: (Units=1/GPa)
#
#
# Indices 1 2 3 4 5 6 
#
# 1 0.034845 0.008964 -0.003382 0.000000 0.005197 0.000000
# 2 0.008964 0.023243 -0.001476 0.000000 0.002667 0.000000
# 3 -0.003382 -0.001476 0.013480 0.000000 0.004622 0.000000
# 4 0.000000 0.000000 0.000000 0.170454 0.000000 -0.033604
# 5 0.005197 0.002667 0.004622 0.000000 0.055299 0.000000
# 6 0.000000 0.000000 0.000000 -0.033604 0.000000 0.206520
#
#
# Mechanical properties :
#
#
# Convention : Reuss Voigt Hill
#
# Bulk Modulus (GPa) = 12.53452 17.55876 15.04664
# Shear Modulus (GPa) = 9.57445 16.76423 13.16934
#
# Velocity S-wave (km/s) = 2.24087 2.96518 2.62810
# Velocity P-wave (km/s) = 3.64270 4.57516 4.13530
#
# Compressibility (1/GPa) = 0.07977967
#
# Stress axis : x y z
#
# Youngs Moduli (GPa) = 28.69860 43.02381 74.18260
#
# Poissons Ratio (x) = -0.38565 0.25091
# Poissons Ratio (y) = -0.25724 0.10946
# Poissons Ratio (z) = 0.09707 0.06349
#
# Static dielectric constant tensor:
#      x y z
#    x 1.611180 0.000000 0.011190 
#    y 0.000000 1.778860 0.000000 
#    z 0.011190 0.000000 1.646250 
# 
# From -- ./inp_files/358466.got.cif
#   From: 2010.05.17/outbox.cif.g08.bks.cpg/sg12_180_cif.got.tgz:358466.got - 2010.06.03 13:09:07.
