data_PCOD9185479
_publ_section_title
;
Structure prediction by ZEFSAII (Michael W. Deem and Ramdas Pophale) SiO2 
 PCOD9185479
Probable space group: C 2/M
;
_chemical_formula_sum "Si O2"
_cell_formula_units_Z 56
_cell_length_a 8.874004
_cell_length_b 22.030811
_cell_length_c 17.245908
_cell_angle_alpha 90.000000
_cell_angle_beta 61.054493
_cell_angle_gamma 90.000000
_cell_volume 2950.421942
_symmetry_space_group_name_H-M "C 2/M"
_symmetry_group_IT_number 12
_symmetry_cell_setting 'monoclinic'
loop_
_space_group_symop_operation_xyz
x,y,z
-x,y,-z
-x,-y,-z
x,-y,z
1/2+x,1/2+y,z
1/2-x,1/2+y,-z
1/2-x,1/2-y,-z
1/2+x,1/2-y,z
loop_
_atom_site_type_symbol
_atom_site_label
_atom_site_fract_x
_atom_site_fract_y
_atom_site_fract_z
Si Si1 0.194557 0.184394 0.983856
Si Si2 0.573425 0.174750 0.220977
Si Si3 0.069843 0.067587 0.071795
Si Si4 0.735959 0.067689 0.262623
Si Si5 0.216610 0.238042 0.310635
Si Si6 0.161075 0.195980 0.569934
Si Si7 0.707315 0.067838 0.450716
O O1 0.326336 0.165587 0.883683
O O2 0.250000 0.250000 0.000000
O O3 0.186015 0.127870 0.045777
O O4 0.000000 0.191157 0.000000
O O5 0.599210 0.116658 0.268721
O O6 0.376493 0.193438 0.260890
O O7 0.668710 0.229228 0.242674
O O8 0.910140 0.076564 0.169851
O O9 0.144178 0.000000 0.068298
O O10 0.000000 0.065914 0.000000
O O11 0.769066 0.070454 0.345879
O O12 0.671966 0.000000 0.261175
O O13 0.273824 0.289078 0.358823
O O14 0.043495 0.205258 0.382432
O O15 0.250000 0.250000 0.500000
O O16 0.218823 0.129014 0.529790
O O17 0.500000 0.072372 0.500000
O O18 0.750035 0.000000 0.470979
#
# Coordination Sequence:
#
# PCOD9185479 Si02
#       7
#     8   8   8   8   8   8   8
#     4  11  21  33  53  82 116 148 183 235 288 333
#     4  11  20  36  52  82 114 147 189 232 284 338
#     4   9  17  31  52  79 105 142 190 232 268 326
#     4  10  19  34  57  81 110 148 188 234 285 335
#     4  10  23  34  55  80 112 150 188 234 287 342
#     4  11  21  38  58  83 111 148 193 241 284 342
#     4  10  21  36  58  86 113 146 188 235 287 346
#
# _framework density 18.980336000000001
#
# number of rings (size 3 to 8) (size 9 to 14) (size 15 to 20)
#    0.000    1.714    4.286    2.143    2.000    0.000 
#    0.000    0.714    0.000    2.143    0.000    1.000 
#    0.000    0.000    0.000    0.000    0.000    0.000 
#
# Total GULP energy -156178.112187 kJ/mol
# GULP energy per Si atom -5577.789721 kJ/mol
# Density = 1.893714 g / cm^3
# Si number density = 18.980336 Si / 1000 Ang^3
#
#
#
# Elastic Constant Matrix: (Units=GPa)
#
#
# Indices 1 2 3 4 5 6 
#
# 1 69.0451 43.2803 12.5338 0.0000 -25.8322 0.0000
# 2 43.2803 179.1988 13.4305 0.0000 -24.2132 0.0000
# 3 12.5338 13.4305 68.1630 0.0000 -13.8610 0.0000
# 4 0.0000 0.0000 0.0000 28.4844 0.0000 -1.5018
# 5 -25.8322 -24.2132 -13.8610 0.0000 22.2274 0.0000
# 6 0.0000 0.0000 0.0000 -1.5018 0.0000 15.8038
#
#
#
# Elastic Compliance Matrix: (Units=1/GPa)
#
#
# Indices 1 2 3 4 5 6 
#
# 1 0.026789 -0.002637 0.001535 0.000000 0.029219 0.000000
# 2 -0.002637 0.006805 0.000032 0.000000 0.004368 0.000000
# 3 0.001535 0.000032 0.016894 0.000000 0.012355 0.000000
# 4 0.000000 0.000000 0.000000 0.035284 0.000000 0.003353
# 5 0.029219 0.004368 0.012355 0.000000 0.091410 0.000000
# 6 0.000000 0.000000 0.000000 0.003353 0.000000 0.063594
#
#
# Mechanical properties :
#
#
# Convention : Reuss Voigt Hill
#
# Bulk Modulus (GPa) = 20.68271 50.54403 35.61337
# Shear Modulus (GPa) = 19.30258 29.78061 24.54160
#
# Velocity S-wave (km/s) = 3.19247 3.96539 3.59973
# Velocity P-wave (km/s) = 4.95073 6.90313 6.00679
#
# Compressibility (1/GPa) = 0.04834957
#
# Stress axis : x y z
#
# Youngs Moduli (GPa) = 37.32817 146.94697 59.19126
#
# Poissons Ratio (x) = 0.38754 -0.09087
# Poissons Ratio (y) = 0.09845 -0.00192
# Poissons Ratio (z) = -0.05731 -0.00476
#
# Static dielectric constant tensor:
#      x y z
#    x 1.646160 0.000000 0.031970 
#    y 0.000000 1.713300 0.000000 
#    z 0.031970 0.000000 1.698660 
# 
# From -- ./inp_files/258000.got.cif
#   From: 2010.05.17/outbox.cif.g08.bks.cpg/sg12_129_cif.got.tgz:258000.got - 2010.06.03 13:09:07.
