data_PCOD9185881
_publ_section_title
;
Structure prediction by ZEFSAII (Michael W. Deem and Ramdas Pophale) SiO2 
 PCOD9185881
Probable space group: C 2/M
;
_chemical_formula_sum "Si O2"
_cell_formula_units_Z 64
_cell_length_a 15.964158
_cell_length_b 8.308473
_cell_length_c 33.879120
_cell_angle_alpha 90.000000
_cell_angle_beta 133.727608
_cell_angle_gamma 90.000000
_cell_volume 3247.265802
_symmetry_space_group_name_H-M "C 2/M"
_symmetry_group_IT_number 12
_symmetry_cell_setting 'monoclinic'
loop_
_space_group_symop_operation_xyz
x,y,z
-x,y,-z
-x,-y,-z
x,-y,z
1/2+x,1/2+y,z
1/2-x,1/2+y,-z
1/2-x,1/2-y,-z
1/2+x,1/2-y,z
loop_
_atom_site_type_symbol
_atom_site_label
_atom_site_fract_x
_atom_site_fract_y
_atom_site_fract_z
Si Si1 0.202130 0.191736 0.365721
Si Si2 0.284858 0.194801 0.255237
Si Si3 0.472013 0.193926 0.250123
Si Si4 0.900728 0.803180 0.937419
Si Si5 0.861068 0.305613 0.131843
Si Si6 0.892129 0.191917 0.371710
Si Si7 0.348537 0.305169 0.561997
Si Si8 0.051321 0.805883 0.136578
O O1 0.099031 0.250825 0.303812
O O2 0.324142 0.244155 0.387420
O O3 0.178358 0.252309 0.402290
O O4 0.197610 0.000000 0.365128
O O5 0.380733 0.245536 0.254113
O O6 0.321330 0.258517 0.309594
O O7 0.159055 0.248745 0.198949
O O8 0.284716 0.000000 0.256637
O O9 0.428583 0.250866 0.193276
O O10 0.470436 0.000000 0.248918
O O11 0.772202 0.751860 0.908614
O O12 0.927682 0.751409 0.901449
O O13 0.900270 0.000000 0.937059
O O14 0.000000 0.750788 0.000000
O O15 0.860789 0.500000 0.132274
O O16 0.931803 0.249308 0.116941
O O17 0.023857 0.251446 0.409630
O O18 0.894800 0.000000 0.374692
O O19 0.350479 0.500000 0.563320
O O20 0.250000 0.250000 0.500000
O O21 0.053798 0.000000 0.137008
#
# Coordination Sequence:
#
# PCOD9185881 Si02
#       8
#     8   8   8   8   8   8   8   8
#     4  11  23  40  60  88 119 150 188 232 280 335
#     4  10  19  34  58  85 114 149 186 228 281 340
#     4  10  19  34  58  85 114 149 186 228 281 340
#     4   9  18  35  57  77 104 147 192 231 276 333
#     4  10  20  35  55  82 112 144 185 230 277 334
#     4  11  23  40  60  88 119 150 188 232 280 335
#     4  10  24  43  62  84 115 150 191 236 279 327
#     4  10  20  35  55  82 112 144 185 230 277 334
#
# _framework density 19.70889
#
# number of rings (size 3 to 8) (size 9 to 14) (size 15 to 20)
#    0.000    1.875    2.500    1.500    0.000    6.000 
#    0.000    3.125    0.000    0.750    0.000    0.000 
#    0.000    0.000    0.000    0.000    0.000    0.000 
#
# Total GULP energy -178785.367807 kJ/mol
# GULP energy per Si atom -5587.042744 kJ/mol
# Density = 1.966403 g / cm^3
# Si number density = 19.708890 Si / 1000 Ang^3
#
#
#
# Elastic Constant Matrix: (Units=GPa)
#
#
# Indices 1 2 3 4 5 6 
#
# 1 185.4414 10.2576 72.2562 0.0000 23.9310 0.0000
# 2 10.2576 4.7238 5.8264 0.0000 4.8427 0.0000
# 3 72.2562 5.8264 133.6690 0.0000 30.4025 0.0000
# 4 0.0000 0.0000 0.0000 16.1541 0.0000 -0.1148
# 5 23.9310 4.8427 30.4025 0.0000 7.9223 0.0000
# 6 0.0000 0.0000 0.0000 -0.1148 0.0000 25.0267
#
#
#
# Elastic Compliance Matrix: (Units=1/GPa)
#
#
# Indices 1 2 3 4 5 6 
#
# 1 0.007292 -0.017798 -0.004959 0.000000 0.007882 0.000000
# 2 -0.017798 -0.084557 -0.083975 0.000000 0.427714 0.000000
# 3 -0.004959 -0.083975 -0.009910 0.000000 0.104340 0.000000
# 4 0.000000 0.000000 0.000000 0.061906 0.000000 0.000284
# 5 0.007882 0.427714 0.104340 0.000000 -0.559449 0.000000
# 6 0.000000 0.000000 0.000000 0.000284 0.000000 0.039959
#
#
# Mechanical properties :
#
#
# Convention : Reuss Voigt Hill
#
# Bulk Modulus (GPa) = -3.32625 55.61273 26.14324
# Shear Modulus (GPa) = -11.58728 25.52021 6.96647
#
# Velocity S-wave (km/s) = -2.42734 3.60232 1.88211
# Velocity P-wave (km/s) = 3.08987 6.75134 4.24460
#
# Compressibility (1/GPa) = -0.30063899
#
# Stress axis : x y z
#
# Youngs Moduli (GPa) = 137.13630 -11.82635 -100.91055
#
# Poissons Ratio (x) = -0.21049 -0.50038
# Poissons Ratio (y) = 2.44082 -8.47396
# Poissons Ratio (z) = 0.68001 -0.99312
#
# Static dielectric constant tensor:
#      x y z
#    x 1.692240 0.000000 -0.000300 
#    y 0.000000 1.689960 0.000000 
#    z -0.000300 0.000000 1.664760 
# 
# From -- ./inp_files/359783.got.cif
#   From: 2010.05.17/outbox.cif.g08.bks.cpg/sg12_180_cif.got.tgz:359783.got - 2010.06.03 13:09:07.
