data_PCOD9185627
_publ_section_title
;
Structure prediction by ZEFSAII (Michael W. Deem and Ramdas Pophale) SiO2 
 PCOD9185627
Probable space group: C 2/M
;
_chemical_formula_sum "Si O2"
_cell_formula_units_Z 44
_cell_length_a 8.548540
_cell_length_b 18.084174
_cell_length_c 14.794552
_cell_angle_alpha 90.000000
_cell_angle_beta 51.375100
_cell_angle_gamma 90.000000
_cell_volume 1786.825195
_symmetry_space_group_name_H-M "C 2/M"
_symmetry_group_IT_number 12
_symmetry_cell_setting 'monoclinic'
loop_
_space_group_symop_operation_xyz
x,y,z
-x,y,-z
-x,-y,-z
x,-y,z
1/2+x,1/2+y,z
1/2-x,1/2+y,-z
1/2-x,1/2-y,-z
1/2+x,1/2-y,z
loop_
_atom_site_type_symbol
_atom_site_label
_atom_site_fract_x
_atom_site_fract_y
_atom_site_fract_z
Si Si1 0.790266 0.647450 0.739546
Si Si2 0.738885 0.917401 0.427771
Si Si3 0.118734 0.194518 0.105589
Si Si4 0.618549 0.919301 0.752517
Si Si5 0.500000 0.097611 0.000000
Si Si6 0.542399 0.702396 0.341748
O O1 0.692976 0.592425 0.700864
O O2 0.595144 0.677735 0.862345
O O3 0.900083 0.715465 0.646670
O O4 0.946104 0.605332 0.745680
O O5 0.500000 0.914790 0.500000
O O6 0.844756 0.846296 0.436469
O O7 0.790474 0.000000 0.443239
O O8 0.052285 0.219668 0.230151
O O9 0.250000 0.250000 0.000000
O O10 0.279096 0.131759 0.066323
O O11 0.782438 0.854694 0.696032
O O12 0.699515 0.000000 0.696472
O O13 0.532384 0.927249 0.884561
#
# Coordination Sequence:
#
# PCOD9185627 Si02
#       6
#     8   8   8   8   4   8
#     4  11  22  38  61  88 114 149 197 245 289 340
#     4  10  22  42  64  85 114 153 194 240 301 361
#     4  10  19  34  57  84 116 154 197 239 284 340
#     4  11  22  37  56  83 119 153 192 240 291 344
#     4  10  21  34  52  78 114 160 197 232 283 344
#     4  10  21  37  60  86 116 154 191 236 294 349
#
# _framework density 24.624679
#
# number of rings (size 3 to 8) (size 9 to 14) (size 15 to 20)
#    0.000    1.636    0.000    6.818    0.000    2.909 
#    0.000    5.455    0.000    3.273    0.000    0.000 
#    0.000    0.000    0.000    0.000    0.000    0.000 
#
# Total GULP energy -122577.727980 kJ/mol
# GULP energy per Si atom -5571.714908 kJ/mol
# Density = 2.456863 g / cm^3
# Si number density = 24.624679 Si / 1000 Ang^3
#
#
#
# Elastic Constant Matrix: (Units=GPa)
#
#
# Indices 1 2 3 4 5 6 
#
# 1 78.3084 19.0145 5.0304 0.0000 -13.3641 0.0000
# 2 19.0145 122.4977 16.2664 0.0000 -4.4327 0.0000
# 3 5.0304 16.2664 68.4559 0.0000 -15.9557 0.0000
# 4 0.0000 0.0000 0.0000 10.8017 0.0000 10.5776
# 5 -13.3641 -4.4327 -15.9557 0.0000 44.0626 0.0000
# 6 0.0000 0.0000 0.0000 10.5776 0.0000 -20.1539
#
#
#
# Elastic Compliance Matrix: (Units=1/GPa)
#
#
# Indices 1 2 3 4 5 6 
#
# 1 0.013960 -0.002074 0.000443 0.000000 0.004186 0.000000
# 2 -0.002074 0.008738 -0.002038 0.000000 -0.000488 0.000000
# 3 0.000443 -0.002038 0.016430 0.000000 0.005879 0.000000
# 4 0.000000 0.000000 0.000000 0.061150 0.000000 0.032094
# 5 0.004186 -0.000488 0.005879 0.000000 0.026044 0.000000
# 6 0.000000 0.000000 0.000000 0.032094 0.000000 -0.032774
#
#
# Mechanical properties :
#
#
# Convention : Reuss Voigt Hill
#
# Bulk Modulus (GPa) = 31.45725 38.87608 35.16667
# Shear Modulus (GPa) = 44.85000 22.20546 33.52773
#
# Velocity S-wave (km/s) = 4.27235 3.00618 3.69392
# Velocity P-wave (km/s) = 6.09424 5.27932 5.70136
#
# Compressibility (1/GPa) = 0.03178917
#
# Stress axis : x y z
#
# Youngs Moduli (GPa) = 71.63570 114.43870 60.86495
#
# Poissons Ratio (x) = 0.23736 -0.02694
# Poissons Ratio (y) = 0.14858 0.12402
# Poissons Ratio (z) = -0.03171 0.23319
#
# Static dielectric constant tensor:
#      x y z
#    x 1.936450 0.000000 0.016160 
#    y 0.000000 2.043470 0.000000 
#    z 0.016160 0.000000 1.998980 
# 
# From -- ./inp_files/256865.got.cif
#   From: 2010.05.17/outbox.cif.g08.bks.cpg/sg12_129_cif.got.tgz:256865.got - 2010.06.03 13:09:07.
