data_PCOD9185852
_publ_section_title
;
Structure prediction by ZEFSAII (Michael W. Deem and Ramdas Pophale) SiO2 
 PCOD9185852
Probable space group: C 2/M
;
_chemical_formula_sum "Si O2"
_cell_formula_units_Z 52
_cell_length_a 21.386642
_cell_length_b 26.813009
_cell_length_c 6.428302
_cell_angle_alpha 90.000000
_cell_angle_beta 133.402854
_cell_angle_gamma 90.000000
_cell_volume 2678.207494
_symmetry_space_group_name_H-M "C 2/M"
_symmetry_group_IT_number 12
_symmetry_cell_setting 'monoclinic'
loop_
_space_group_symop_operation_xyz
x,y,z
-x,y,-z
-x,-y,-z
x,-y,z
1/2+x,1/2+y,z
1/2-x,1/2+y,-z
1/2-x,1/2-y,-z
1/2+x,1/2-y,z
loop_
_atom_site_type_symbol
_atom_site_label
_atom_site_fract_x
_atom_site_fract_y
_atom_site_fract_z
Si Si1 0.741202 0.304377 0.382312
Si Si2 0.587645 0.859080 0.325142
Si Si3 0.864161 0.443365 0.889443
Si Si4 0.416845 0.555334 0.956191
Si Si5 0.000000 0.593140 0.500000
Si Si6 0.204275 0.890294 0.626891
Si Si7 0.404397 0.648878 0.232584
O O1 0.750000 0.250000 0.500000
O O2 0.833533 0.320511 0.499378
O O3 0.723291 0.342212 0.530502
O O4 0.662276 0.314586 0.040898
O O5 0.622512 0.908085 0.280903
O O6 0.560887 0.872462 0.497196
O O7 0.500000 0.843528 0.000000
O O8 0.843284 0.500000 0.787598
O O9 0.793570 0.417504 0.877832
O O10 0.950722 0.439964 0.219936
O O11 0.406735 0.500000 0.025711
O O12 0.340912 0.569591 0.626366
O O13 0.500000 0.555604 0.000000
O O14 0.421371 0.600009 0.129806
O O15 0.144734 0.872394 0.677959
O O16 0.500000 0.670124 0.500000
#
# Coordination Sequence:
#
# PCOD9185852 Si02
#       7
#     8   8   8   8   4   8   8
#     4  10  23  43  66  87 117 155 202 255 314 375
#     4   9  20  39  59  86 117 152 190 246 301 353
#     4  10  20  33  54  83 118 159 197 236 287 350
#     4  10  20  34  55  85 123 166 204 238 285 348
#     4  10  19  34  58  84 116 148 194 240 295 350
#     4  10  21  39  59  83 124 157 200 251 305 352
#     4  11  22  39  62  90 124 164 203 256 308 360
#
# _framework density 19.415972
#
# number of rings (size 3 to 8) (size 9 to 14) (size 15 to 20)
#    0.000    2.000    1.538    1.615    0.000    5.538 
#    2.769    0.000    6.769    0.000    0.000    0.000 
#    0.000    0.000    0.000    0.000    0.000    0.000 
#
# Total GULP energy -144985.397582 kJ/mol
# GULP energy per Si atom -5576.361445 kJ/mol
# Density = 1.937178 g / cm^3
# Si number density = 19.415972 Si / 1000 Ang^3
#
#
#
# Elastic Constant Matrix: (Units=GPa)
#
#
# Indices 1 2 3 4 5 6 
#
# 1 127.5048 39.2624 29.5569 0.0000 6.6679 0.0000
# 2 39.2624 92.9118 44.1165 0.0000 19.2327 0.0000
# 3 29.5569 44.1165 81.2826 0.0000 20.0650 0.0000
# 4 0.0000 0.0000 0.0000 -9.1057 0.0000 18.1687
# 5 6.6679 19.2327 20.0650 0.0000 34.5956 0.0000
# 6 0.0000 0.0000 0.0000 18.1687 0.0000 0.4068
#
#
#
# Elastic Compliance Matrix: (Units=1/GPa)
#
#
# Indices 1 2 3 4 5 6 
#
# 1 0.009214 -0.003236 -0.001867 0.000000 0.001106 0.000000
# 2 -0.003236 0.016147 -0.006448 0.000000 -0.004613 0.000000
# 3 -0.001867 -0.006448 0.018099 0.000000 -0.006553 0.000000
# 4 0.000000 0.000000 0.000000 -0.001219 0.000000 0.054429
# 5 0.001106 -0.004613 -0.006553 0.000000 0.035057 0.000000
# 6 0.000000 0.000000 0.000000 0.054429 0.000000 0.027279
#
#
# Mechanical properties :
#
#
# Convention : Reuss Voigt Hill
#
# Bulk Modulus (GPa) = 49.12306 58.61898 53.87102
# Shear Modulus (GPa) = 37.18386 17.76357 27.47371
#
# Velocity S-wave (km/s) = 4.38095 3.02800 3.76574
# Velocity P-wave (km/s) = 7.13762 6.51780 6.83474
#
# Compressibility (1/GPa) = 0.02035704
#
# Stress axis : x y z
#
# Youngs Moduli (GPa) = 108.52653 61.93047 55.25111
#
# Poissons Ratio (x) = 0.20041 0.10317
# Poissons Ratio (y) = 0.35121 0.35628
# Poissons Ratio (z) = 0.20265 0.39936
#
# Static dielectric constant tensor:
#      x y z
#    x 2.157200 0.000000 0.915050 
#    y 0.000000 1.665170 0.000000 
#    z 0.915050 0.000000 3.342110 
# 
# From -- ./inp_files/21827.got.cif
#   From: 2010.05.17/outbox.cif.g08.bks.cpg/sg12_11_cif.got.tgz:21827.got - 2010.06.03 13:09:07.
