data_PCOD9185043
_publ_section_title
;
Structure prediction by ZEFSAII (Michael W. Deem and Ramdas Pophale) SiO2 
 PCOD9185043
Probable space group: C 2/M
;
_chemical_formula_sum "Si O2"
_cell_formula_units_Z 48
_cell_length_a 10.147527
_cell_length_b 18.488187
_cell_length_c 13.392785
_cell_angle_alpha 90.000000
_cell_angle_beta 76.655356
_cell_angle_gamma 90.000000
_cell_volume 2444.769829
_symmetry_space_group_name_H-M "C 2/M"
_symmetry_group_IT_number 12
_symmetry_cell_setting 'monoclinic'
loop_
_space_group_symop_operation_xyz
x,y,z
-x,y,-z
-x,-y,-z
x,-y,z
1/2+x,1/2+y,z
1/2-x,1/2+y,-z
1/2-x,1/2-y,-z
1/2+x,1/2-y,z
loop_
_atom_site_type_symbol
_atom_site_label
_atom_site_fract_x
_atom_site_fract_y
_atom_site_fract_z
Si Si1 0.889627 0.715060 0.441479
Si Si2 0.409938 0.785224 0.204962
Si Si3 0.350104 0.309571 0.853357
Si Si4 0.222886 0.915593 0.490057
Si Si5 0.028754 0.085566 0.332970
Si Si6 0.364804 0.916615 0.088957
O O1 0.750000 0.750000 0.500000
O O2 0.922541 0.727704 0.320327
O O3 0.857404 0.630641 0.462148
O O4 0.000000 0.741208 0.500000
O O5 0.533247 0.743787 0.128953
O O6 0.262634 0.762990 0.187735
O O7 0.404954 0.871060 0.180976
O O8 0.425145 0.365058 0.765671
O O9 0.254484 0.364337 0.934101
O O10 0.136842 0.904238 0.403452
O O11 0.118642 0.895240 0.597064
O O12 0.249699 0.000000 0.494424
O O13 0.027853 0.000000 0.308938
O O14 0.322761 0.000000 0.112930
O O15 0.500000 0.917069 0.000000
#
# Coordination Sequence:
#
# PCOD9185043 Si02
#       6
#     8   8   8   8   8   8
#     4  12  24  34  52  76 116 155 191 231 275 334
#     4  10  22  35  55  85 117 150 191 237 286 333
#     4  10  19  34  55  82 117 143 183 233 287 340
#     4   9  18  32  48  72 102 140 195 238 271 315
#     4   9  16  29  53  75 101 145 190 233 272 327
#     4   9  20  39  65  89 110 145 192 239 291 354
#
# _framework density 19.633749000000002
#
# number of rings (size 3 to 8) (size 9 to 14) (size 15 to 20)
#    1.000    1.167    1.667    3.500    2.333    1.667 
#    0.000    0.000    0.000    2.000    0.000    2.333 
#    0.000    0.000    0.000    0.000    0.000    0.000 
#
# Total GULP energy -133674.966177 kJ/mol
# GULP energy per Si atom -5569.790257 kJ/mol
# Density = 1.958906 g / cm^3
# Si number density = 19.633749 Si / 1000 Ang^3
#
#
#
# Elastic Constant Matrix: (Units=GPa)
#
#
# Indices 1 2 3 4 5 6 
#
# 1 73.4670 32.9338 0.0406 0.0000 -5.9105 0.0000
# 2 32.9338 76.1526 3.3025 0.0000 -6.8778 0.0000
# 3 0.0406 3.3025 23.5772 0.0000 -8.0879 0.0000
# 4 0.0000 0.0000 0.0000 18.8483 0.0000 -14.5737
# 5 -5.9105 -6.8778 -8.0879 0.0000 22.8444 0.0000
# 6 0.0000 0.0000 0.0000 -14.5737 0.0000 38.9315
#
#
#
# Elastic Compliance Matrix: (Units=1/GPa)
#
#
# Indices 1 2 3 4 5 6 
#
# 1 0.017078 -0.007205 0.001994 0.000000 0.002955 0.000000
# 2 -0.007205 0.016545 -0.001407 0.000000 0.002619 0.000000
# 3 0.001994 -0.001407 0.048534 0.000000 0.017275 0.000000
# 4 0.000000 0.000000 0.000000 0.074667 0.000000 0.027951
# 5 0.002955 0.002619 0.017275 0.000000 0.051444 0.000000
# 6 0.000000 0.000000 0.000000 0.027951 0.000000 0.036149
#
#
# Mechanical properties :
#
#
# Convention : Reuss Voigt Hill
#
# Bulk Modulus (GPa) = 14.50957 27.30562 20.90760
# Shear Modulus (GPa) = 17.81722 25.25284 21.53503
#
# Velocity S-wave (km/s) = 3.01571 3.59025 3.31545
# Velocity P-wave (km/s) = 4.41952 5.57891 5.03271
#
# Compressibility (1/GPa) = 0.06892001
#
# Stress axis : x y z
#
# Youngs Moduli (GPa) = 58.55412 60.44054 20.60429
#
# Poissons Ratio (x) = 0.43550 -0.04108
# Poissons Ratio (y) = 0.42191 0.02898
# Poissons Ratio (z) = -0.11673 0.08502
#
# Static dielectric constant tensor:
#      x y z
#    x 1.701750 0.000000 -0.025900 
#    y 0.000000 1.761040 0.000000 
#    z -0.025900 0.000000 1.701930 
# 
# From -- ./inp_files/132491.got.cif
#   From: 2010.05.17/outbox.cif.g08.bks.cpg/sg12_67_cif.got.tgz:132491.got - 2010.06.03 13:09:07.
