data_PCOD9185254
_publ_section_title
;
Structure prediction by ZEFSAII (Michael W. Deem and Ramdas Pophale) SiO2 
 PCOD9185254
Probable space group: C 2/M
;
_chemical_formula_sum "Si O2"
_cell_formula_units_Z 40
_cell_length_a 21.656718
_cell_length_b 23.240405
_cell_length_c 8.891678
_cell_angle_alpha 90.000000
_cell_angle_beta 28.811745
_cell_angle_gamma 90.000000
_cell_volume 2156.785691
_symmetry_space_group_name_H-M "C 2/M"
_symmetry_group_IT_number 12
_symmetry_cell_setting 'monoclinic'
loop_
_space_group_symop_operation_xyz
x,y,z
-x,y,-z
-x,-y,-z
x,-y,z
1/2+x,1/2+y,z
1/2-x,1/2+y,-z
1/2-x,1/2-y,-z
1/2+x,1/2-y,z
loop_
_atom_site_type_symbol
_atom_site_label
_atom_site_fract_x
_atom_site_fract_y
_atom_site_fract_z
Si Si1 0.749083 0.244811 0.242541
Si Si2 0.356979 0.437822 0.372270
Si Si3 0.144933 0.663781 0.223917
Si Si4 0.645091 0.677370 0.731734
Si Si5 0.860828 0.068008 0.724120
O O1 0.653332 0.204371 0.353323
O O2 0.689737 0.278493 0.509043
O O3 0.845124 0.201427 0.121715
O O4 0.810843 0.292094 0.002016
O O5 0.293088 0.500000 0.486844
O O6 0.289035 0.384357 0.435804
O O7 0.368363 0.426762 0.526502
O O8 0.500000 0.443119 0.000000
O O9 0.000000 0.644273 0.500000
O O10 0.248338 0.611962 0.013451
O O11 0.500000 0.667662 0.000000
O O12 0.000000 0.082056 0.500000
O O13 0.834994 0.000000 0.813614
#
# Coordination Sequence:
#
# PCOD9185254 Si02
#       5
#     8   8   8   8   8
#     4  10  22  36  54  80 116 154 197 230 283 348
#     4   9  18  33  56  84 111 140 185 241 292 333
#     4  11  23  38  57  84 118 158 192 237 287 347
#     4  10  19  34  56  82 109 148 188 241 289 333
#     4  10  22  39  61  87 114 149 197 245 289 343
#
# _framework density 18.546116999999999
#
# number of rings (size 3 to 8) (size 9 to 14) (size 15 to 20)
#    0.000    2.000    2.000    1.200    5.600    3.600 
#    0.000    0.000    0.000    0.000    0.000    2.800 
#    0.000    0.000    0.000    0.000    0.000    0.000 
#
# Total GULP energy -111336.430669 kJ/mol
# GULP energy per Si atom -5566.821533 kJ/mol
# Density = 1.850390 g / cm^3
# Si number density = 18.546117 Si / 1000 Ang^3
#
#
#
# Elastic Constant Matrix: (Units=GPa)
#
#
# Indices 1 2 3 4 5 6 
#
# 1 63.0612 49.3734 16.9546 0.0000 -10.7384 0.0001
# 2 49.3734 132.3241 37.1596 0.0000 -14.3737 0.0000
# 3 16.9546 37.1596 47.4730 -0.0004 -14.8358 0.0001
# 4 0.0000 0.0000 -0.0004 18.0281 0.0001 -8.9463
# 5 -10.7384 -14.3737 -14.8358 0.0001 30.3199 -0.0001
# 6 0.0001 0.0000 0.0001 -8.9463 -0.0001 21.3749
#
#
#
# Elastic Compliance Matrix: (Units=1/GPa)
#
#
# Indices 1 2 3 4 5 6 
#
# 1 0.022936 -0.007914 -0.000745 0.000000 0.004007 0.000000
# 2 -0.007914 0.012445 -0.007021 0.000000 -0.000338 0.000000
# 3 -0.000745 -0.007021 0.030343 0.000001 0.011255 0.000000
# 4 0.000000 0.000000 0.000001 0.070010 0.000000 0.029302
# 5 0.004007 -0.000338 0.011255 0.000000 0.039748 0.000000
# 6 0.000000 0.000000 0.000000 0.029302 0.000000 0.059048
#
#
# Mechanical properties :
#
#
# Convention : Reuss Voigt Hill
#
# Bulk Modulus (GPa) = 29.09825 49.98152 39.53989
# Shear Modulus (GPa) = 18.02822 23.23596 20.63209
#
# Velocity S-wave (km/s) = 3.12119 3.54344 3.33900
# Velocity P-wave (km/s) = 5.35844 6.61435 6.01924
#
# Compressibility (1/GPa) = 0.03436633
#
# Stress axis : x y z
#
# Youngs Moduli (GPa) = 43.59924 80.35497 32.95610
#
# Poissons Ratio (x) = 0.63590 0.02454
# Poissons Ratio (y) = 0.34503 0.23137
# Poissons Ratio (z) = 0.03247 0.56414
#
# Static dielectric constant tensor:
#      x y z
#    x 1.645090 0.000000 -0.004340 
#    y 0.000000 1.810700 0.000000 
#    z -0.004340 0.000000 1.639680 
# 
# From -- ./inp_files/39310.got.cif
#   From: 2010.05.17/outbox.cif.g08.bks.cpg/sg12_20_cif.got.tgz:39310.got - 2010.06.03 13:09:07.
