data_PCOD9185106
_publ_section_title
;
Structure prediction by ZEFSAII (Michael W. Deem and Ramdas Pophale) SiO2 
 PCOD9185106
Probable space group: C 2/M
;
_chemical_formula_sum "Si O2"
_cell_formula_units_Z 48
_cell_length_a 19.983463
_cell_length_b 8.492129
_cell_length_c 16.078338
_cell_angle_alpha 90.000000
_cell_angle_beta 77.884580
_cell_angle_gamma 90.000000
_cell_volume 2667.755361
_symmetry_space_group_name_H-M "C 2/M"
_symmetry_group_IT_number 12
_symmetry_cell_setting 'monoclinic'
loop_
_space_group_symop_operation_xyz
x,y,z
-x,y,-z
-x,-y,-z
x,-y,z
1/2+x,1/2+y,z
1/2-x,1/2+y,-z
1/2-x,1/2-y,-z
1/2+x,1/2-y,z
loop_
_atom_site_type_symbol
_atom_site_label
_atom_site_fract_x
_atom_site_fract_y
_atom_site_fract_z
Si Si1 0.666799 0.688884 0.867624
Si Si2 0.937807 0.190207 0.780223
Si Si3 0.223925 0.188829 0.594636
Si Si4 0.704104 0.310837 0.259159
Si Si5 0.589219 0.691220 0.718694
Si Si6 0.930948 0.311463 0.969467
O O1 0.668894 0.500000 0.870788
O O2 0.741256 0.752514 0.823628
O O3 0.617688 0.735285 0.802637
O O4 0.633566 0.755932 0.959469
O O5 0.871879 0.243172 0.745599
O O6 0.930537 0.241576 0.877576
O O7 0.011715 0.247178 0.728362
O O8 0.938471 0.000000 0.777650
O O9 0.250000 0.250000 0.500000
O O10 0.270730 0.246146 0.658863
O O11 0.146597 0.242924 0.637901
O O12 0.224128 0.000000 0.594119
O O13 0.705699 0.500000 0.261215
O O14 0.588236 0.500000 0.716891
O O15 0.931544 0.500000 0.964355
O O16 0.000000 0.259745 0.000000
#
# Coordination Sequence:
#
# PCOD9185106 Si02
#       6
#     8   8   8   8   8   8
#     4  10  19  34  56  76 104 148 190 226 264 320
#     4  10  20  36  56  78 107 146 184 223 271 324
#     4  10  20  37  61  85 108 139 178 220 267 328
#     4  10  21  36  56  82 112 140 175 226 278 324
#     4   8  16  32  55  79 101 135 183 220 259 317
#     4  11  22  33  50  80 112 142 184 235 276 312
#
# _framework density 17.992653000000001
#
# number of rings (size 3 to 8) (size 9 to 14) (size 15 to 20)
#    0.000    2.167    1.667    3.000    0.000    2.667 
#    0.000    1.667    0.000    5.000    0.000    0.000 
#    0.000    0.000    0.000    0.000    0.000    0.000 
#
# Total GULP energy -133939.973230 kJ/mol
# GULP energy per Si atom -5580.832218 kJ/mol
# Density = 1.795170 g / cm^3
# Si number density = 17.992653 Si / 1000 Ang^3
#
#
#
# Elastic Constant Matrix: (Units=GPa)
#
#
# Indices 1 2 3 4 5 6 
#
# 1 173.8168 26.8561 81.3539 0.0000 -19.9243 0.0000
# 2 26.8561 19.2848 8.7523 0.0000 0.3135 0.0000
# 3 81.3539 8.7523 130.5995 0.0000 -21.1342 0.0000
# 4 0.0000 0.0000 0.0000 29.4448 0.0000 -0.5312
# 5 -19.9243 0.3135 -21.1342 0.0000 19.5731 0.0000
# 6 0.0000 0.0000 0.0000 -0.5312 0.0000 20.6235
#
#
#
# Elastic Compliance Matrix: (Units=1/GPa)
#
#
# Indices 1 2 3 4 5 6 
#
# 1 0.010654 -0.012734 -0.004841 0.000000 0.005822 0.000000
# 2 -0.012734 0.069237 0.001230 0.000000 -0.012743 0.000000
# 3 -0.004841 0.001230 0.011862 0.000000 0.007861 0.000000
# 4 0.000000 0.000000 0.000000 0.033978 0.000000 0.000875
# 5 0.005822 -0.012743 0.007861 0.000000 0.065708 0.000000
# 6 0.000000 0.000000 0.000000 0.000875 0.000000 0.048511
#
#
# Mechanical properties :
#
#
# Convention : Reuss Voigt Hill
#
# Bulk Modulus (GPa) = 16.93110 61.95840 39.44475
# Shear Modulus (GPa) = 17.10413 27.71088 22.40750
#
# Velocity S-wave (km/s) = 3.08655 3.92870 3.53281
# Velocity P-wave (km/s) = 4.70456 7.42224 6.21380
#
# Compressibility (1/GPa) = 0.05906290
#
# Stress axis : x y z
#
# Youngs Moduli (GPa) = 93.86234 14.44323 84.30120
#
# Poissons Ratio (x) = 0.18392 0.40811
# Poissons Ratio (y) = 1.19526 -0.10372
# Poissons Ratio (z) = 0.45440 -0.01777
#
# Static dielectric constant tensor:
#      x y z
#    x 1.638220 0.000000 -0.017760 
#    y 0.000000 1.614880 0.000000 
#    z -0.017760 0.000000 1.578830 
# 
# From -- ./inp_files/229950.got.cif
#   From: 2010.05.17/outbox.cif.g08.bks.cpg/sg12_115_cif.got.tgz:229950.got - 2010.06.03 13:09:07.
