data_PCOD9185527
_publ_section_title
;
Structure prediction by ZEFSAII (Michael W. Deem and Ramdas Pophale) SiO2 
 PCOD9185527
Probable space group: C 2/M
;
_chemical_formula_sum "Si O2"
_cell_formula_units_Z 64
_cell_length_a 15.833492
_cell_length_b 7.531295
_cell_length_c 24.817722
_cell_angle_alpha 90.000000
_cell_angle_beta 87.875370
_cell_angle_gamma 90.000000
_cell_volume 2957.396965
_symmetry_space_group_name_H-M "C 2/M"
_symmetry_group_IT_number 12
_symmetry_cell_setting 'monoclinic'
loop_
_space_group_symop_operation_xyz
x,y,z
-x,y,-z
-x,-y,-z
x,-y,z
1/2+x,1/2+y,z
1/2-x,1/2+y,-z
1/2-x,1/2-y,-z
1/2+x,1/2-y,z
loop_
_atom_site_type_symbol
_atom_site_label
_atom_site_fract_x
_atom_site_fract_y
_atom_site_fract_z
Si Si1 0.472479 0.785565 0.941065
Si Si2 0.781453 0.286842 0.938685
Si Si3 0.633705 0.288910 0.864377
Si Si4 0.957990 0.781763 0.674746
Si Si5 0.109368 0.791631 0.745355
Si Si6 0.772280 0.785944 0.671039
Si Si7 0.292407 0.211319 0.441871
Si Si8 0.015892 0.202260 0.558009
O O1 0.377792 0.721520 0.929736
O O2 0.545765 0.735768 0.897847
O O3 0.469402 0.000000 0.942841
O O4 0.500000 0.723649 0.000000
O O5 0.784282 0.500000 0.932905
O O6 0.711672 0.217179 0.898220
O O7 0.750000 0.250000 0.000000
O O8 0.648789 0.500000 0.859434
O O9 0.625764 0.215067 0.804201
O O10 0.862953 0.728778 0.691263
O O11 0.029921 0.718044 0.713824
O O12 0.977185 0.720237 0.613303
O O13 0.962167 0.000000 0.673335
O O14 0.192695 0.776696 0.707048
O O15 0.090513 0.000000 0.753468
O O16 0.761666 0.732251 0.608759
O O17 0.771018 0.000000 0.672263
O O18 0.250000 0.250000 0.500000
O O19 0.383828 0.299482 0.436381
O O20 0.305144 0.000000 0.437675
O O21 0.000000 0.287148 0.500000
O O22 0.981611 0.000000 0.555122
#
# Coordination Sequence:
#
# PCOD9185527 Si02
#       8
#     8   8   8   8   8   8   8   8
#     4  10  20  35  56  82 112 147 186 225 273 333
#     4  10  20  35  55  81 114 149 184 228 280 330
#     4  10  22  37  56  84 115 147 187 233 277 328
#     4   9  18  35  58  79 108 148 185 224 278 338
#     4  10  21  39  59  81 112 150 190 230 277 335
#     4  10  21  38  59  83 110 147 191 234 276 331
#     4  11  22  35  54  82 116 146 186 237 287 341
#     4  10  19  34  57  82 110 147 188 230 285 344
#
# _framework density 21.640654000000001
#
# number of rings (size 3 to 8) (size 9 to 14) (size 15 to 20)
#    0.000    2.000    2.500    1.125    0.000    5.000 
#    0.000    1.250    0.000    0.000    0.000    0.000 
#    0.000    0.000    0.000    0.000    0.000    0.000 
#
# Total GULP energy -178762.860077 kJ/mol
# GULP energy per Si atom -5586.339377 kJ/mol
# Density = 2.159140 g / cm^3
# Si number density = 21.640654 Si / 1000 Ang^3
#
#
#
# Elastic Constant Matrix: (Units=GPa)
#
#
# Indices 1 2 3 4 5 6 
#
# 1 162.9816 -2.6996 77.4254 0.0000 32.3308 0.0000
# 2 -2.6996 57.4120 4.3615 0.0000 9.2863 0.0000
# 3 77.4254 4.3615 170.1606 0.0000 27.5707 0.0000
# 4 0.0000 0.0000 0.0000 211.9411 0.0000 -109.4330
# 5 32.3308 9.2863 27.5707 0.0000 31.6153 0.0000
# 6 0.0000 0.0000 0.0000 -109.4330 0.0000 72.1128
#
#
#
# Elastic Compliance Matrix: (Units=1/GPa)
#
#
# Indices 1 2 3 4 5 6 
#
# 1 0.008998 0.001803 -0.002985 0.000000 -0.007127 0.000000
# 2 0.001803 0.018680 -0.000130 0.000000 -0.007217 0.000000
# 3 -0.002985 -0.000130 0.007846 0.000000 -0.003751 0.000000
# 4 0.000000 0.000000 0.000000 0.021799 0.000000 0.033080
# 5 -0.007127 -0.007217 -0.003751 0.000000 0.044310 0.000000
# 6 0.000000 0.000000 0.000000 0.033080 0.000000 0.064067
#
#
# Mechanical properties :
#
#
# Convention : Reuss Voigt Hill
#
# Bulk Modulus (GPa) = 30.39597 60.96989 45.68293
# Shear Modulus (GPa) = 27.88754 83.89831 55.89293
#
# Velocity S-wave (km/s) = 3.59369 6.23322 5.08761
# Velocity P-wave (km/s) = 5.59426 8.94645 7.46106
#
# Compressibility (1/GPa) = 0.03289910
#
# Stress axis : x y z
#
# Youngs Moduli (GPa) = 111.14077 53.53337 127.44726
#
# Poissons Ratio (x) = -0.09650 0.38049
# Poissons Ratio (y) = -0.20035 0.01653
# Poissons Ratio (z) = 0.33180 0.00694
#
# Static dielectric constant tensor:
#      x y z
#    x 1.762180 0.000000 0.035150 
#    y 0.000000 1.853100 0.000000 
#    z 0.035150 0.000000 1.768610 
# 
# From -- ./inp_files/338913.got.cif
#   From: 2010.05.17/outbox.cif.g08.bks.cpg/sg12_170_cif.got.tgz:338913.got - 2010.06.03 13:09:07.
