data_PCOD9185764
_publ_section_title
;
Structure prediction by ZEFSAII (Michael W. Deem and Ramdas Pophale) SiO2 
 PCOD9185764
Probable space group: C 2/M
;
_chemical_formula_sum "Si O2"
_cell_formula_units_Z 58
_cell_length_a 12.335102
_cell_length_b 12.933570
_cell_length_c 17.022092
_cell_angle_alpha 90.000000
_cell_angle_beta 103.411087
_cell_angle_gamma 90.000000
_cell_volume 2641.598809
_symmetry_space_group_name_H-M "C 2/M"
_symmetry_group_IT_number 12
_symmetry_cell_setting 'monoclinic'
loop_
_space_group_symop_operation_xyz
x,y,z
-x,y,-z
-x,-y,-z
x,-y,z
1/2+x,1/2+y,z
1/2-x,1/2+y,-z
1/2-x,1/2-y,-z
1/2+x,1/2-y,z
loop_
_atom_site_type_symbol
_atom_site_label
_atom_site_fract_x
_atom_site_fract_y
_atom_site_fract_z
Si Si1 0.740257 0.613431 0.661834
Si Si2 0.354212 0.112248 0.240712
Si Si3 0.737996 0.883371 0.080226
Si Si4 0.930769 0.839065 0.237282
Si Si5 0.668990 0.341232 0.079014
Si Si6 0.167988 0.826433 0.315801
Si Si7 0.500000 0.500000 0.000000
Si Si8 0.614468 0.377586 0.482701
O O1 0.789722 0.500000 0.679719
O O2 0.626424 0.618240 0.693135
O O3 0.813714 0.707127 0.704774
O O4 0.707023 0.631539 0.565939
O O5 0.428074 0.214260 0.244722
O O6 0.259821 0.124703 0.157864
O O7 0.282187 0.120144 0.308620
O O8 0.408481 0.000000 0.243490
O O9 0.846469 0.871347 0.154298
O O10 0.660009 0.783638 0.082645
O O11 0.692901 0.000000 0.083626
O O12 0.781139 0.871280 0.998300
O O13 0.058763 0.870929 0.255289
O O14 0.558422 0.408566 0.064010
O O15 0.146558 0.831582 0.404738
O O16 0.500000 0.334229 0.500000
O O17 0.597576 0.500000 0.466005
#
# Coordination Sequence:
#
# PCOD9185764 Si02
#       8
#     8   8   8   8   8   8   2   8
#     4  10  21  38  56  78 113 148 181 229 284 334
#     4  10  21  38  55  80 116 144 185 233 280 332
#     4  10  20  38  58  82 114 155 193 232 283 347
#     4  10  22  35  56  84 110 148 188 229 284 334
#     4  10  22  35  58  85 114 152 188 236 291 329
#     4  11  22  35  57  86 109 142 189 232 276 337
#     4  12  20  36  58  88 112 142 194 244 280 340
#     4  10  19  34  58  82 107 142 184 229 280 334
#
# _framework density 21.956399000000001
#
# number of rings (size 3 to 8) (size 9 to 14) (size 15 to 20)
#    0.000    1.793    2.759    1.241    1.931    2.207 
#    0.000    0.345    0.000    0.414    0.000    0.000 
#    0.000    0.000    0.000    0.000    0.000    0.000 
#
# Total GULP energy -161706.869761 kJ/mol
# GULP energy per Si atom -5576.098957 kJ/mol
# Density = 2.190643 g / cm^3
# Si number density = 21.956399 Si / 1000 Ang^3
#
#
#
# Elastic Constant Matrix: (Units=GPa)
#
#
# Indices 1 2 3 4 5 6 
#
# 1 33.6787 10.0029 -2.7773 0.0000 4.9907 0.0000
# 2 10.0029 175.9085 -0.2221 0.0000 6.6841 0.0000
# 3 -2.7773 -0.2221 64.3712 0.0000 -11.7788 0.0000
# 4 0.0000 0.0000 0.0000 -40.5854 0.0000 -9.1351
# 5 4.9907 6.6841 -11.7788 0.0000 18.6126 0.0000
# 6 0.0000 0.0000 0.0000 -9.1351 0.0000 -2.5559
#
#
#
# Elastic Compliance Matrix: (Units=1/GPa)
#
#
# Indices 1 2 3 4 5 6 
#
# 1 0.031298 -0.001479 -0.000105 0.000000 -0.007928 0.000000
# 2 -0.001479 0.005843 -0.000402 0.000000 -0.001956 0.000000
# 3 -0.000105 -0.000402 0.017598 0.000000 0.011309 0.000000
# 4 0.000000 0.000000 0.000000 -0.126016 0.000000 0.450394
# 5 -0.007928 -0.001956 0.011309 0.000000 0.063712 0.000000
# 6 0.000000 0.000000 0.000000 0.450394 0.000000 -2.001011
#
#
# Mechanical properties :
#
#
# Convention : Reuss Voigt Hill
#
# Bulk Modulus (GPa) = 19.69760 31.99617 25.84688
# Shear Modulus (GPa) = -2.51549 12.89126 5.18789
#
# Velocity S-wave (km/s) = -1.07152 2.42571 1.53881
# Velocity P-wave (km/s) = 2.73127 4.73810 3.86713
#
# Compressibility (1/GPa) = 0.05076761
#
# Stress axis : x y z
#
# Youngs Moduli (GPa) = 31.95131 171.15482 56.82342
#
# Poissons Ratio (x) = 0.25307 0.00599
# Poissons Ratio (y) = 0.04724 0.02282
# Poissons Ratio (z) = 0.00337 0.06872
#
# Static dielectric constant tensor:
#      x y z
#    x 1.813720 0.000000 -0.031270 
#    y 0.000000 1.841660 0.000000 
#    z -0.031270 0.000000 1.803260 
# 
# From -- ./inp_files/268787.got.cif
#   From: 2010.05.17/outbox.cif.g08.bks.cpg/sg12_135_cif.got.tgz:268787.got - 2010.06.03 13:09:07.
