data_PCOD9185787
_publ_section_title
;
Structure prediction by ZEFSAII (Michael W. Deem and Ramdas Pophale) SiO2 
 PCOD9185787
Probable space group: C 2/M
;
_chemical_formula_sum "Si O2"
_cell_formula_units_Z 56
_cell_length_a 16.242963
_cell_length_b 9.055661
_cell_length_c 23.375236
_cell_angle_alpha 90.000000
_cell_angle_beta 120.640781
_cell_angle_gamma 90.000000
_cell_volume 2958.226790
_symmetry_space_group_name_H-M "C 2/M"
_symmetry_group_IT_number 12
_symmetry_cell_setting 'monoclinic'
loop_
_space_group_symop_operation_xyz
x,y,z
-x,y,-z
-x,-y,-z
x,-y,z
1/2+x,1/2+y,z
1/2-x,1/2+y,-z
1/2-x,1/2-y,-z
1/2+x,1/2-y,z
loop_
_atom_site_type_symbol
_atom_site_label
_atom_site_fract_x
_atom_site_fract_y
_atom_site_fract_z
Si Si1 0.976715 0.671953 0.429920
Si Si2 0.184181 0.324913 0.712187
Si Si3 0.219683 0.177844 0.844215
Si Si4 0.175299 0.669332 0.432381
Si Si5 0.963891 0.821543 0.155766
Si Si6 0.058561 0.321963 0.077826
Si Si7 0.629793 0.326651 0.297993
O O1 0.947796 0.500000 0.430814
O O2 0.072911 0.673144 0.427412
O O3 0.000000 0.739732 0.500000
O O4 0.891976 0.734564 0.361086
O O5 0.165364 0.500000 0.714693
O O6 0.181674 0.242120 0.771099
O O7 0.288494 0.310098 0.721049
O O8 0.330322 0.224527 0.889549
O O9 0.145138 0.220897 0.867678
O O10 0.218188 0.000000 0.840966
O O11 0.205126 0.500000 0.436102
O O12 0.250000 0.750000 0.500000
O O13 0.161537 0.742463 0.365857
O O14 0.008362 0.749791 0.115067
O O15 0.030789 0.778750 0.233592
O O16 0.969682 0.000000 0.152568
O O17 0.057173 0.500000 0.084055
O O18 0.000000 0.284285 0.000000
O O19 0.622526 0.500000 0.309811
#
# Coordination Sequence:
#
# PCOD9185787 Si02
#       7
#     8   8   8   8   8   8   8
#     4   9  18  33  52  74 102 138 182 229 279 333
#     4  10  19  34  58  83 108 145 191 234 281 345
#     4  10  21  37  58  85 119 152 189 242 296 341
#     4  11  22  35  53  77 106 143 186 233 287 342
#     4  10  21  38  60  88 118 152 193 241 296 346
#     4  10  22  40  60  85 120 159 196 238 290 350
#     4  10  20  35  56  81 111 144 182 232 286 344
#
# _framework density 18.930257999999998
#
# number of rings (size 3 to 8) (size 9 to 14) (size 15 to 20)
#    0.000    2.000    1.429    2.143    0.000    4.857 
#    0.000    0.714    0.000    3.000    0.000    0.000 
#    0.000    0.000    0.000    0.000    0.000    0.000 
#
# Total GULP energy -156274.688022 kJ/mol
# GULP energy per Si atom -5581.238858 kJ/mol
# Density = 1.888717 g / cm^3
# Si number density = 18.930258 Si / 1000 Ang^3
#
#
#
# Elastic Constant Matrix: (Units=GPa)
#
#
# Indices 1 2 3 4 5 6 
#
# 1 116.0034 37.5609 73.4183 0.0000 7.3581 0.0000
# 2 37.5609 28.8301 33.9735 0.0000 -6.1379 0.0000
# 3 73.4183 33.9735 134.2891 0.0000 3.9552 0.0000
# 4 0.0000 0.0000 0.0000 28.9854 0.0000 -8.9011
# 5 7.3581 -6.1379 3.9552 0.0000 27.1241 0.0000
# 6 0.0000 0.0000 0.0000 -8.9011 0.0000 23.3006
#
#
#
# Elastic Compliance Matrix: (Units=1/GPa)
#
#
# Indices 1 2 3 4 5 6 
#
# 1 0.019131 -0.021228 -0.004815 0.000000 -0.009291 0.000000
# 2 -0.021228 0.078057 -0.008869 0.000000 0.024715 0.000000
# 3 -0.004815 -0.008869 0.012397 0.000000 -0.002509 0.000000
# 4 0.000000 0.000000 0.000000 0.039085 0.000000 0.014931
# 5 -0.009291 0.024715 -0.002509 0.000000 0.045347 0.000000
# 6 0.000000 0.000000 0.000000 0.014931 0.000000 0.048621
#
#
# Mechanical properties :
#
#
# Convention : Reuss Voigt Hill
#
# Bulk Modulus (GPa) = 25.15165 63.22533 44.18849
# Shear Modulus (GPa) = 15.35078 24.82666 20.08872
#
# Velocity S-wave (km/s) = 2.85074 3.62537 3.26113
# Velocity P-wave (km/s) = 4.91436 7.14115 6.12972
#
# Compressibility (1/GPa) = 0.03975883
#
# Stress axis : x y z
#
# Youngs Moduli (GPa) = 52.27190 12.81118 80.66617
#
# Poissons Ratio (x) = 0.27196 0.38840
# Poissons Ratio (y) = 1.10965 0.71546
# Poissons Ratio (z) = 0.25169 0.11363
#
# Static dielectric constant tensor:
#      x y z
#    x 1.658160 0.000000 0.024810 
#    y 0.000000 1.653890 0.000000 
#    z 0.024810 0.000000 1.649800 
# 
# From -- ./inp_files/338206.got.cif
#   From: 2010.05.17/outbox.cif.g08.bks.cpg/sg12_170_cif.got.tgz:338206.got - 2010.06.03 13:09:07.
