data_PCOD9185456
_publ_section_title
;
Structure prediction by ZEFSAII (Michael W. Deem and Ramdas Pophale) SiO2 
 PCOD9185456
Probable space group: C 2/M
;
_chemical_formula_sum "Si O2"
_cell_formula_units_Z 56
_cell_length_a 14.673896
_cell_length_b 8.433514
_cell_length_c 28.846386
_cell_angle_alpha 90.000000
_cell_angle_beta 56.611982
_cell_angle_gamma 90.000000
_cell_volume 2980.661307
_symmetry_space_group_name_H-M "C 2/M"
_symmetry_group_IT_number 12
_symmetry_cell_setting 'monoclinic'
loop_
_space_group_symop_operation_xyz
x,y,z
-x,y,-z
-x,-y,-z
x,-y,z
1/2+x,1/2+y,z
1/2-x,1/2+y,-z
1/2-x,1/2-y,-z
1/2+x,1/2-y,z
loop_
_atom_site_type_symbol
_atom_site_label
_atom_site_fract_x
_atom_site_fract_y
_atom_site_fract_z
Si Si1 0.002529 0.186152 0.428821
Si Si2 0.809338 0.690029 0.937600
Si Si3 0.741616 0.690300 0.148301
Si Si4 0.555180 0.193092 0.846988
Si Si5 0.002219 0.691566 0.238541
Si Si6 0.089375 0.309476 0.636970
Si Si7 0.171251 0.313748 0.454267
O O1 0.990964 0.239267 0.379298
O O2 0.888467 0.224095 0.486823
O O3 0.093404 0.281667 0.431873
O O4 0.025908 0.000000 0.426128
O O5 0.807707 0.500000 0.937148
O O6 0.753820 0.751987 0.906040
O O7 0.936660 0.741334 0.899787
O O8 0.750000 0.750000 0.000000
O O9 0.741540 0.500000 0.148576
O O10 0.843535 0.747929 0.150530
O O11 0.626604 0.750193 0.200698
O O12 0.556854 0.243216 0.792577
O O13 0.557465 0.000000 0.846811
O O14 0.003869 0.500000 0.237743
O O15 0.944485 0.742723 0.301984
O O16 0.086360 0.500000 0.635599
O O17 0.209904 0.250847 0.590444
O O18 0.325020 0.000000 0.536187
#
# Coordination Sequence:
#
# PCOD9185456 Si02
#       7
#     8   8   8   8   8   8   8
#     4  11  22  38  58  81 110 145 184 226 278 338
#     4  10  20  36  55  79 112 144 179 221 267 317
#     4  10  19  34  57  81 106 141 183 221 264 318
#     4   8  17  35  56  76 104 144 179 212 262 320
#     4   9  20  38  56  77 108 143 179 222 269 316
#     4  11  22  37  57  82 112 147 185 227 278 332
#     4  11  22  38  58  82 111 142 181 229 280 335
#
# _framework density 18.787776999999998
#
# number of rings (size 3 to 8) (size 9 to 14) (size 15 to 20)
#    0.000    2.000    0.000    6.000    0.000    2.857 
#    0.000   11.429    0.000    0.000    0.000    0.000 
#    0.000    0.000    0.000    0.000    0.000    0.000 
#
# Total GULP energy -156381.342425 kJ/mol
# GULP energy per Si atom -5585.047944 kJ/mol
# Density = 1.874502 g / cm^3
# Si number density = 18.787777 Si / 1000 Ang^3
#
#
#
# Elastic Constant Matrix: (Units=GPa)
#
#
# Indices 1 2 3 4 5 6 
#
# 1 121.8924 -0.8528 47.7651 0.0000 21.5211 0.0000
# 2 -0.8528 33.3331 1.7851 0.0000 4.2105 0.0000
# 3 47.7651 1.7851 73.6176 0.0000 21.3666 0.0000
# 4 0.0000 0.0000 0.0000 28.1738 0.0000 -0.7108
# 5 21.5211 4.2105 21.3666 0.0000 14.0031 0.0000
# 6 0.0000 0.0000 0.0000 -0.7108 0.0000 29.4178
#
#
#
# Elastic Compliance Matrix: (Units=1/GPa)
#
#
# Indices 1 2 3 4 5 6 
#
# 1 0.012139 0.002169 -0.004173 0.000000 -0.012942 0.000000
# 2 0.002169 0.032091 0.002841 0.000000 -0.017317 0.000000
# 3 -0.004173 0.002841 0.026221 0.000000 -0.034451 0.000000
# 4 0.000000 0.000000 0.000000 0.035516 0.000000 0.000858
# 5 -0.012942 -0.017317 -0.034451 0.000000 0.149077 0.000000
# 6 0.000000 0.000000 0.000000 0.000858 0.000000 0.034014
#
#
# Mechanical properties :
#
#
# Convention : Reuss Voigt Hill
#
# Bulk Modulus (GPa) = 13.86482 36.24865 25.05674
# Shear Modulus (GPa) = 16.05522 26.32865 21.19194
#
# Velocity S-wave (km/s) = 2.92645 3.74755 3.36216
# Velocity P-wave (km/s) = 4.33757 6.16937 5.33271
#
# Compressibility (1/GPa) = 0.07212500
#
# Stress axis : x y z
#
# Youngs Moduli (GPa) = 82.37757 31.16140 38.13740
#
# Poissons Ratio (x) = -0.06758 0.15913
# Poissons Ratio (y) = -0.17866 -0.10834
# Poissons Ratio (z) = 0.34373 -0.08852
#
# Static dielectric constant tensor:
#      x y z
#    x 1.652210 0.000000 0.013360 
#    y 0.000000 1.640380 0.000000 
#    z 0.013360 0.000000 1.634150 
# 
# From -- ./inp_files/359651.got.cif
#   From: 2010.05.17/outbox.cif.g08.bks.cpg/sg12_180_cif.got.tgz:359651.got - 2010.06.03 13:09:07.
