data_PCOD9185879
_publ_section_title
;
Structure prediction by ZEFSAII (Michael W. Deem and Ramdas Pophale) SiO2 
 PCOD9185879
Probable space group: C 2/M
;
_chemical_formula_sum "Si O2"
_cell_formula_units_Z 56
_cell_length_a 30.913361
_cell_length_b 8.582563
_cell_length_c 12.625671
_cell_angle_alpha 90.000000
_cell_angle_beta 74.610900
_cell_angle_gamma 90.000000
_cell_volume 3229.687149
_symmetry_space_group_name_H-M "C 2/M"
_symmetry_group_IT_number 12
_symmetry_cell_setting 'monoclinic'
loop_
_space_group_symop_operation_xyz
x,y,z
-x,y,-z
-x,-y,-z
x,-y,z
1/2+x,1/2+y,z
1/2-x,1/2+y,-z
1/2-x,1/2-y,-z
1/2+x,1/2-y,z
loop_
_atom_site_type_symbol
_atom_site_label
_atom_site_fract_x
_atom_site_fract_y
_atom_site_fract_z
Si Si1 0.049512 0.189063 0.345266
Si Si2 0.794393 0.685137 0.028740
Si Si3 0.289686 0.315938 0.266867
Si Si4 0.141898 0.812111 0.187761
Si Si5 0.051359 0.811408 0.591171
Si Si6 0.357554 0.183480 0.389743
Si Si7 0.692911 0.684952 0.374427
O O1 0.091179 0.239245 0.246912
O O2 0.057114 0.232839 0.463291
O O3 0.999312 0.236452 0.345576
O O4 0.049774 0.000000 0.344680
O O5 0.790367 0.500000 0.042363
O O6 0.797903 0.760812 0.141807
O O7 0.750000 0.750000 0.000000
O O8 0.835749 0.730741 0.926748
O O9 0.281756 0.500000 0.274593
O O10 0.331060 0.271315 0.314509
O O11 0.244905 0.230949 0.337933
O O12 0.171281 0.778923 0.273992
O O13 0.142763 0.000000 0.172073
O O14 0.091123 0.737346 0.631869
O O15 0.054484 0.000000 0.594879
O O16 0.333053 0.227397 0.515760
O O17 0.354759 0.000000 0.373479
O O18 0.687743 0.500000 0.395450
#
# Coordination Sequence:
#
# PCOD9185879 Si02
#       7
#     8   8   8   8   8   8   8
#     4   8  15  30  56  84 111 144 185 228 273 327
#     4  12  24  39  58  82 112 148 188 232 279 327
#     4  12  25  41  59  79 108 148 194 235 279 332
#     4  10  19  34  58  85 114 148 186 230 277 326
#     4   9  16  32  56  82 111 147 187 227 273 327
#     4  12  24  37  54  81 118 153 187 228 280 336
#     4  11  21  36  58  83 115 150 187 227 274 332
#
# _framework density 17.339141000000001
#
# number of rings (size 3 to 8) (size 9 to 14) (size 15 to 20)
#    0.000    1.429    2.857    5.571    0.000    0.571 
#    0.000    2.143    0.000    0.857    0.000    6.000 
#    0.000    0.000    0.000    0.000    0.000    0.000 
#
# Total GULP energy -156447.231405 kJ/mol
# GULP energy per Si atom -5587.401122 kJ/mol
# Density = 1.729968 g / cm^3
# Si number density = 17.339141 Si / 1000 Ang^3
#
#
#
# Elastic Constant Matrix: (Units=GPa)
#
#
# Indices 1 2 3 4 5 6 
#
# 1 102.3648 -12.3969 24.6793 0.0000 -12.6813 0.0000
# 2 -12.3969 20.8671 -4.4612 0.0000 1.4302 0.0000
# 3 24.6793 -4.4612 38.7287 0.0000 -4.6305 0.0000
# 4 0.0000 0.0000 0.0000 25.9650 0.0000 -1.4610
# 5 -12.6813 1.4302 -4.6305 0.0000 29.7303 0.0000
# 6 0.0000 0.0000 0.0000 -1.4610 0.0000 25.9024
#
#
#
# Elastic Compliance Matrix: (Units=1/GPa)
#
#
# Indices 1 2 3 4 5 6 
#
# 1 0.012630 0.005751 -0.006903 0.000000 0.004035 0.000000
# 2 0.005751 0.051818 0.002343 0.000000 0.000325 0.000000
# 3 -0.006903 0.002343 0.030696 0.000000 0.001724 0.000000
# 4 0.000000 0.000000 0.000000 0.038636 0.000000 0.002179
# 5 0.004035 0.000325 0.001724 0.000000 0.035610 0.000000
# 6 0.000000 0.000000 0.000000 0.002179 0.000000 0.038729
#
#
# Mechanical properties :
#
#
# Convention : Reuss Voigt Hill
#
# Bulk Modulus (GPa) = 10.25385 19.73366 14.99375
# Shear Modulus (GPa) = 20.98686 26.59551 23.79119
#
# Velocity S-wave (km/s) = 3.48282 3.92068 3.70822
# Velocity P-wave (km/s) = 4.70105 5.64813 5.19621
#
# Compressibility (1/GPa) = 0.09752438
#
# Stress axis : x y z
#
# Youngs Moduli (GPa) = 79.17885 19.29848 32.57798
#
# Poissons Ratio (x) = -0.11098 0.22489
# Poissons Ratio (y) = -0.45534 -0.07634
# Poissons Ratio (z) = 0.54658 -0.04522
#
# Static dielectric constant tensor:
#      x y z
#    x 1.591020 0.000000 -0.015230 
#    y 0.000000 1.588160 0.000000 
#    z -0.015230 0.000000 1.564410 
# 
# From -- ./inp_files/186421.got.cif
#   From: 2010.05.17/outbox.cif.g08.bks.cpg/sg12_94_cif.got.tgz:186421.got - 2010.06.03 13:09:07.
