data_PCOD9185032
_publ_section_title
;
Structure prediction by ZEFSAII (Michael W. Deem and Ramdas Pophale) SiO2 
 PCOD9185032
Probable space group: C 2/M
;
_chemical_formula_sum "Si O2"
_cell_formula_units_Z 40
_cell_length_a 28.073418
_cell_length_b 7.551327
_cell_length_c 27.517623
_cell_angle_alpha 90.000000
_cell_angle_beta 157.470618
_cell_angle_gamma 90.000000
_cell_volume 2235.148747
_symmetry_space_group_name_H-M "C 2/M"
_symmetry_group_IT_number 12
_symmetry_cell_setting 'monoclinic'
loop_
_space_group_symop_operation_xyz
x,y,z
-x,y,-z
-x,-y,-z
x,-y,z
1/2+x,1/2+y,z
1/2-x,1/2+y,-z
1/2-x,1/2-y,-z
1/2+x,1/2-y,z
loop_
_atom_site_type_symbol
_atom_site_label
_atom_site_fract_x
_atom_site_fract_y
_atom_site_fract_z
Si Si1 0.411519 0.215355 0.553621
Si Si2 0.973063 0.500000 0.893409
Si Si3 0.896244 0.710596 0.644960
Si Si4 0.124762 0.797155 0.267981
Si Si5 0.914685 0.289796 0.372097
Si Si6 0.795044 0.500000 0.818845
O O1 0.451289 0.273671 0.645293
O O2 0.268850 0.268173 0.407823
O O3 0.504727 0.266151 0.598913
O O4 0.407773 0.000000 0.551460
O O5 0.949140 0.670250 0.837280
O O6 0.872333 0.500000 0.841786
O O7 0.106681 0.500000 0.044707
O O8 0.914323 0.500000 0.665978
O O9 0.750000 0.750000 0.500000
O O10 0.929344 0.790792 0.728148
O O11 0.126466 0.000000 0.252647
O O12 0.887138 0.500000 0.342485
O O13 0.000000 0.264029 0.500000
O O14 0.793045 0.171303 0.261813
#
# Coordination Sequence:
#
# PCOD9185032 Si02
#       6
#     8   4   8   8   8   4
#     4   8  16  29  52  85 114 143 173 219 283 330
#     4  11  24  40  56  76 110 148 187 234 269 316
#     4   9  15  27  47  80 118 143 175 220 272 329
#     4  10  19  34  55  82 112 145 182 226 276 327
#     4  10  20  37  59  84 114 142 175 226 277 333
#     4  11  25  40  56  82 107 145 194 224 269 332
#
# _framework density 17.895900000000001
#
# number of rings (size 3 to 8) (size 9 to 14) (size 15 to 20)
#    0.000    2.400    1.000    3.300    0.000    4.000 
#    3.600    2.000    0.000    1.200    0.000    0.000 
#    0.000    0.000    0.000    0.000    0.000    0.000 
#
# Total GULP energy -111549.540012 kJ/mol
# GULP energy per Si atom -5577.477001 kJ/mol
# Density = 1.785517 g / cm^3
# Si number density = 17.895900 Si / 1000 Ang^3
#
#
#
# Elastic Constant Matrix: (Units=GPa)
#
#
# Indices 1 2 3 4 5 6 
#
# 1 132.0291 41.4030 61.2354 0.0000 -12.7323 0.0000
# 2 41.4030 95.7369 56.5325 -0.0001 -11.1940 0.0000
# 3 61.2354 56.5325 96.0236 0.0001 -13.8388 0.0000
# 4 0.0000 -0.0001 0.0001 -1.1814 0.0000 -6.9176
# 5 -12.7323 -11.1940 -13.8388 0.0000 26.3739 0.0000
# 6 0.0000 0.0000 0.0000 -6.9176 0.0000 13.7236
#
#
#
# Elastic Compliance Matrix: (Units=1/GPa)
#
#
# Indices 1 2 3 4 5 6 
#
# 1 0.010873 -0.000852 -0.006196 0.000000 0.001636 0.000000
# 2 -0.000852 0.016177 -0.008709 0.000000 0.001885 0.000000
# 3 -0.006196 -0.008709 0.020045 0.000001 0.003830 0.000000
# 4 0.000000 0.000000 0.000001 -0.214210 0.000000 -0.107976
# 5 0.001636 0.001885 0.003830 0.000000 0.041516 0.000000
# 6 0.000000 0.000000 0.000000 -0.107976 0.000000 0.018440
#
#
# Mechanical properties :
#
#
# Convention : Reuss Voigt Hill
#
# Bulk Modulus (GPa) = 64.18466 71.34795 67.76630
# Shear Modulus (GPa) = -70.97064 18.75780 -26.10642
#
# Velocity S-wave (km/s) = -6.30425 3.24105 -3.82356
# Velocity P-wave (km/s) = 4.12892 7.34580 4.29609
#
# Compressibility (1/GPa) = 0.01558005
#
# Stress axis : x y z
#
# Youngs Moduli (GPa) = 91.97136 61.81730 49.88796
#
# Poissons Ratio (x) = 0.05266 0.30913
# Poissons Ratio (y) = 0.07835 0.43447
# Poissons Ratio (z) = 0.56990 0.53836
#
# Static dielectric constant tensor:
#      x y z
#    x 1.649030 0.000000 -0.005120 
#    y 0.000000 1.613680 0.000000 
#    z -0.005120 0.000000 1.561600 
# 
# From -- ./inp_files/179430.got.cif
#   From: 2010.05.17/outbox.cif.g08.bks.cpg/sg12_90_cif.got.tgz:179430.got - 2010.06.03 13:09:07.
