data_PCOD9185842
_publ_section_title
;
Structure prediction by ZEFSAII (Michael W. Deem and Ramdas Pophale) SiO2 
 PCOD9185842
Probable space group: C 2/M
;
_chemical_formula_sum "Si O2"
_cell_formula_units_Z 48
_cell_length_a 12.909603
_cell_length_b 18.143783
_cell_length_c 13.323681
_cell_angle_alpha 90.000000
_cell_angle_beta 131.830893
_cell_angle_gamma 90.000000
_cell_volume 2325.354342
_symmetry_space_group_name_H-M "C 2/M"
_symmetry_group_IT_number 12
_symmetry_cell_setting 'monoclinic'
loop_
_space_group_symop_operation_xyz
x,y,z
-x,y,-z
-x,-y,-z
x,-y,z
1/2+x,1/2+y,z
1/2-x,1/2+y,-z
1/2-x,1/2-y,-z
1/2+x,1/2-y,z
loop_
_atom_site_type_symbol
_atom_site_label
_atom_site_fract_x
_atom_site_fract_y
_atom_site_fract_z
Si Si1 0.527786 0.146008 0.252157
Si Si2 0.035830 0.198675 0.137763
Si Si3 0.669094 0.218857 0.715906
Si Si4 0.179991 0.810259 0.523740
Si Si5 0.467619 0.000000 0.858910
Si Si6 0.400864 0.643466 0.230263
Si Si7 0.141927 0.000000 0.667072
O O1 0.524944 0.221178 0.184073
O O2 0.442983 0.167871 0.299081
O O3 0.692686 0.134228 0.378136
O O4 0.475431 0.074738 0.157556
O O5 0.197192 0.175072 0.236467
O O6 0.937955 0.143991 0.137160
O O7 0.000000 0.205818 0.000000
O O8 0.638097 0.269105 0.598458
O O9 0.698381 0.286069 0.813331
O O10 0.250000 0.750000 0.500000
O O11 0.048465 0.838913 0.379298
O O12 0.300747 0.000000 0.730947
O O13 0.500000 0.000000 0.000000
O O14 0.358517 0.570824 0.260340
O O15 0.000000 0.000000 0.500000
#
# Coordination Sequence:
#
# PCOD9185842 Si02
#       7
#     8   8   8   8   4   8   4
#     4  10  22  36  60  88 118 160 204 249 308 367
#     4  10  21  37  56  85 115 148 204 258 294 358
#     4  10  19  34  58  84 113 152 193 245 309 357
#     4  11  18  35  61  92 121 148 196 259 317 370
#     4  12  26  44  61  89 131 175 212 254 311 378
#     4  11  22  35  59  90 115 158 196 249 312 364
#     4  12  24  42  64  90 126 156 210 263 310 369
#
# _framework density 20.642016000000002
#
# number of rings (size 3 to 8) (size 9 to 14) (size 15 to 20)
#    0.000    1.333    5.000    5.000    0.000    4.000 
#    0.000    1.250    0.000    1.000    0.000    0.000 
#    0.000    0.000    0.000    0.000    0.000    0.000 
#
# Total GULP energy -133620.847099 kJ/mol
# GULP energy per Si atom -5567.535296 kJ/mol
# Density = 2.059503 g / cm^3
# Si number density = 20.642016 Si / 1000 Ang^3
#
#
#
# Elastic Constant Matrix: (Units=GPa)
#
#
# Indices 1 2 3 4 5 6 
#
# 1 127.4177 34.7285 11.0083 0.0000 -33.8581 0.0000
# 2 34.7285 92.4537 -0.3808 0.0000 -12.2444 0.0000
# 3 11.0083 -0.3808 36.8234 0.0000 -23.0008 0.0000
# 4 0.0000 0.0000 0.0000 16.2079 0.0000 -6.2771
# 5 -33.8581 -12.2444 -23.0008 0.0000 32.2772 0.0000
# 6 0.0000 0.0000 0.0000 -6.2771 0.0000 27.3793
#
#
#
# Elastic Compliance Matrix: (Units=1/GPa)
#
#
# Indices 1 2 3 4 5 6 
#
# 1 0.012437 -0.002382 0.006924 0.000000 0.017076 0.000000
# 2 -0.002382 0.012396 0.003995 0.000000 0.005051 0.000000
# 3 0.006924 0.003995 0.055166 0.000000 0.048090 0.000000
# 4 0.000000 0.000000 0.000000 0.067710 0.000000 0.015524
# 5 0.017076 0.005051 0.048090 0.000000 0.085079 0.000000
# 6 0.000000 0.000000 0.000000 0.015524 0.000000 0.040083
#
#
# Mechanical properties :
#
#
# Convention : Reuss Voigt Hill
#
# Bulk Modulus (GPa) = 10.30138 38.60075 24.45107
# Shear Modulus (GPa) = 17.35176 29.26214 23.30695
#
# Velocity S-wave (km/s) = 2.90246 3.76919 3.36386
# Velocity P-wave (km/s) = 4.02911 6.13865 5.19215
#
# Compressibility (1/GPa) = 0.09707434
#
# Stress axis : x y z
#
# Youngs Moduli (GPa) = 80.40705 80.66933 18.12700
#
# Poissons Ratio (x) = 0.19212 -0.12550
# Poissons Ratio (y) = 0.19149 -0.07243
# Poissons Ratio (z) = -0.55671 -0.32231
#
# Static dielectric constant tensor:
#      x y z
#    x 1.989450 0.000000 0.000140 
#    y 0.000000 1.784280 0.000000 
#    z 0.000140 0.000000 1.916280 
# 
# From -- ./inp_files/133453.got.cif
#   From: 2010.05.17/outbox.cif.g08.bks.cpg/sg12_67_cif.got.tgz:133453.got - 2010.06.03 13:09:07.
