data_PCOD9185690
_publ_section_title
;
Structure prediction by ZEFSAII (Michael W. Deem and Ramdas Pophale) SiO2 
 PCOD9185690
Probable space group: C 2/M
;
_chemical_formula_sum "Si O2"
_cell_formula_units_Z 48
_cell_length_a 24.534807
_cell_length_b 7.737683
_cell_length_c 11.073280
_cell_angle_alpha 90.000000
_cell_angle_beta 80.950885
_cell_angle_gamma 90.000000
_cell_volume 2076.015828
_symmetry_space_group_name_H-M "C 2/M"
_symmetry_group_IT_number 12
_symmetry_cell_setting 'monoclinic'
loop_
_space_group_symop_operation_xyz
x,y,z
-x,y,-z
-x,-y,-z
x,-y,z
1/2+x,1/2+y,z
1/2-x,1/2+y,-z
1/2-x,1/2-y,-z
1/2+x,1/2-y,z
loop_
_atom_site_type_symbol
_atom_site_label
_atom_site_fract_x
_atom_site_fract_y
_atom_site_fract_z
Si Si1 0.185746 0.792931 0.512197
Si Si2 0.456325 0.295110 0.114783
Si Si3 0.502271 0.803940 0.360024
Si Si4 0.771604 0.705084 0.861947
Si Si5 0.840035 0.211466 0.220158
Si Si6 0.376755 0.298869 0.700535
O O1 0.250000 0.750000 0.500000
O O2 0.154193 0.736018 0.642805
O O3 0.156118 0.726287 0.403635
O O4 0.182433 0.000000 0.507368
O O5 0.453149 0.500000 0.092535
O O6 0.473746 0.275426 0.250162
O O7 0.393317 0.227175 0.127634
O O8 0.500000 0.224897 0.000000
O O9 0.500000 0.729724 0.500000
O O10 0.566690 0.799021 0.302681
O O11 0.481506 0.000000 0.377484
O O12 0.777412 0.500000 0.843337
O O13 0.721231 0.769193 0.795728
O O14 0.830929 0.787566 0.819497
O O15 0.750000 0.750000 0.000000
O O16 0.839183 0.000000 0.214097
O O17 0.391554 0.500000 0.677104
#
# Coordination Sequence:
#
# PCOD9185690 Si02
#       6
#     8   8   8   8   8   8
#     4  10  19  34  57  86 119 153 195 245 303 366
#     4  10  22  41  67  95 124 165 214 265 318 380
#     4  11  25  44  65  93 130 171 214 266 323 379
#     4  11  23  39  60  88 127 167 207 256 310 370
#     4   9  19  37  60  87 122 159 197 249 309 365
#     4  11  23  39  64  94 124 161 208 257 311 378
#
# _framework density 23.121210000000001
#
# number of rings (size 3 to 8) (size 9 to 14) (size 15 to 20)
#    0.000    1.667    1.667    2.500    2.333    3.667 
#    0.000    2.500    0.000    0.000    0.000    0.000 
#    0.000    0.000    0.000    0.000    0.000    0.000 
#
# Total GULP energy -134000.563442 kJ/mol
# GULP energy per Si atom -5583.356810 kJ/mol
# Density = 2.306859 g / cm^3
# Si number density = 23.121210 Si / 1000 Ang^3
#
#
#
# Elastic Constant Matrix: (Units=GPa)
#
#
# Indices 1 2 3 4 5 6 
#
# 1 98.5973 -5.7823 6.0385 0.0000 -28.2808 0.0000
# 2 -5.7823 46.8234 -8.7345 0.0000 -3.3222 0.0000
# 3 6.0385 -8.7345 86.4622 0.0000 -26.2146 0.0000
# 4 0.0000 0.0000 0.0000 21.1542 0.0000 -0.2797
# 5 -28.2808 -3.3222 -26.2146 0.0000 40.0898 0.0000
# 6 0.0000 0.0000 0.0000 -0.2797 0.0000 4.3084
#
#
#
# Elastic Compliance Matrix: (Units=1/GPa)
#
#
# Indices 1 2 3 4 5 6 
#
# 1 0.013488 0.003034 0.002901 0.000000 0.011663 0.000000
# 2 0.003034 0.022988 0.004162 0.000000 0.006767 0.000000
# 3 0.002901 0.004162 0.015602 0.000000 0.012593 0.000000
# 4 0.000000 0.000000 0.000000 0.047313 0.000000 0.003072
# 5 0.011663 0.006767 0.012593 0.000000 0.041967 0.000000
# 6 0.000000 0.000000 0.000000 0.003072 0.000000 0.232305
#
#
# Mechanical properties :
#
#
# Convention : Reuss Voigt Hill
#
# Bulk Modulus (GPa) = 13.83665 23.88069 18.85867
# Shear Modulus (GPa) = 13.24297 29.13455 21.18876
#
# Velocity S-wave (km/s) = 2.39584 3.55361 3.03053
# Velocity P-wave (km/s) = 3.69470 5.21425 4.51881
#
# Compressibility (1/GPa) = 0.07227185
#
# Stress axis : x y z
#
# Youngs Moduli (GPa) = 74.14054 43.50081 64.09529
#
# Poissons Ratio (x) = -0.13199 -0.18592
# Poissons Ratio (y) = -0.22496 -0.26677
# Poissons Ratio (z) = -0.21506 -0.18105
#
# Static dielectric constant tensor:
#      x y z
#    x 1.895450 0.000000 0.024180 
#    y 0.000000 1.845330 0.000000 
#    z 0.024180 0.000000 1.936090 
# 
# From -- ./inp_files/172209.got.cif
#   From: 2010.05.17/outbox.cif.g08.bks.cpg/sg12_87_cif.got.tgz:172209.got - 2010.06.03 13:09:07.
