data_PCOD9185555
_publ_section_title
;
Structure prediction by ZEFSAII (Michael W. Deem and Ramdas Pophale) SiO2 
 PCOD9185555
Probable space group: C 2/M
;
_chemical_formula_sum "Si O2"
_cell_formula_units_Z 48
_cell_length_a 29.287538
_cell_length_b 7.556211
_cell_length_c 10.400052
_cell_angle_alpha 90.000000
_cell_angle_beta 88.820760
_cell_angle_gamma 90.000000
_cell_volume 2301.073346
_symmetry_space_group_name_H-M "C 2/M"
_symmetry_group_IT_number 12
_symmetry_cell_setting 'monoclinic'
loop_
_space_group_symop_operation_xyz
x,y,z
-x,y,-z
-x,-y,-z
x,-y,z
1/2+x,1/2+y,z
1/2-x,1/2+y,-z
1/2-x,1/2-y,-z
1/2+x,1/2-y,z
loop_
_atom_site_type_symbol
_atom_site_label
_atom_site_fract_x
_atom_site_fract_y
_atom_site_fract_z
Si Si1 0.274517 0.212937 0.364037
Si Si2 0.218186 0.211865 0.123116
Si Si3 0.524816 0.783142 0.629454
Si Si4 0.969269 0.713987 0.882282
Si Si5 0.127322 0.793701 0.001616
Si Si6 0.875520 0.294016 0.296581
O O1 0.250000 0.250000 0.500000
O O2 0.242845 0.281214 0.249340
O O3 0.326689 0.280989 0.346170
O O4 0.277441 0.000000 0.349158
O O5 0.168849 0.281582 0.083376
O O6 0.213852 0.000000 0.140739
O O7 0.250000 0.250000 0.000000
O O8 0.500000 0.728884 0.500000
O O9 0.493372 0.727129 0.750626
O O10 0.576954 0.720527 0.649202
O O11 0.526116 0.000000 0.630728
O O12 0.968482 0.500000 0.881513
O O13 0.918518 0.775644 0.914307
O O14 0.000000 0.772052 0.000000
O O15 0.136763 0.000000 0.976482
O O16 0.122641 0.713366 0.859278
O O17 0.875285 0.500000 0.334429
#
# Coordination Sequence:
#
# PCOD9185555 Si02
#       6
#     8   8   8   8   8   8
#     4  10  22  38  58  83 114 149 188 234 282 338
#     4  10  21  37  57  83 112 146 188 234 280 329
#     4   9  18  33  55  82 110 139 183 234 273 319
#     4  10  19  34  57  83 108 143 187 231 272 320
#     4  11  22  34  55  86 116 146 182 231 285 332
#     4  10  19  36  59  80 107 148 190 230 278 331
#
# _framework density 20.859831
#
# number of rings (size 3 to 8) (size 9 to 14) (size 15 to 20)
#    0.000    2.000    3.333    0.500    0.000    3.667 
#    0.000    1.667    0.000    2.000    0.000    0.000 
#    0.000    0.000    0.000    0.000    0.000    0.000 
#
# Total GULP energy -133999.327532 kJ/mol
# GULP energy per Si atom -5583.305314 kJ/mol
# Density = 2.081235 g / cm^3
# Si number density = 20.859831 Si / 1000 Ang^3
#
#
#
# Elastic Constant Matrix: (Units=GPa)
#
#
# Indices 1 2 3 4 5 6 
#
# 1 236.9625 -3.1888 110.5434 0.0000 14.1373 0.0000
# 2 -3.1888 44.4096 -8.3471 0.0000 4.5943 0.0000
# 3 110.5434 -8.3471 180.4491 0.0000 11.4917 0.0000
# 4 0.0000 0.0000 0.0000 12.3579 0.0000 -9.6160
# 5 14.1373 4.5943 11.4917 0.0000 34.0357 0.0000
# 6 0.0000 0.0000 0.0000 -9.6160 0.0000 12.2808
#
#
#
# Elastic Compliance Matrix: (Units=1/GPa)
#
#
# Indices 1 2 3 4 5 6 
#
# 1 0.005963 -0.000115 -0.003578 0.000000 -0.001253 0.000000
# 2 -0.000115 0.023132 0.001366 0.000000 -0.003536 0.000000
# 3 -0.003578 0.001366 0.007883 0.000000 -0.001360 0.000000
# 4 0.000000 0.000000 0.000000 0.207106 0.000000 0.162167
# 5 -0.001253 -0.003536 -0.001360 0.000000 0.030838 0.000000
# 6 0.000000 0.000000 0.000000 0.162167 0.000000 0.208407
#
#
# Mechanical properties :
#
#
# Convention : Reuss Voigt Hill
#
# Bulk Modulus (GPa) = 30.93774 73.31513 52.12643
# Shear Modulus (GPa) = 10.02491 35.92248 22.97369
#
# Velocity S-wave (km/s) = 2.19460 4.15431 3.32224
# Velocity P-wave (km/s) = 4.61358 7.63111 6.30552
#
# Compressibility (1/GPa) = 0.03232298
#
# Stress axis : x y z
#
# Youngs Moduli (GPa) = 167.71482 43.23046 126.84763
#
# Poissons Ratio (x) = 0.00496 0.45388
# Poissons Ratio (y) = 0.01925 -0.17321
# Poissons Ratio (z) = 0.60011 -0.05903
#
# Static dielectric constant tensor:
#      x y z
#    x 1.675480 0.000000 0.035850 
#    y 0.000000 1.804330 0.000000 
#    z 0.035850 0.000000 1.687940 
# 
# From -- ./inp_files/102040.got.cif
#   From: 2010.05.17/outbox.cif.g08.bks.cpg/sg12_52_cif.got.tgz:102040.got - 2010.06.03 13:09:07.
