data_PCOD9185368
_publ_section_title
;
Structure prediction by ZEFSAII (Michael W. Deem and Ramdas Pophale) SiO2 
 PCOD9185368
Probable space group: C 2/M
;
_chemical_formula_sum "Si O2"
_cell_formula_units_Z 52
_cell_length_a 17.279144
_cell_length_b 12.890588
_cell_length_c 16.344827
_cell_angle_alpha 90.000000
_cell_angle_beta 42.613554
_cell_angle_gamma 90.000000
_cell_volume 2464.881674
_symmetry_space_group_name_H-M "C 2/M"
_symmetry_group_IT_number 12
_symmetry_cell_setting 'monoclinic'
loop_
_space_group_symop_operation_xyz
x,y,z
-x,y,-z
-x,-y,-z
x,-y,z
1/2+x,1/2+y,z
1/2-x,1/2+y,-z
1/2-x,1/2-y,-z
1/2+x,1/2-y,z
loop_
_atom_site_type_symbol
_atom_site_label
_atom_site_fract_x
_atom_site_fract_y
_atom_site_fract_z
Si Si1 0.878864 0.318894 0.366568
Si Si2 0.734445 0.800138 0.923297
Si Si3 0.518067 0.615332 0.308533
Si Si4 0.500000 0.304961 0.500000
Si Si5 0.510339 0.110535 0.873992
Si Si6 0.713484 0.188417 0.394082
Si Si7 0.882943 0.816434 0.127353
O O1 0.960054 0.383785 0.245031
O O2 0.770474 0.288396 0.395097
O O3 0.840792 0.365761 0.483228
O O4 0.943257 0.208876 0.330070
O O5 0.850090 0.859515 0.812264
O O6 0.700832 0.712786 0.882173
O O7 0.750000 0.750000 0.000000
O O8 0.624080 0.873738 0.010808
O O9 0.486779 0.500000 0.304249
O O10 0.502730 0.626343 0.417340
O O11 0.610764 0.231194 0.418936
O O12 0.571405 0.207375 0.869889
O O13 0.550801 0.000000 0.874741
O O14 0.808309 0.137726 0.260716
O O15 0.000000 0.866741 0.000000
#
# Coordination Sequence:
#
# PCOD9185368 Si02
#       7
#     8   8   8   4   8   8   8
#     4   9  19  35  52  79 114 150 190 216 279 343
#     4  11  20  34  52  82 118 153 185 220 279 341
#     4  11  21  34  54  83 118 149 180 227 282 341
#     4  10  19  34  56  86 115 138 183 230 292 342
#     4  10  20  35  56  83 116 147 183 236 283 327
#     4   9  17  34  54  77 114 152 177 227 272 325
#     4   9  19  33  53  83 110 148 184 226 275 339
#
# _framework density 21.096347999999999
#
# number of rings (size 3 to 8) (size 9 to 14) (size 15 to 20)
#    0.000    2.154    3.077    0.692    0.000    3.385 
#    0.000   13.846    0.000    0.000    0.000   46.846 
#    0.000    0.000    0.000    0.000    0.000    0.000 
#
# Total GULP energy -144943.408194 kJ/mol
# GULP energy per Si atom -5574.746469 kJ/mol
# Density = 2.104833 g / cm^3
# Si number density = 21.096348 Si / 1000 Ang^3
#
#
#
# Elastic Constant Matrix: (Units=GPa)
#
#
# Indices 1 2 3 4 5 6 
#
# 1 84.4940 16.1677 24.0069 0.0000 0.5826 0.0000
# 2 16.1677 51.1856 14.9062 0.0000 0.6269 0.0000
# 3 24.0069 14.9062 164.1139 0.0000 14.4545 0.0000
# 4 0.0000 0.0000 0.0000 -3.2343 0.0000 2.3532
# 5 0.5826 0.6269 14.4545 0.0000 43.6931 0.0000
# 6 0.0000 0.0000 0.0000 2.3532 0.0000 7.5265
#
#
#
# Elastic Compliance Matrix: (Units=1/GPa)
#
#
# Indices 1 2 3 4 5 6 
#
# 1 0.012985 -0.003639 -0.001605 0.000000 0.000410 0.000000
# 2 -0.003639 0.021092 -0.001402 0.000000 0.000210 0.000000
# 3 -0.001605 -0.001402 0.006645 0.000000 -0.002157 0.000000
# 4 0.000000 0.000000 0.000000 -0.251884 0.000000 0.078753
# 5 0.000410 0.000210 -0.002157 0.000000 0.023592 0.000000
# 6 0.000000 0.000000 0.000000 0.078753 0.000000 0.108241
#
#
# Mechanical properties :
#
#
# Convention : Reuss Voigt Hill
#
# Bulk Modulus (GPa) = 36.45627 45.55057 41.00342
# Shear Modulus (GPa) = -87.88412 25.91123 -30.98644
#
# Velocity S-wave (km/s) = -6.46134 3.50842 -3.83666
# Velocity P-wave (km/s) = 6.19248 6.16851 0.38489
#
# Compressibility (1/GPa) = 0.02743012
#
# Stress axis : x y z
#
# Youngs Moduli (GPa) = 77.01390 47.41167 150.47961
#
# Poissons Ratio (x) = 0.17253 0.24152
# Poissons Ratio (y) = 0.28025 0.21095
# Poissons Ratio (z) = 0.12361 0.06647
#
# Static dielectric constant tensor:
#      x y z
#    x 1.751790 0.000000 0.017490 
#    y 0.000000 1.761940 0.000000 
#    z 0.017490 0.000000 1.853340 
# 
# From -- ./inp_files/277583.got.cif
#   From: 2010.05.17/outbox.cif.g08.bks.cpg/sg12_139_cif.got.tgz:277583.got - 2010.06.03 13:09:07.
