data_PCOD9185788
_publ_section_title
;
Structure prediction by ZEFSAII (Michael W. Deem and Ramdas Pophale) SiO2 
 PCOD9185788
Probable space group: C 2/M
;
_chemical_formula_sum "Si O2"
_cell_formula_units_Z 56
_cell_length_a 27.305705
_cell_length_b 8.795113
_cell_length_c 19.142326
_cell_angle_alpha 90.000000
_cell_angle_beta 139.246415
_cell_angle_gamma 90.000000
_cell_volume 3001.058281
_symmetry_space_group_name_H-M "C 2/M"
_symmetry_group_IT_number 12
_symmetry_cell_setting 'monoclinic'
loop_
_space_group_symop_operation_xyz
x,y,z
-x,y,-z
-x,-y,-z
x,-y,z
1/2+x,1/2+y,z
1/2-x,1/2+y,-z
1/2-x,1/2-y,-z
1/2+x,1/2-y,z
loop_
_atom_site_type_symbol
_atom_site_label
_atom_site_fract_x
_atom_site_fract_y
_atom_site_fract_z
Si Si1 0.784095 0.317573 0.879919
Si Si2 0.425130 0.181307 0.116212
Si Si3 0.640740 0.181633 0.546509
Si Si4 0.970527 0.181181 0.889149
Si Si5 0.807367 0.183183 0.752230
Si Si6 0.383767 0.682864 0.327606
Si Si7 0.998659 0.818323 0.332641
O O1 0.789946 0.500000 0.880220
O O2 0.808049 0.247367 0.831592
O O3 0.696440 0.281156 0.795028
O O4 0.841701 0.268723 0.002098
O O5 0.479705 0.227734 0.111673
O O6 0.455257 0.259562 0.218200
O O7 0.425382 0.000000 0.125916
O O8 0.727934 0.228872 0.632550
O O9 0.617269 0.237942 0.598490
O O10 0.582039 0.252452 0.429451
O O11 0.636807 0.000000 0.539124
O O12 0.883112 0.227737 0.794429
O O13 0.976318 0.000000 0.880190
O O14 0.000000 0.203409 0.000000
O O15 0.808242 0.000000 0.758370
O O16 0.387625 0.500000 0.342668
O O17 0.451241 0.728284 0.350095
O O18 0.001856 0.000000 0.335015
#
# Coordination Sequence:
#
# PCOD9185788 Si02
#       7
#     8   8   8   8   8   8   8
#     4   9  18  33  53  79 110 140 173 218 268 316
#     4  11  23  36  53  80 113 143 177 221 270 319
#     4  10  20  35  57  83 110 138 177 225 268 311
#     4  10  19  34  58  83 109 140 176 215 261 322
#     4   9  18  33  55  83 109 137 174 218 264 314
#     4   9  19  36  57  80 106 141 183 221 262 317
#     4  11  23  38  55  75 106 148 187 221 263 317
#
# _framework density 18.660084999999999
#
# number of rings (size 3 to 8) (size 9 to 14) (size 15 to 20)
#    0.000    2.143    1.429    1.714    0.000    5.429 
#    0.000    0.714    0.000    0.000    0.000    0.000 
#    0.000    0.000    0.000    0.000    0.000    0.000 
#
# Total GULP energy -156292.995979 kJ/mol
# GULP energy per Si atom -5581.892714 kJ/mol
# Density = 1.861761 g / cm^3
# Si number density = 18.660085 Si / 1000 Ang^3
#
#
#
# Elastic Constant Matrix: (Units=GPa)
#
#
# Indices 1 2 3 4 5 6 
#
# 1 24.1069 6.4495 6.1303 0.0000 18.9352 0.0000
# 2 6.4495 18.6183 22.4124 0.0000 6.9813 0.0000
# 3 6.1303 22.4124 117.4318 0.0000 25.2722 0.0000
# 4 0.0000 0.0000 0.0000 29.8448 0.0000 -3.7364
# 5 18.9352 6.9813 25.2722 0.0000 23.7538 0.0000
# 6 0.0000 0.0000 0.0000 -3.7364 0.0000 24.9925
#
#
#
# Elastic Compliance Matrix: (Units=1/GPa)
#
#
# Indices 1 2 3 4 5 6 
#
# 1 0.163541 -0.037196 0.031470 0.000000 -0.152915 0.000000
# 2 -0.037196 0.079450 -0.018906 0.000000 0.026415 0.000000
# 3 0.031470 -0.018906 0.019045 0.000000 -0.039792 0.000000
# 4 0.000000 0.000000 0.000000 0.034146 0.000000 0.005105
# 5 -0.152915 0.026415 -0.039792 0.000000 0.198566 0.000000
# 6 0.000000 0.000000 0.000000 0.005105 0.000000 0.040775
#
#
# Mechanical properties :
#
#
# Convention : Reuss Voigt Hill
#
# Bulk Modulus (GPa) = 4.69991 25.57125 15.13558
# Shear Modulus (GPa) = 7.62532 24.06252 15.84392
#
# Velocity S-wave (km/s) = 2.02369 3.59488 2.91706
# Velocity P-wave (km/s) = 2.82570 5.56456 4.41299
#
# Compressibility (1/GPa) = 0.21277005
#
# Stress axis : x y z
#
# Youngs Moduli (GPa) = 6.11469 12.58656 52.50844
#
# Poissons Ratio (x) = 0.46817 -1.65245
# Poissons Ratio (y) = 0.22744 0.99274
# Poissons Ratio (z) = -0.19243 0.23797
#
# Static dielectric constant tensor:
#      x y z
#    x 1.621360 0.000000 0.037200 
#    y 0.000000 1.625740 0.000000 
#    z 0.037200 0.000000 1.666840 
# 
# From -- ./inp_files/281708.got.cif
#   From: 2010.05.17/outbox.cif.g08.bks.cpg/sg12_141_cif.got.tgz:281708.got - 2010.06.03 13:09:07.
