data_PCOD9185416
_publ_section_title
;
Structure prediction by ZEFSAII (Michael W. Deem and Ramdas Pophale) SiO2 
 PCOD9185416
Probable space group: C 2/M
;
_chemical_formula_sum "Si O2"
_cell_formula_units_Z 56
_cell_length_a 13.661114
_cell_length_b 13.323531
_cell_length_c 17.604053
_cell_angle_alpha 90.000000
_cell_angle_beta 125.646395
_cell_angle_gamma 90.000000
_cell_volume 2603.817264
_symmetry_space_group_name_H-M "C 2/M"
_symmetry_group_IT_number 12
_symmetry_cell_setting 'monoclinic'
loop_
_space_group_symop_operation_xyz
x,y,z
-x,y,-z
-x,-y,-z
x,-y,z
1/2+x,1/2+y,z
1/2-x,1/2+y,-z
1/2-x,1/2-y,-z
1/2+x,1/2-y,z
loop_
_atom_site_type_symbol
_atom_site_label
_atom_site_fract_x
_atom_site_fract_y
_atom_site_fract_z
Si Si1 0.880252 0.612054 0.564127
Si Si2 0.138307 0.110643 0.355488
Si Si3 0.318120 0.617499 0.047545
Si Si4 0.279240 0.211760 0.138293
Si Si5 0.678702 0.814164 0.295031
Si Si6 0.935466 0.223688 0.341756
Si Si7 0.540647 0.241410 0.099053
O O1 0.929164 0.500000 0.575458
O O2 0.755555 0.620315 0.461869
O O3 0.847799 0.629670 0.638338
O O4 0.973337 0.697068 0.579197
O O5 0.149387 0.197935 0.299820
O O6 0.019298 0.133859 0.350390
O O7 0.134107 0.000000 0.320519
O O8 0.339698 0.500000 0.066017
O O9 0.273033 0.674758 0.101991
O O10 0.436197 0.683340 0.079414
O O11 0.224429 0.640085 0.936413
O O12 0.387174 0.214504 0.246195
O O13 0.158005 0.193368 0.130093
O O14 0.818501 0.815614 0.333123
O O15 0.588649 0.835537 0.184347
O O16 0.500000 0.195591 0.000000
#
# Coordination Sequence:
#
# PCOD9185416 Si02
#       7
#     8   8   8   8   8   8   8
#     4  10  22  38  55  81 113 142 178 226 276 327
#     4  10  22  38  57  83 110 138 182 231 272 323
#     4  10  19  34  57  78 104 146 186 223 270 318
#     4   9  20  34  51  81 112 136 180 233 269 313
#     4  10  20  36  59  81 107 146 184 219 271 327
#     4  10  20  36  56  78 109 145 178 221 273 323
#     4   9  19  35  54  79 112 142 177 225 266 309
#
# _framework density 21.506883999999999
#
# number of rings (size 3 to 8) (size 9 to 14) (size 15 to 20)
#    0.000    2.286    0.000    3.429    0.000    8.857 
#    0.000    9.286    0.000   11.143    0.000    0.000 
#    0.000    0.000    0.000    0.000    0.000    0.000 
#
# Total GULP energy -156220.161565 kJ/mol
# GULP energy per Si atom -5579.291484 kJ/mol
# Density = 2.145793 g / cm^3
# Si number density = 21.506884 Si / 1000 Ang^3
#
#
#
# Elastic Constant Matrix: (Units=GPa)
#
#
# Indices 1 2 3 4 5 6 
#
# 1 67.4797 9.0367 18.5303 0.0000 12.6852 0.0000
# 2 9.0367 34.4860 -3.5788 0.0000 4.5004 0.0000
# 3 18.5303 -3.5788 67.7271 0.0000 2.9758 0.0000
# 4 0.0000 0.0000 0.0000 0.0015 0.0000 -2.4423
# 5 12.6852 4.5004 2.9758 0.0000 33.7135 0.0000
# 6 0.0000 0.0000 0.0000 -2.4423 0.0000 -0.2637
#
#
#
# Elastic Compliance Matrix: (Units=1/GPa)
#
#
# Indices 1 2 3 4 5 6 
#
# 1 0.017815 -0.004431 -0.004859 0.000000 -0.005683 0.000000
# 2 -0.004431 0.030819 0.002960 0.000000 -0.002708 0.000000
# 3 -0.004859 0.002960 0.016251 0.000000 -0.000001 0.000000
# 4 0.000000 0.000000 0.000000 0.044215 0.000000 -0.409428
# 5 -0.005683 -0.002708 -0.000001 0.000000 0.032162 0.000000
# 6 0.000000 0.000000 0.000000 -0.409428 0.000000 -0.000256
#
#
# Mechanical properties :
#
#
# Convention : Reuss Voigt Hill
#
# Bulk Modulus (GPa) = 19.14776 24.18547 21.66662
# Shear Modulus (GPa) = 29.22716 16.40388 22.81552
#
# Velocity S-wave (km/s) = 3.69042 2.76475 3.26060
# Velocity P-wave (km/s) = 5.20397 4.63267 4.92661
#
# Compressibility (1/GPa) = 0.05222543
#
# Stress axis : x y z
#
# Youngs Moduli (GPa) = 56.13185 32.44759 61.53480
#
# Poissons Ratio (x) = 0.14377 0.29898
# Poissons Ratio (y) = 0.24872 -0.18213
# Poissons Ratio (z) = 0.27273 -0.09604
#
# Static dielectric constant tensor:
#      x y z
#    x 1.804320 0.000000 0.003220 
#    y 0.000000 1.726700 0.000000 
#    z 0.003220 0.000000 1.860920 
# 
# From -- ./inp_files/270414.got.cif
#   From: 2010.05.17/outbox.cif.g08.bks.cpg/sg12_136_cif.got.tgz:270414.got - 2010.06.03 13:09:07.
