data_PCOD9185741
_publ_section_title
;
Structure prediction by ZEFSAII (Michael W. Deem and Ramdas Pophale) SiO2 
 PCOD9185741
Probable space group: C 2/M
;
_chemical_formula_sum "Si O2"
_cell_formula_units_Z 56
_cell_length_a 21.031806
_cell_length_b 7.503152
_cell_length_c 31.900282
_cell_angle_alpha 90.000000
_cell_angle_beta 32.562946
_cell_angle_gamma 90.000000
_cell_volume 2709.439034
_symmetry_space_group_name_H-M "C 2/M"
_symmetry_group_IT_number 12
_symmetry_cell_setting 'monoclinic'
loop_
_space_group_symop_operation_xyz
x,y,z
-x,y,-z
-x,-y,-z
x,-y,z
1/2+x,1/2+y,z
1/2-x,1/2+y,-z
1/2-x,1/2-y,-z
1/2+x,1/2-y,z
loop_
_atom_site_type_symbol
_atom_site_label
_atom_site_fract_x
_atom_site_fract_y
_atom_site_fract_z
Si Si1 0.794394 0.292767 0.750432
Si Si2 0.551871 0.781070 0.751963
Si Si3 0.050754 0.295637 0.847092
Si Si4 0.531659 0.284988 0.416012
Si Si5 0.432892 0.788285 0.996031
Si Si6 0.822102 0.285226 0.829633
Si Si7 0.814738 0.217029 0.588599
O O1 0.761657 0.500000 0.771622
O O2 0.688352 0.203952 0.783667
O O3 0.914773 0.277628 0.657375
O O4 0.806128 0.219844 0.790849
O O5 0.538468 0.718653 0.807497
O O6 0.441833 0.723066 0.785089
O O7 0.679663 0.724145 0.663680
O O8 0.553444 0.000000 0.751584
O O9 0.009323 0.500000 0.866332
O O10 0.981602 0.214321 0.925077
O O11 0.532080 0.500000 0.414979
O O12 0.620752 0.229474 0.403937
O O13 0.401378 0.226318 0.502843
O O14 0.294322 0.762329 0.079615
O O15 0.458869 0.000000 0.980684
O O16 0.500000 0.715696 0.000000
O O17 0.828847 0.500000 0.823833
O O18 0.814706 0.000000 0.588495
#
# Coordination Sequence:
#
# PCOD9185741 Si02
#       7
#     8   8   8   8   8   8   8
#     4  11  21  32  48  76 108 137 168 206 256 309
#     4   9  17  33  55  77 101 134 174 212 249 300
#     4  10  19  34  58  78  96 131 177 217 251 297
#     4   9  16  29  53  81 100 127 175 219 250 288
#     4  10  20  34  54  80 104 129 168 218 263 297
#     4  10  22  36  52  74 105 142 171 202 255 315
#     4   8  14  27  53  81 100 125 172 220 248 288
#
# _framework density 20.668483999999999
#
# number of rings (size 3 to 8) (size 9 to 14) (size 15 to 20)
#    0.000    2.429    2.857    1.286    0.000    2.000 
#    0.000    2.857    0.000    0.000    0.000    0.000 
#    0.000    0.000    0.000    0.000    0.000    0.000 
#
# Total GULP energy -156290.905180 kJ/mol
# GULP energy per Si atom -5581.818042 kJ/mol
# Density = 2.062144 g / cm^3
# Si number density = 20.668484 Si / 1000 Ang^3
#
#
#
# Elastic Constant Matrix: (Units=GPa)
#
#
# Indices 1 2 3 4 5 6 
#
# 1 58.9741 -7.0783 21.2079 -0.0035 -3.3785 -0.0177
# 2 -7.0783 52.7147 -12.7589 -0.0022 2.2652 -0.0028
# 3 21.2079 -12.7589 138.5814 0.0023 2.4228 0.0038
# 4 -0.0035 -0.0022 0.0023 26.9070 0.0024 -0.6430
# 5 -3.3785 2.2652 2.4228 0.0024 33.8057 0.0015
# 6 -0.0177 -0.0028 0.0038 -0.6430 0.0015 3.2050
#
#
#
# Elastic Compliance Matrix: (Units=1/GPa)
#
#
# Indices 1 2 3 4 5 6 
#
# 1 0.018230 0.001721 -0.002665 0.000005 0.001898 0.000105
# 2 0.001721 0.019634 0.001566 0.000002 -0.001256 0.000026
# 3 -0.002665 0.001566 0.007784 -0.000001 -0.000929 -0.000022
# 4 0.000005 0.000002 -0.000001 0.037344 -0.000003 0.007492
# 5 0.001898 -0.001256 -0.000929 -0.000003 0.029921 -0.000004
# 6 0.000105 0.000026 -0.000022 0.007492 -0.000004 0.313518
#
#
# Mechanical properties :
#
#
# Convention : Reuss Voigt Hill
#
# Bulk Modulus (GPa) = 21.32437 28.11238 24.71837
# Shear Modulus (GPa) = 11.34256 29.37683 20.35970
#
# Velocity S-wave (km/s) = 2.34516 3.77415 3.14197
# Velocity P-wave (km/s) = 4.20390 5.71169 5.01478
#
# Compressibility (1/GPa) = 0.04689471
#
# Stress axis : x y z
#
# Youngs Moduli (GPa) = 54.85420 50.93146 128.46552
#
# Poissons Ratio (x) = -0.08767 0.34230
# Poissons Ratio (y) = -0.09443 -0.20120
# Poissons Ratio (z) = 0.14616 -0.07977
#
# Static dielectric constant tensor:
#      x y z
#    x 1.703170 0.000000 0.019430 
#    y 0.000000 1.789200 0.000000 
#    z 0.019430 0.000000 1.733330 
# 
# From -- ./inp_files/319682.got.cif
#   From: 2010.05.17/outbox.cif.g08.bks.cpg/sg12_160_cif.got.tgz:319682.got - 2010.06.03 13:09:07.
