data_PCOD9185586
_publ_section_title
;
Structure prediction by ZEFSAII (Michael W. Deem and Ramdas Pophale) SiO2 
 PCOD9185586
Probable space group: C 2/M
;
_chemical_formula_sum "Si O2"
_cell_formula_units_Z 64
_cell_length_a 29.100939
_cell_length_b 8.520900
_cell_length_c 13.347966
_cell_angle_alpha 90.000000
_cell_angle_beta 93.991702
_cell_angle_gamma 90.000000
_cell_volume 3301.815078
_symmetry_space_group_name_H-M "C 2/M"
_symmetry_group_IT_number 12
_symmetry_cell_setting 'monoclinic'
loop_
_space_group_symop_operation_xyz
x,y,z
-x,y,-z
-x,-y,-z
x,-y,z
1/2+x,1/2+y,z
1/2-x,1/2+y,-z
1/2-x,1/2-y,-z
1/2+x,1/2-y,z
loop_
_atom_site_type_symbol
_atom_site_label
_atom_site_fract_x
_atom_site_fract_y
_atom_site_fract_z
Si Si1 0.946569 0.811828 0.798618
Si Si2 0.393370 0.686963 0.379114
Si Si3 0.396666 0.809993 0.989140
Si Si4 0.198934 0.310755 0.725924
Si Si5 0.884958 0.808255 0.601661
Si Si6 0.720657 0.311199 0.401864
Si Si7 0.298937 0.810989 0.043267
Si Si8 0.449892 0.187695 0.199612
O O1 0.922987 0.754510 0.897184
O O2 0.916781 0.756881 0.698261
O O3 0.998549 0.751555 0.799019
O O4 0.946989 0.000000 0.798108
O O5 0.398550 0.500000 0.376266
O O6 0.340771 0.731983 0.345588
O O7 0.402713 0.740261 0.494459
O O8 0.424922 0.759250 0.297473
O O9 0.397853 0.000000 0.985866
O O10 0.343266 0.758893 0.986372
O O11 0.421291 0.760890 0.096699
O O12 0.193297 0.500000 0.718430
O O13 0.249239 0.269827 0.691126
O O14 0.193415 0.263770 0.840177
O O15 0.831954 0.754847 0.606504
O O16 0.884466 0.000000 0.602205
O O17 0.719177 0.500000 0.408154
O O18 0.750000 0.250000 0.500000
O O19 0.297954 0.000000 0.041041
O O20 0.250000 0.750000 0.000000
O O21 0.450805 0.000000 0.198039
#
# Coordination Sequence:
#
# PCOD9185586 Si02
#       8
#     8   8   8   8   8   8   8   8
#     4  11  24  41  63  90 119 153 200 248 296 355
#     4  11  21  37  63  89 118 155 203 247 291 352
#     4  10  22  42  63  85 120 161 195 239 302 359
#     4  10  20  36  58  84 118 159 198 240 296 353
#     4   9  21  39  57  85 125 161 190 241 304 348
#     4  10  19  34  57  83 114 154 196 232 280 342
#     4  10  22  39  58  86 121 158 196 238 294 352
#     4  11  23  43  66  87 118 154 194 246 308 359
#
# _framework density 19.383279999999999
#
# number of rings (size 3 to 8) (size 9 to 14) (size 15 to 20)
#    0.000    1.750    2.500    1.500    1.750    4.000 
#    0.000    6.250    0.000    0.000    0.000    0.000 
#    0.000    0.000    0.000    0.000    0.000    0.000 
#
# Total GULP energy -178749.721757 kJ/mol
# GULP energy per Si atom -5585.928805 kJ/mol
# Density = 1.933916 g / cm^3
# Si number density = 19.383280 Si / 1000 Ang^3
#
#
#
# Elastic Constant Matrix: (Units=GPa)
#
#
# Indices 1 2 3 4 5 6 
#
# 1 167.6312 28.7323 89.1972 0.0000 -5.3387 0.0000
# 2 28.7323 19.8063 29.5967 0.0000 -2.1746 0.0000
# 3 89.1972 29.5967 138.1624 0.0000 -17.8117 0.0000
# 4 0.0000 0.0000 0.0000 19.8990 0.0000 0.9599
# 5 -5.3387 -2.1746 -17.8117 0.0000 30.5728 0.0000
# 6 0.0000 0.0000 0.0000 0.9599 0.0000 32.6247
#
#
#
# Elastic Compliance Matrix: (Units=1/GPa)
#
#
# Indices 1 2 3 4 5 6 
#
# 1 0.009777 -0.006776 -0.005084 0.000000 -0.001737 0.000000
# 2 -0.006776 0.079485 -0.013057 0.000000 -0.003136 0.000000
# 3 -0.005084 -0.013057 0.014145 0.000000 0.006425 0.000000
# 4 0.000000 0.000000 0.000000 0.050325 0.000000 -0.001481
# 5 -0.001737 -0.003136 0.006425 0.000000 0.035925 0.000000
# 6 0.000000 0.000000 0.000000 -0.001481 0.000000 0.030695
#
#
# Mechanical properties :
#
#
# Convention : Reuss Voigt Hill
#
# Bulk Modulus (GPa) = 18.66603 68.96136 43.81370
# Shear Modulus (GPa) = 17.35832 28.49086 22.92459
#
# Velocity S-wave (km/s) = 2.99579 3.83804 3.44277
# Velocity P-wave (km/s) = 4.64943 7.43611 6.20133
#
# Compressibility (1/GPa) = 0.05357325
#
# Stress axis : x y z
#
# Youngs Moduli (GPa) = 102.28069 12.58093 70.69388
#
# Poissons Ratio (x) = 0.08525 0.35943
# Poissons Ratio (y) = 0.69308 0.92303
# Poissons Ratio (z) = 0.52003 0.16427
#
# Static dielectric constant tensor:
#      x y z
#    x 1.658740 0.000000 -0.006640 
#    y 0.000000 1.665930 0.000000 
#    z -0.006640 0.000000 1.669700 
# 
# From -- ./inp_files/187612.got.cif
#   From: 2010.05.17/outbox.cif.g08.bks.cpg/sg12_94_cif.got.tgz:187612.got - 2010.06.03 13:09:07.
