data_PCOD9185772
_publ_section_title
;
Structure prediction by ZEFSAII (Michael W. Deem and Ramdas Pophale) SiO2 
 PCOD9185772
Probable space group: C 2/M
;
_chemical_formula_sum "Si O2"
_cell_formula_units_Z 56
_cell_length_a 9.063718
_cell_length_b 15.396911
_cell_length_c 22.106456
_cell_angle_alpha 90.000000
_cell_angle_beta 65.086436
_cell_angle_gamma 90.000000
_cell_volume 2797.948593
_symmetry_space_group_name_H-M "C 2/M"
_symmetry_group_IT_number 12
_symmetry_cell_setting 'monoclinic'
loop_
_space_group_symop_operation_xyz
x,y,z
-x,y,-z
-x,-y,-z
x,-y,z
1/2+x,1/2+y,z
1/2-x,1/2+y,-z
1/2-x,1/2-y,-z
1/2+x,1/2-y,z
loop_
_atom_site_type_symbol
_atom_site_label
_atom_site_fract_x
_atom_site_fract_y
_atom_site_fract_z
Si Si1 0.605285 0.245741 0.102524
Si Si2 0.857103 0.843997 0.565735
Si Si3 0.286305 0.904474 0.287248
Si Si4 0.179339 0.897191 0.999319
Si Si5 0.259556 0.244759 0.195740
Si Si6 0.144725 0.404462 0.284300
Si Si7 0.998739 0.653123 0.433168
O O1 0.697468 0.159127 0.063773
O O2 0.413620 0.237904 0.124550
O O3 0.614128 0.252056 0.173250
O O4 0.667852 0.334021 0.059965
O O5 0.822906 0.891996 0.634272
O O6 0.687041 0.839490 0.558501
O O7 0.000000 0.883283 0.500000
O O8 0.920232 0.747820 0.572127
O O9 0.249517 0.833957 0.243482
O O10 0.470919 0.897120 0.280053
O O11 0.263872 0.000000 0.265470
O O12 0.222521 0.000000 0.000816
O O13 0.000000 0.896520 0.000000
O O14 0.256658 0.331024 0.236668
O O15 0.212289 0.500000 0.262079
O O16 0.101084 0.392055 0.362392
O O17 0.000000 0.612254 0.500000
#
# Coordination Sequence:
#
# PCOD9185772 Si02
#       7
#     8   8   8   8   8   8   8
#     4  11  24  40  67  98 123 164 198 246 297 349
#     4  10  19  34  58  82 113 155 203 252 310 366
#     4  10  22  39  60  87 121 162 205 252 309 364
#     4  10  22  43  69  97 127 160 202 243 289 354
#     4  12  22  41  64  89 131 160 203 247 298 356
#     4  10  22  39  61  87 119 164 208 248 305 371
#     4  10  19  34  58  83 113 153 203 257 308 359
#
# _framework density 20.014662999999999
#
# number of rings (size 3 to 8) (size 9 to 14) (size 15 to 20)
#    0.000    1.571    4.286    1.714    0.000    2.857 
#    2.571    0.714    0.000    0.000    0.000    0.000 
#    0.000    0.000    0.000    0.000    0.000    0.000 
#
# Total GULP energy -156205.458848 kJ/mol
# GULP energy per Si atom -5578.766387 kJ/mol
# Density = 1.996911 g / cm^3
# Si number density = 20.014663 Si / 1000 Ang^3
#
#
#
# Elastic Constant Matrix: (Units=GPa)
#
#
# Indices 1 2 3 4 5 6 
#
# 1 38.4691 22.2168 19.5566 0.0000 -5.8655 0.0000
# 2 22.2168 164.9192 67.4724 0.0000 -1.2524 0.0000
# 3 19.5566 67.4724 97.0532 0.0000 3.5631 0.0000
# 4 0.0000 0.0000 0.0000 -109.3315 0.0000 5.6496
# 5 -5.8655 -1.2524 3.5631 0.0000 37.1342 0.0000
# 6 0.0000 0.0000 0.0000 5.6496 0.0000 22.3948
#
#
#
# Elastic Compliance Matrix: (Units=1/GPa)
#
#
# Indices 1 2 3 4 5 6 
#
# 1 0.030470 -0.002061 -0.004898 0.000000 0.005213 0.000000
# 2 -0.002061 0.008640 -0.005610 0.000000 0.000504 0.000000
# 3 -0.004898 -0.005610 0.015280 0.000000 -0.002429 0.000000
# 4 0.000000 0.000000 0.000000 -0.009029 0.000000 0.002278
# 5 0.005213 0.000504 -0.002429 0.000000 0.028003 0.000000
# 6 0.000000 0.000000 0.000000 0.002278 0.000000 0.044079
#
#
# Mechanical properties :
#
#
# Convention : Reuss Voigt Hill
#
# Bulk Modulus (GPa) = 34.18616 57.65923 45.92269
# Shear Modulus (GPa) = 32.82293 2.78590 17.80441
#
# Velocity S-wave (km/s) = 4.05402 1.18108 2.98580
# Velocity P-wave (km/s) = 6.24748 5.54355 5.90601
#
# Compressibility (1/GPa) = 0.02925160
#
# Stress axis : x y z
#
# Youngs Moduli (GPa) = 32.81881 115.73764 65.44530
#
# Poissons Ratio (x) = 0.23855 0.32057
# Poissons Ratio (y) = 0.06764 0.36715
# Poissons Ratio (z) = 0.16076 0.64928
#
# Static dielectric constant tensor:
#      x y z
#    x 1.680530 0.000000 -0.010950 
#    y 0.000000 1.693120 0.000000 
#    z -0.010950 0.000000 1.717530 
# 
# From -- ./inp_files/332574.got.cif
#   From: 2010.05.17/outbox.cif.g08.bks.cpg/sg12_167_cif.got.tgz:332574.got - 2010.06.03 13:09:07.
