data_PCOD9185616
_publ_section_title
;
Structure prediction by ZEFSAII (Michael W. Deem and Ramdas Pophale) SiO2 
 PCOD9185616
Probable space group: C 2/M
;
_chemical_formula_sum "Si O2"
_cell_formula_units_Z 56
_cell_length_a 19.321450
_cell_length_b 7.629773
_cell_length_c 25.609009
_cell_angle_alpha 90.000000
_cell_angle_beta 40.320244
_cell_angle_gamma 90.000000
_cell_volume 2442.801216
_symmetry_space_group_name_H-M "C 2/M"
_symmetry_group_IT_number 12
_symmetry_cell_setting 'monoclinic'
loop_
_space_group_symop_operation_xyz
x,y,z
-x,y,-z
-x,-y,-z
x,-y,z
1/2+x,1/2+y,z
1/2-x,1/2+y,-z
1/2-x,1/2-y,-z
1/2+x,1/2-y,z
loop_
_atom_site_type_symbol
_atom_site_label
_atom_site_fract_x
_atom_site_fract_y
_atom_site_fract_z
Si Si1 0.828897 0.290339 0.502813
Si Si2 0.069038 0.705801 0.350179
Si Si3 0.475691 0.784500 0.181434
Si Si4 0.472544 0.798786 0.070841
Si Si5 0.736970 0.295434 0.342287
Si Si6 0.699332 0.209608 0.085262
Si Si7 0.246737 0.713839 0.170770
O O1 0.833943 0.500000 0.504631
O O2 0.750000 0.250000 0.500000
O O3 0.788201 0.223696 0.582125
O O4 0.949860 0.220529 0.424591
O O5 0.054344 0.500000 0.348496
O O6 0.143568 0.720819 0.358888
O O7 0.138266 0.772009 0.261440
O O8 0.509040 0.721967 0.104316
O O9 0.356766 0.723035 0.263461
O O10 0.575397 0.732015 0.159461
O O11 0.472812 0.000000 0.182488
O O12 0.344579 0.792159 0.146573
O O13 0.510419 0.000000 0.047296
O O14 0.500000 0.711574 0.000000
O O15 0.739997 0.500000 0.327294
O O16 0.756451 0.272472 0.105043
O O17 0.698869 0.000000 0.089238
O O18 0.750000 0.250000 0.000000
O O19 0.253438 0.500000 0.169617
#
# Coordination Sequence:
#
# PCOD9185616 Si02
#       7
#     8   8   8   8   8   8   8
#     4  11  25  43  65  93 124 158 197 243 298 356
#     4  10  22  41  63  88 122 160 197 244 301 357
#     4   9  19  35  57  84 115 154 195 239 291 348
#     4  10  19  34  57  84 114 151 194 240 288 340
#     4  11  22  39  65  92 122 160 201 244 295 356
#     4  10  21  38  58  81 114 155 199 243 296 353
#     4  10  21  36  58  85 114 152 194 240 294 350
#
# _framework density 22.924499999999998
#
# number of rings (size 3 to 8) (size 9 to 14) (size 15 to 20)
#    0.000    1.857    1.429    2.143    2.000    4.857 
#    0.000    2.143    0.000    0.000    0.000    0.000 
#    0.000    0.000    0.000    0.000    0.000    0.000 
#
# Total GULP energy -156382.359755 kJ/mol
# GULP energy per Si atom -5585.084277 kJ/mol
# Density = 2.287232 g / cm^3
# Si number density = 22.924500 Si / 1000 Ang^3
#
#
#
# Elastic Constant Matrix: (Units=GPa)
#
#
# Indices 1 2 3 4 5 6 
#
# 1 107.3080 -11.7185 26.5528 -0.0004 -3.5368 0.0007
# 2 -11.7185 51.3586 -4.4947 -0.0002 -3.0650 -0.0006
# 3 26.5528 -4.4947 112.5787 -0.0003 -2.3603 0.0008
# 4 -0.0004 -0.0002 -0.0003 21.0451 0.0001 0.7279
# 5 -3.5368 -3.0650 -2.3603 0.0001 43.5648 -0.0003
# 6 0.0007 -0.0006 0.0008 0.7279 -0.0003 22.0266
#
#
#
# Elastic Compliance Matrix: (Units=1/GPa)
#
#
# Indices 1 2 3 4 5 6 
#
# 1 0.010150 0.002166 -0.002290 0.000000 0.000852 0.000000
# 2 0.002166 0.020090 0.000325 0.000000 0.001607 0.000000
# 3 -0.002290 0.000325 0.009443 0.000000 0.000349 0.000000
# 4 0.000000 0.000000 0.000000 0.047571 0.000000 -0.001572
# 5 0.000852 0.001607 0.000349 0.000000 0.023155 0.000000
# 6 0.000000 0.000000 0.000000 -0.001572 0.000000 0.045452
#
#
# Mechanical properties :
#
#
# Convention : Reuss Voigt Hill
#
# Bulk Modulus (GPa) = 24.94641 32.43606 28.69124
# Shear Modulus (GPa) = 29.61735 34.72102 32.16918
#
# Velocity S-wave (km/s) = 3.59827 3.89598 3.75008
# Velocity P-wave (km/s) = 5.30745 5.86669 5.59406
#
# Compressibility (1/GPa) = 0.04008593
#
# Stress axis : x y z
#
# Youngs Moduli (GPa) = 98.52007 49.77710 105.89871
#
# Poissons Ratio (x) = -0.10784 0.24247
# Poissons Ratio (y) = -0.21344 -0.03439
# Poissons Ratio (z) = 0.22558 -0.01617
#
# Static dielectric constant tensor:
#      x y z
#    x 1.819210 0.000000 -0.005420 
#    y 0.000000 1.876590 0.000000 
#    z -0.005420 0.000000 1.895710 
# 
# From -- ./inp_files/362915.got.cif
#   From: 2010.05.17/outbox.cif.g08.bks.cpg/sg12_182_cif.got.tgz:362915.got - 2010.06.03 13:09:07.
