data_PCOD9185652
_publ_section_title
;
Structure prediction by ZEFSAII (Michael W. Deem and Ramdas Pophale) SiO2 
 PCOD9185652
Probable space group: C 2/M
;
_chemical_formula_sum "Si O2"
_cell_formula_units_Z 48
_cell_length_a 23.962014
_cell_length_b 8.732520
_cell_length_c 27.105767
_cell_angle_alpha 90.000000
_cell_angle_beta 28.443603
_cell_angle_gamma 90.000000
_cell_volume 2701.464471
_symmetry_space_group_name_H-M "C 2/M"
_symmetry_group_IT_number 12
_symmetry_cell_setting 'monoclinic'
loop_
_space_group_symop_operation_xyz
x,y,z
-x,y,-z
-x,-y,-z
x,-y,z
1/2+x,1/2+y,z
1/2-x,1/2+y,-z
1/2-x,1/2-y,-z
1/2+x,1/2-y,z
loop_
_atom_site_type_symbol
_atom_site_label
_atom_site_fract_x
_atom_site_fract_y
_atom_site_fract_z
Si Si1 0.677480 0.685265 0.893107
Si Si2 0.460731 0.816703 0.475377
Si Si3 0.367269 0.817746 0.383983
Si Si4 0.183718 0.184248 0.681109
Si Si5 0.572216 0.685907 0.870740
Si Si6 0.428377 0.318481 0.707927
O O1 0.687612 0.500000 0.886327
O O2 0.649177 0.731668 0.858438
O O3 0.797095 0.758729 0.818122
O O4 0.562126 0.729278 0.013952
O O5 0.500000 0.774946 0.500000
O O6 0.322852 0.786049 0.575762
O O7 0.532508 0.731994 0.377329
O O8 0.479610 0.000000 0.454971
O O9 0.250000 0.750000 0.500000
O O10 0.367912 0.763484 0.326974
O O11 0.479214 0.756913 0.326591
O O12 0.362490 0.000000 0.391076
O O13 0.123610 0.236800 0.778693
O O14 0.169113 0.000000 0.688122
O O15 0.575054 0.500000 0.868356
O O16 0.434083 0.500000 0.708268
#
# Coordination Sequence:
#
# PCOD9185652 Si02
#       6
#     8   8   8   8   8   8
#     4   9  17  35  61  87 115 151 192 230 274 334
#     4  10  20  34  56  84 114 148 183 224 280 342
#     4  12  24  40  59  80 108 149 193 236 285 341
#     4  10  19  34  57  85 115 146 185 232 281 336
#     4   8  16  33  61  90 115 148 189 230 277 336
#     4  12  24  37  55  82 115 150 190 235 283 334
#
# _framework density 17.768139000000001
#
# number of rings (size 3 to 8) (size 9 to 14) (size 15 to 20)
#    0.000    1.833    1.667    5.000    0.000    3.000 
#    0.000    5.833    0.000    0.000    0.000    0.000 
#    0.000    0.000    0.000    0.000    0.000    0.000 
#
# Total GULP energy -134057.757495 kJ/mol
# GULP energy per Si atom -5585.739896 kJ/mol
# Density = 1.772770 g / cm^3
# Si number density = 17.768139 Si / 1000 Ang^3
#
#
#
# Elastic Constant Matrix: (Units=GPa)
#
#
# Indices 1 2 3 4 5 6 
#
# 1 67.8317 24.4891 25.2870 0.0002 -22.4046 -0.0001
# 2 24.4891 55.2097 29.6769 -0.0005 -12.7757 0.0001
# 3 25.2870 29.6769 80.3447 0.0001 -17.5017 0.0000
# 4 0.0002 -0.0005 0.0001 17.1434 0.0001 -5.4130
# 5 -22.4046 -12.7757 -17.5017 0.0001 34.2095 0.0000
# 6 -0.0001 0.0001 0.0000 -5.4130 0.0000 23.2168
#
#
#
# Elastic Compliance Matrix: (Units=1/GPa)
#
#
# Indices 1 2 3 4 5 6 
#
# 1 0.021130 -0.005729 -0.002235 -0.000001 0.010556 0.000000
# 2 -0.005729 0.024843 -0.006943 0.000001 0.001974 0.000000
# 3 -0.002235 -0.006943 0.016691 0.000000 0.004482 0.000000
# 4 -0.000001 0.000001 0.000000 0.062967 0.000000 0.014681
# 5 0.010556 0.001974 0.004482 0.000000 0.039175 0.000000
# 6 0.000000 0.000000 0.000000 0.014681 0.000000 0.046495
#
#
# Mechanical properties :
#
#
# Convention : Reuss Voigt Hill
#
# Bulk Modulus (GPa) = 30.44126 40.25469 35.34797
# Shear Modulus (GPa) = 19.83617 23.17615 21.50616
#
# Velocity S-wave (km/s) = 3.34487 3.61552 3.48282
# Velocity P-wave (km/s) = 5.66456 6.33514 6.00921
#
# Compressibility (1/GPa) = 0.03285015
#
# Stress axis : x y z
#
# Youngs Moduli (GPa) = 47.32529 40.25329 59.91323
#
# Poissons Ratio (x) = 0.23060 0.13390
# Poissons Ratio (y) = 0.27111 0.41599
# Poissons Ratio (z) = 0.10577 0.27949
#
# Static dielectric constant tensor:
#      x y z
#    x 1.588530 0.000000 0.006700 
#    y 0.000000 1.600000 0.000000 
#    z 0.006700 0.000000 1.592970 
# 
# From -- ./inp_files/172317.got.cif
#   From: 2010.05.17/outbox.cif.g08.bks.cpg/sg12_87_cif.got.tgz:172317.got - 2010.06.03 13:09:07.
