data_PCOD9185702
_publ_section_title
;
Structure prediction by ZEFSAII (Michael W. Deem and Ramdas Pophale) SiO2 
 PCOD9185702
Probable space group: C 2/M
;
_chemical_formula_sum "Si O2"
_cell_formula_units_Z 64
_cell_length_a 21.083259
_cell_length_b 8.578745
_cell_length_c 34.892848
_cell_angle_alpha 90.000000
_cell_angle_beta 33.115646
_cell_angle_gamma 90.000000
_cell_volume 3447.890993
_symmetry_space_group_name_H-M "C 2/M"
_symmetry_group_IT_number 12
_symmetry_cell_setting 'monoclinic'
loop_
_space_group_symop_operation_xyz
x,y,z
-x,y,-z
-x,-y,-z
x,-y,z
1/2+x,1/2+y,z
1/2-x,1/2+y,-z
1/2-x,1/2-y,-z
1/2+x,1/2-y,z
loop_
_atom_site_type_symbol
_atom_site_label
_atom_site_fract_x
_atom_site_fract_y
_atom_site_fract_z
Si Si1 0.624255 0.190170 0.453223
Si Si2 0.591321 0.186828 0.303392
Si Si3 0.530122 0.315535 0.926393
Si Si4 0.335000 0.814935 0.211484
Si Si5 0.653275 0.311269 0.708801
Si Si6 0.638822 0.811736 0.533797
Si Si7 0.825423 0.685861 0.075362
Si Si8 0.570299 0.688115 0.228301
O O1 0.500000 0.241430 0.500000
O O2 0.730428 0.238243 0.372506
O O3 0.640530 0.240817 0.488804
O O4 0.623831 0.000000 0.453554
O O5 0.709196 0.261407 0.259615
O O6 0.480407 0.235237 0.384923
O O7 0.570592 0.236593 0.270092
O O8 0.603122 0.000000 0.299705
O O9 0.543881 0.500000 0.923255
O O10 0.569756 0.260928 0.864715
O O11 0.614240 0.234182 0.915075
O O12 0.400781 0.266811 0.004241
O O13 0.349702 0.759048 0.247484
O O14 0.343587 0.000000 0.204532
O O15 0.655033 0.500000 0.711152
O O16 0.541382 0.267877 0.740121
O O17 0.750000 0.750000 0.500000
O O18 0.642310 0.000000 0.532275
O O19 0.835010 0.500000 0.066198
O O20 0.690674 0.729575 0.146303
O O21 0.569272 0.500000 0.233695
#
# Coordination Sequence:
#
# PCOD9185702 Si02
#       8
#     8   8   8   8   8   8   8   8
#     4   9  17  33  57  80 107 146 192 235 279 334
#     4  11  22  36  59  87 116 150 195 243 287 345
#     4  11  21  35  58  87 116 150 192 239 287 341
#     4  12  24  39  58  84 116 152 193 243 295 342
#     4  10  21  38  59  83 114 154 196 238 287 349
#     4  10  21  36  56  84 114 148 187 234 289 344
#     4  10  19  34  57  87 120 153 189 234 287 344
#     4  10  21  37  59  86 119 157 193 234 290 349
#
# _framework density 18.562071
#
# number of rings (size 3 to 8) (size 9 to 14) (size 15 to 20)
#    0.000    1.625    1.250    5.250    0.000    5.000 
#    0.000    1.250    0.000    1.500    0.000    0.000 
#    0.000    0.000    0.000    0.000    0.000    0.000 
#
# Total GULP energy -178828.430534 kJ/mol
# GULP energy per Si atom -5588.388454 kJ/mol
# Density = 1.851982 g / cm^3
# Si number density = 18.562071 Si / 1000 Ang^3
#
#
#
# Elastic Constant Matrix: (Units=GPa)
#
#
# Indices 1 2 3 4 5 6 
#
# 1 100.3917 5.2043 47.1093 -0.0018 11.8030 0.0118
# 2 5.2043 15.0579 9.8500 -0.0537 -1.8080 -0.0572
# 3 47.1093 9.8500 142.0772 0.0248 10.2763 -0.0066
# 4 -0.0018 -0.0537 0.0248 -17.9308 0.0028 -11.5944
# 5 11.8030 -1.8080 10.2763 0.0028 27.2611 0.0030
# 6 0.0118 -0.0572 -0.0066 -11.5944 0.0030 15.6151
#
#
#
# Elastic Compliance Matrix: (Units=1/GPa)
#
#
# Indices 1 2 3 4 5 6 
#
# 1 0.012257 -0.002373 -0.003603 0.000008 -0.004106 -0.000012
# 2 -0.002373 0.071202 -0.004693 -0.000261 0.007519 0.000066
# 3 -0.003603 -0.004693 0.008705 0.000022 -0.002033 0.000006
# 4 0.000008 -0.000261 0.000022 -0.037678 -0.000022 -0.027978
# 5 -0.004106 0.007519 -0.002033 -0.000022 0.039725 0.000005
# 6 -0.000012 0.000066 0.000006 -0.027978 0.000005 0.043267
#
#
# Mechanical properties :
#
#
# Convention : Reuss Voigt Hill
#
# Bulk Modulus (GPa) = 14.11881 42.42825 28.27353
# Shear Modulus (GPa) = 27.40834 18.01328 22.71081
#
# Velocity S-wave (km/s) = 3.84679 3.11856 3.50166
# Velocity P-wave (km/s) = 5.23003 5.98952 5.62261
#
# Compressibility (1/GPa) = 0.07082748
#
# Stress axis : x y z
#
# Youngs Moduli (GPa) = 81.58357 14.04446 114.87069
#
# Poissons Ratio (x) = 0.03332 0.41385
# Poissons Ratio (y) = 0.19358 0.53914
# Poissons Ratio (z) = 0.29393 0.06592
#
# Static dielectric constant tensor:
#      x y z
#    x 1.618560 -0.000020 0.002570 
#    y -0.000020 1.631390 -0.000010 
#    z 0.002570 -0.000010 1.643210 
# 
# From -- ./inp_files/378054.got.cif
#   From: 2010.05.17/outbox.cif.g08.bks.cpg/sg12_190_cif.got.tgz:378054.got - 2010.06.03 13:09:07.
