data_PCOD9185708
_publ_section_title
;
Structure prediction by ZEFSAII (Michael W. Deem and Ramdas Pophale) SiO2 
 PCOD9185708
Probable space group: C 2/M
;
_chemical_formula_sum "Si O2"
_cell_formula_units_Z 64
_cell_length_a 16.318937
_cell_length_b 16.006275
_cell_length_c 16.315061
_cell_angle_alpha 90.000000
_cell_angle_beta 45.420193
_cell_angle_gamma 90.000000
_cell_volume 3035.411723
_symmetry_space_group_name_H-M "C 2/M"
_symmetry_group_IT_number 12
_symmetry_cell_setting 'monoclinic'
loop_
_space_group_symop_operation_xyz
x,y,z
-x,y,-z
-x,-y,-z
x,-y,z
1/2+x,1/2+y,z
1/2-x,1/2+y,-z
1/2-x,1/2-y,-z
1/2+x,1/2-y,z
loop_
_atom_site_type_symbol
_atom_site_label
_atom_site_fract_x
_atom_site_fract_y
_atom_site_fract_z
Si Si1 0.711868 0.655695 0.543450
Si Si2 0.269337 0.602174 0.822016
Si Si3 0.641183 0.195316 0.042611
Si Si4 0.472109 0.652523 0.804250
Si Si5 0.869451 0.100037 0.578654
Si Si6 0.895653 0.904777 0.027374
Si Si7 0.354684 0.901334 0.806337
Si Si8 0.048617 0.399706 0.552429
O O1 0.750000 0.750000 0.500000
O O2 0.598853 0.644030 0.678808
O O3 0.681762 0.620934 0.474211
O O4 0.821309 0.617616 0.513635
O O5 0.256259 0.500000 0.839231
O O6 0.382342 0.632044 0.794192
O O7 0.291700 0.624059 0.711411
O O8 0.168203 0.657144 0.935078
O O9 0.540326 0.257452 0.141459
O O10 0.632038 0.115770 0.107732
O O11 0.750000 0.250000 0.000000
O O12 0.430243 0.593836 0.908085
O O13 0.000000 0.133367 0.500000
O O14 0.877335 0.000000 0.577178
O O15 0.770654 0.865962 0.129298
O O16 0.887235 0.000000 0.064143
O O17 0.000000 0.861205 0.000000
O O18 0.460814 0.864931 0.682182
O O19 0.350886 0.000000 0.795148
O O20 0.038095 0.500000 0.557979
O O21 0.000000 0.368014 0.500000
#
# Coordination Sequence:
#
# PCOD9185708 Si02
#       8
#     8   8   8   8   8   8   8   8
#     4  12  26  44  62  94 136 177 220 268 330 397
#     4  10  19  36  65  99 127 163 215 271 334 395
#     4  10  19  34  57  87 125 161 204 249 318 390
#     4  11  22  38  60  94 129 168 210 267 325 388
#     4  10  21  40  68  99 129 167 221 282 336 388
#     4  10  21  35  57  92 125 159 208 264 319 375
#     4  10  19  37  62  86 120 161 208 258 311 377
#     4  10  24  44  66  92 124 175 225 266 320 386
#
# _framework density 21.084454000000001
#
# number of rings (size 3 to 8) (size 9 to 14) (size 15 to 20)
#    0.000    1.625    3.750    1.875    1.750    2.000 
#    6.750    0.000    0.000    0.000    0.000    5.250 
#    0.000    0.000    0.000    0.000    0.000    0.000 
#
# Total GULP energy -178321.195861 kJ/mol
# GULP energy per Si atom -5572.537371 kJ/mol
# Density = 2.103647 g / cm^3
# Si number density = 21.084454 Si / 1000 Ang^3
#
#
#
# Elastic Constant Matrix: (Units=GPa)
#
#
# Indices 1 2 3 4 5 6 
#
# 1 102.0038 7.6714 62.9756 0.0000 3.0609 0.0000
# 2 7.6714 43.5713 22.6752 0.0000 -3.0453 0.0000
# 3 62.9756 22.6752 165.4844 0.0000 0.3846 0.0000
# 4 0.0000 0.0000 0.0000 25.7244 0.0000 -7.2460
# 5 3.0609 -3.0453 0.3846 0.0000 26.1244 0.0000
# 6 0.0000 0.0000 0.0000 -7.2460 0.0000 -3.9148
#
#
#
# Elastic Compliance Matrix: (Units=1/GPa)
#
#
# Indices 1 2 3 4 5 6 
#
# 1 0.012869 0.000196 -0.004921 0.000000 -0.001413 0.000000
# 2 0.000196 0.024943 -0.003499 0.000000 0.002936 0.000000
# 3 -0.004921 -0.003499 0.008395 0.000000 0.000045 0.000000
# 4 0.000000 0.000000 0.000000 0.025552 0.000000 -0.047294
# 5 -0.001413 0.002936 0.000045 0.000000 0.038785 0.000000
# 6 0.000000 0.000000 0.000000 -0.047294 0.000000 -0.167904
#
#
# Mechanical properties :
#
#
# Convention : Reuss Voigt Hill
#
# Bulk Modulus (GPa) = 33.60322 55.30044 44.45183
# Shear Modulus (GPa) = -161.33431 24.10263 -68.61584
#
# Velocity S-wave (km/s) = -8.75695 3.38471 -5.71087
# Velocity P-wave (km/s) = 9.28836 6.44671 4.72830
#
# Compressibility (1/GPa) = 0.02975905
#
# Stress axis : x y z
#
# Youngs Moduli (GPa) = 77.70376 40.09201 119.11866
#
# Poissons Ratio (x) = -0.00788 0.58620
# Poissons Ratio (y) = -0.01526 0.41683
# Poissons Ratio (z) = 0.38239 0.14029
#
# Static dielectric constant tensor:
#      x y z
#    x 1.809120 0.000000 -0.016570 
#    y 0.000000 1.809790 0.000000 
#    z -0.016570 0.000000 1.785640 
# 
# From -- ./inp_files/216769.got.cif
#   From: 2010.05.17/outbox.cif.g08.bks.cpg/sg12_109_cif.got.tgz:216769.got - 2010.06.03 13:09:07.
