data_PCOD9185136
_publ_section_title
;
Structure prediction by ZEFSAII (Michael W. Deem and Ramdas Pophale) SiO2 
 PCOD9185136
Probable space group: C 2/M
;
_chemical_formula_sum "Si O2"
_cell_formula_units_Z 64
_cell_length_a 24.550269
_cell_length_b 7.408383
_cell_length_c 15.851433
_cell_angle_alpha 90.000000
_cell_angle_beta 93.169945
_cell_angle_gamma 90.000000
_cell_volume 2878.612400
_symmetry_space_group_name_H-M "C 2/M"
_symmetry_group_IT_number 12
_symmetry_cell_setting 'monoclinic'
loop_
_space_group_symop_operation_xyz
x,y,z
-x,y,-z
-x,-y,-z
x,-y,z
1/2+x,1/2+y,z
1/2-x,1/2+y,-z
1/2-x,1/2-y,-z
1/2+x,1/2-y,z
loop_
_atom_site_type_symbol
_atom_site_label
_atom_site_fract_x
_atom_site_fract_y
_atom_site_fract_z
Si Si1 0.398024 0.202205 0.167221
Si Si2 0.623659 0.794783 0.179951
Si Si3 0.347108 0.780429 0.520826
Si Si4 0.838986 0.708972 0.327438
Si Si5 0.968307 0.282698 0.579871
Si Si6 0.213894 0.719662 0.318867
Si Si7 0.435284 0.221888 0.994400
Si Si8 0.511281 0.296635 0.239585
O O1 0.369887 0.286998 0.247724
O O2 0.401614 0.283328 0.074077
O O3 0.462245 0.193576 0.193082
O O4 0.374631 0.000000 0.157138
O O5 0.671423 0.717074 0.242994
O O6 0.569534 0.794031 0.232477
O O7 0.640495 0.000000 0.162026
O O8 0.598868 0.718562 0.090813
O O9 0.344872 0.715899 0.423502
O O10 0.405484 0.730982 0.564916
O O11 0.303291 0.721719 0.587579
O O12 0.343764 0.000000 0.516578
O O13 0.858237 0.500000 0.334430
O O14 0.774666 0.718429 0.304672
O O15 0.970629 0.500000 0.587625
O O16 0.000000 0.228879 0.500000
O O17 0.997886 0.201879 0.662194
O O18 0.212176 0.500000 0.319031
O O19 0.436345 0.000000 0.994570
O O20 0.500000 0.275473 0.000000
O O21 0.512918 0.500000 0.206572
#
# Coordination Sequence:
#
# PCOD9185136 Si02
#       8
#     8   8   8   8   8   8   8   8
#     4  10  20  37  58  80 108 145 186 228 275 330
#     4  10  19  36  59  81 106 141 186 229 268 326
#     4   9  17  32  53  79 104 138 185 223 262 315
#     4  10  21  36  56  80 108 140 183 231 271 320
#     4  10  19  34  56  78 107 148 190 226 266 325
#     4  10  20  35  56  77 107 145 184 228 271 320
#     4   9  16  30  59  87 103 133 186 235 268 316
#     4  12  23  33  51  82 118 147 174 221 281 334
#
# _framework density 22.232932000000002
#
# number of rings (size 3 to 8) (size 9 to 14) (size 15 to 20)
#    0.000    2.000    2.500    2.250    0.000    3.250 
#    0.000    2.500    0.000    0.000    0.000    0.000 
#    0.000    0.000    0.000    0.000    0.000    0.000 
#
# Total GULP energy -178535.365912 kJ/mol
# GULP energy per Si atom -5579.230185 kJ/mol
# Density = 2.218233 g / cm^3
# Si number density = 22.232932 Si / 1000 Ang^3
#
#
#
# Elastic Constant Matrix: (Units=GPa)
#
#
# Indices 1 2 3 4 5 6 
#
# 1 41.4079 -4.2147 18.8066 0.0000 -3.4020 0.0000
# 2 -4.2147 76.7230 8.2400 0.0000 -1.3434 0.0000
# 3 18.8066 8.2400 176.8828 0.0000 2.2306 0.0000
# 4 0.0000 0.0000 0.0000 32.3200 0.0000 22.0771
# 5 -3.4020 -1.3434 2.2306 0.0000 31.1830 0.0000
# 6 0.0000 0.0000 0.0000 22.0771 0.0000 -6.9150
#
#
#
# Elastic Compliance Matrix: (Units=1/GPa)
#
#
# Indices 1 2 3 4 5 6 
#
# 1 0.025893 0.001786 -0.002875 0.000000 0.003107 0.000000
# 2 0.001786 0.013234 -0.000817 0.000000 0.000823 0.000000
# 3 -0.002875 -0.000817 0.006007 0.000000 -0.000779 0.000000
# 4 0.000000 0.000000 0.000000 0.009727 0.000000 0.031056
# 5 0.003107 0.000823 -0.000779 0.000000 0.032499 0.000000
# 6 0.000000 0.000000 0.000000 0.031056 0.000000 -0.045464
#
#
# Mechanical properties :
#
#
# Convention : Reuss Voigt Hill
#
# Bulk Modulus (GPa) = 24.20066 37.85304 31.02685
# Shear Modulus (GPa) = 84.05799 29.46306 56.76053
#
# Velocity S-wave (km/s) = 6.15548 3.64428 5.05820
# Velocity P-wave (km/s) = 7.83764 5.89664 6.93538
#
# Compressibility (1/GPa) = 0.04132119
#
# Stress axis : x y z
#
# Youngs Moduli (GPa) = 38.62053 75.56222 166.47124
#
# Poissons Ratio (x) = -0.13493 0.47867
# Poissons Ratio (y) = -0.06896 0.13596
# Poissons Ratio (z) = 0.11105 0.06171
#
# Static dielectric constant tensor:
#      x y z
#    x 1.773200 0.000000 -0.022980 
#    y 0.000000 1.793070 0.000000 
#    z -0.022980 0.000000 1.854270 
# 
# From -- ./inp_files/238744.got.cif
#   From: 2010.05.17/outbox.cif.g08.bks.cpg/sg12_120_cif.got.tgz:238744.got - 2010.06.03 13:09:07.
