data_PCOD9185576
_publ_section_title
;
Structure prediction by ZEFSAII (Michael W. Deem and Ramdas Pophale) SiO2 
 PCOD9185576
Probable space group: C 2/M
;
_chemical_formula_sum "Si O2"
_cell_formula_units_Z 64
_cell_length_a 27.236418
_cell_length_b 7.531585
_cell_length_c 13.809146
_cell_angle_alpha 90.000000
_cell_angle_beta 90.400570
_cell_angle_gamma 90.000000
_cell_volume 2832.647804
_symmetry_space_group_name_H-M "C 2/M"
_symmetry_group_IT_number 12
_symmetry_cell_setting 'monoclinic'
loop_
_space_group_symop_operation_xyz
x,y,z
-x,y,-z
-x,-y,-z
x,-y,z
1/2+x,1/2+y,z
1/2-x,1/2+y,-z
1/2-x,1/2-y,-z
1/2+x,1/2-y,z
loop_
_atom_site_type_symbol
_atom_site_label
_atom_site_fract_x
_atom_site_fract_y
_atom_site_fract_z
Si Si1 0.305317 0.288933 0.027394
Si Si2 0.384552 0.799906 0.887485
Si Si3 0.472619 0.793274 0.591517
Si Si4 0.551230 0.203922 0.946821
Si Si5 0.130108 0.718529 0.328427
Si Si6 0.439440 0.702128 0.271451
Si Si7 0.739499 0.787518 0.387425
Si Si8 0.829126 0.782779 0.249400
O O1 0.314311 0.500000 0.022792
O O2 0.320059 0.230844 0.136769
O O3 0.250000 0.250000 0.000000
O O4 0.333392 0.193199 0.941035
O O5 0.379326 0.722876 0.781911
O O6 0.405484 0.000000 0.874590
O O7 0.415628 0.706968 0.971109
O O8 0.500000 0.711400 0.500000
O O9 0.418468 0.721305 0.614583
O O10 0.512968 0.787274 0.677732
O O11 0.463301 0.000000 0.568913
O O12 0.551762 0.293881 0.843548
O O13 0.568032 0.000000 0.928717
O O14 0.500000 0.196339 0.000000
O O15 0.130927 0.500000 0.329322
O O16 0.184296 0.777413 0.361991
O O17 0.438611 0.500000 0.306488
O O18 0.383821 0.775711 0.284512
O O19 0.750000 0.750000 0.500000
O O20 0.784006 0.724000 0.317933
O O21 0.738492 0.000000 0.374114
O O22 0.830017 0.000000 0.250431
#
# Coordination Sequence:
#
# PCOD9185576 Si02
#       8
#     8   8   8   8   8   8   8   8
#     4  11  21  36  57  83 117 154 194 235 283 342
#     4  10  19  34  57  83 112 152 194 232 282 340
#     4  10  22  40  63  89 116 153 201 253 299 347
#     4  10  20  35  58  87 119 156 198 240 284 341
#     4   9  19  38  61  84 116 154 194 237 294 356
#     4  11  22  38  59  87 122 160 197 238 297 359
#     4  10  21  39  62  85 111 149 193 240 294 348
#     4   9  20  38  58  82 118 158 189 231 293 354
#
# _framework density 22.593700999999999
#
# number of rings (size 3 to 8) (size 9 to 14) (size 15 to 20)
#    0.000    2.000    1.250    2.250    1.750    4.500 
#    0.000    6.250    0.000    0.000    0.000    0.000 
#    0.000    0.000    0.000    0.000    0.000    0.000 
#
# Total GULP energy -178538.665811 kJ/mol
# GULP energy per Si atom -5579.333307 kJ/mol
# Density = 2.254228 g / cm^3
# Si number density = 22.593701 Si / 1000 Ang^3
#
#
#
# Elastic Constant Matrix: (Units=GPa)
#
#
# Indices 1 2 3 4 5 6 
#
# 1 142.5461 1.3464 43.2677 0.0000 -24.6586 0.0000
# 2 1.3464 65.5032 -2.1028 0.0000 -4.3988 0.0000
# 3 43.2677 -2.1028 116.5304 0.0000 -18.4233 0.0000
# 4 0.0000 0.0000 0.0000 25.5192 0.0000 6.8406
# 5 -24.6586 -4.3988 -18.4233 0.0000 38.8896 0.0000
# 6 0.0000 0.0000 0.0000 6.8406 0.0000 7.0103
#
#
#
# Elastic Compliance Matrix: (Units=1/GPa)
#
#
# Indices 1 2 3 4 5 6 
#
# 1 0.008499 0.000028 -0.002489 0.000000 0.004213 0.000000
# 2 0.000028 0.015422 0.000591 0.000000 0.002042 0.000000
# 3 -0.002489 0.000591 0.010028 0.000000 0.003239 0.000000
# 4 0.000000 0.000000 0.000000 0.053067 0.000000 -0.051783
# 5 0.004213 0.002042 0.003239 0.000000 0.030151 0.000000
# 6 0.000000 0.000000 0.000000 -0.051783 0.000000 0.193177
#
#
# Mechanical properties :
#
#
# Convention : Reuss Voigt Hill
#
# Bulk Modulus (GPa) = 33.10239 45.51135 39.30687
# Shear Modulus (GPa) = 15.42472 33.08838 24.25655
#
# Velocity S-wave (km/s) = 2.61569 3.83102 3.28014
# Velocity P-wave (km/s) = 4.87908 6.30524 5.63744
#
# Compressibility (1/GPa) = 0.03020930
#
# Stress axis : x y z
#
# Youngs Moduli (GPa) = 117.65543 64.84262 99.71598
#
# Poissons Ratio (x) = -0.00184 0.24821
# Poissons Ratio (y) = -0.00333 -0.05889
# Poissons Ratio (z) = 0.29287 -0.03830
#
# Static dielectric constant tensor:
#      x y z
#    x 1.814570 0.000000 0.005580 
#    y 0.000000 1.985850 0.000000 
#    z 0.005580 0.000000 1.797070 
# 
# From -- ./inp_files/187483.got.cif
#   From: 2010.05.17/outbox.cif.g08.bks.cpg/sg12_94_cif.got.tgz:187483.got - 2010.06.03 13:09:07.
