data_PCOD9185998
_publ_section_title
;
Structure prediction by ZEFSAII (Michael W. Deem and Ramdas Pophale) SiO2 
 PCOD9185998
Probable space group: C 2/M
;
_chemical_formula_sum "Si O2"
_cell_formula_units_Z 52
_cell_length_a 20.218635
_cell_length_b 10.904296
_cell_length_c 15.938065
_cell_angle_alpha 90.000000
_cell_angle_beta 128.393773
_cell_angle_gamma 90.000000
_cell_volume 2754.030115
_symmetry_space_group_name_H-M "C 2/M"
_symmetry_group_IT_number 12
_symmetry_cell_setting 'monoclinic'
loop_
_space_group_symop_operation_xyz
x,y,z
-x,y,-z
-x,-y,-z
x,-y,z
1/2+x,1/2+y,z
1/2-x,1/2+y,-z
1/2-x,1/2-y,-z
1/2+x,1/2-y,z
loop_
_atom_site_type_symbol
_atom_site_label
_atom_site_fract_x
_atom_site_fract_y
_atom_site_fract_z
Si Si1 0.311812 0.000000 0.229143
Si Si2 0.448978 0.257703 0.722717
Si Si3 0.732621 0.756107 0.123338
Si Si4 0.880825 0.500000 0.468038
Si Si5 0.679144 0.261595 0.514340
Si Si6 0.685195 0.858603 0.261589
Si Si7 0.868403 0.857049 0.105501
Si Si8 0.015349 0.500000 0.707849
O O1 0.258943 0.123376 0.179670
O O2 0.361390 0.000000 0.355351
O O3 0.384078 0.000000 0.215448
O O4 0.401456 0.308094 0.601851
O O5 0.381067 0.232394 0.743601
O O6 0.531597 0.335778 0.808140
O O7 0.482431 0.122327 0.725469
O O8 0.694028 0.830971 0.170150
O O9 0.815228 0.818526 0.146476
O O10 0.667518 0.728785 0.996975
O O11 0.840195 0.624710 0.470303
O O12 0.973607 0.500000 0.581876
O O13 0.750000 0.250000 0.500000
O O14 0.722789 0.336751 0.623138
O O15 0.660613 0.000000 0.256779
O O16 0.850633 0.000000 0.073738
#
# Coordination Sequence:
#
# PCOD9185998 Si02
#       8
#     4   8   8   4   8   8   8   4
#     4  12  19  38  64  89 120 156 201 254 303 354
#     4  10  21  40  62  89 122 158 203 243 297 356
#     4  11  24  41  64  89 118 157 203 250 301 357
#     4  10  19  34  58  89 123 155 204 255 296 357
#     4   9  20  34  58  87 122 162 197 240 297 357
#     4  11  22  41  62  90 122 157 202 249 298 361
#     4  11  24  44  63  87 119 158 202 247 305 363
#     4  10  19  36  62  90 119 161 198 249 297 357
#
# _framework density 18.881421
#
# number of rings (size 3 to 8) (size 9 to 14) (size 15 to 20)
#    0.000    1.538    4.615    0.692    3.231    1.231 
#    6.923    2.308    0.000    1.846    0.000    0.000 
#    0.000    0.000    0.000    0.000    0.000    0.000 
#
# Total GULP energy -144980.824391 kJ/mol
# GULP energy per Si atom -5576.185554 kJ/mol
# Density = 1.883845 g / cm^3
# Si number density = 18.881421 Si / 1000 Ang^3
#
#
#
# Elastic Constant Matrix: (Units=GPa)
#
#
# Indices 1 2 3 4 5 6 
#
# 1 75.3201 12.0860 39.5497 0.0000 0.8121 0.0000
# 2 12.0860 43.5356 14.2731 0.0000 2.0651 0.0000
# 3 39.5497 14.2731 66.9853 0.0000 -4.7034 0.0000
# 4 0.0000 0.0000 0.0000 21.6002 0.0000 4.9190
# 5 0.8121 2.0651 -4.7034 0.0000 31.6015 0.0000
# 6 0.0000 0.0000 0.0000 4.9190 0.0000 14.4994
#
#
#
# Elastic Compliance Matrix: (Units=1/GPa)
#
#
# Indices 1 2 3 4 5 6 
#
# 1 0.019499 -0.001604 -0.011317 0.000000 -0.002081 0.000000
# 2 -0.001604 0.025012 -0.004542 0.000000 -0.002269 0.000000
# 3 -0.011317 -0.004542 0.022858 0.000000 0.003990 0.000000
# 4 0.000000 0.000000 0.000000 0.050172 0.000000 -0.017021
# 5 -0.002081 -0.002269 0.003990 0.000000 0.032440 0.000000
# 6 0.000000 0.000000 0.000000 -0.017021 0.000000 0.074743
#
#
# Mechanical properties :
#
#
# Convention : Reuss Voigt Hill
#
# Bulk Modulus (GPa) = 30.82290 35.29542 33.05916
# Shear Modulus (GPa) = 18.48683 21.53571 20.01127
#
# Velocity S-wave (km/s) = 3.13245 3.38091 3.25905
# Velocity P-wave (km/s) = 5.42613 5.82876 5.63105
#
# Compressibility (1/GPa) = 0.03244341
#
# Stress axis : x y z
#
# Youngs Moduli (GPa) = 51.28507 39.98140 43.74793
#
# Poissons Ratio (x) = 0.06414 0.49509
# Poissons Ratio (y) = 0.08227 0.19868
# Poissons Ratio (z) = 0.58039 0.18158
#
# Static dielectric constant tensor:
#      x y z
#    x 1.602150 0.000000 -0.004190 
#    y 0.000000 1.621550 0.000000 
#    z -0.004190 0.000000 1.686770 
# 
# From -- ./inp_files/232632.got.cif
#   From: 2010.05.17/outbox.cif.g08.bks.cpg/sg12_117_cif.got.tgz:232632.got - 2010.06.03 13:09:07.
