data_PCOD9185206
_publ_section_title
;
Structure prediction by ZEFSAII (Michael W. Deem and Ramdas Pophale) SiO2 
 PCOD9185206
Probable space group: C 2/M
;
_chemical_formula_sum "Si O2"
_cell_formula_units_Z 64
_cell_length_a 11.936956
_cell_length_b 29.683063
_cell_length_c 14.113556
_cell_angle_alpha 90.000000
_cell_angle_beta 42.087170
_cell_angle_gamma 90.000000
_cell_volume 3351.832861
_symmetry_space_group_name_H-M "C 2/M"
_symmetry_group_IT_number 12
_symmetry_cell_setting 'monoclinic'
loop_
_space_group_symop_operation_xyz
x,y,z
-x,y,-z
-x,-y,-z
x,-y,z
1/2+x,1/2+y,z
1/2-x,1/2+y,-z
1/2-x,1/2-y,-z
1/2+x,1/2-y,z
loop_
_atom_site_type_symbol
_atom_site_label
_atom_site_fract_x
_atom_site_fract_y
_atom_site_fract_z
Si Si1 0.769084 0.678039 0.494012
Si Si2 0.071053 0.449195 0.116747
Si Si3 0.737935 0.550850 0.203693
Si Si4 0.105718 0.363849 0.222822
Si Si5 0.708109 0.697120 0.033490
Si Si6 0.324141 0.689556 0.229162
Si Si7 0.803715 0.223533 0.637227
Si Si8 0.890642 0.851930 0.711059
O O1 0.752187 0.687305 0.616362
O O2 0.790988 0.718566 0.403662
O O3 0.585683 0.659611 0.585407
O O4 0.923160 0.645141 0.379478
O O5 0.085903 0.500000 0.145020
O O6 0.115010 0.412460 0.167897
O O7 0.886044 0.443807 0.187915
O O8 0.185245 0.446159 0.950663
O O9 0.668392 0.500000 0.258305
O O10 0.625534 0.594695 0.282732
O O11 0.239074 0.348706 0.219292
O O12 0.148087 0.328823 0.112775
O O13 0.524088 0.688324 0.103751
O O14 0.686570 0.672629 0.148188
O O15 0.750000 0.750000 0.000000
O O16 0.269449 0.740927 0.241525
O O17 0.799311 0.173548 0.683291
O O18 0.000000 0.235081 0.500000
#
# Coordination Sequence:
#
# PCOD9185206 Si02
#       8
#     8   8   8   8   8   8   8   8
#     4  10  22  36  56  79 114 159 197 232 282 341
#     4   9  19  35  60  89 115 148 191 240 297 355
#     4   9  17  35  60  88 117 147 187 240 301 355
#     4  12  21  37  58  83 115 154 193 237 291 345
#     4  11  23  37  55  84 117 149 189 242 293 338
#     4  11  23  38  55  80 115 156 200 237 277 341
#     4  10  19  34  56  80 112 152 197 234 280 340
#     4  10  20  36  55  85 116 147 187 241 294 346
#
# _framework density 19.09403
#
# number of rings (size 3 to 8) (size 9 to 14) (size 15 to 20)
#    0.000    1.750    1.250    4.875    0.000    2.000 
#    0.000    0.625    0.000   10.875    0.000    0.000 
#    0.000    0.000    0.000    0.000    0.000    0.000 
#
# Total GULP energy -178436.684786 kJ/mol
# GULP energy per Si atom -5576.146400 kJ/mol
# Density = 1.905057 g / cm^3
# Si number density = 19.094030 Si / 1000 Ang^3
#
#
#
# Elastic Constant Matrix: (Units=GPa)
#
#
# Indices 1 2 3 4 5 6 
#
# 1 77.8184 44.9816 14.5011 0.0000 17.1606 0.0000
# 2 44.9816 146.8675 27.9267 0.0000 10.6808 0.0000
# 3 14.5011 27.9267 69.8673 0.0000 2.3374 0.0000
# 4 0.0000 0.0000 0.0000 27.0169 0.0000 7.6081
# 5 17.1606 10.6808 2.3374 0.0000 17.8741 0.0000
# 6 0.0000 0.0000 0.0000 7.6081 0.0000 29.3167
#
#
#
# Elastic Compliance Matrix: (Units=1/GPa)
#
#
# Indices 1 2 3 4 5 6 
#
# 1 0.019137 -0.004411 -0.001690 0.000000 -0.015516 0.000000
# 2 -0.004411 0.008688 -0.002536 0.000000 -0.000624 0.000000
# 3 -0.001690 -0.002536 0.015641 0.000000 0.001092 0.000000
# 4 0.000000 0.000000 0.000000 0.039932 0.000000 -0.010363
# 5 -0.015516 -0.000624 0.001092 0.000000 0.071073 0.000000
# 6 0.000000 0.000000 0.000000 -0.010363 0.000000 0.036800
#
#
# Mechanical properties :
#
#
# Convention : Reuss Voigt Hill
#
# Bulk Modulus (GPa) = 38.18100 52.15245 45.16673
# Shear Modulus (GPa) = 23.01238 28.65114 25.83176
#
# Velocity S-wave (km/s) = 3.47538 3.87787 3.68213
# Velocity P-wave (km/s) = 6.01200 6.88646 6.46403
#
# Compressibility (1/GPa) = 0.02619104
#
# Stress axis : x y z
#
# Youngs Moduli (GPa) = 52.25544 115.10663 63.93596
#
# Poissons Ratio (x) = 0.50779 0.10802
# Poissons Ratio (y) = 0.23052 0.16214
# Poissons Ratio (z) = 0.08829 0.29191
#
# Static dielectric constant tensor:
#      x y z
#    x 1.715690 0.000000 0.039370 
#    y 0.000000 1.686350 0.000000 
#    z 0.039370 0.000000 1.681170 
# 
# From -- ./inp_files/209366.got.cif
#   From: 2010.05.17/outbox.cif.g08.bks.cpg/sg12_105_cif.got.tgz:209366.got - 2010.06.03 13:09:07.
