data_PCOD9185759
_publ_section_title
;
Structure prediction by ZEFSAII (Michael W. Deem and Ramdas Pophale) SiO2 
 PCOD9185759
Probable space group: C 2/M
;
_chemical_formula_sum "Si O2"
_cell_formula_units_Z 58
_cell_length_a 12.635714
_cell_length_b 15.062360
_cell_length_c 19.780248
_cell_angle_alpha 90.000000
_cell_angle_beta 133.469547
_cell_angle_gamma 90.000000
_cell_volume 2732.157194
_symmetry_space_group_name_H-M "C 2/M"
_symmetry_group_IT_number 12
_symmetry_cell_setting 'monoclinic'
loop_
_space_group_symop_operation_xyz
x,y,z
-x,y,-z
-x,-y,-z
x,-y,z
1/2+x,1/2+y,z
1/2-x,1/2+y,-z
1/2-x,1/2-y,-z
1/2+x,1/2-y,z
loop_
_atom_site_type_symbol
_atom_site_label
_atom_site_fract_x
_atom_site_fract_y
_atom_site_fract_z
Si Si1 0.178885 0.391821 0.010089
Si Si2 0.303352 0.603796 0.578250
Si Si3 0.796722 0.103333 0.728134
Si Si4 0.848317 0.608046 0.846909
Si Si5 0.100598 0.145335 0.633719
Si Si6 0.500000 0.500000 0.500000
Si Si7 0.497709 0.156319 0.574822
Si Si8 0.468153 0.390866 0.061736
O O1 0.178710 0.500000 0.009646
O O2 0.199555 0.366681 0.097841
O O3 0.311827 0.362338 0.021840
O O4 0.017661 0.365043 0.915239
O O5 0.263095 0.500000 0.562981
O O6 0.313311 0.640845 0.659282
O O7 0.460774 0.608249 0.613596
O O8 0.171000 0.649833 0.479614
O O9 0.626417 0.110027 0.672898
O O10 0.905667 0.140254 0.831679
O O11 0.836030 0.000000 0.738437
O O12 0.840387 0.500000 0.839336
O O13 0.741137 0.645067 0.743170
O O14 0.053627 0.243721 0.594507
O O15 0.111733 0.078372 0.576398
O O16 0.500000 0.116103 0.500000
O O17 0.469173 0.500000 0.061100
O O18 0.500000 0.360450 0.000000
#
# Coordination Sequence:
#
# PCOD9185759 Si02
#       8
#     8   8   8   8   8   2   8   8
#     4   8  15  28  50  81 103 131 181 233 273 316
#     4  10  19  34  58  82 104 138 190 235 270 322
#     4   9  18  34  57  82 104 138 185 229 276 325
#     4   9  16  29  52  76 104 139 185 229 264 320
#     4  12  21  36  54  78 113 150 183 217 282 334
#     4  12  24  36  52  78 116 152 176 216 268 342
#     4  10  21  35  54  78 110 143 179 232 274 324
#     4   9  16  28  51  78 111 139 172 224 284 339
#
# _framework density 21.228648
#
# number of rings (size 3 to 8) (size 9 to 14) (size 15 to 20)
#    0.000    2.345    2.069    2.483    0.000    3.862 
#    0.000    1.379    6.069    0.828    0.000    0.000 
#    0.000    0.000    0.000    0.000    0.000    0.000 
#
# Total GULP energy -161537.758852 kJ/mol
# GULP energy per Si atom -5570.267547 kJ/mol
# Density = 2.118033 g / cm^3
# Si number density = 21.228648 Si / 1000 Ang^3
#
#
#
# Elastic Constant Matrix: (Units=GPa)
#
#
# Indices 1 2 3 4 5 6 
#
# 1 86.1026 1.3976 65.8295 0.0000 14.7136 0.0000
# 2 1.3976 46.5436 15.4148 0.0000 -0.5056 0.0000
# 3 65.8295 15.4148 159.6244 0.0000 20.0233 0.0000
# 4 0.0000 0.0000 0.0000 18.9951 0.0000 7.6514
# 5 14.7136 -0.5056 20.0233 0.0000 18.8359 0.0000
# 6 0.0000 0.0000 0.0000 7.6514 0.0000 12.5967
#
#
#
# Elastic Compliance Matrix: (Units=1/GPa)
#
#
# Indices 1 2 3 4 5 6 
#
# 1 0.017843 0.001595 -0.006657 0.000000 -0.006818 0.000000
# 2 0.001595 0.022519 -0.003175 0.000000 0.002734 0.000000
# 3 -0.006657 -0.003175 0.010010 0.000000 -0.005526 0.000000
# 4 0.000000 0.000000 0.000000 0.069698 0.000000 -0.042336
# 5 -0.006818 0.002734 -0.005526 0.000000 0.064364 0.000000
# 6 0.000000 0.000000 0.000000 -0.042336 0.000000 0.105101
#
#
# Mechanical properties :
#
#
# Convention : Reuss Voigt Hill
#
# Bulk Modulus (GPa) = 29.50159 50.83939 40.17049
# Shear Modulus (GPa) = 15.75750 24.06078 19.90914
#
# Velocity S-wave (km/s) = 2.72743 3.37027 3.06574
# Velocity P-wave (km/s) = 4.88321 6.25663 5.61209
#
# Compressibility (1/GPa) = 0.03389647
#
# Stress axis : x y z
#
# Youngs Moduli (GPa) = 56.04401 44.40761 99.90016
#
# Poissons Ratio (x) = -0.07083 0.66506
# Poissons Ratio (y) = -0.08939 0.31722
# Poissons Ratio (z) = 0.37310 0.14101
#
# Static dielectric constant tensor:
#      x y z
#    x 1.816370 0.000000 -0.000400 
#    y 0.000000 1.758530 0.000000 
#    z -0.000400 0.000000 1.779590 
# 
# From -- ./inp_files/311370.got.cif
#   From: 2010.05.17/outbox.cif.g08.bks.cpg/sg12_156_cif.got.tgz:311370.got - 2010.06.03 13:09:07.
