data_PCOD9185502
_publ_section_title
;
Structure prediction by ZEFSAII (Michael W. Deem and Ramdas Pophale) SiO2 
 PCOD9185502
Probable space group: C 2/M
;
_chemical_formula_sum "Si O2"
_cell_formula_units_Z 32
_cell_length_a 19.910268
_cell_length_b 8.865678
_cell_length_c 8.079952
_cell_angle_alpha 90.000000
_cell_angle_beta 107.962472
_cell_angle_gamma 90.000000
_cell_volume 1356.739561
_symmetry_space_group_name_H-M "C 2/M"
_symmetry_group_IT_number 12
_symmetry_cell_setting 'monoclinic'
loop_
_space_group_symop_operation_xyz
x,y,z
-x,y,-z
-x,-y,-z
x,-y,z
1/2+x,1/2+y,z
1/2-x,1/2+y,-z
1/2-x,1/2-y,-z
1/2+x,1/2-y,z
loop_
_atom_site_type_symbol
_atom_site_label
_atom_site_fract_x
_atom_site_fract_y
_atom_site_fract_z
Si Si1 0.711605 0.321005 0.127769
Si Si2 0.421299 0.322879 0.792457
Si Si3 0.832577 0.173014 0.385334
Si Si4 0.045423 0.671738 0.706335
O O1 0.707132 0.500000 0.107417
O O2 0.633001 0.264018 0.110444
O O3 0.765199 0.279560 0.316861
O O4 0.750000 0.250000 0.000000
O O5 0.436618 0.500000 0.832054
O O6 0.374310 0.315248 0.588876
O O7 0.492697 0.235471 0.804861
O O8 0.888992 0.221926 0.287967
O O9 0.810730 0.000000 0.344438
O O10 0.067931 0.500000 0.757064
O O11 0.000000 0.668918 0.500000
#
# Coordination Sequence:
#
# PCOD9185502 Si02
#       4
#     8   8   8   8
#     4  11  23  38  54  76 108 143 180 220 263 312
#     4   9  19  35  56  81 108 139 175 217 264 314
#     4  10  19  34  57  82 108 139 175 216 264 315
#     4   9  17  30  52  82 111 137 170 215 263 312
#
# _framework density 23.585958999999999
#
# number of rings (size 3 to 8) (size 9 to 14) (size 15 to 20)
#    0.000    2.250    0.000    3.000    0.000    6.000 
#    0.000    1.250    0.000    7.500    0.000    0.000 
#    0.000    0.000    0.000    0.000    0.000    0.000 
#
# Total GULP energy -89541.482865 kJ/mol
# GULP energy per Si atom -5596.342679 kJ/mol
# Density = 2.353228 g / cm^3
# Si number density = 23.585959 Si / 1000 Ang^3
#
#
#
# Elastic Constant Matrix: (Units=GPa)
#
#
# Indices 1 2 3 4 5 6 
#
# 1 151.5245 29.7889 36.4849 0.0000 -29.6613 0.0000
# 2 29.7889 63.9562 2.2108 0.0000 -20.5827 0.0000
# 3 36.4849 2.2108 86.4677 0.0000 -15.3853 0.0000
# 4 0.0000 0.0000 0.0000 19.9810 0.0000 -3.4358
# 5 -29.6613 -20.5827 -15.3853 0.0000 51.8827 0.0000
# 6 0.0000 0.0000 0.0000 -3.4358 0.0000 32.5741
#
#
#
# Elastic Compliance Matrix: (Units=1/GPa)
#
#
# Indices 1 2 3 4 5 6 
#
# 1 0.008440 -0.002935 -0.002993 0.000000 0.002773 0.000000
# 2 -0.002935 0.019005 0.001896 0.000000 0.006423 0.000000
# 3 -0.002993 0.001896 0.013311 0.000000 0.002988 0.000000
# 4 0.000000 0.000000 0.000000 0.050972 0.000000 0.005376
# 5 0.002773 0.006423 0.002988 0.000000 0.024294 0.000000
# 6 0.000000 0.000000 0.000000 0.005376 0.000000 0.031266
#
#
# Mechanical properties :
#
#
# Convention : Reuss Voigt Hill
#
# Bulk Modulus (GPa) = 30.58965 48.76862 39.67914
# Shear Modulus (GPa) = 30.07516 36.45182 33.26349
#
# Velocity S-wave (km/s) = 3.57477 3.93553 3.75948
# Velocity P-wave (km/s) = 5.48053 6.43219 5.97534
#
# Compressibility (1/GPa) = 0.03269080
#
# Stress axis : x y z
#
# Youngs Moduli (GPa) = 118.48151 52.61903 75.12557
#
# Poissons Ratio (x) = 0.15445 0.22484
# Poissons Ratio (y) = 0.34777 -0.14240
# Poissons Ratio (z) = 0.35459 -0.09974
#
# Static dielectric constant tensor:
#      x y z
#    x 1.873190 0.000000 0.032080 
#    y 0.000000 1.789480 0.000000 
#    z 0.032080 0.000000 2.023900 
# 
# From -- ./inp_files/138723.got.cif
#   From: 2010.05.17/outbox.cif.g08.bks.cpg/sg12_70_cif.got.tgz:138723.got - 2010.06.03 13:09:07.
