data_PCOD9185350
_publ_section_title
;
Structure prediction by ZEFSAII (Michael W. Deem and Ramdas Pophale) SiO2 
 PCOD9185350
Probable space group: C 2/M
;
_chemical_formula_sum "Si O2"
_cell_formula_units_Z 52
_cell_length_a 20.433940
_cell_length_b 11.845407
_cell_length_c 14.140341
_cell_angle_alpha 90.000000
_cell_angle_beta 53.580079
_cell_angle_gamma 90.000000
_cell_volume 2754.160202
_symmetry_space_group_name_H-M "C 2/M"
_symmetry_group_IT_number 12
_symmetry_cell_setting 'monoclinic'
loop_
_space_group_symop_operation_xyz
x,y,z
-x,y,-z
-x,-y,-z
x,-y,z
1/2+x,1/2+y,z
1/2-x,1/2+y,-z
1/2-x,1/2-y,-z
1/2+x,1/2-y,z
loop_
_atom_site_type_symbol
_atom_site_label
_atom_site_fract_x
_atom_site_fract_y
_atom_site_fract_z
Si Si1 0.758406 0.694560 0.738964
Si Si2 0.864976 0.000000 0.100547
Si Si3 0.543674 0.134696 0.107368
Si Si4 0.411053 0.500000 0.267231
Si Si5 0.166786 0.237059 0.132920
Si Si6 0.744955 0.373658 0.551813
Si Si7 0.408284 0.500000 0.845633
Si Si8 0.878062 0.365706 0.165841
O O1 0.692638 0.608237 0.838488
O O2 0.817765 0.724006 0.773285
O O3 0.789379 0.639219 0.615434
O O4 0.707039 0.804093 0.751733
O O5 0.922105 0.000000 0.143976
O O6 0.899993 0.000000 0.966507
O O7 0.595966 0.192454 0.142935
O O8 0.450294 0.172571 0.174009
O O9 0.543241 0.000000 0.120363
O O10 0.588104 0.157375 0.968988
O O11 0.350741 0.396410 0.343597
O O12 0.494687 0.500000 0.251466
O O13 0.137027 0.108893 0.154927
O O14 0.250000 0.250000 0.000000
O O15 0.769681 0.500000 0.489240
O O16 0.750000 0.250000 0.500000
O O17 0.869901 0.500000 0.181631
#
# Coordination Sequence:
#
# PCOD9185350 Si02
#       8
#     8   4   8   4   8   8   4   8
#     4  11  21  36  56  87 119 157 204 245 302 368
#     4  10  19  34  56  84 124 169 203 240 290 361
#     4   9  19  32  49  68 110 162 203 239 281 329
#     4   8  21  38  63  94 119 157 211 263 317 381
#     4  12  24  32  52  81 127 175 201 237 284 368
#     4   9  21  42  69  95 117 149 202 274 326 370
#     4  12  23  36  53  88 136 173 203 239 301 371
#     4   9  18  32  49  75 108 154 202 245 280 342
#
# _framework density 18.880528999999999
#
# number of rings (size 3 to 8) (size 9 to 14) (size 15 to 20)
#    0.462    1.538    3.846    1.154    7.538    0.615 
#    0.000    0.000    0.000    1.846    0.000    1.077 
#    0.000    0.000    0.000    0.000    0.000    0.000 
#
# Total GULP energy -144871.556630 kJ/mol
# GULP energy per Si atom -5571.982947 kJ/mol
# Density = 1.883756 g / cm^3
# Si number density = 18.880529 Si / 1000 Ang^3
#
#
#
# Elastic Constant Matrix: (Units=GPa)
#
#
# Indices 1 2 3 4 5 6 
#
# 1 140.2135 58.9012 16.0157 0.0000 20.3500 0.0000
# 2 58.9012 112.0617 25.2991 0.0000 11.5257 0.0000
# 3 16.0157 25.2991 33.9176 0.0000 14.1594 0.0000
# 4 0.0000 0.0000 0.0000 18.2510 0.0000 8.8228
# 5 20.3500 11.5257 14.1594 0.0000 17.0343 0.0000
# 6 0.0000 0.0000 0.0000 8.8228 0.0000 24.8562
#
#
#
# Elastic Compliance Matrix: (Units=1/GPa)
#
#
# Indices 1 2 3 4 5 6 
#
# 1 0.010711 -0.005265 0.004172 0.000000 -0.012701 0.000000
# 2 -0.005265 0.013329 -0.009673 0.000000 0.005312 0.000000
# 3 0.004172 -0.009673 0.052186 0.000000 -0.041817 0.000000
# 4 0.000000 0.000000 0.000000 0.066141 0.000000 -0.023477
# 5 -0.012701 0.005312 -0.041817 0.000000 0.105042 0.000000
# 6 0.000000 0.000000 0.000000 -0.023477 0.000000 0.048565
#
#
# Mechanical properties :
#
#
# Convention : Reuss Voigt Hill
#
# Bulk Modulus (GPa) = 18.28441 54.06940 36.17691
# Shear Modulus (GPa) = 14.89266 24.42677 19.65971
#
# Velocity S-wave (km/s) = 2.81158 3.60078 3.23037
# Velocity P-wave (km/s) = 4.49947 6.78140 5.75468
#
# Compressibility (1/GPa) = 0.05469140
#
# Stress axis : x y z
#
# Youngs Moduli (GPa) = 93.36554 75.02672 19.16240
#
# Poissons Ratio (x) = 0.39503 -0.07994
# Poissons Ratio (y) = 0.49159 0.18536
# Poissons Ratio (z) = -0.38951 0.72576
#
# Static dielectric constant tensor:
#      x y z
#    x 1.667440 0.000000 -0.001480 
#    y 0.000000 1.678000 0.000000 
#    z -0.001480 0.000000 1.697170 
# 
# From -- ./inp_files/231779.got.cif
#   From: 2010.05.17/outbox.cif.g08.bks.cpg/sg12_116_cif.got.tgz:231779.got - 2010.06.03 13:09:07.
