data_PCOD9185608
_publ_section_title
;
Structure prediction by ZEFSAII (Michael W. Deem and Ramdas Pophale) SiO2 
 PCOD9185608
Probable space group: C 2/M
;
_chemical_formula_sum "Si O2"
_cell_formula_units_Z 56
_cell_length_a 26.432808
_cell_length_b 14.363996
_cell_length_c 13.814744
_cell_angle_alpha 90.000000
_cell_angle_beta 31.368390
_cell_angle_gamma 90.000000
_cell_volume 2730.325339
_symmetry_space_group_name_H-M "C 2/M"
_symmetry_group_IT_number 12
_symmetry_cell_setting 'monoclinic'
loop_
_space_group_symop_operation_xyz
x,y,z
-x,y,-z
-x,-y,-z
x,-y,z
1/2+x,1/2+y,z
1/2-x,1/2+y,-z
1/2-x,1/2-y,-z
1/2+x,1/2-y,z
loop_
_atom_site_type_symbol
_atom_site_label
_atom_site_fract_x
_atom_site_fract_y
_atom_site_fract_z
Si Si1 0.532109 0.605255 0.560008
Si Si2 0.898937 0.278313 0.108517
Si Si3 0.314076 0.895767 0.403951
Si Si4 0.484400 0.105176 0.808635
Si Si5 0.685842 0.756989 0.260702
Si Si6 0.293097 0.392468 0.223721
Si Si7 0.107357 0.261401 0.179370
O O1 0.500000 0.598627 0.500000
O O2 0.548208 0.500000 0.569767
O O3 0.627004 0.672415 0.407683
O O4 0.440189 0.659293 0.756051
O O5 0.818945 0.316130 0.315127
O O6 0.879142 0.182803 0.084619
O O7 0.910436 0.358806 0.010736
O O8 0.000000 0.269826 0.000000
O O9 0.412437 0.888131 0.306786
O O10 0.233911 0.892267 0.618023
O O11 0.313505 0.000000 0.360745
O O12 0.470451 0.169640 0.739514
O O13 0.466141 0.000000 0.810992
O O14 0.711193 0.841813 0.291540
O O15 0.624137 0.781261 0.265382
O O16 0.789958 0.728075 0.043475
O O17 0.308890 0.500000 0.169181
#
# Coordination Sequence:
#
# PCOD9185608 Si02
#       7
#     8   8   8   8   8   8   8
#     4   9  19  37  60  85 118 161 206 250 294 347
#     4  10  20  37  58  80 109 145 189 247 296 354
#     4   9  19  35  58  82 106 143 185 235 302 357
#     4  10  19  34  57  84 113 147 191 239 292 351
#     4  10  21  37  57  86 123 161 203 244 296 361
#     4  11  22  37  56  81 116 153 190 239 300 360
#     4  10  20  36  58  86 123 163 200 245 298 353
#
# _framework density 20.510376999999998
#
# number of rings (size 3 to 8) (size 9 to 14) (size 15 to 20)
#    0.000    2.143    1.429    1.714    0.000    3.714 
#    0.000    2.857    0.000    9.429    0.000    0.000 
#    0.000    0.000    0.000    0.000    0.000    0.000 
#
# Total GULP energy -156019.883983 kJ/mol
# GULP energy per Si atom -5572.138714 kJ/mol
# Density = 2.046369 g / cm^3
# Si number density = 20.510377 Si / 1000 Ang^3
#
#
#
# Elastic Constant Matrix: (Units=GPa)
#
#
# Indices 1 2 3 4 5 6 
#
# 1 50.1010 28.7927 -11.0442 0.0000 6.4957 0.0000
# 2 28.7927 108.1920 -20.5205 0.0000 -9.0944 0.0000
# 3 -11.0442 -20.5205 24.5902 0.0000 -8.6299 0.0000
# 4 0.0000 0.0000 0.0000 22.1117 0.0000 1.0585
# 5 6.4957 -9.0944 -8.6299 0.0000 15.3092 0.0000
# 6 0.0000 0.0000 0.0000 1.0585 0.0000 34.1377
#
#
#
# Elastic Compliance Matrix: (Units=1/GPa)
#
#
# Indices 1 2 3 4 5 6 
#
# 1 0.027079 -0.008989 -0.001553 0.000000 -0.017705 0.000000
# 2 -0.008989 0.017384 0.019239 0.000000 0.024986 0.000000
# 3 -0.001553 0.019239 0.075129 0.000000 0.054438 0.000000
# 4 0.000000 0.000000 0.000000 0.045292 0.000000 -0.001404
# 5 -0.017705 0.024986 0.054438 0.000000 0.118363 0.000000
# 6 0.000000 0.000000 0.000000 -0.001404 0.000000 0.029337
#
#
# Mechanical properties :
#
#
# Convention : Reuss Voigt Hill
#
# Bulk Modulus (GPa) = 7.30008 19.70434 13.50221
# Shear Modulus (GPa) = 14.66911 26.68873 20.67892
#
# Velocity S-wave (km/s) = 2.67723 3.61117 3.17869
# Velocity P-wave (km/s) = 3.62266 5.19762 4.47990
#
# Compressibility (1/GPa) = 0.13698484
#
# Stress axis : x y z
#
# Youngs Moduli (GPa) = 36.92909 57.52291 13.31049
#
# Poissons Ratio (x) = 0.51709 0.02067
# Poissons Ratio (y) = 0.33196 -0.25608
# Poissons Ratio (z) = 0.05736 -1.10667
#
# Static dielectric constant tensor:
#      x y z
#    x 1.728840 0.000000 0.004070 
#    y 0.000000 1.728040 0.000000 
#    z 0.004070 0.000000 1.803670 
# 
# From -- ./inp_files/251022.got.cif
#   From: 2010.05.17/outbox.cif.g08.bks.cpg/sg12_126_cif.got.tgz:251022.got - 2010.06.03 13:09:07.
