data_PCOD9185257
_publ_section_title
;
Structure prediction by ZEFSAII (Michael W. Deem and Ramdas Pophale) SiO2 
 PCOD9185257
Probable space group: C 2/M
;
_chemical_formula_sum "Si O2"
_cell_formula_units_Z 56
_cell_length_a 20.563598
_cell_length_b 7.592395
_cell_length_c 19.939484
_cell_angle_alpha 90.000000
_cell_angle_beta 56.757797
_cell_angle_gamma 90.000000
_cell_volume 2603.667155
_symmetry_space_group_name_H-M "C 2/M"
_symmetry_group_IT_number 12
_symmetry_cell_setting 'monoclinic'
loop_
_space_group_symop_operation_xyz
x,y,z
-x,y,-z
-x,-y,-z
x,-y,z
1/2+x,1/2+y,z
1/2-x,1/2+y,-z
1/2-x,1/2-y,-z
1/2+x,1/2-y,z
loop_
_atom_site_type_symbol
_atom_site_label
_atom_site_fract_x
_atom_site_fract_y
_atom_site_fract_z
Si Si1 0.839709 0.790471 0.436363
Si Si2 0.916488 0.204333 0.026996
Si Si3 0.053960 0.707151 0.136963
Si Si4 0.277572 0.715296 0.198310
Si Si5 0.394341 0.783837 0.746076
Si Si6 0.513546 0.206100 0.566122
Si Si7 0.876920 0.787323 0.266210
O O1 0.750000 0.750000 0.500000
O O2 0.897876 0.718982 0.459638
O O3 0.864615 0.722000 0.348784
O O4 0.849574 0.000000 0.430529
O O5 0.841763 0.276446 0.107924
O O6 0.920027 0.000000 0.046759
O O7 0.910975 0.211786 0.950106
O O8 0.000000 0.285076 0.000000
O O9 0.070194 0.500000 0.124247
O O10 0.086044 0.775690 0.189702
O O11 0.961057 0.734203 0.191048
O O12 0.275155 0.500000 0.198978
O O13 0.190969 0.772132 0.229290
O O14 0.309906 0.769651 0.252677
O O15 0.458928 0.721771 0.656324
O O16 0.396807 0.000000 0.746493
O O17 0.500000 0.283513 0.500000
O O18 0.492294 0.000000 0.573520
O O19 0.875421 0.000000 0.268710
#
# Coordination Sequence:
#
# PCOD9185257 Si02
#       7
#     8   8   8   8   8   8   8
#     4  11  24  39  61  90 122 153 193 243 292 348
#     4  10  19  34  56  82 110 147 195 239 279 332
#     4  11  21  34  56  83 116 148 181 232 292 346
#     4   9  18  34  57  81 108 145 195 240 275 330
#     4   9  19  35  55  82 113 148 186 232 286 340
#     4  10  21  38  62  87 116 155 198 238 290 356
#     4  10  20  37  61  84 108 149 197 233 275 337
#
# _framework density 21.508127000000002
#
# number of rings (size 3 to 8) (size 9 to 14) (size 15 to 20)
#    0.000    2.000    2.857    0.857    2.000    1.714 
#    0.000    0.000    0.000    3.429    0.000    0.000 
#    0.000    0.000    0.000    0.000    0.000    0.000 
#
# Total GULP energy -156434.144555 kJ/mol
# GULP energy per Si atom -5586.933734 kJ/mol
# Density = 2.145917 g / cm^3
# Si number density = 21.508127 Si / 1000 Ang^3
#
#
#
# Elastic Constant Matrix: (Units=GPa)
#
#
# Indices 1 2 3 4 5 6 
#
# 1 150.2938 -14.1335 45.2017 -0.0002 14.0458 -0.0013
# 2 -14.1335 43.7958 -7.8025 -0.0001 0.9438 -0.0023
# 3 45.2017 -7.8025 101.2444 0.0000 16.8154 -0.0003
# 4 -0.0002 -0.0001 0.0000 13.6530 0.0000 0.2628
# 5 14.0458 0.9438 16.8154 0.0000 39.0033 0.0000
# 6 -0.0013 -0.0023 -0.0003 0.2628 0.0000 11.6099
#
#
#
# Elastic Compliance Matrix: (Units=1/GPa)
#
#
# Indices 1 2 3 4 5 6 
#
# 1 0.007931 0.002036 -0.003125 0.000000 -0.001558 0.000001
# 2 0.002036 0.023748 0.001226 0.000000 -0.001837 0.000005
# 3 -0.003125 0.001226 0.012047 0.000000 -0.004098 0.000000
# 4 0.000000 0.000000 0.000000 0.073276 0.000000 -0.001658
# 5 -0.001558 -0.001837 -0.004098 0.000000 0.028011 -0.000001
# 6 0.000001 0.000005 0.000000 -0.001658 -0.000001 0.086171
#
#
# Mechanical properties :
#
#
# Convention : Reuss Voigt Hill
#
# Bulk Modulus (GPa) = 22.72680 37.98506 30.35593
# Shear Modulus (GPa) = 20.36020 30.99112 25.67566
#
# Velocity S-wave (km/s) = 3.08007 3.80004 3.45884
# Velocity P-wave (km/s) = 4.82065 6.07889 5.48596
#
# Compressibility (1/GPa) = 0.04400091
#
# Stress axis : x y z
#
# Youngs Moduli (GPa) = 126.09425 42.10817 83.00499
#
# Poissons Ratio (x) = -0.08574 0.25939
# Poissons Ratio (y) = -0.25674 -0.10178
# Poissons Ratio (z) = 0.39405 -0.05163
#
# Static dielectric constant tensor:
#      x y z
#    x 1.767890 0.000000 0.021130 
#    y 0.000000 1.805210 0.000000 
#    z 0.021130 0.000000 1.762940 
# 
# From -- ./inp_files/280988.got.cif
#   From: 2010.05.17/outbox.cif.g08.bks.cpg/sg12_141_cif.got.tgz:280988.got - 2010.06.03 13:09:07.
