data_PCOD9185355
_publ_section_title
;
Structure prediction by ZEFSAII (Michael W. Deem and Ramdas Pophale) SiO2 
 PCOD9185355
Probable space group: C 2/M
;
_chemical_formula_sum "Si O2"
_cell_formula_units_Z 56
_cell_length_a 8.242247
_cell_length_b 18.270769
_cell_length_c 22.741821
_cell_angle_alpha 90.000000
_cell_angle_beta 42.897578
_cell_angle_gamma 90.000000
_cell_volume 2331.186380
_symmetry_space_group_name_H-M "C 2/M"
_symmetry_group_IT_number 12
_symmetry_cell_setting 'monoclinic'
loop_
_space_group_symop_operation_xyz
x,y,z
-x,y,-z
-x,-y,-z
x,-y,z
1/2+x,1/2+y,z
1/2-x,1/2+y,-z
1/2-x,1/2-y,-z
1/2+x,1/2-y,z
loop_
_atom_site_type_symbol
_atom_site_label
_atom_site_fract_x
_atom_site_fract_y
_atom_site_fract_z
Si Si1 0.440237 0.353025 0.790152
Si Si2 0.451486 0.088395 0.873659
Si Si3 0.779075 0.849386 0.388009
Si Si4 0.773827 0.083250 0.951853
Si Si5 0.493987 0.082957 0.275549
Si Si6 0.381551 0.783134 0.671742
Si Si7 0.948581 0.081772 0.450855
O O1 0.605972 0.394466 0.697536
O O2 0.424185 0.378245 0.861524
O O3 0.592220 0.277652 0.752606
O O4 0.179211 0.363620 0.832852
O O5 0.407807 0.096365 0.816205
O O6 0.501228 0.000000 0.870021
O O7 0.247830 0.108804 0.975077
O O8 0.577028 0.804089 0.407485
O O9 0.977538 0.788376 0.350833
O O10 0.760583 0.892878 0.452383
O O11 0.856795 0.000000 0.931558
O O12 0.500000 0.084499 0.000000
O O13 0.553940 0.148278 0.304144
O O14 0.204814 0.081031 0.350627
O O15 0.565855 0.000000 0.275009
O O16 0.000000 0.120585 0.500000
O O17 0.868758 0.000000 0.487818
#
# Coordination Sequence:
#
# PCOD9185355 Si02
#       7
#     8   8   8   8   8   8   8
#     4   9  18  29  54  77 104 148 185 236 271 323
#     4   9  16  29  54  82 113 150 187 233 284 339
#     4  10  21  37  58  78 111 149 187 225 274 329
#     4   8  14  26  47  81 113 140 187 237 278 329
#     4  10  19  34  56  85 115 146 182 227 282 331
#     4  10  22  36  57  82 109 153 191 235 267 330
#     4  10  21  39  64  92 117 141 174 220 275 336
#
# _framework density 24.022105
#
# number of rings (size 3 to 8) (size 9 to 14) (size 15 to 20)
#    0.857    1.714    1.429    2.143    0.000    2.286 
#    0.000    4.286    0.000   18.857    0.000    0.000 
#    0.000    0.000    0.000    0.000    0.000    0.000 
#
# Total GULP energy -155906.684508 kJ/mol
# GULP energy per Si atom -5568.095875 kJ/mol
# Density = 2.396743 g / cm^3
# Si number density = 24.022105 Si / 1000 Ang^3
#
#
#
# Elastic Constant Matrix: (Units=GPa)
#
#
# Indices 1 2 3 4 5 6 
#
# 1 75.8452 25.2115 17.8734 0.0006 30.3372 -0.0024
# 2 25.2115 59.7354 10.8350 -0.0009 14.7120 0.0027
# 3 17.8734 10.8350 108.8750 -0.0148 29.9890 0.0011
# 4 0.0006 -0.0009 -0.0148 24.8150 0.0043 5.8577
# 5 30.3372 14.7120 29.9890 0.0043 46.4577 0.0012
# 6 -0.0024 0.0027 0.0011 5.8577 0.0012 23.2946
#
#
#
# Elastic Compliance Matrix: (Units=1/GPa)
#
#
# Indices 1 2 3 4 5 6 
#
# 1 0.019393 -0.005505 0.000453 0.000001 -0.011213 0.000003
# 2 -0.005505 0.019726 -0.000400 0.000002 -0.002393 -0.000003
# 3 0.000453 -0.000400 0.011186 0.000008 -0.007389 -0.000002
# 4 0.000001 0.000002 0.000008 0.042841 -0.000010 -0.010773
# 5 -0.011213 -0.002393 -0.007389 -0.000010 0.034375 0.000000
# 6 0.000003 -0.000003 -0.000002 -0.010773 0.000000 0.045637
#
#
# Mechanical properties :
#
#
# Convention : Reuss Voigt Hill
#
# Bulk Modulus (GPa) = 25.38124 39.14394 32.26259
# Shear Modulus (GPa) = 25.35535 31.61583 28.48559
#
# Velocity S-wave (km/s) = 3.25237 3.63176 3.44729
# Velocity P-wave (km/s) = 4.96917 5.82380 5.41337
#
# Compressibility (1/GPa) = 0.03939918
#
# Stress axis : x y z
#
# Youngs Moduli (GPa) = 51.56495 50.69413 89.39967
#
# Poissons Ratio (x) = 0.27910 -0.04047
# Poissons Ratio (y) = 0.28389 0.03576
# Poissons Ratio (z) = -0.02334 0.02028
#
# Static dielectric constant tensor:
#      x y z
#    x 2.031800 0.000000 -0.021450 
#    y 0.000000 1.926060 0.000000 
#    z -0.021450 0.000000 2.027800 
# 
# From -- ./inp_files/301393.got.cif
#   From: 2010.05.17/outbox.cif.g08.bks.cpg/sg12_151_cif.got.tgz:301393.got - 2010.06.03 13:09:07.
