data_PCOD9185026
_publ_section_title
;
Structure prediction by ZEFSAII (Michael W. Deem and Ramdas Pophale) SiO2 
 PCOD9185026
Probable space group: C 2/M
;
_chemical_formula_sum "Si O2"
_cell_formula_units_Z 48
_cell_length_a 11.904581
_cell_length_b 14.420041
_cell_length_c 22.607216
_cell_angle_alpha 90.000000
_cell_angle_beta 37.517798
_cell_angle_gamma 90.000000
_cell_volume 2363.472635
_symmetry_space_group_name_H-M "C 2/M"
_symmetry_group_IT_number 12
_symmetry_cell_setting 'monoclinic'
loop_
_space_group_symop_operation_xyz
x,y,z
-x,y,-z
-x,-y,-z
x,-y,z
1/2+x,1/2+y,z
1/2-x,1/2+y,-z
1/2-x,1/2-y,-z
1/2+x,1/2-y,z
loop_
_atom_site_type_symbol
_atom_site_label
_atom_site_fract_x
_atom_site_fract_y
_atom_site_fract_z
Si Si1 0.677908 0.349140 0.009716
Si Si2 0.189292 0.107285 0.545642
Si Si3 0.774162 0.804630 0.137981
Si Si4 0.785518 0.897319 0.327580
Si Si5 0.722686 0.599372 0.120349
Si Si6 0.470572 0.787069 0.648865
O O1 0.457375 0.345571 0.092001
O O2 0.729778 0.405523 0.046156
O O3 0.750000 0.250000 0.000000
O O4 0.756825 0.360189 0.910387
O O5 0.258722 0.110297 0.584692
O O6 0.348054 0.151417 0.438898
O O7 0.021274 0.179995 0.615970
O O8 0.147086 0.000000 0.549491
O O9 0.809167 0.695500 0.107392
O O10 0.607285 0.804330 0.253326
O O11 0.684447 0.820612 0.331896
O O12 0.005801 0.892887 0.227548
O O13 0.724803 0.000000 0.332259
O O14 0.791614 0.500000 0.115872
#
# Coordination Sequence:
#
# PCOD9185026 Si02
#       6
#     8   8   8   8   8   8
#     4   9  19  36  54  78 113 146 180 221 272 334
#     4  10  22  38  56  84 115 145 190 237 277 333
#     4  10  19  34  55  82 109 148 186 223 277 336
#     4  10  19  34  56  84 110 141 189 234 272 329
#     4  10  19  34  57  83 109 141 186 233 272 322
#     4  11  20  33  59  85 111 150 187 232 286 332
#
# _framework density 20.309099
#
# number of rings (size 3 to 8) (size 9 to 14) (size 15 to 20)
#    0.000    2.000    3.333    1.000    0.000    1.333 
#    0.000   10.000    0.000    9.000    0.000    0.000 
#    0.000    0.000    0.000    0.000    0.000    0.000 
#
# Total GULP energy -133840.238728 kJ/mol
# GULP energy per Si atom -5576.676614 kJ/mol
# Density = 2.026287 g / cm^3
# Si number density = 20.309099 Si / 1000 Ang^3
#
#
#
# Elastic Constant Matrix: (Units=GPa)
#
#
# Indices 1 2 3 4 5 6 
#
# 1 30.5198 9.0187 10.9224 0.0000 5.4410 0.0000
# 2 9.0187 100.9091 27.0365 0.0002 5.1259 -0.0001
# 3 10.9224 27.0365 153.1131 0.0010 16.0746 -0.0005
# 4 0.0000 0.0002 0.0010 390.4471 -0.0002 -209.7950
# 5 5.4410 5.1259 16.0746 -0.0002 23.0505 0.0001
# 6 0.0000 -0.0001 -0.0005 -209.7950 0.0001 141.9899
#
#
#
# Elastic Compliance Matrix: (Units=1/GPa)
#
#
# Indices 1 2 3 4 5 6 
#
# 1 0.035188 -0.002433 -0.001365 0.000000 -0.006813 0.000000
# 2 -0.002433 0.010597 -0.001630 0.000000 -0.000646 0.000000
# 3 -0.001365 -0.001630 0.007385 0.000000 -0.004465 0.000000
# 4 0.000000 0.000000 0.000000 0.012427 0.000000 0.018362
# 5 -0.006813 -0.000646 -0.004465 0.000000 0.048249 0.000000
# 6 0.000000 0.000000 0.000000 0.018362 0.000000 0.034173
#
#
# Mechanical properties :
#
#
# Convention : Reuss Voigt Hill
#
# Bulk Modulus (GPa) = 23.63318 42.05524 32.84421
# Shear Modulus (GPa) = 28.90517 126.93513 77.92015
#
# Velocity S-wave (km/s) = 3.77671 7.91437 6.20084
# Velocity P-wave (km/s) = 5.53896 10.21122 8.21429
#
# Compressibility (1/GPa) = 0.04231340
#
# Stress axis : x y z
#
# Youngs Moduli (GPa) = 28.41902 94.36783 135.40767
#
# Poissons Ratio (x) = 0.22960 0.18487
# Poissons Ratio (y) = 0.06914 0.22069
# Poissons Ratio (z) = 0.03880 0.15380
#
# Static dielectric constant tensor:
#      x y z
#    x 1.731180 0.000000 -0.006110 
#    y 0.000000 1.730810 0.000000 
#    z -0.006110 0.000000 1.759860 
# 
# From -- ./inp_files/305619.got.cif
#   From: 2010.05.17/outbox.cif.g08.bks.cpg/sg12_153_cif.got.tgz:305619.got - 2010.06.03 13:09:07.
