data_PCOD9185626
_publ_section_title
;
Structure prediction by ZEFSAII (Michael W. Deem and Ramdas Pophale) SiO2 
 PCOD9185626
Probable space group: C 2/M
;
_chemical_formula_sum "Si O2"
_cell_formula_units_Z 58
_cell_length_a 26.197994
_cell_length_b 7.655206
_cell_length_c 13.870012
_cell_angle_alpha 90.000000
_cell_angle_beta 88.272830
_cell_angle_gamma 90.000000
_cell_volume 2780.381586
_symmetry_space_group_name_H-M "C 2/M"
_symmetry_group_IT_number 12
_symmetry_cell_setting 'monoclinic'
loop_
_space_group_symop_operation_xyz
x,y,z
-x,y,-z
-x,-y,-z
x,-y,z
1/2+x,1/2+y,z
1/2-x,1/2+y,-z
1/2-x,1/2-y,-z
1/2+x,1/2-y,z
loop_
_atom_site_type_symbol
_atom_site_label
_atom_site_fract_x
_atom_site_fract_y
_atom_site_fract_z
Si Si1 0.195184 0.290992 0.051019
Si Si2 0.808492 0.701883 0.372647
Si Si3 0.584995 0.215528 0.968622
Si Si4 0.289859 0.800020 0.735555
Si Si5 0.351704 0.700627 0.558267
Si Si6 0.451973 0.711313 0.441455
Si Si7 0.094462 0.295125 0.748097
Si Si8 0.500000 0.500000 0.000000
O O1 0.191840 0.500000 0.054490
O O2 0.196521 0.224537 0.161152
O O3 0.250000 0.250000 0.000000
O O4 0.142917 0.239951 0.999651
O O5 0.819961 0.500000 0.393029
O O6 0.757027 0.709843 0.315442
O O7 0.809011 0.792656 0.476532
O O8 0.854033 0.779223 0.303735
O O9 0.581431 0.267072 0.855141
O O10 0.543307 0.342220 0.019218
O O11 0.577301 0.000000 0.979999
O O12 0.335389 0.794219 0.656075
O O13 0.273824 0.000000 0.750820
O O14 0.360901 0.500000 0.583649
O O15 0.401542 0.770890 0.501233
O O16 0.500000 0.770804 0.500000
O O17 0.451552 0.500000 0.439693
O O18 0.448310 0.769972 0.331095
O O19 0.104549 0.500000 0.760407
#
# Coordination Sequence:
#
# PCOD9185626 Si02
#       8
#     8   8   8   8   8   8   8   2
#     4  10  23  42  66  93 130 166 209 274 332 391
#     4  10  19  34  57  84 116 154 195 242 300 370
#     4  10  23  46  66  97 134 166 222 280 327 393
#     4  11  22  36  54  84 117 158 196 236 307 372
#     4  10  20  35  53  79 115 155 192 242 293 356
#     4   9  19  36  56  83 115 146 190 247 295 350
#     4   9  19  36  61  86 114 152 197 251 307 366
#     4  12  26  44  72  98 122 188 222 270 340 390
#
# _framework density 20.860444999999999
#
# number of rings (size 3 to 8) (size 9 to 14) (size 15 to 20)
#    0.000    2.069    0.000    2.690    1.931    3.586 
#    2.483    0.000    0.000    0.000    0.000    0.000 
#    0.000    0.000    0.000    0.000    0.000    0.000 
#
# Total GULP energy -161467.596928 kJ/mol
# GULP energy per Si atom -5567.848170 kJ/mol
# Density = 2.081297 g / cm^3
# Si number density = 20.860445 Si / 1000 Ang^3
#
#
#
# Elastic Constant Matrix: (Units=GPa)
#
#
# Indices 1 2 3 4 5 6 
#
# 1 104.7408 14.5556 29.3486 0.0000 27.7550 0.0000
# 2 14.5556 67.2752 3.6367 0.0000 -2.4304 0.0000
# 3 29.3486 3.6367 109.0106 0.0000 22.6695 0.0000
# 4 0.0000 0.0000 0.0000 5.2997 0.0000 -10.0727
# 5 27.7550 -2.4304 22.6695 0.0000 20.7578 0.0000
# 6 0.0000 0.0000 0.0000 -10.0727 0.0000 11.7747
#
#
#
# Elastic Compliance Matrix: (Units=1/GPa)
#
#
# Indices 1 2 3 4 5 6 
#
# 1 0.015920 -0.004278 0.000501 0.000000 -0.022335 0.000000
# 2 -0.004278 0.016183 -0.001257 0.000000 0.008988 0.000000
# 3 0.000501 -0.001257 0.011969 0.000000 -0.013888 0.000000
# 4 0.000000 0.000000 0.000000 -0.301473 0.000000 -0.257895
# 5 -0.022335 0.008988 -0.013888 0.000000 0.094258 0.000000
# 6 0.000000 0.000000 0.000000 -0.257895 0.000000 -0.135689
#
#
# Mechanical properties :
#
#
# Convention : Reuss Voigt Hill
#
# Bulk Modulus (GPa) = 29.40948 41.78982 35.59965
# Shear Modulus (GPa) = -18.02253 23.13215 2.55481
#
# Velocity S-wave (km/s) = -2.94250 3.33363 1.10787
# Velocity P-wave (km/s) = 1.60760 5.90711 4.32888
#
# Compressibility (1/GPa) = 0.03400264
#
# Stress axis : x y z
#
# Youngs Moduli (GPa) = 62.81450 61.79455 83.55231
#
# Poissons Ratio (x) = 0.26438 -0.04189
# Poissons Ratio (y) = 0.26874 0.10504
# Poissons Ratio (z) = -0.03149 0.07769
#
# Static dielectric constant tensor:
#      x y z
#    x 1.770890 0.000000 -0.013850 
#    y 0.000000 1.766130 0.000000 
#    z -0.013850 0.000000 1.764500 
# 
# From -- ./inp_files/180901.got.cif
#   From: 2010.05.17/outbox.cif.g08.bks.cpg/sg12_91_cif.got.tgz:180901.got - 2010.06.03 13:09:07.
