data_PCOD9185056
_publ_section_title
;
Structure prediction by ZEFSAII (Michael W. Deem and Ramdas Pophale) SiO2 
 PCOD9185056
Probable space group: C 2/M
;
_chemical_formula_sum "Si O2"
_cell_formula_units_Z 56
_cell_length_a 33.978971
_cell_length_b 8.802950
_cell_length_c 12.650036
_cell_angle_alpha 90.000000
_cell_angle_beta 60.391409
_cell_angle_gamma 90.000000
_cell_volume 3289.730142
_symmetry_space_group_name_H-M "C 2/M"
_symmetry_group_IT_number 12
_symmetry_cell_setting 'monoclinic'
loop_
_space_group_symop_operation_xyz
x,y,z
-x,y,-z
-x,-y,-z
x,-y,z
1/2+x,1/2+y,z
1/2-x,1/2+y,-z
1/2-x,1/2-y,-z
1/2+x,1/2-y,z
loop_
_atom_site_type_symbol
_atom_site_label
_atom_site_fract_x
_atom_site_fract_y
_atom_site_fract_z
Si Si1 0.892045 0.182113 0.099961
Si Si2 0.043040 0.319364 0.156009
Si Si3 0.946153 0.181734 0.244505
Si Si4 0.108131 0.319050 0.484967
Si Si5 0.951266 0.818756 0.618917
Si Si6 0.295324 0.681907 0.314575
Si Si7 0.699205 0.319540 0.442924
O O1 0.919451 0.213841 0.171810
O O2 0.839779 0.223314 0.189555
O O3 0.894479 0.000000 0.079276
O O4 0.915920 0.267633 0.972858
O O5 0.038213 0.500000 0.162571
O O6 0.049725 0.258716 0.265729
O O7 0.996968 0.243974 0.173364
O O8 0.920431 0.256523 0.377306
O O9 0.946851 0.000000 0.259340
O O10 0.104752 0.500000 0.485514
O O11 0.086536 0.246641 0.409045
O O12 0.159566 0.266520 0.434875
O O13 0.000000 0.788950 0.500000
O O14 0.946453 0.000000 0.636640
O O15 0.288461 0.500000 0.315986
O O16 0.304948 0.714797 0.425806
O O17 0.249377 0.766422 0.344761
O O18 0.693800 0.500000 0.437017
#
# Coordination Sequence:
#
# PCOD9185056 Si02
#       7
#     8   8   8   8   8   8   8
#     4  10  21  38  58  80 114 156 193 229 275 336
#     4  12  25  38  55  83 116 149 190 236 281 333
#     4  11  21  37  57  81 113 154 193 227 276 336
#     4  12  23  35  57  86 117 147 183 236 286 330
#     4  11  23  40  62  81 106 149 193 233 278 334
#     4   9  18  34  55  82 113 148 189 232 276 327
#     4  10  19  34  55  83 115 149 186 228 281 338
#
# _framework density 17.022672
#
# number of rings (size 3 to 8) (size 9 to 14) (size 15 to 20)
#    0.000    1.286    2.857    4.286    0.000    4.571 
#    0.000    0.000    0.000    0.857    0.000    0.000 
#    0.000    0.000    0.000    0.000    0.000    0.000 
#
# Total GULP energy -156515.285184 kJ/mol
# GULP energy per Si atom -5589.831614 kJ/mol
# Density = 1.698393 g / cm^3
# Si number density = 17.022672 Si / 1000 Ang^3
#
#
#
# Elastic Constant Matrix: (Units=GPa)
#
#
# Indices 1 2 3 4 5 6 
#
# 1 79.1612 30.7456 32.9955 0.0000 -20.7738 0.0000
# 2 30.7456 52.7886 31.0365 0.0000 -5.7462 0.0000
# 3 32.9955 31.0365 82.8105 0.0000 -16.5259 0.0000
# 4 0.0000 0.0000 0.0000 17.9816 0.0000 -9.2226
# 5 -20.7738 -5.7462 -16.5259 0.0000 20.2170 0.0000
# 6 0.0000 0.0000 0.0000 -9.2226 0.0000 25.7391
#
#
#
# Elastic Compliance Matrix: (Units=1/GPa)
#
#
# Indices 1 2 3 4 5 6 
#
# 1 0.021946 -0.010004 -0.001269 0.000000 0.018670 0.000000
# 2 -0.010004 0.028864 -0.008659 0.000000 -0.009153 0.000000
# 3 -0.001269 -0.008659 0.018014 0.000000 0.010960 0.000000
# 4 0.000000 0.000000 0.000000 0.068133 0.000000 0.024413
# 5 0.018670 -0.009153 0.010960 0.000000 0.075004 0.000000
# 6 0.000000 0.000000 0.000000 0.024413 0.000000 0.047599
#
#
# Mechanical properties :
#
#
# Convention : Reuss Voigt Hill
#
# Bulk Modulus (GPa) = 34.52910 44.92394 39.72652
# Shear Modulus (GPa) = 16.17712 20.78639 18.48176
#
# Velocity S-wave (km/s) = 3.08608 3.49822 3.29859
# Velocity P-wave (km/s) = 5.74689 6.53947 6.15595
#
# Compressibility (1/GPa) = 0.02896108
#
# Stress axis : x y z
#
# Youngs Moduli (GPa) = 45.56585 34.64475 55.51265
#
# Poissons Ratio (x) = 0.34657 0.07046
# Poissons Ratio (y) = 0.45582 0.48067
# Poissons Ratio (z) = 0.05784 0.29998
#
# Static dielectric constant tensor:
#      x y z
#    x 1.560430 0.000000 -0.010410 
#    y 0.000000 1.565310 0.000000 
#    z -0.010410 0.000000 1.554750 
# 
# From -- ./inp_files/181000.got.cif
#   From: 2010.05.17/outbox.cif.g08.bks.cpg/sg12_91_cif.got.tgz:181000.got - 2010.06.03 13:09:07.
