data_PCOD9185920
_publ_section_title
;
Structure prediction by ZEFSAII (Michael W. Deem and Ramdas Pophale) SiO2 
 PCOD9185920
Probable space group: C 2/M
;
_chemical_formula_sum "Si O2"
_cell_formula_units_Z 56
_cell_length_a 18.852730
_cell_length_b 7.770394
_cell_length_c 27.714362
_cell_angle_alpha 90.000000
_cell_angle_beta 38.298127
_cell_angle_gamma 90.000000
_cell_volume 2516.176347
_symmetry_space_group_name_H-M "C 2/M"
_symmetry_group_IT_number 12
_symmetry_cell_setting 'monoclinic'
loop_
_space_group_symop_operation_xyz
x,y,z
-x,y,-z
-x,-y,-z
x,-y,z
1/2+x,1/2+y,z
1/2-x,1/2+y,-z
1/2-x,1/2-y,-z
1/2+x,1/2-y,z
loop_
_atom_site_type_symbol
_atom_site_label
_atom_site_fract_x
_atom_site_fract_y
_atom_site_fract_z
Si Si1 0.888502 0.788435 0.166869
Si Si2 0.600627 0.202140 0.484552
Si Si3 0.304249 0.301495 0.311531
Si Si4 0.146562 0.793199 0.019179
Si Si5 0.228059 0.789401 0.870825
Si Si6 0.488487 0.803548 0.738438
Si Si7 0.380968 0.305712 0.422360
O O1 0.814828 0.728261 0.252183
O O2 0.836957 0.734590 0.142955
O O3 0.887173 0.000000 0.168704
O O4 0.020466 0.732690 0.101946
O O5 0.500000 0.213807 0.500000
O O6 0.714547 0.274396 0.397779
O O7 0.568139 0.292396 0.551471
O O8 0.618961 0.000000 0.487163
O O9 0.266872 0.500000 0.326241
O O10 0.429266 0.293773 0.268557
O O11 0.171887 0.733108 0.951093
O O12 0.141181 0.000000 0.020171
O O13 0.250000 0.750000 0.000000
O O14 0.360546 0.734661 0.800997
O O15 0.226510 0.000000 0.870836
O O16 0.550661 0.800956 0.653477
O O17 0.480517 0.000000 0.760170
O O18 0.382415 0.500000 0.403281
O O19 0.250000 0.250000 0.500000
#
# Coordination Sequence:
#
# PCOD9185920 Si02
#       7
#     8   8   8   8   8   8   8
#     4   9  18  33  56  84 113 148 190 236 279 330
#     4  10  22  38  59  85 115 153 193 235 286 345
#     4  10  20  35  56  81 112 149 190 235 281 340
#     4  10  19  34  58  86 115 148 186 232 280 332
#     4   9  19  34  56  85 113 146 191 234 277 332
#     4  11  22  36  58  83 113 150 189 238 288 341
#     4  12  24  40  61  85 114 150 194 241 290 342
#
# _framework density 22.255990000000001
#
# number of rings (size 3 to 8) (size 9 to 14) (size 15 to 20)
#    0.000    1.857    1.429    3.000    2.000    2.000 
#    0.000    0.714    0.000    4.286    0.000    0.000 
#    0.000    0.000    0.000    0.000    0.000    0.000 
#
# Total GULP energy -156471.706238 kJ/mol
# GULP energy per Si atom -5588.275223 kJ/mol
# Density = 2.220533 g / cm^3
# Si number density = 22.255990 Si / 1000 Ang^3
#
#
#
# Elastic Constant Matrix: (Units=GPa)
#
#
# Indices 1 2 3 4 5 6 
#
# 1 91.8576 -6.0356 10.1722 0.0002 18.1012 0.0009
# 2 -6.0356 39.2339 -5.8157 0.0002 -2.2612 0.0028
# 3 10.1722 -5.8157 79.7729 0.0002 14.5393 -0.0002
# 4 0.0002 0.0002 0.0002 4.8372 -0.0001 -6.9177
# 5 18.1012 -2.2612 14.5393 -0.0001 43.2273 -0.0003
# 6 0.0009 0.0028 -0.0002 -6.9177 -0.0003 21.9144
#
#
#
# Elastic Compliance Matrix: (Units=1/GPa)
#
#
# Indices 1 2 3 4 5 6 
#
# 1 0.011982 0.001487 -0.000553 -0.000003 -0.004754 -0.000002
# 2 0.001487 0.025975 0.001672 -0.000011 0.000173 -0.000007
# 3 -0.000553 0.001672 0.013497 -0.000001 -0.004221 -0.000001
# 4 -0.000003 -0.000011 -0.000001 0.376869 0.000003 0.118966
# 5 -0.004754 0.000173 -0.004221 0.000003 0.026553 0.000001
# 6 -0.000002 -0.000007 -0.000001 0.118966 0.000001 0.083186
#
#
# Mechanical properties :
#
#
# Convention : Reuss Voigt Hill
#
# Bulk Modulus (GPa) = 17.64677 23.05623 20.35150
# Shear Modulus (GPa) = 9.06226 28.16534 18.61380
#
# Velocity S-wave (km/s) = 2.02007 3.56127 2.89511
# Velocity P-wave (km/s) = 3.65884 5.22420 4.50995
#
# Compressibility (1/GPa) = 0.05666758
#
# Stress axis : x y z
#
# Youngs Moduli (GPa) = 83.45764 38.49875 74.08894
#
# Poissons Ratio (x) = -0.05726 0.04098
# Poissons Ratio (y) = -0.12413 -0.12391
# Poissons Ratio (z) = 0.04616 -0.06439
#
# Static dielectric constant tensor:
#      x y z
#    x 1.801070 0.000000 0.008570 
#    y 0.000000 1.879100 0.000000 
#    z 0.008570 0.000000 1.810260 
# 
# From -- ./inp_files/363010.got.cif
#   From: 2010.05.17/outbox.cif.g08.bks.cpg/sg12_182_cif.got.tgz:363010.got - 2010.06.03 13:09:07.
