data_PCOD9185342
_publ_section_title
;
Structure prediction by ZEFSAII (Michael W. Deem and Ramdas Pophale) SiO2 
 PCOD9185342
Probable space group: C 2/M
;
_chemical_formula_sum "Si O2"
_cell_formula_units_Z 48
_cell_length_a 19.613652
_cell_length_b 8.333493
_cell_length_c 31.047866
_cell_angle_alpha 90.000000
_cell_angle_beta 28.948719
_cell_angle_gamma 90.000000
_cell_volume 2456.329052
_symmetry_space_group_name_H-M "C 2/M"
_symmetry_group_IT_number 12
_symmetry_cell_setting 'monoclinic'
loop_
_space_group_symop_operation_xyz
x,y,z
-x,y,-z
-x,-y,-z
x,-y,z
1/2+x,1/2+y,z
1/2-x,1/2+y,-z
1/2-x,1/2-y,-z
1/2+x,1/2-y,z
loop_
_atom_site_type_symbol
_atom_site_label
_atom_site_fract_x
_atom_site_fract_y
_atom_site_fract_z
Si Si1 0.882456 0.305539 0.760548
Si Si2 0.865348 0.303925 0.547373
Si Si3 0.448228 0.692383 0.250260
Si Si4 0.063566 0.805951 0.918841
Si Si5 0.900760 0.306740 0.431276
Si Si6 0.088621 0.690740 0.084406
O O1 0.883704 0.500000 0.761849
O O2 0.941791 0.246158 0.773518
O O3 0.726388 0.256169 0.832719
O O4 0.986160 0.248168 0.665537
O O5 0.859470 0.500000 0.551202
O O6 0.710145 0.250507 0.649009
O O7 0.906408 0.250759 0.476936
O O8 0.000000 0.253257 0.500000
O O9 0.445386 0.500000 0.251224
O O10 0.499185 0.749828 0.175204
O O11 0.981787 0.745207 0.921833
O O12 0.057640 0.000000 0.920066
O O13 0.000000 0.755694 0.000000
O O14 0.909961 0.500000 0.426325
O O15 0.750000 0.250000 0.500000
O O16 0.090855 0.500000 0.083931
O O17 0.250000 0.750000 0.000000
#
# Coordination Sequence:
#
# PCOD9185342 Si02
#       6
#     8   8   8   8   8   8
#     4  10  21  36  60  89 124 163 204 255 305 359
#     4   9  19  34  56  85 119 160 207 253 296 353
#     4  11  22  38  63  90 122 163 207 252 304 361
#     4  10  22  41  65  93 122 156 198 245 300 363
#     4  10  19  34  56  84 117 159 206 252 299 352
#     4  12  26  44  66  92 124 158 197 246 302 364
#
# _framework density 19.541353999999998
#
# number of rings (size 3 to 8) (size 9 to 14) (size 15 to 20)
#    0.000    1.667    1.667    3.000    2.333    2.333 
#    0.000    0.000    0.000    2.500    0.000    0.000 
#    0.000    0.000    0.000    0.000    0.000    0.000 
#
# Total GULP energy -133952.752258 kJ/mol
# GULP energy per Si atom -5581.364677 kJ/mol
# Density = 1.949688 g / cm^3
# Si number density = 19.541354 Si / 1000 Ang^3
#
#
#
# Elastic Constant Matrix: (Units=GPa)
#
#
# Indices 1 2 3 4 5 6 
#
# 1 230.8694 33.4286 106.6361 0.0003 4.8081 -0.0002
# 2 33.4286 37.5063 31.1873 0.0004 1.3301 0.0001
# 3 106.6361 31.1873 164.5054 -0.0007 6.0225 0.0002
# 4 0.0003 0.0004 -0.0007 21.6503 -0.0001 0.4902
# 5 4.8081 1.3301 6.0225 -0.0001 39.8576 0.0001
# 6 -0.0002 0.0001 0.0002 0.4902 0.0001 33.6302
#
#
#
# Elastic Compliance Matrix: (Units=1/GPa)
#
#
# Indices 1 2 3 4 5 6 
#
# 1 0.006402 -0.002676 -0.003638 0.000000 -0.000133 0.000000
# 2 -0.002676 0.032772 -0.004475 -0.000001 -0.000095 0.000000
# 3 -0.003638 -0.004475 0.009315 0.000000 -0.000819 0.000000
# 4 0.000000 -0.000001 0.000000 0.046204 0.000000 -0.000673
# 5 -0.000133 -0.000095 -0.000819 0.000000 0.025232 0.000000
# 6 0.000000 0.000000 0.000000 -0.000673 0.000000 0.029745
#
#
# Mechanical properties :
#
#
# Convention : Reuss Voigt Hill
#
# Bulk Modulus (GPa) = 37.15879 86.15392 61.65636
# Shear Modulus (GPa) = 27.74423 36.46955 32.10689
#
# Velocity S-wave (km/s) = 3.77207 4.32473 4.05782
# Velocity P-wave (km/s) = 6.16669 8.31393 7.31948
#
# Compressibility (1/GPa) = 0.02691153
#
# Stress axis : x y z
#
# Youngs Moduli (GPa) = 156.20295 30.51419 107.35280
#
# Poissons Ratio (x) = 0.08167 0.39051
# Poissons Ratio (y) = 0.41807 0.48035
# Poissons Ratio (z) = 0.56820 0.13654
#
# Static dielectric constant tensor:
#      x y z
#    x 1.770140 0.000000 -0.063300 
#    y 0.000000 1.699620 0.000000 
#    z -0.063300 0.000000 1.716510 
# 
# From -- ./inp_files/377902.got.cif
#   From: 2010.05.17/outbox.cif.g08.bks.cpg/sg12_189_cif.got.tgz:377902.got - 2010.06.03 13:09:07.
