data_PCOD9185567
_publ_section_title
;
Structure prediction by ZEFSAII (Michael W. Deem and Ramdas Pophale) SiO2 
 PCOD9185567
Probable space group: C 2/M
;
_chemical_formula_sum "Si O2"
_cell_formula_units_Z 64
_cell_length_a 10.609101
_cell_length_b 15.027660
_cell_length_c 28.524100
_cell_angle_alpha 90.000000
_cell_angle_beta 41.937851
_cell_angle_gamma 90.000000
_cell_volume 3039.268229
_symmetry_space_group_name_H-M "C 2/M"
_symmetry_group_IT_number 12
_symmetry_cell_setting 'monoclinic'
loop_
_space_group_symop_operation_xyz
x,y,z
-x,y,-z
-x,-y,-z
x,-y,z
1/2+x,1/2+y,z
1/2-x,1/2+y,-z
1/2-x,1/2-y,-z
1/2+x,1/2-y,z
loop_
_atom_site_type_symbol
_atom_site_label
_atom_site_fract_x
_atom_site_fract_y
_atom_site_fract_z
Si Si1 0.513350 0.323830 0.796720
Si Si2 0.775301 0.105270 0.349837
Si Si3 0.292328 0.893710 0.047855
Si Si4 0.853792 0.609019 0.448105
Si Si5 0.973050 0.891071 0.388475
Si Si6 0.516257 0.393711 0.047853
Si Si7 0.325347 0.105269 0.349839
Si Si8 0.200221 0.323839 0.203280
O O1 0.628143 0.380535 0.726982
O O2 0.353771 0.375910 0.869854
O O3 0.661626 0.288620 0.794190
O O4 0.406468 0.249992 0.796771
O O5 0.560900 0.140119 0.407167
O O6 0.907054 0.141255 0.355431
O O7 0.757923 0.000000 0.363339
O O8 0.194871 0.858400 0.027565
O O9 0.309121 0.000000 0.038037
O O10 0.500000 0.857421 0.000000
O O11 0.858771 0.500000 0.445615
O O12 0.691067 0.633127 0.529467
O O13 0.810436 0.640120 0.407167
O O14 0.171220 0.858745 0.355432
O O15 0.983483 0.000000 0.383258
O O16 0.538751 0.500000 0.038029
O O17 0.333187 0.375919 0.130145
O O18 0.500000 0.357419 0.000000
O O19 0.536069 0.119456 0.273019
O O20 0.288701 0.000000 0.363347
#
# Coordination Sequence:
#
# PCOD9185567 Si02
#       8
#     8   8   8   8   8   8   8   8
#     4  11  24  39  57  80 113 154 190 228 273 328
#     4  10  19  34  57  83 111 144 186 233 281 332
#     4   9  19  38  63  89 114 142 181 226 273 326
#     4   9  16  30  55  83 110 141 182 231 285 336
#     4   9  18  30  51  87 116 137 176 237 291 330
#     4   9  19  38  63  89 114 142 181 226 273 326
#     4  10  19  34  57  83 111 144 186 233 281 332
#     4  11  24  39  57  80 113 154 190 228 273 328
#
# _framework density 21.057701000000002
#
# number of rings (size 3 to 8) (size 9 to 14) (size 15 to 20)
#    0.000    2.250    1.250    1.500    1.750    5.500 
#    0.000    2.500    0.000    4.500    0.000    0.000 
#    0.000    0.000    0.000    0.000    0.000    0.000 
#
# Total GULP energy -178681.654870 kJ/mol
# GULP energy per Si atom -5583.801715 kJ/mol
# Density = 2.100977 g / cm^3
# Si number density = 21.057701 Si / 1000 Ang^3
#
#
#
# Elastic Constant Matrix: (Units=GPa)
#
#
# Indices 1 2 3 4 5 6 
#
# 1 196.0219 10.5766 76.9077 -0.0002 2.1208 0.0000
# 2 10.5766 23.7218 -13.6474 -0.0001 1.8138 0.0000
# 3 76.9077 -13.6474 105.3892 -0.0004 4.6570 0.0003
# 4 -0.0002 -0.0001 -0.0004 -18.1570 0.0004 1.0859
# 5 2.1208 1.8138 4.6570 0.0004 45.1664 -0.0002
# 6 0.0000 0.0000 0.0003 1.0859 -0.0002 -3.6209
#
#
#
# Elastic Compliance Matrix: (Units=1/GPa)
#
#
# Indices 1 2 3 4 5 6 
#
# 1 0.008305 -0.007841 -0.007105 0.000000 0.000657 -0.000001
# 2 -0.007841 0.053222 0.012750 -0.000001 -0.003084 0.000001
# 3 -0.007105 0.012750 0.016407 0.000000 -0.001870 0.000001
# 4 0.000000 -0.000001 0.000000 -0.056081 0.000000 -0.016818
# 5 0.000657 -0.003084 -0.001870 0.000000 0.022426 -0.000001
# 6 -0.000001 0.000001 0.000001 -0.016818 -0.000001 -0.281217
#
#
# Mechanical properties :
#
#
# Convention : Reuss Voigt Hill
#
# Bulk Modulus (GPa) = 13.59749 52.53407 33.06578
# Shear Modulus (GPa) = -24.03470 21.43078 -1.30196
#
# Velocity S-wave (km/s) = -3.38209 3.19363 -0.78716
# Velocity P-wave (km/s) = 2.96312 6.21296 3.86140
#
# Compressibility (1/GPa) = 0.07354299
#
# Stress axis : x y z
#
# Youngs Moduli (GPa) = 120.40978 18.78921 60.94901
#
# Poissons Ratio (x) = 0.14732 0.43304
# Poissons Ratio (y) = 0.94409 -0.77710
# Poissons Ratio (z) = 0.85550 -0.23956
#
# Static dielectric constant tensor:
#      x y z
#    x 1.800320 0.000000 0.005350 
#    y 0.000000 1.765430 0.000000 
#    z 0.005350 0.000000 1.729580 
# 
# From -- ./inp_files/333733.got.cif
#   From: 2010.05.17/outbox.cif.g08.bks.cpg/sg12_167_cif.got.tgz:333733.got - 2010.06.03 13:09:07.
