data_PCOD9185285
_publ_section_title
;
Structure prediction by ZEFSAII (Michael W. Deem and Ramdas Pophale) SiO2 
 PCOD9185285
Probable space group: C 2/M
;
_chemical_formula_sum "Si O2"
_cell_formula_units_Z 48
_cell_length_a 26.761604
_cell_length_b 15.810266
_cell_length_c 11.800091
_cell_angle_alpha 90.000000
_cell_angle_beta 146.899387
_cell_angle_gamma 90.000000
_cell_volume 2726.575556
_symmetry_space_group_name_H-M "C 2/M"
_symmetry_group_IT_number 12
_symmetry_cell_setting 'monoclinic'
loop_
_space_group_symop_operation_xyz
x,y,z
-x,y,-z
-x,-y,-z
x,-y,z
1/2+x,1/2+y,z
1/2-x,1/2+y,-z
1/2-x,1/2-y,-z
1/2+x,1/2-y,z
loop_
_atom_site_type_symbol
_atom_site_label
_atom_site_fract_x
_atom_site_fract_y
_atom_site_fract_z
Si Si1 0.396766 0.595454 0.258837
Si Si2 0.747613 0.095471 0.173501
Si Si3 0.851128 0.092591 0.610136
Si Si4 0.868124 0.241422 0.021328
Si Si5 0.042813 0.266479 0.201125
Si Si6 0.739852 0.823355 0.575599
O O1 0.500000 0.601303 0.500000
O O2 0.384627 0.500000 0.187290
O O3 0.328138 0.603105 0.234451
O O4 0.379504 0.670195 0.137937
O O5 0.791296 0.103079 0.382120
O O6 0.677403 0.171627 0.022938
O O7 0.708941 0.000000 0.090715
O O8 0.921607 0.169953 0.746831
O O9 0.784910 0.099489 0.593433
O O10 0.895115 0.000000 0.689180
O O11 0.801053 0.202763 0.798031
O O12 0.964457 0.264102 0.146009
O O13 0.132334 0.322414 0.399413
O O14 0.000000 0.294403 0.000000
O O15 0.750000 0.750000 0.500000
#
# Coordination Sequence:
#
# PCOD9185285 Si02
#       6
#     8   8   8   8   8   8
#     4  10  23  40  60  90 119 144 192 251 299 351
#     4  10  20  38  58  79 113 155 197 239 283 342
#     4  10  19  34  56  82 116 152 185 238 301 348
#     4  12  21  36  63  84 116 161 193 232 302 349
#     4  11  19  33  54  82 116 152 185 235 284 347
#     4  10  19  36  52  82 121 148 190 236 281 349
#
# _framework density 17.604500999999999
#
# number of rings (size 3 to 8) (size 9 to 14) (size 15 to 20)
#    0.000    1.500    6.667    1.500    0.000    3.000 
#    0.000    0.833    0.000    3.500    0.000    0.000 
#    0.000    0.000    0.000    0.000    0.000    0.000 
#
# Total GULP energy -133852.880720 kJ/mol
# GULP energy per Si atom -5577.203363 kJ/mol
# Density = 1.756443 g / cm^3
# Si number density = 17.604501 Si / 1000 Ang^3
#
#
#
# Elastic Constant Matrix: (Units=GPa)
#
#
# Indices 1 2 3 4 5 6 
#
# 1 106.5570 60.2534 45.9417 0.0000 18.2388 0.0000
# 2 60.2534 95.4271 37.3436 0.0000 1.9503 0.0000
# 3 45.9417 37.3436 75.2806 0.0000 11.2262 0.0000
# 4 0.0000 0.0000 0.0000 12.9889 0.0000 -3.1324
# 5 18.2388 1.9503 11.2262 0.0000 33.1496 0.0000
# 6 0.0000 0.0000 0.0000 -3.1324 0.0000 21.8611
#
#
#
# Elastic Compliance Matrix: (Units=1/GPa)
#
#
# Indices 1 2 3 4 5 6 
#
# 1 0.018266 -0.009260 -0.005410 0.000000 -0.007673 0.000000
# 2 -0.009260 0.017768 -0.003967 0.000000 0.005393 0.000000
# 3 -0.005410 -0.003967 0.019036 0.000000 -0.003237 0.000000
# 4 0.000000 0.000000 0.000000 0.079744 0.000000 0.011426
# 5 -0.007673 0.005393 -0.003237 0.000000 0.035167 0.000000
# 6 0.000000 0.000000 0.000000 0.011426 0.000000 0.047381
#
#
# Mechanical properties :
#
#
# Convention : Reuss Voigt Hill
#
# Bulk Modulus (GPa) = 56.19034 62.70466 59.44750
# Shear Modulus (GPa) = 19.18881 22.51498 20.85190
#
# Velocity S-wave (km/s) = 3.30509 3.58010 3.44534
# Velocity P-wave (km/s) = 6.82292 7.26535 7.04761
#
# Compressibility (1/GPa) = 0.01779665
#
# Stress axis : x y z
#
# Youngs Moduli (GPa) = 54.74508 56.28049 52.53246
#
# Poissons Ratio (x) = 0.52114 0.28420
# Poissons Ratio (y) = 0.50692 0.20841
# Poissons Ratio (z) = 0.29617 0.22328
#
# Static dielectric constant tensor:
#      x y z
#    x 1.611150 0.000000 0.015170 
#    y 0.000000 1.618200 0.000000 
#    z 0.015170 0.000000 1.593160 
# 
# From -- ./inp_files/144309.got.cif
#   From: 2010.05.17/outbox.cif.g08.bks.cpg/sg12_73_cif.got.tgz:144309.got - 2010.06.03 13:09:07.
