data_PCOD9185999
_publ_section_title
;
Structure prediction by ZEFSAII (Michael W. Deem and Ramdas Pophale) SiO2 
 PCOD9185999
Probable space group: C 2/M
;
_chemical_formula_sum "Si O2"
_cell_formula_units_Z 56
_cell_length_a 20.647845
_cell_length_b 8.805562
_cell_length_c 30.374627
_cell_angle_alpha 90.000000
_cell_angle_beta 146.098162
_cell_angle_gamma 90.000000
_cell_volume 3080.344335
_symmetry_space_group_name_H-M "C 2/M"
_symmetry_group_IT_number 12
_symmetry_cell_setting 'monoclinic'
loop_
_space_group_symop_operation_xyz
x,y,z
-x,y,-z
-x,-y,-z
x,-y,z
1/2+x,1/2+y,z
1/2-x,1/2+y,-z
1/2-x,1/2-y,-z
1/2+x,1/2-y,z
loop_
_atom_site_type_symbol
_atom_site_label
_atom_site_fract_x
_atom_site_fract_y
_atom_site_fract_z
Si Si1 0.571855 0.181144 0.495596
Si Si2 0.794591 0.819308 0.094542
Si Si3 0.914698 0.180836 0.329976
Si Si4 0.808212 0.681242 0.660553
Si Si5 0.418868 0.318266 0.072105
Si Si6 0.453936 0.180630 0.257273
Si Si7 0.182253 0.817869 0.236369
O O1 0.500000 0.210376 0.500000
O O2 0.500068 0.247269 0.414437
O O3 0.696599 0.258637 0.571440
O O4 0.584553 0.000000 0.498121
O O5 0.871997 0.781524 0.094834
O O6 0.849834 0.735958 0.167222
O O7 0.798775 0.000000 0.103264
O O8 0.665393 0.765573 0.009352
O O9 0.949618 0.235458 0.301263
O O10 0.785871 0.240884 0.268264
O O11 0.918106 0.000000 0.335232
O O12 0.799531 0.500000 0.662131
O O13 0.810840 0.762321 0.709337
O O14 0.926269 0.714044 0.700801
O O15 0.406211 0.500000 0.059396
O O16 0.554257 0.279084 0.146113
O O17 0.446592 0.000000 0.260062
O O18 0.195796 0.000000 0.242981
#
# Coordination Sequence:
#
# PCOD9185999 Si02
#       7
#     8   8   8   8   8   8   8
#     4  11  23  40  64  91 121 159 200 246 300 357
#     4  10  19  34  58  89 123 158 200 248 298 352
#     4  12  26  42  63  89 122 160 202 250 302 359
#     4  11  23  38  63  93 120 156 202 251 297 352
#     4   9  19  34  57  89 122 158 199 245 298 354
#     4  11  24  42  62  88 125 163 201 245 304 364
#     4  11  21  38  62  90 123 159 201 247 299 359
#
# _framework density 18.179786
#
# number of rings (size 3 to 8) (size 9 to 14) (size 15 to 20)
#    0.000    1.286    2.857    3.429    0.000    4.571 
#    0.000    0.714    0.000    4.286    0.000    0.000 
#    0.000    0.000    0.000    0.000    0.000    0.000 
#
# Total GULP energy -156545.192325 kJ/mol
# GULP energy per Si atom -5590.899726 kJ/mol
# Density = 1.813841 g / cm^3
# Si number density = 18.179786 Si / 1000 Ang^3
#
#
#
# Elastic Constant Matrix: (Units=GPa)
#
#
# Indices 1 2 3 4 5 6 
#
# 1 49.2004 26.5007 17.3419 0.0000 -5.8491 -0.0001
# 2 26.5007 46.1864 27.9448 0.0000 -4.7593 -0.0002
# 3 17.3419 27.9448 105.1576 0.0000 2.0574 0.0000
# 4 0.0000 0.0000 0.0000 34.4778 0.0000 -1.1902
# 5 -5.8491 -4.7593 2.0574 0.0000 25.1228 0.0000
# 6 -0.0001 -0.0002 0.0000 -1.1902 0.0000 29.8381
#
#
#
# Elastic Compliance Matrix: (Units=1/GPa)
#
#
# Indices 1 2 3 4 5 6 
#
# 1 0.029800 -0.016297 -0.000660 0.000000 0.003905 0.000000
# 2 -0.016297 0.035481 -0.006810 0.000000 0.003485 0.000000
# 3 -0.000660 -0.006810 0.011475 0.000000 -0.002383 0.000000
# 4 0.000000 0.000000 0.000000 0.029044 0.000000 0.001158
# 5 0.003905 0.003485 -0.002383 0.000000 0.041569 0.000000
# 6 0.000000 0.000000 0.000000 0.001158 0.000000 0.033560
#
#
# Mechanical properties :
#
#
# Convention : Reuss Voigt Hill
#
# Bulk Modulus (GPa) = 34.21950 38.23546 36.22748
# Shear Modulus (GPa) = 20.99054 26.47154 23.73104
#
# Velocity S-wave (km/s) = 3.40164 3.82002 3.61689
# Velocity P-wave (km/s) = 5.85593 6.36665 6.11662
#
# Compressibility (1/GPa) = 0.02922310
#
# Stress axis : x y z
#
# Youngs Moduli (GPa) = 33.55737 28.18394 87.14905
#
# Poissons Ratio (x) = 0.45930 0.05753
# Poissons Ratio (y) = 0.54687 0.59344
# Poissons Ratio (z) = 0.02215 0.19192
#
# Static dielectric constant tensor:
#      x y z
#    x 1.599840 0.000000 0.011730 
#    y 0.000000 1.603980 0.000000 
#    z 0.011730 0.000000 1.603200 
# 
# From -- ./inp_files/380773.got.cif
#   From: 2010.05.17/outbox.cif.g08.bks.cpg/sg12_191_cif.got.tgz:380773.got - 2010.06.03 13:09:07.
