data_PCOD9185279
_publ_section_title
;
Structure prediction by ZEFSAII (Michael W. Deem and Ramdas Pophale) SiO2 
 PCOD9185279
Probable space group: C 2/M
;
_chemical_formula_sum "Si O2"
_cell_formula_units_Z 48
_cell_length_a 18.435930
_cell_length_b 10.484171
_cell_length_c 13.468540
_cell_angle_alpha 90.000000
_cell_angle_beta 97.273675
_cell_angle_gamma 90.000000
_cell_volume 2582.323448
_symmetry_space_group_name_H-M "C 2/M"
_symmetry_group_IT_number 12
_symmetry_cell_setting 'monoclinic'
loop_
_space_group_symop_operation_xyz
x,y,z
-x,y,-z
-x,-y,-z
x,-y,z
1/2+x,1/2+y,z
1/2-x,1/2+y,-z
1/2-x,1/2-y,-z
1/2+x,1/2-y,z
loop_
_atom_site_type_symbol
_atom_site_label
_atom_site_fract_x
_atom_site_fract_y
_atom_site_fract_z
Si Si1 0.657632 0.147538 0.406452
Si Si2 0.010577 0.356350 0.267356
Si Si3 0.036341 0.145548 0.899263
Si Si4 0.789516 0.849559 0.078543
Si Si5 0.288469 0.352480 0.304157
Si Si6 0.930717 0.225562 0.431157
O O1 0.596187 0.150590 0.309617
O O2 0.732119 0.205000 0.374366
O O3 0.620358 0.216787 0.492188
O O4 0.669139 0.000000 0.438147
O O5 0.993324 0.500000 0.230746
O O6 0.989807 0.249451 0.184489
O O7 0.967681 0.327379 0.362954
O O8 0.123634 0.153122 0.924956
O O9 0.018353 0.000000 0.863644
O O10 0.000000 0.166956 0.000000
O O11 0.779282 0.804294 0.190882
O O12 0.766614 0.000000 0.064185
O O13 0.750000 0.750000 0.000000
O O14 0.266754 0.500000 0.294986
O O15 0.372571 0.348136 0.353156
O O16 0.000000 0.162035 0.500000
#
# Coordination Sequence:
#
# PCOD9185279 Si02
#       6
#     8   8   8   8   8   8
#     4   9  19  34  54  80 114 150 187 233 281 329
#     4  10  20  35  58  86 112 147 192 235 277 331
#     4  10  22  40  60  81 113 151 186 234 292 339
#     4  10  22  40  60  84 115 151 188 232 287 340
#     4  10  20  36  56  80 115 153 187 232 287 336
#     4  10  19  34  56  82 114 149 188 232 281 336
#
# _framework density 18.587910999999998
#
# number of rings (size 3 to 8) (size 9 to 14) (size 15 to 20)
#    0.000    2.167    1.667    1.000    2.333    3.333 
#    0.000    2.500    0.000    3.000    0.000    0.000 
#    0.000    0.000    0.000    0.000    0.000    0.000 
#
# Total GULP energy -133699.717249 kJ/mol
# GULP energy per Si atom -5570.821552 kJ/mol
# Density = 1.854560 g / cm^3
# Si number density = 18.587911 Si / 1000 Ang^3
#
#
#
# Elastic Constant Matrix: (Units=GPa)
#
#
# Indices 1 2 3 4 5 6 
#
# 1 95.3087 19.2456 37.9645 0.0000 -11.2408 0.0000
# 2 19.2456 76.7266 53.4590 0.0000 7.1474 0.0000
# 3 37.9645 53.4590 113.9796 0.0000 1.7851 0.0000
# 4 0.0000 0.0000 0.0000 5.5474 0.0000 5.4722
# 5 -11.2408 7.1474 1.7851 0.0000 30.4125 0.0000
# 6 0.0000 0.0000 0.0000 5.4722 0.0000 21.4654
#
#
#
# Elastic Compliance Matrix: (Units=1/GPa)
#
#
# Indices 1 2 3 4 5 6 
#
# 1 0.012861 -0.000996 -0.003899 0.000000 0.005217 0.000000
# 2 -0.000996 0.019941 -0.008950 0.000000 -0.004529 0.000000
# 3 -0.003899 -0.008950 0.014273 0.000000 -0.000175 0.000000
# 4 0.000000 0.000000 0.000000 0.240827 0.000000 -0.061394
# 5 0.005217 -0.004529 -0.000175 0.000000 0.035884 0.000000
# 6 0.000000 0.000000 0.000000 -0.061394 0.000000 0.062238
#
#
# Mechanical properties :
#
#
# Convention : Reuss Voigt Hill
#
# Bulk Modulus (GPa) = 51.58336 56.37257 53.97796
# Shear Modulus (GPa) = 11.89980 23.17478 17.53729
#
# Velocity S-wave (km/s) = 2.53294 3.53479 3.07494
# Velocity P-wave (km/s) = 6.03040 6.85952 6.45828
#
# Compressibility (1/GPa) = 0.01938610
#
# Stress axis : x y z
#
# Youngs Moduli (GPa) = 77.75156 50.14802 70.06416
#
# Poissons Ratio (x) = 0.04993 0.27315
# Poissons Ratio (y) = 0.07742 0.62709
# Poissons Ratio (z) = 0.30312 0.44883
#
# Static dielectric constant tensor:
#      x y z
#    x 1.663870 0.000000 -0.017680 
#    y 0.000000 1.635810 0.000000 
#    z -0.017680 0.000000 1.653820 
# 
# From -- ./inp_files/153510.got.cif
#   From: 2010.05.17/outbox.cif.g08.bks.cpg/sg12_77_cif.got.tgz:153510.got - 2010.06.03 13:09:07.
