data_PCOD9185088
_publ_section_title
;
Structure prediction by ZEFSAII (Michael W. Deem and Ramdas Pophale) SiO2 
 PCOD9185088
Probable space group: C 2/M
;
_chemical_formula_sum "Si O2"
_cell_formula_units_Z 60
_cell_length_a 23.735074
_cell_length_b 19.873666
_cell_length_c 8.800510
_cell_angle_alpha 90.000000
_cell_angle_beta 47.777734
_cell_angle_gamma 90.000000
_cell_volume 3074.163712
_symmetry_space_group_name_H-M "C 2/M"
_symmetry_group_IT_number 12
_symmetry_cell_setting 'monoclinic'
loop_
_space_group_symop_operation_xyz
x,y,z
-x,y,-z
-x,-y,-z
x,-y,z
1/2+x,1/2+y,z
1/2-x,1/2+y,-z
1/2-x,1/2-y,-z
1/2+x,1/2-y,z
loop_
_atom_site_type_symbol
_atom_site_label
_atom_site_fract_x
_atom_site_fract_y
_atom_site_fract_z
Si Si1 0.312029 0.303908 0.929117
Si Si2 0.707987 0.424956 0.229104
Si Si3 0.500000 0.603458 0.000000
Si Si4 0.284529 0.081061 0.409913
Si Si5 0.413357 0.816976 0.225979
Si Si6 0.468397 0.599693 0.387485
Si Si7 0.946294 0.750593 0.476008
Si Si8 0.655093 0.318296 0.777718
O O1 0.281477 0.374830 0.927369
O O2 0.379742 0.281997 0.696446
O O3 0.250000 0.250000 0.000000
O O4 0.335901 0.308654 0.059025
O O5 0.717574 0.500000 0.157154
O O6 0.762957 0.412715 0.271140
O O7 0.621205 0.415998 0.445116
O O8 0.498885 0.570903 0.171939
O O9 0.422278 0.645551 0.134361
O O10 0.367649 0.113470 0.286658
O O11 0.223500 0.131956 0.600684
O O12 0.278064 0.000000 0.459271
O O13 0.422116 0.797344 0.385996
O O14 0.357760 0.757400 0.262934
O O15 0.500000 0.815513 0.000000
O O16 0.500000 0.580677 0.500000
O O17 0.483727 0.680268 0.344825
O O18 0.000000 0.715119 0.500000
#
# Coordination Sequence:
#
# PCOD9185088 Si02
#       8
#     8   8   4   8   8   8   8   8
#     4  11  22  36  59  90 119 155 202 256 321 384
#     4  10  21  40  56  77 119 167 207 249 308 373
#     4  12  18  34  61  92 125 160 212 258 320 382
#     4  11  25  43  62  88 131 175 213 262 317 381
#     4  12  22  39  68  96 123 163 217 271 321 378
#     4  10  19  34  55  87 125 162 204 259 314 378
#     4  10  19  35  56  87 122 151 191 258 324 372
#     4  12  21  38  64  95 128 160 212 265 324 385
#
# _framework density 19.517503000000001
#
# number of rings (size 3 to 8) (size 9 to 14) (size 15 to 20)
#    0.000    1.067    3.333    6.000    0.000    1.067 
#    0.000    1.333    0.000    0.400    0.000    0.000 
#    0.000    0.000    0.000    0.000    0.000    0.000 
#
# Total GULP energy -167215.095522 kJ/mol
# GULP energy per Si atom -5573.836517 kJ/mol
# Density = 1.947308 g / cm^3
# Si number density = 19.517503 Si / 1000 Ang^3
#
#
#
# Elastic Constant Matrix: (Units=GPa)
#
#
# Indices 1 2 3 4 5 6 
#
# 1 150.3630 72.6667 57.7609 0.0000 29.0036 0.0000
# 2 72.6667 91.8733 36.9103 0.0000 2.4750 0.0000
# 3 57.7609 36.9103 61.5891 0.0000 12.3329 0.0000
# 4 0.0000 0.0000 0.0000 -139.7155 0.0000 248.0772
# 5 29.0036 2.4750 12.3329 0.0000 41.7350 0.0000
# 6 0.0000 0.0000 0.0000 248.0772 0.0000 -489.8991
#
#
#
# Elastic Compliance Matrix: (Units=1/GPa)
#
#
# Indices 1 2 3 4 5 6 
#
# 1 0.015376 -0.008948 -0.007466 0.000000 -0.007949 0.000000
# 2 -0.008948 0.019671 -0.004686 0.000000 0.006437 0.000000
# 3 -0.007466 -0.004686 0.026522 0.000000 -0.002371 0.000000
# 4 0.000000 0.000000 0.000000 -0.070957 0.000000 -0.035931
# 5 -0.007949 0.006437 -0.002371 0.000000 0.029804 0.000000
# 6 0.000000 0.000000 0.000000 -0.035931 0.000000 -0.020236
#
#
# Mechanical properties :
#
#
# Convention : Reuss Voigt Hill
#
# Bulk Modulus (GPa) = 51.62956 70.94458 61.28707
# Shear Modulus (GPa) = 102.38160 -108.47676 -3.04758
#
# Velocity S-wave (km/s) = 7.25053 -7.46324 -1.25094
# Velocity P-wave (km/s) = 9.82873 6.15129 5.42059
#
# Compressibility (1/GPa) = 0.01936875
#
# Stress axis : x y z
#
# Youngs Moduli (GPa) = 65.03504 50.83582 37.70474
#
# Poissons Ratio (x) = 0.45488 0.28151
# Poissons Ratio (y) = 0.58194 0.17668
# Poissons Ratio (z) = 0.48557 0.23821
#
# Static dielectric constant tensor:
#      x y z
#    x 1.617890 0.000000 0.175860 
#    y 0.000000 1.772550 0.000000 
#    z 0.175860 0.000000 1.226450 
# 
# From -- ./inp_files/89822.got.cif
#   From: 2010.05.17/outbox.cif.g08.bks.cpg/sg12_45_cif.got.tgz:89822.got - 2010.06.03 13:09:07.
