data_PCOD9185636
_publ_section_title
;
Structure prediction by ZEFSAII (Michael W. Deem and Ramdas Pophale) SiO2 
 PCOD9185636
Probable space group: C 2/M
;
_chemical_formula_sum "Si O2"
_cell_formula_units_Z 56
_cell_length_a 15.189341
_cell_length_b 16.460782
_cell_length_c 18.460249
_cell_angle_alpha 90.000000
_cell_angle_beta 36.689859
_cell_angle_gamma 90.000000
_cell_volume 2757.735876
_symmetry_space_group_name_H-M "C 2/M"
_symmetry_group_IT_number 12
_symmetry_cell_setting 'monoclinic'
loop_
_space_group_symop_operation_xyz
x,y,z
-x,y,-z
-x,-y,-z
x,-y,z
1/2+x,1/2+y,z
1/2-x,1/2+y,-z
1/2-x,1/2-y,-z
1/2+x,1/2-y,z
loop_
_atom_site_type_symbol
_atom_site_label
_atom_site_fract_x
_atom_site_fract_y
_atom_site_fract_z
Si Si1 0.252190 0.845785 0.010251
Si Si2 0.145272 0.907089 0.372682
Si Si3 0.283891 0.403384 0.357339
Si Si4 0.063209 0.857960 0.273984
Si Si5 0.560146 0.903063 0.748302
Si Si6 0.102047 0.700271 0.577900
Si Si7 0.982167 0.903249 0.093453
O O1 0.191321 0.859207 0.130500
O O2 0.134562 0.886511 0.034057
O O3 0.250000 0.750000 0.000000
O O4 0.413098 0.877963 0.886776
O O5 0.119175 0.908094 0.305028
O O6 0.297645 0.871985 0.300769
O O7 0.000000 0.864953 0.500000
O O8 0.147157 0.000000 0.399424
O O9 0.250981 0.500000 0.376163
O O10 0.417015 0.390731 0.328682
O O11 0.147050 0.349919 0.476422
O O12 0.353059 0.375277 0.234296
O O13 0.024100 0.768651 0.331858
O O14 0.568803 0.863499 0.663590
O O15 0.561551 0.000000 0.741100
O O16 0.250000 0.750000 0.500000
O O17 0.959259 0.000000 0.102558
O O18 0.000000 0.869811 0.000000
#
# Coordination Sequence:
#
# PCOD9185636 Si02
#       7
#     8   8   8   8   8   8   8
#     4  11  22  41  58  87 124 161 204 250 314 373
#     4  10  21  38  60  91 126 159 201 253 309 367
#     4   9  17  31  58  88 116 156 204 255 306 368
#     4  10  20  36  57  83 123 162 201 248 305 371
#     4  11  23  39  63  90 124 167 209 257 307 370
#     4  10  19  34  57  84 118 159 204 251 303 365
#     4   9  19  38  63  88 115 156 207 259 310 363
#
# _framework density 20.306512999999999
#
# number of rings (size 3 to 8) (size 9 to 14) (size 15 to 20)
#    0.000    2.000    1.429    3.000    0.000    3.429 
#    2.571    1.429    0.000    0.000    0.000    4.000 
#    0.000    0.000    0.000    0.000    0.000    0.000 
#
# Total GULP energy -156173.259012 kJ/mol
# GULP energy per Si atom -5577.616393 kJ/mol
# Density = 2.026029 g / cm^3
# Si number density = 20.306513 Si / 1000 Ang^3
#
#
#
# Elastic Constant Matrix: (Units=GPa)
#
#
# Indices 1 2 3 4 5 6 
#
# 1 51.6845 11.0545 61.1282 -0.0002 14.2635 0.0000
# 2 11.0545 71.9757 42.5956 -0.0001 0.0127 0.0000
# 3 61.1282 42.5956 184.8522 -0.0005 6.3740 -0.0001
# 4 -0.0002 -0.0001 -0.0005 5.9575 0.0002 17.1370
# 5 14.2635 0.0127 6.3740 0.0002 28.9550 0.0000
# 6 0.0000 0.0000 -0.0001 17.1370 0.0000 -6.6062
#
#
#
# Elastic Compliance Matrix: (Units=1/GPa)
#
#
# Indices 1 2 3 4 5 6 
#
# 1 0.038118 0.001483 -0.012394 0.000000 -0.016050 0.000000
# 2 0.001483 0.016164 -0.004222 0.000000 0.000192 0.000000
# 3 -0.012394 -0.004222 0.010349 0.000000 0.003829 0.000000
# 4 0.000000 0.000000 0.000000 0.019837 0.000000 0.051457
# 5 -0.016050 0.000192 0.003829 0.000000 0.041600 -0.000001
# 6 0.000000 0.000000 0.000000 0.051457 -0.000001 -0.017889
#
#
# Mechanical properties :
#
#
# Convention : Reuss Voigt Hill
#
# Bulk Modulus (GPa) = 29.09779 59.78542 44.44161
# Shear Modulus (GPa) = 33.35567 18.57686 25.96626
#
# Velocity S-wave (km/s) = 4.05731 3.02788 3.57979
# Velocity P-wave (km/s) = 6.02573 6.45984 6.24656
#
# Compressibility (1/GPa) = 0.03436687
#
# Stress axis : x y z
#
# Youngs Moduli (GPa) = 26.23404 61.86497 96.62859
#
# Poissons Ratio (x) = -0.09174 1.19757
# Poissons Ratio (y) = -0.03890 0.40794
# Poissons Ratio (z) = 0.32513 0.26118
#
# Static dielectric constant tensor:
#      x y z
#    x 1.726770 0.000000 -0.020930 
#    y 0.000000 1.741260 0.000000 
#    z -0.020930 0.000000 1.646030 
# 
# From -- ./inp_files/271378.got.cif
#   From: 2010.05.17/outbox.cif.g08.bks.cpg/sg12_136_cif.got.tgz:271378.got - 2010.06.03 13:09:07.
