data_PCOD9185752
_publ_section_title
;
Structure prediction by ZEFSAII (Michael W. Deem and Ramdas Pophale) SiO2 
 PCOD9185752
Probable space group: C 2/M
;
_chemical_formula_sum "Si O2"
_cell_formula_units_Z 56
_cell_length_a 30.256924
_cell_length_b 7.691667
_cell_length_c 13.348122
_cell_angle_alpha 90.000000
_cell_angle_beta 54.895174
_cell_angle_gamma 90.000000
_cell_volume 2541.396859
_symmetry_space_group_name_H-M "C 2/M"
_symmetry_group_IT_number 12
_symmetry_cell_setting 'monoclinic'
loop_
_space_group_symop_operation_xyz
x,y,z
-x,y,-z
-x,-y,-z
x,-y,z
1/2+x,1/2+y,z
1/2-x,1/2+y,-z
1/2-x,1/2-y,-z
1/2+x,1/2-y,z
loop_
_atom_site_type_symbol
_atom_site_label
_atom_site_fract_x
_atom_site_fract_y
_atom_site_fract_z
Si Si1 0.444094 0.701554 0.530249
Si Si2 0.673702 0.795862 0.253273
Si Si3 0.124260 0.295057 0.789960
Si Si4 0.269795 0.698973 0.242403
Si Si5 0.554247 0.788347 0.702888
Si Si6 0.831995 0.711459 0.959949
Si Si7 0.937664 0.711121 0.932626
O O1 0.500000 0.777511 0.500000
O O2 0.442144 0.500000 0.563044
O O3 0.389396 0.783683 0.642613
O O4 0.443726 0.717367 0.411236
O O5 0.711126 0.721961 0.293477
O O6 0.684545 0.723857 0.127997
O O7 0.687631 0.000000 0.230177
O O8 0.112940 0.500000 0.803174
O O9 0.186867 0.276090 0.737321
O O10 0.103021 0.229603 0.711361
O O11 0.088204 0.223800 0.929416
O O12 0.263514 0.500000 0.282383
O O13 0.298330 0.713299 0.096026
O O14 0.498003 0.734269 0.828689
O O15 0.554621 0.000000 0.693902
O O16 0.827275 0.500000 0.970396
O O17 0.894544 0.754869 0.902268
O O18 0.938942 0.500000 0.936677
#
# Coordination Sequence:
#
# PCOD9185752 Si02
#       7
#     8   8   8   8   8   8   8
#     4  11  25  41  56  79 110 139 170 215 270 323
#     4  10  21  37  57  79 103 140 188 225 257 309
#     4   9  18  33  54  81 110 141 180 220 261 313
#     4  10  20  33  52  81 113 141 174 219 268 317
#     4  10  19  34  58  81 104 141 185 224 260 306
#     4   9  17  31  53  80 109 140 175 217 265 317
#     4   8  14  27  51  81 107 133 170 215 259 306
#
# _framework density 22.035126999999999
#
# number of rings (size 3 to 8) (size 9 to 14) (size 15 to 20)
#    0.000    2.429    0.000    3.429    0.000    6.286 
#    0.000    5.000    0.000    4.286    0.000    0.000 
#    0.000    0.000    0.000    0.000    0.000    0.000 
#
# Total GULP energy -156273.387704 kJ/mol
# GULP energy per Si atom -5581.192418 kJ/mol
# Density = 2.198497 g / cm^3
# Si number density = 22.035127 Si / 1000 Ang^3
#
#
#
# Elastic Constant Matrix: (Units=GPa)
#
#
# Indices 1 2 3 4 5 6 
#
# 1 147.1671 -6.6630 36.2019 0.0000 6.2617 0.0000
# 2 -6.6630 34.3519 -9.7230 0.0000 0.3360 0.0000
# 3 36.2019 -9.7230 31.7109 0.0000 9.2546 0.0000
# 4 0.0000 0.0000 0.0000 17.8510 0.0000 -4.1032
# 5 6.2617 0.3360 9.2546 0.0000 32.7866 0.0000
# 6 0.0000 0.0000 0.0000 -4.1032 0.0000 22.5712
#
#
#
# Elastic Compliance Matrix: (Units=1/GPa)
#
#
# Indices 1 2 3 4 5 6 
#
# 1 0.009574 -0.001509 -0.011838 0.000000 0.001529 0.000000
# 2 -0.001509 0.032458 0.012737 0.000000 -0.003640 0.000000
# 3 -0.011838 0.012737 0.052672 0.000000 -0.012737 0.000000
# 4 0.000000 0.000000 0.000000 0.058462 0.000000 0.010628
# 5 0.001529 -0.003640 -0.012737 0.000000 0.033841 0.000000
# 6 0.000000 0.000000 0.000000 0.010628 0.000000 0.046236
#
#
# Mechanical properties :
#
#
# Convention : Reuss Voigt Hill
#
# Bulk Modulus (GPa) = 10.69698 28.09574 19.39636
# Shear Modulus (GPa) = 18.82346 27.53604 23.17975
#
# Velocity S-wave (km/s) = 2.92592 3.53886 3.24689
# Velocity P-wave (km/s) = 4.03482 5.42920 4.78309
#
# Compressibility (1/GPa) = 0.09348430
#
# Stress axis : x y z
#
# Youngs Moduli (GPa) = 104.45184 30.80859 18.98525
#
# Poissons Ratio (x) = 0.04648 0.22475
# Poissons Ratio (y) = 0.15759 -0.24181
# Poissons Ratio (z) = 1.23654 -0.39241
#
# Static dielectric constant tensor:
#      x y z
#    x 1.861730 0.000000 0.000310 
#    y 0.000000 1.832960 0.000000 
#    z 0.000310 0.000000 1.766660 
# 
# From -- ./inp_files/187174.got.cif
#   From: 2010.05.17/outbox.cif.g08.bks.cpg/sg12_94_cif.got.tgz:187174.got - 2010.06.03 13:09:07.
