data_PCOD9185963
_publ_section_title
;
Structure prediction by ZEFSAII (Michael W. Deem and Ramdas Pophale) SiO2 
 PCOD9185963
Probable space group: C 2/M
;
_chemical_formula_sum "Si O2"
_cell_formula_units_Z 64
_cell_length_a 30.380297
_cell_length_b 9.068228
_cell_length_c 17.597481
_cell_angle_alpha 90.000000
_cell_angle_beta 40.311378
_cell_angle_gamma 90.000000
_cell_volume 3136.387934
_symmetry_space_group_name_H-M "C 2/M"
_symmetry_group_IT_number 12
_symmetry_cell_setting 'monoclinic'
loop_
_space_group_symop_operation_xyz
x,y,z
-x,y,-z
-x,-y,-z
x,-y,z
1/2+x,1/2+y,z
1/2-x,1/2+y,-z
1/2-x,1/2-y,-z
1/2+x,1/2-y,z
loop_
_atom_site_type_symbol
_atom_site_label
_atom_site_fract_x
_atom_site_fract_y
_atom_site_fract_z
Si Si1 0.035723 0.172291 0.035179
Si Si2 0.214216 0.177644 0.974719
Si Si3 0.827546 0.823762 0.224963
Si Si4 0.205165 0.676873 0.283779
Si Si5 0.962055 0.675738 0.272270
Si Si6 0.822367 0.323771 0.389523
Si Si7 0.427781 0.323834 0.778275
Si Si8 0.078370 0.823469 0.386620
O O1 0.115161 0.201680 0.914426
O O2 0.028523 0.000000 0.067268
O O3 0.000000 0.189705 0.000000
O O4 0.000783 0.269879 0.145165
O O5 0.252062 0.220723 0.847776
O O6 0.218235 0.000000 0.975992
O O7 0.250000 0.250000 0.000000
O O8 0.134328 0.216111 0.084176
O O9 0.753008 0.784615 0.291783
O O10 0.844402 0.732442 0.277439
O O11 0.829400 0.000000 0.239286
O O12 0.198363 0.500000 0.292544
O O13 0.131659 0.748787 0.372673
O O14 0.965225 0.500000 0.273288
O O15 0.882969 0.719004 0.367308
O O16 0.003080 0.747325 0.287308
O O17 0.815738 0.500000 0.399892
O O18 0.750000 0.250000 0.500000
O O19 0.437610 0.500000 0.767499
O O20 0.405115 0.285021 0.722720
O O21 0.000000 0.780060 0.500000
O O22 0.082981 0.000000 0.389274
#
# Coordination Sequence:
#
# PCOD9185963 Si02
#       8
#     8   8   8   8   8   8   8   8
#     4  10  19  35  63  91 119 159 194 228 287 358
#     4  10  19  34  58  87 118 152 190 235 287 346
#     4  10  21  39  62  90 122 156 195 238 287 350
#     4  10  21  36  58  87 119 151 188 236 289 347
#     4  11  24  39  59  89 122 152 193 249 297 345
#     4  11  25  43  62  86 117 155 200 249 297 347
#     4  10  21  38  60  85 117 155 194 238 291 356
#     4  10  22  40  60  83 112 149 197 246 288 341
#
# _framework density 20.405639999999998
#
# number of rings (size 3 to 8) (size 9 to 14) (size 15 to 20)
#    0.000    1.750    2.500    1.500    0.000    7.000 
#    0.000    3.750    0.000    0.000    0.000    0.000 
#    0.000    0.000    0.000    0.000    0.000    0.000 
#
# Total GULP energy -178815.101885 kJ/mol
# GULP energy per Si atom -5587.971934 kJ/mol
# Density = 2.035920 g / cm^3
# Si number density = 20.405640 Si / 1000 Ang^3
#
#
#
# Elastic Constant Matrix: (Units=GPa)
#
#
# Indices 1 2 3 4 5 6 
#
# 1 104.8857 26.9949 2.9710 -0.0005 -39.9305 -0.0013
# 2 26.9949 18.6897 10.1399 -0.0038 -16.0891 0.0042
# 3 2.9710 10.1399 44.9474 -0.0044 -27.7276 0.0020
# 4 -0.0005 -0.0038 -0.0044 25.0168 0.0028 -3.1268
# 5 -39.9305 -16.0891 -27.7276 0.0028 36.0963 -0.0016
# 6 -0.0013 0.0042 0.0020 -3.1268 -0.0016 29.2367
#
#
#
# Elastic Compliance Matrix: (Units=1/GPa)
#
#
# Indices 1 2 3 4 5 6 
#
# 1 0.040958 -0.023891 0.045738 -0.000002 0.069794 0.000006
# 2 -0.023891 0.102353 -0.018382 0.000010 0.005072 -0.000013
# 3 0.045738 -0.018382 0.094139 0.000002 0.114716 0.000005
# 4 -0.000002 0.000010 0.000002 0.040515 0.000001 0.004333
# 5 0.069794 0.005072 0.114716 0.000001 0.195292 0.000005
# 6 0.000006 -0.000013 0.000005 0.004333 0.000005 0.034667
#
#
# Mechanical properties :
#
#
# Convention : Reuss Voigt Hill
#
# Bulk Modulus (GPa) = 4.09201 27.63713 15.86457
# Shear Modulus (GPa) = 8.58435 26.63110 17.60772
#
# Velocity S-wave (km/s) = 2.05329 3.61652 2.94068
# Velocity P-wave (km/s) = 2.76243 5.56886 4.39563
#
# Compressibility (1/GPa) = 0.24437840
#
# Stress axis : x y z
#
# Youngs Moduli (GPa) = 24.41498 9.77014 10.62255
#
# Poissons Ratio (x) = 0.23342 -0.48585
# Poissons Ratio (y) = 0.58331 0.19527
# Poissons Ratio (z) = -1.11668 0.17960
#
# Static dielectric constant tensor:
#      x y z
#    x 1.730350 0.000000 -0.006580 
#    y 0.000000 1.675890 0.000000 
#    z -0.006580 0.000000 1.756290 
# 
# From -- ./inp_files/295498.got.cif
#   From: 2010.05.17/outbox.cif.g08.bks.cpg/sg12_148_cif.got.tgz:295498.got - 2010.06.03 13:09:07.
