data_PCOD9185455
_publ_section_title
;
Structure prediction by ZEFSAII (Michael W. Deem and Ramdas Pophale) SiO2 
 PCOD9185455
Probable space group: C 2/M
;
_chemical_formula_sum "Si O2"
_cell_formula_units_Z 48
_cell_length_a 31.865267
_cell_length_b 8.595297
_cell_length_c 9.548355
_cell_angle_alpha 90.000000
_cell_angle_beta 90.175675
_cell_angle_gamma 90.000000
_cell_volume 2615.200349
_symmetry_space_group_name_H-M "C 2/M"
_symmetry_group_IT_number 12
_symmetry_cell_setting 'monoclinic'
loop_
_space_group_symop_operation_xyz
x,y,z
-x,y,-z
-x,-y,-z
x,-y,z
1/2+x,1/2+y,z
1/2-x,1/2+y,-z
1/2-x,1/2-y,-z
1/2+x,1/2-y,z
loop_
_atom_site_type_symbol
_atom_site_label
_atom_site_fract_x
_atom_site_fract_y
_atom_site_fract_z
Si Si1 0.618042 0.687009 0.592517
Si Si2 0.620208 0.813114 0.907728
Si Si3 0.459640 0.810287 0.910216
Si Si4 0.458930 0.188296 0.586997
Si Si5 0.710778 0.686453 0.914265
Si Si6 0.711827 0.313513 0.588836
O O1 0.616905 0.500000 0.595975
O O2 0.612472 0.747866 0.751329
O O3 0.582185 0.750429 0.491501
O O4 0.664878 0.736811 0.544766
O O5 0.665697 0.754260 0.957919
O O6 0.620474 0.000000 0.900331
O O7 0.582909 0.763539 0.010964
O O8 0.461246 0.759728 0.748675
O O9 0.460394 0.000000 0.909059
O O10 0.500000 0.758822 0.000000
O O11 0.500000 0.237085 0.500000
O O12 0.457775 0.000000 0.586092
O O13 0.709092 0.500000 0.923394
O O14 0.716406 0.731134 0.751490
O O15 0.750000 0.750000 0.000000
O O16 0.712803 0.500000 0.581348
O O17 0.750000 0.250000 0.500000
#
# Coordination Sequence:
#
# PCOD9185455 Si02
#       6
#     8   8   8   8   8   8
#     4  10  21  37  54  77 110 143 177 218 265 317
#     4  10  19  34  57  81 106 140 180 221 267 314
#     4   9  18  33  54  81 109 136 174 223 266 311
#     4  10  20  35  57  82 106 138 180 221 265 317
#     4  10  21  37  55  79 110 142 179 221 266 317
#     4   9  20  36  54  77 105 138 177 220 264 315
#
# _framework density 18.354233000000001
#
# number of rings (size 3 to 8) (size 9 to 14) (size 15 to 20)
#    0.000    2.333    0.000    3.500    0.000    8.333 
#    0.000    6.667    0.000    3.500    0.000    0.000 
#    0.000    0.000    0.000    0.000    0.000    0.000 
#
# Total GULP energy -133956.548586 kJ/mol
# GULP energy per Si atom -5581.522858 kJ/mol
# Density = 1.831246 g / cm^3
# Si number density = 18.354233 Si / 1000 Ang^3
#
#
#
# Elastic Constant Matrix: (Units=GPa)
#
#
# Indices 1 2 3 4 5 6 
#
# 1 223.2179 38.0146 130.0934 0.0000 -0.3744 0.0000
# 2 38.0146 21.4899 28.1177 0.0000 -0.3654 0.0000
# 3 130.0934 28.1177 129.7584 0.0000 -0.5852 0.0000
# 4 0.0000 0.0000 0.0000 21.8989 0.0000 4.2406
# 5 -0.3744 -0.3654 -0.5852 0.0000 42.6958 0.0000
# 6 0.0000 0.0000 0.0000 4.2406 0.0000 32.4336
#
#
#
# Elastic Compliance Matrix: (Units=1/GPa)
#
#
# Indices 1 2 3 4 5 6 
#
# 1 0.011558 -0.007377 -0.009990 0.000000 -0.000099 0.000000
# 2 -0.007377 0.069661 -0.007697 0.000000 0.000426 0.000000
# 3 -0.009990 -0.007697 0.019391 0.000000 0.000112 0.000000
# 4 0.000000 0.000000 0.000000 0.046851 0.000000 -0.006126
# 5 -0.000099 0.000426 0.000112 0.000000 0.023426 0.000000
# 6 0.000000 0.000000 0.000000 -0.006126 0.000000 0.031633
#
#
# Mechanical properties :
#
#
# Convention : Reuss Voigt Hill
#
# Bulk Modulus (GPa) = 19.80904 85.21309 52.51106
# Shear Modulus (GPa) = 18.55451 31.28837 24.92144
#
# Velocity S-wave (km/s) = 3.18293 4.13327 3.68884
# Velocity P-wave (km/s) = 4.93195 8.32504 6.84217
#
# Compressibility (1/GPa) = 0.05048201
#
# Stress axis : x y z
#
# Youngs Moduli (GPa) = 86.51689 14.35521 51.56978
#
# Poissons Ratio (x) = 0.10589 0.51520
# Poissons Ratio (y) = 0.63820 0.39696
# Poissons Ratio (z) = 0.86433 0.11050
#
# Static dielectric constant tensor:
#      x y z
#    x 1.620510 0.000000 -0.008640 
#    y 0.000000 1.626320 0.000000 
#    z -0.008640 0.000000 1.609070 
# 
# From -- ./inp_files/108627.got.cif
#   From: 2010.05.17/outbox.cif.g08.bks.cpg/sg12_55_cif.got.tgz:108627.got - 2010.06.03 13:09:07.
