data_PCOD9185127
_publ_section_title
;
Structure prediction by ZEFSAII (Michael W. Deem and Ramdas Pophale) SiO2 
 PCOD9185127
Probable space group: C 2/M
;
_chemical_formula_sum "Si O2"
_cell_formula_units_Z 56
_cell_length_a 8.671738
_cell_length_b 19.627719
_cell_length_c 20.242494
_cell_angle_alpha 90.000000
_cell_angle_beta 115.365673
_cell_angle_gamma 90.000000
_cell_volume 3113.238776
_symmetry_space_group_name_H-M "C 2/M"
_symmetry_group_IT_number 12
_symmetry_cell_setting 'monoclinic'
loop_
_space_group_symop_operation_xyz
x,y,z
-x,y,-z
-x,-y,-z
x,-y,z
1/2+x,1/2+y,z
1/2-x,1/2+y,-z
1/2-x,1/2-y,-z
1/2+x,1/2-y,z
loop_
_atom_site_type_symbol
_atom_site_label
_atom_site_fract_x
_atom_site_fract_y
_atom_site_fract_z
Si Si1 0.608712 0.824881 0.791850
Si Si2 0.187895 0.921793 0.500000
Si Si3 0.601635 0.080439 0.916740
Si Si4 0.731847 0.419561 0.916738
Si Si5 0.974990 0.175121 0.791849
Si Si6 0.681017 0.825614 0.366502
Si Si7 0.051983 0.825611 0.366503
O O1 0.624665 0.875816 0.855786
O O2 0.558323 0.750001 0.808323
O O3 0.459325 0.845698 0.713638
O O4 0.784804 0.820540 0.784803
O O5 0.306004 0.879218 0.571646
O O6 0.000000 0.923262 0.500000
O O7 0.162712 0.879214 0.428355
O O8 0.241443 0.000000 0.499998
O O9 0.409763 0.089596 0.909762
O O10 0.624522 0.000000 0.907978
O O11 0.727989 0.099692 0.000001
O O12 0.691435 0.500000 0.907976
O O13 0.586911 0.375815 0.855784
O O14 0.967951 0.154304 0.713636
O O15 0.865210 0.822114 0.365213
O O16 0.632557 0.750002 0.382561
#
# Coordination Sequence:
#
# PCOD9185127 Si02
#       7
#     8   8   8   8   8   8   8
#     4  11  22  36  55  80 110 142 180 223 267 316
#     4   9  19  34  53  79 106 135 174 216 260 313
#     4   9  19  37  59  81 107 141 179 218 265 321
#     4   9  19  37  59  81 107 141 179 218 265 321
#     4  11  22  36  55  80 110 142 180 223 267 316
#     4  10  19  34  56  78 104 138 176 218 264 316
#     4  10  19  34  56  78 104 138 176 218 264 316
#
# _framework density 17.987698000000002
#
# number of rings (size 3 to 8) (size 9 to 14) (size 15 to 20)
#    0.000    2.143    0.000    6.429    0.000    2.857 
#    0.000    6.429    0.000    6.000    0.000    0.000 
#    0.000    0.000    0.000    0.000    0.000    0.000 
#
# Total GULP energy -156338.192289 kJ/mol
# GULP energy per Si atom -5583.506867 kJ/mol
# Density = 1.794676 g / cm^3
# Si number density = 17.987698 Si / 1000 Ang^3
#
#
#
# Elastic Constant Matrix: (Units=GPa)
#
#
# Indices 1 2 3 4 5 6 
#
# 1 83.1921 49.5285 62.6199 0.0000 -0.0008 0.0000
# 2 49.5285 97.4164 109.2447 0.0000 -0.0011 0.0000
# 3 62.6199 109.2447 156.0635 0.0000 -0.0005 0.0000
# 4 0.0000 0.0000 0.0000 55.0576 0.0000 -0.0009
# 5 -0.0008 -0.0011 -0.0005 0.0000 26.5052 0.0000
# 6 0.0000 0.0000 0.0000 -0.0009 0.0000 28.8155
#
#
#
# Elastic Compliance Matrix: (Units=1/GPa)
#
#
# Indices 1 2 3 4 5 6 
#
# 1 0.017693 -0.004811 -0.003732 0.000000 0.000000 0.000000
# 2 -0.004811 0.049052 -0.032406 0.000000 0.000001 0.000000
# 3 -0.003732 -0.032406 0.030590 0.000000 -0.000001 0.000000
# 4 0.000000 0.000000 0.000000 0.018163 0.000000 0.000001
# 5 0.000000 0.000001 -0.000001 0.000000 0.037728 0.000000
# 6 0.000000 0.000000 0.000000 0.000001 0.000000 0.034704
#
#
# Mechanical properties :
#
#
# Convention : Reuss Voigt Hill
#
# Bulk Modulus (GPa) = 64.77799 86.60647 75.69223
# Shear Modulus (GPa) = 18.18357 29.76093 23.97225
#
# Velocity S-wave (km/s) = 3.18290 4.07199 3.65458
# Velocity P-wave (km/s) = 7.04261 8.38810 7.74463
#
# Compressibility (1/GPa) = 0.01543734
#
# Stress axis : x y z
#
# Youngs Moduli (GPa) = 56.51795 20.38650 32.69086
#
# Poissons Ratio (x) = 0.09807 0.12200
# Poissons Ratio (y) = 0.27188 1.05939
# Poissons Ratio (z) = 0.21093 0.66065
#
# Static dielectric constant tensor:
#      x y z
#    x 1.608750 0.000000 0.000000 
#    y 0.000000 1.591340 0.000000 
#    z 0.000000 0.000000 1.603370 
# 
# From -- ./inp_files/258221.got.cif
#   From: 2010.05.17/outbox.cif.g08.bks.cpg/sg12_130_cif.got.tgz:258221.got - 2010.06.03 13:09:07.
