data_PCOD9185166
_publ_section_title
;
Structure prediction by ZEFSAII (Michael W. Deem and Ramdas Pophale) SiO2 
 PCOD9185166
Probable space group: C 2/M
;
_chemical_formula_sum "Si O2"
_cell_formula_units_Z 44
_cell_length_a 29.472408
_cell_length_b 16.516519
_cell_length_c 6.984832
_cell_angle_alpha 90.000000
_cell_angle_beta 131.997208
_cell_angle_gamma 90.000000
_cell_volume 2526.868371
_symmetry_space_group_name_H-M "C 2/M"
_symmetry_group_IT_number 12
_symmetry_cell_setting 'monoclinic'
loop_
_space_group_symop_operation_xyz
x,y,z
-x,y,-z
-x,-y,-z
x,-y,z
1/2+x,1/2+y,z
1/2-x,1/2+y,-z
1/2-x,1/2-y,-z
1/2+x,1/2-y,z
loop_
_atom_site_type_symbol
_atom_site_label
_atom_site_fract_x
_atom_site_fract_y
_atom_site_fract_z
Si Si1 0.630471 0.296340 0.879538
Si Si2 0.500000 0.229754 0.500000
Si Si3 0.338959 0.847908 0.308519
Si Si4 0.708402 0.593045 0.828822
Si Si5 0.475952 0.909086 0.716890
Si Si6 0.689580 0.722002 0.441909
O O1 0.559030 0.284838 0.640775
O O2 0.658814 0.215381 0.862377
O O3 0.662886 0.368920 0.858201
O O4 0.643223 0.299214 0.140878
O O5 0.493625 0.165732 0.308529
O O6 0.402825 0.895339 0.495388
O O7 0.332830 0.794407 0.483622
O O8 0.277305 0.898006 0.104145
O O9 0.694781 0.500000 0.751875
O O10 0.702066 0.647538 0.620277
O O11 0.490475 0.000000 0.687143
O O12 0.500000 0.905368 0.000000
O O13 0.750000 0.750000 0.500000
#
# Coordination Sequence:
#
# PCOD9185166 Si02
#       6
#     8   4   8   8   8   8
#     4  10  20  37  57  79 106 141 181 221 258 318
#     4  10  21  36  59  76  98 146 190 212 257 320
#     4  10  19  34  56  79 109 145 176 214 264 322
#     4  11  22  35  53  83 113 137 172 228 281 314
#     4  10  20  34  51  79 114 142 173 217 262 312
#     4  11  18  35  58  79 106 142 183 216 259 324
#
# _framework density 17.412859000000001
#
# number of rings (size 3 to 8) (size 9 to 14) (size 15 to 20)
#    0.000    1.636    3.636    3.000    0.000    0.727 
#    0.000    0.455    0.000    1.091    0.000    0.000 
#    0.000    0.000    0.000    0.000    0.000    0.000 
#
# Total GULP energy -122712.414640 kJ/mol
# GULP energy per Si atom -5577.837029 kJ/mol
# Density = 1.737323 g / cm^3
# Si number density = 17.412859 Si / 1000 Ang^3
#
#
#
# Elastic Constant Matrix: (Units=GPa)
#
#
# Indices 1 2 3 4 5 6 
#
# 1 55.6601 11.0001 11.8845 0.0000 -2.1334 0.0000
# 2 11.0001 62.7472 23.4915 0.0000 -1.0225 0.0000
# 3 11.8845 23.4915 75.5324 0.0000 -27.2962 0.0000
# 4 0.0000 0.0000 0.0000 -5.9570 0.0000 -18.9844
# 5 -2.1334 -1.0225 -27.2962 0.0000 30.7282 0.0000
# 6 0.0000 0.0000 0.0000 -18.9844 0.0000 -3.8538
#
#
#
# Elastic Compliance Matrix: (Units=1/GPa)
#
#
# Indices 1 2 3 4 5 6 
#
# 1 0.018954 -0.002346 -0.002659 0.000000 -0.001124 0.000000
# 2 -0.002346 0.019241 -0.008016 0.000000 -0.006643 0.000000
# 3 -0.002659 -0.008016 0.023547 0.000000 0.020465 0.000000
# 4 0.000000 0.000000 0.000000 0.011420 0.000000 -0.056258
# 5 -0.001124 -0.006643 0.020465 0.000000 0.050424 0.000000
# 6 0.000000 0.000000 0.000000 -0.056258 0.000000 0.017653
#
#
# Mechanical properties :
#
#
# Convention : Reuss Voigt Hill
#
# Bulk Modulus (GPa) = 28.01053 31.85465 29.93259
# Shear Modulus (GPa) = 27.90474 14.02105 20.96289
#
# Velocity S-wave (km/s) = 4.00751 2.84070 3.47345
# Velocity P-wave (km/s) = 6.12655 5.39379 5.77181
#
# Compressibility (1/GPa) = 0.03570086
#
# Stress axis : x y z
#
# Youngs Moduli (GPa) = 52.75811 51.97252 42.46884
#
# Poissons Ratio (x) = 0.12191 0.11293
# Poissons Ratio (y) = 0.12375 0.34042
# Poissons Ratio (z) = 0.14029 0.41660
#
# Static dielectric constant tensor:
#      x y z
#    x 1.612660 0.000000 -0.000360 
#    y 0.000000 1.568470 0.000000 
#    z -0.000360 0.000000 1.598950 
# 
# From -- ./inp_files/24329.got.cif
#   From: 2010.05.17/outbox.cif.g08.bks.cpg/sg12_13_cif.got.tgz:24329.got - 2010.06.03 13:09:07.
