data_PCOD9185375
_publ_section_title
;
Structure prediction by ZEFSAII (Michael W. Deem and Ramdas Pophale) SiO2 
 PCOD9185375
Probable space group: C 2/M
;
_chemical_formula_sum "Si O2"
_cell_formula_units_Z 56
_cell_length_a 9.282782
_cell_length_b 18.336475
_cell_length_c 19.008876
_cell_angle_alpha 90.000000
_cell_angle_beta 110.790624
_cell_angle_gamma 90.000000
_cell_volume 3024.879385
_symmetry_space_group_name_H-M "C 2/M"
_symmetry_group_IT_number 12
_symmetry_cell_setting 'monoclinic'
loop_
_space_group_symop_operation_xyz
x,y,z
-x,y,-z
-x,-y,-z
x,-y,z
1/2+x,1/2+y,z
1/2-x,1/2+y,-z
1/2-x,1/2-y,-z
1/2+x,1/2-y,z
loop_
_atom_site_type_symbol
_atom_site_label
_atom_site_fract_x
_atom_site_fract_y
_atom_site_fract_z
Si Si1 0.021420 0.660236 0.272431
Si Si2 0.673740 0.284622 0.054406
Si Si3 0.539806 0.586769 0.259023
Si Si4 0.213879 0.209462 0.785583
Si Si5 0.743973 0.917431 0.839484
Si Si6 0.265939 0.325967 0.417555
Si Si7 0.391219 0.332408 0.588242
O O1 0.146827 0.695450 0.242617
O O2 0.124765 0.633611 0.355187
O O3 0.896362 0.725069 0.261518
O O4 0.926692 0.596397 0.219586
O O5 0.712943 0.233746 0.127890
O O6 0.730690 0.362670 0.092009
O O7 0.500000 0.291639 0.000000
O O8 0.750000 0.250000 0.000000
O O9 0.510563 0.500000 0.259660
O O10 0.388939 0.637066 0.224964
O O11 0.643659 0.599217 0.207484
O O12 0.617378 0.616612 0.344685
O O13 0.769839 0.000000 0.865129
O O14 0.308255 0.356736 0.501615
O O15 0.427101 0.324359 0.401971
O O16 0.193887 0.244360 0.410673
#
# Coordination Sequence:
#
# PCOD9185375 Si02
#       7
#     8   8   8   8   8   8   8
#     4  11  19  35  61  86 116 155 199 249 291 341
#     4  11  22  39  63  91 116 146 187 241 294 353
#     4  11  22  39  58  83 122 163 201 243 291 350
#     4  11  21  36  61  88 116 148 198 242 294 352
#     4  10  24  41  61  88 120 157 196 238 291 355
#     4  10  19  34  56  86 118 150 198 256 298 335
#     4  10  21  34  54  89 116 153 201 248 304 342
#
# _framework density 18.513134999999998
#
# number of rings (size 3 to 8) (size 9 to 14) (size 15 to 20)
#    0.000    1.429    2.857    4.286    2.000    0.857 
#    0.000    2.857    0.000    3.429    0.000    0.000 
#    0.000    0.000    0.000    0.000    0.000    0.000 
#
# Total GULP energy -156169.709035 kJ/mol
# GULP energy per Si atom -5577.489608 kJ/mol
# Density = 1.847100 g / cm^3
# Si number density = 18.513135 Si / 1000 Ang^3
#
#
#
# Elastic Constant Matrix: (Units=GPa)
#
#
# Indices 1 2 3 4 5 6 
#
# 1 56.4958 19.4089 16.2926 0.0000 9.5254 0.0000
# 2 19.4089 86.9722 35.9549 0.0000 -0.9293 0.0000
# 3 16.2926 35.9549 130.5916 0.0000 18.0298 0.0000
# 4 0.0000 0.0000 0.0000 21.6493 0.0000 -4.8364
# 5 9.5254 -0.9293 18.0298 0.0000 36.2951 0.0000
# 6 0.0000 0.0000 0.0000 -4.8364 0.0000 21.1294
#
#
#
# Elastic Compliance Matrix: (Units=1/GPa)
#
#
# Indices 1 2 3 4 5 6 
#
# 1 0.020223 -0.004306 -0.000633 0.000000 -0.005103 0.000000
# 2 -0.004306 0.014067 -0.003802 0.000000 0.003379 0.000000
# 3 -0.000633 -0.003802 0.009420 0.000000 -0.004611 0.000000
# 4 0.000000 0.000000 0.000000 0.048680 0.000000 0.011143
# 5 -0.005103 0.003379 -0.004611 0.000000 0.031268 0.000000
# 6 0.000000 0.000000 0.000000 0.011143 0.000000 0.049878
#
#
# Mechanical properties :
#
#
# Convention : Reuss Voigt Hill
#
# Bulk Modulus (GPa) = 38.12821 46.37471 42.25146
# Shear Modulus (GPa) = 25.03006 29.30829 27.16918
#
# Velocity S-wave (km/s) = 3.68097 3.98315 3.83503
# Velocity P-wave (km/s) = 6.22141 6.80132 6.51782
#
# Compressibility (1/GPa) = 0.02622730
#
# Stress axis : x y z
#
# Youngs Moduli (GPa) = 49.44967 71.08945 106.15916
#
# Poissons Ratio (x) = 0.30609 0.06719
# Poissons Ratio (y) = 0.21292 0.40364
# Poissons Ratio (z) = 0.03130 0.27030
#
# Static dielectric constant tensor:
#      x y z
#    x 1.631070 0.000000 -0.004280 
#    y 0.000000 1.609690 0.000000 
#    z -0.004280 0.000000 1.698340 
# 
# From -- ./inp_files/257159.got.cif
#   From: 2010.05.17/outbox.cif.g08.bks.cpg/sg12_129_cif.got.tgz:257159.got - 2010.06.03 13:09:07.
